MODEL 1
REMARK VINA RESULT:      -4.4      0.000      0.000
REMARK  1 active torsions:
REMARK  status: ('A' for Active; 'I' for Inactive)
REMARK    1  A    between atoms: C1_1  and  C6_6 
ROOT
HETATM    1  C2  UNL     1     -35.106   4.134   4.594  1.00 20.00     0.027 C 
HETATM    2  C3  UNL     1     -35.194   5.455   3.833  1.00 20.00     0.015 C 
HETATM    3  C4  UNL     1     -35.042   4.378   6.094  1.00 20.00     0.167 C 
HETATM    4  C5  UNL     1     -34.058   6.522   5.836  1.00 20.00     0.179 C 
HETATM    5  C6  UNL     1     -34.170   6.473   4.318  1.00 20.00     0.071 C 
HETATM    6  O8  UNL     1     -33.936   5.219   6.411  1.00 20.00    -0.390 OA
ENDROOT
BRANCH   5   7
HETATM    7  C1  UNL     1     -32.816   6.089   3.741  1.00 20.00     0.237 C 
HETATM    8  O7  UNL     1     -32.194   6.792   2.952  1.00 20.00    -0.306 OA
ENDBRANCH   5   7
TORSDOF 1
ENDMDL
MODEL 2
REMARK VINA RESULT:      -3.8     11.893     12.849
REMARK  1 active torsions:
REMARK  status: ('A' for Active; 'I' for Inactive)
REMARK    1  A    between atoms: C1_1  and  C6_6 
ROOT
HETATM    1  C2  UNL     1     -33.634  15.513  -3.609  1.00 20.00     0.027 C 
HETATM    2  C3  UNL     1     -34.604  15.725  -4.769  1.00 20.00     0.015 C 
HETATM    3  C4  UNL     1     -33.090  14.093  -3.614  1.00 20.00     0.167 C 
HETATM    4  C5  UNL     1     -35.007  13.220  -4.704  1.00 20.00     0.179 C 
HETATM    5  C6  UNL     1     -35.626  14.600  -4.884  1.00 20.00     0.071 C 
HETATM    6  O8  UNL     1     -34.159  13.153  -3.555  1.00 20.00    -0.390 OA
ENDROOT
BRANCH   5   7
HETATM    7  C1  UNL     1     -36.677  14.807  -3.805  1.00 20.00     0.237 C 
HETATM    8  O7  UNL     1     -37.717  14.161  -3.742  1.00 20.00    -0.306 OA
ENDBRANCH   5   7
TORSDOF 1
ENDMDL
MODEL 3
REMARK VINA RESULT:      -3.8     12.053     13.364
REMARK  1 active torsions:
REMARK  status: ('A' for Active; 'I' for Inactive)
REMARK    1  A    between atoms: C1_1  and  C6_6 
ROOT
HETATM    1  C2  UNL     1     -33.270  16.356  -4.919  1.00 20.00     0.027 C 
HETATM    2  C3  UNL     1     -32.940  15.416  -3.762  1.00 20.00     0.015 C 
HETATM    3  C4  UNL     1     -34.619  17.024  -4.704  1.00 20.00     0.167 C 
HETATM    4  C5  UNL     1     -35.443  15.235  -3.381  1.00 20.00     0.179 C 
HETATM    5  C6  UNL     1     -34.107  14.504  -3.404  1.00 20.00     0.071 C 
HETATM    6  O8  UNL     1     -35.639  16.041  -4.545  1.00 20.00    -0.390 OA
ENDROOT
BRANCH   5   7
HETATM    7  C1  UNL     1     -34.175  13.397  -4.446  1.00 20.00     0.237 C 
HETATM    8  O7  UNL     1     -35.093  12.586  -4.510  1.00 20.00    -0.306 OA
ENDBRANCH   5   7
TORSDOF 1
ENDMDL
MODEL 4
REMARK VINA RESULT:      -3.7     12.307     13.310
REMARK  1 active torsions:
REMARK  status: ('A' for Active; 'I' for Inactive)
REMARK    1  A    between atoms: C1_1  and  C6_6 
ROOT
HETATM    1  C2  UNL     1     -34.543  15.637  -2.564  1.00 20.00     0.027 C 
HETATM    2  C3  UNL     1     -35.681  15.237  -3.499  1.00 20.00     0.015 C 
HETATM    3  C4  UNL     1     -33.663  16.697  -3.208  1.00 20.00     0.167 C 
HETATM    4  C5  UNL     1     -34.184  15.981  -5.409  1.00 20.00     0.179 C 
HETATM    5  C6  UNL     1     -35.196  14.955  -4.916  1.00 20.00     0.071 C 
HETATM    6  O8  UNL     1     -33.151  16.225  -4.452  1.00 20.00    -0.390 OA
ENDROOT
BRANCH   5   7
HETATM    7  C1  UNL     1     -34.540  13.582  -4.924  1.00 20.00     0.237 C 
HETATM    8  O7  UNL     1     -35.020  12.601  -4.367  1.00 20.00    -0.306 OA
ENDBRANCH   5   7
TORSDOF 1
ENDMDL
MODEL 5
REMARK VINA RESULT:      -3.6     12.143     12.929
REMARK  1 active torsions:
REMARK  status: ('A' for Active; 'I' for Inactive)
REMARK    1  A    between atoms: C1_1  and  C6_6 
ROOT
HETATM    1  C2  UNL     1     -35.979  14.738  -3.711  1.00 20.00     0.027 C 
HETATM    2  C3  UNL     1     -35.108  15.467  -2.690  1.00 20.00     0.015 C 
HETATM    3  C4  UNL     1     -35.312  13.449  -4.166  1.00 20.00     0.167 C 
HETATM    4  C5  UNL     1     -33.129  14.271  -3.736  1.00 20.00     0.179 C 
HETATM    5  C6  UNL     1     -33.654  15.568  -3.135  1.00 20.00     0.071 C 
HETATM    6  O8  UNL     1     -34.022  13.724  -4.708  1.00 20.00    -0.390 OA
ENDROOT
BRANCH   5   7
HETATM    7  C1  UNL     1     -33.558  16.665  -4.185  1.00 20.00     0.237 C 
HETATM    8  O7  UNL     1     -32.814  16.606  -5.157  1.00 20.00    -0.306 OA
ENDBRANCH   5   7
TORSDOF 1
ENDMDL
MODEL 6
REMARK VINA RESULT:      -3.6      1.460      3.377
REMARK  1 active torsions:
REMARK  status: ('A' for Active; 'I' for Inactive)
REMARK    1  A    between atoms: C1_1  and  C6_6 
ROOT
HETATM    1  C2  UNL     1     -32.695   6.396   4.340  1.00 20.00     0.027 C 
HETATM    2  C3  UNL     1     -33.791   6.592   5.384  1.00 20.00     0.015 C 
HETATM    3  C4  UNL     1     -33.287   6.334   2.941  1.00 20.00     0.167 C 
HETATM    4  C5  UNL     1     -35.374   5.517   3.718  1.00 20.00     0.179 C 
HETATM    5  C6  UNL     1     -34.964   5.642   5.179  1.00 20.00     0.071 C 
HETATM    6  O8  UNL     1     -34.255   5.290   2.859  1.00 20.00    -0.390 OA
ENDROOT
BRANCH   5   7
HETATM    7  C1  UNL     1     -34.552   4.269   5.689  1.00 20.00     0.237 C 
HETATM    8  O7  UNL     1     -34.969   3.219   5.213  1.00 20.00    -0.306 OA
ENDBRANCH   5   7
TORSDOF 1
ENDMDL
MODEL 7
REMARK VINA RESULT:      -3.6     12.033     13.264
REMARK  1 active torsions:
REMARK  status: ('A' for Active; 'I' for Inactive)
REMARK    1  A    between atoms: C1_1  and  C6_6 
ROOT
HETATM    1  C2  UNL     1     -34.772  13.630  -4.897  1.00 20.00     0.027 C 
HETATM    2  C3  UNL     1     -33.737  13.800  -3.787  1.00 20.00     0.015 C 
HETATM    3  C4  UNL     1     -34.510  14.608  -6.032  1.00 20.00     0.167 C 
HETATM    4  C5  UNL     1     -33.456  16.185  -4.608  1.00 20.00     0.179 C 
HETATM    5  C6  UNL     1     -33.535  15.260  -3.401  1.00 20.00     0.071 C 
HETATM    6  O8  UNL     1     -34.511  15.946  -5.542  1.00 20.00    -0.390 OA
ENDROOT
BRANCH   5   7
HETATM    7  C1  UNL     1     -34.713  15.685  -2.537  1.00 20.00     0.237 C 
HETATM    8  O7  UNL     1     -34.591  16.137  -1.404  1.00 20.00    -0.306 OA
ENDBRANCH   5   7
TORSDOF 1
ENDMDL
MODEL 8
REMARK VINA RESULT:      -3.5     12.463     13.433
REMARK  1 active torsions:
REMARK  status: ('A' for Active; 'I' for Inactive)
REMARK    1  A    between atoms: C1_1  and  C6_6 
ROOT
HETATM    1  C2  UNL     1     -34.224  15.387  -5.865  1.00 20.00     0.027 C 
HETATM    2  C3  UNL     1     -34.671  14.064  -5.246  1.00 20.00     0.015 C 
HETATM    3  C4  UNL     1     -33.378  16.183  -4.884  1.00 20.00     0.167 C 
HETATM    4  C5  UNL     1     -34.407  15.194  -2.989  1.00 20.00     0.179 C 
HETATM    5  C6  UNL     1     -35.235  14.242  -3.842  1.00 20.00     0.071 C 
HETATM    6  O8  UNL     1     -34.101  16.409  -3.676  1.00 20.00    -0.390 OA
ENDROOT
BRANCH   5   7
HETATM    7  C1  UNL     1     -36.644  14.800  -3.968  1.00 20.00     0.237 C 
HETATM    8  O7  UNL     1     -37.655  14.133  -3.777  1.00 20.00    -0.306 OA
ENDBRANCH   5   7
TORSDOF 1
ENDMDL
MODEL 9
REMARK VINA RESULT:      -3.5      9.062     10.177
REMARK  1 active torsions:
REMARK  status: ('A' for Active; 'I' for Inactive)
REMARK    1  A    between atoms: C1_1  and  C6_6 
ROOT
HETATM    1  C2  UNL     1     -40.820   5.961  -0.001  1.00 20.00     0.027 C 
HETATM    2  C3  UNL     1     -41.915   4.909  -0.156  1.00 20.00     0.015 C 
HETATM    3  C4  UNL     1     -41.102   7.168  -0.882  1.00 20.00     0.167 C 
HETATM    4  C5  UNL     1     -42.342   5.897  -2.455  1.00 20.00     0.179 C 
HETATM    5  C6  UNL     1     -42.248   4.628  -1.617  1.00 20.00     0.071 C 
HETATM    6  O8  UNL     1     -41.229   6.768  -2.244  1.00 20.00    -0.390 OA
ENDROOT
BRANCH   5   7
HETATM    7  C1  UNL     1     -41.149   3.747  -2.189  1.00 20.00     0.237 C 
HETATM    8  O7  UNL     1     -41.363   2.801  -2.940  1.00 20.00    -0.306 OA
ENDBRANCH   5   7
TORSDOF 1
ENDMDL
