MODEL 1
REMARK VINA RESULT:      -3.7      0.000      0.000
REMARK  3 active torsions:
REMARK  status: ('A' for Active; 'I' for Inactive)
REMARK    1  A    between atoms: C5_5  and  C6_6 
REMARK    2  A    between atoms: C5_5  and  C7_7 
REMARK    3  A    between atoms: C7_7  and  O8_8 
ROOT
HETATM    1  C2  UNL     1     -36.334  15.172  -5.529  1.00 20.00     0.045 C 
HETATM    2  C3  UNL     1     -35.190  13.449  -4.111  1.00 20.00     0.045 C 
HETATM    3  C7  UNL     1     -36.255  14.548  -4.129  1.00 20.00     0.054 C 
ENDROOT
BRANCH   3   4
HETATM    4  C5  UNL     1     -35.979  15.662  -3.091  1.00 20.00     0.057 C 
BRANCH   4   5
HETATM    5  C6  UNL     1     -34.557  15.750  -2.505  1.00 20.00     0.081 C 
HETATM    6  C1  UNL     1     -34.568  16.501  -1.175  1.00 20.00     0.026 C 
HETATM    7 CL9  UNL     1     -33.424  16.580  -3.611  1.00 20.00    -0.125 Cl
ENDBRANCH   4   5
ENDBRANCH   3   4
BRANCH   3   8
HETATM    8  O8  UNL     1     -37.524  13.955  -3.859  1.00 20.00    -0.386 OA
HETATM    9  C4  UNL     1     -38.554  14.931  -3.835  1.00 20.00     0.202 C 
ENDBRANCH   3   8
TORSDOF 3
ENDMDL
MODEL 2
REMARK VINA RESULT:      -3.7      2.143      2.474
REMARK  3 active torsions:
REMARK  status: ('A' for Active; 'I' for Inactive)
REMARK    1  A    between atoms: C5_5  and  C6_6 
REMARK    2  A    between atoms: C5_5  and  C7_7 
REMARK    3  A    between atoms: C7_7  and  O8_8 
ROOT
HETATM    1  C2  UNL     1     -34.555  15.435  -4.974  1.00 20.00     0.045 C 
HETATM    2  C3  UNL     1     -32.554  14.954  -3.540  1.00 20.00     0.045 C 
HETATM    3  C7  UNL     1     -34.079  14.857  -3.634  1.00 20.00     0.054 C 
ENDROOT
BRANCH   3   4
HETATM    4  C5  UNL     1     -34.796  15.595  -2.479  1.00 20.00     0.057 C 
BRANCH   4   5
HETATM    5  C6  UNL     1     -33.998  16.676  -1.724  1.00 20.00     0.081 C 
HETATM    6  C1  UNL     1     -34.649  16.983  -0.377  1.00 20.00     0.026 C 
HETATM    7 CL9  UNL     1     -33.882  18.197  -2.654  1.00 20.00    -0.125 Cl
ENDBRANCH   4   5
ENDBRANCH   3   4
BRANCH   3   8
HETATM    8  O8  UNL     1     -34.448  13.478  -3.615  1.00 20.00    -0.386 OA
HETATM    9  C4  UNL     1     -34.785  13.016  -4.913  1.00 20.00     0.202 C 
ENDBRANCH   3   8
TORSDOF 3
ENDMDL
MODEL 3
REMARK VINA RESULT:      -3.6      2.112      2.611
REMARK  3 active torsions:
REMARK  status: ('A' for Active; 'I' for Inactive)
REMARK    1  A    between atoms: C5_5  and  C6_6 
REMARK    2  A    between atoms: C5_5  and  C7_7 
REMARK    3  A    between atoms: C7_7  and  O8_8 
ROOT
HETATM    1  C2  UNL     1     -32.860  14.115  -3.571  1.00 20.00     0.045 C 
HETATM    2  C3  UNL     1     -35.081  13.247  -4.347  1.00 20.00     0.045 C 
HETATM    3  C7  UNL     1     -34.257  14.507  -4.069  1.00 20.00     0.054 C 
ENDROOT
BRANCH   3   4
HETATM    4  C5  UNL     1     -34.926  15.438  -3.030  1.00 20.00     0.057 C 
BRANCH   4   5
HETATM    5  C6  UNL     1     -34.005  16.357  -2.204  1.00 20.00     0.081 C 
HETATM    6  C1  UNL     1     -34.615  16.639  -0.833  1.00 20.00     0.026 C 
HETATM    7 CL9  UNL     1     -33.707  17.918  -3.021  1.00 20.00    -0.125 Cl
ENDBRANCH   4   5
ENDBRANCH   3   4
BRANCH   3   8
HETATM    8  O8  UNL     1     -34.084  15.216  -5.296  1.00 20.00    -0.386 OA
HETATM    9  C4  UNL     1     -34.810  14.606  -6.351  1.00 20.00     0.202 C 
ENDBRANCH   3   8
TORSDOF 3
ENDMDL
MODEL 4
REMARK VINA RESULT:      -3.4     11.282     12.167
REMARK  3 active torsions:
REMARK  status: ('A' for Active; 'I' for Inactive)
REMARK    1  A    between atoms: C5_5  and  C6_6 
REMARK    2  A    between atoms: C5_5  and  C7_7 
REMARK    3  A    between atoms: C7_7  and  O8_8 
ROOT
HETATM    1  C2  UNL     1     -31.287   7.624   4.066  1.00 20.00     0.045 C 
HETATM    2  C3  UNL     1     -32.036   5.522   2.922  1.00 20.00     0.045 C 
HETATM    3  C7  UNL     1     -32.494   6.863   3.502  1.00 20.00     0.054 C 
ENDROOT
BRANCH   3   4
HETATM    4  C5  UNL     1     -33.557   6.699   4.614  1.00 20.00     0.057 C 
BRANCH   4   5
HETATM    5  C6  UNL     1     -34.346   5.376   4.653  1.00 20.00     0.081 C 
HETATM    6  C1  UNL     1     -35.587   5.463   3.767  1.00 20.00     0.026 C 
HETATM    7 CL9  UNL     1     -34.865   4.952   6.310  1.00 20.00    -0.125 Cl
ENDBRANCH   4   5
ENDBRANCH   3   4
BRANCH   3   8
HETATM    8  O8  UNL     1     -33.035   7.654   2.444  1.00 20.00    -0.386 OA
HETATM    9  C4  UNL     1     -32.019   8.387   1.778  1.00 20.00     0.202 C 
ENDBRANCH   3   8
TORSDOF 3
ENDMDL
MODEL 5
REMARK VINA RESULT:      -3.4      2.442      3.483
REMARK  3 active torsions:
REMARK  status: ('A' for Active; 'I' for Inactive)
REMARK    1  A    between atoms: C5_5  and  C6_6 
REMARK    2  A    between atoms: C5_5  and  C7_7 
REMARK    3  A    between atoms: C7_7  and  O8_8 
ROOT
HETATM    1  C2  UNL     1     -33.005  15.009  -3.560  1.00 20.00     0.045 C 
HETATM    2  C3  UNL     1     -34.518  16.097  -1.883  1.00 20.00     0.045 C 
HETATM    3  C7  UNL     1     -34.413  15.567  -3.315  1.00 20.00     0.054 C 
ENDROOT
BRANCH   3   4
HETATM    4  C5  UNL     1     -34.722  16.650  -4.376  1.00 20.00     0.057 C 
BRANCH   4   5
HETATM    5  C6  UNL     1     -33.719  16.817  -5.533  1.00 20.00     0.081 C 
HETATM    6  C1  UNL     1     -33.663  18.273  -5.992  1.00 20.00     0.026 C 
HETATM    7 CL9  UNL     1     -34.142  15.799  -6.940  1.00 20.00    -0.125 Cl
ENDBRANCH   4   5
ENDBRANCH   3   4
BRANCH   3   8
HETATM    8  O8  UNL     1     -35.329  14.483  -3.466  1.00 20.00    -0.386 OA
HETATM    9  C4  UNL     1     -34.754  13.423  -4.214  1.00 20.00     0.202 C 
ENDBRANCH   3   8
TORSDOF 3
ENDMDL
MODEL 6
REMARK VINA RESULT:      -3.4      1.775      2.205
REMARK  3 active torsions:
REMARK  status: ('A' for Active; 'I' for Inactive)
REMARK    1  A    between atoms: C5_5  and  C6_6 
REMARK    2  A    between atoms: C5_5  and  C7_7 
REMARK    3  A    between atoms: C7_7  and  O8_8 
ROOT
HETATM    1  C2  UNL     1     -33.229  16.121  -4.406  1.00 20.00     0.045 C 
HETATM    2  C3  UNL     1     -33.489  13.689  -3.852  1.00 20.00     0.045 C 
HETATM    3  C7  UNL     1     -34.195  15.046  -3.890  1.00 20.00     0.054 C 
ENDROOT
BRANCH   3   4
HETATM    4  C5  UNL     1     -34.738  15.474  -2.505  1.00 20.00     0.057 C 
BRANCH   4   5
HETATM    5  C6  UNL     1     -34.490  16.929  -2.063  1.00 20.00     0.081 C 
HETATM    6  C1  UNL     1     -34.447  17.029  -0.540  1.00 20.00     0.026 C 
HETATM    7 CL9  UNL     1     -35.755  18.039  -2.665  1.00 20.00    -0.125 Cl
ENDBRANCH   4   5
ENDBRANCH   3   4
BRANCH   3   8
HETATM    8  O8  UNL     1     -35.277  14.970  -4.818  1.00 20.00    -0.386 OA
HETATM    9  C4  UNL     1     -36.455  14.482  -4.196  1.00 20.00     0.202 C 
ENDBRANCH   3   8
TORSDOF 3
ENDMDL
MODEL 7
REMARK VINA RESULT:      -3.3      2.289      3.164
REMARK  3 active torsions:
REMARK  status: ('A' for Active; 'I' for Inactive)
REMARK    1  A    between atoms: C5_5  and  C6_6 
REMARK    2  A    between atoms: C5_5  and  C7_7 
REMARK    3  A    between atoms: C7_7  and  O8_8 
ROOT
HETATM    1  C2  UNL     1     -34.185  13.931  -3.881  1.00 20.00     0.045 C 
HETATM    2  C3  UNL     1     -36.301  15.162  -3.338  1.00 20.00     0.045 C 
HETATM    3  C7  UNL     1     -34.795  15.304  -3.568  1.00 20.00     0.054 C 
ENDROOT
BRANCH   3   4
HETATM    4  C5  UNL     1     -34.062  15.920  -2.352  1.00 20.00     0.057 C 
BRANCH   4   5
HETATM    5  C6  UNL     1     -34.674  17.185  -1.720  1.00 20.00     0.081 C 
HETATM    6  C1  UNL     1     -33.797  18.403  -1.997  1.00 20.00     0.026 C 
HETATM    7 CL9  UNL     1     -34.872  17.024   0.049  1.00 20.00    -0.125 Cl
ENDBRANCH   4   5
ENDBRANCH   3   4
BRANCH   3   8
HETATM    8  O8  UNL     1     -34.585  16.130  -4.713  1.00 20.00    -0.386 OA
HETATM    9  C4  UNL     1     -33.203  16.273  -4.999  1.00 20.00     0.202 C 
ENDBRANCH   3   8
TORSDOF 3
ENDMDL
MODEL 8
REMARK VINA RESULT:      -3.3      2.459      3.651
REMARK  3 active torsions:
REMARK  status: ('A' for Active; 'I' for Inactive)
REMARK    1  A    between atoms: C5_5  and  C6_6 
REMARK    2  A    between atoms: C5_5  and  C7_7 
REMARK    3  A    between atoms: C7_7  and  O8_8 
ROOT
HETATM    1  C2  UNL     1     -34.905  13.492  -4.130  1.00 20.00     0.045 C 
HETATM    2  C3  UNL     1     -33.020  15.080  -3.669  1.00 20.00     0.045 C 
HETATM    3  C7  UNL     1     -34.534  14.955  -3.849  1.00 20.00     0.054 C 
ENDROOT
BRANCH   3   4
HETATM    4  C5  UNL     1     -35.073  15.844  -4.995  1.00 20.00     0.057 C 
BRANCH   4   5
HETATM    5  C6  UNL     1     -34.166  16.048  -6.223  1.00 20.00     0.081 C 
HETATM    6  C1  UNL     1     -34.375  17.436  -6.824  1.00 20.00     0.026 C 
HETATM    7 CL9  UNL     1     -34.474  14.831  -7.496  1.00 20.00    -0.125 Cl
ENDBRANCH   4   5
ENDBRANCH   3   4
BRANCH   3   8
HETATM    8  O8  UNL     1     -35.170  15.324  -2.626  1.00 20.00    -0.386 OA
HETATM    9  C4  UNL     1     -34.391  16.265  -1.905  1.00 20.00     0.202 C 
ENDBRANCH   3   8
TORSDOF 3
ENDMDL
MODEL 9
REMARK VINA RESULT:      -3.2      2.456      3.878
REMARK  3 active torsions:
REMARK  status: ('A' for Active; 'I' for Inactive)
REMARK    1  A    between atoms: C5_5  and  C6_6 
REMARK    2  A    between atoms: C5_5  and  C7_7 
REMARK    3  A    between atoms: C7_7  and  O8_8 
ROOT
HETATM    1  C2  UNL     1     -36.002  17.005  -2.941  1.00 20.00     0.045 C 
HETATM    2  C3  UNL     1     -34.609  16.605  -0.895  1.00 20.00     0.045 C 
HETATM    3  C7  UNL     1     -34.625  16.567  -2.425  1.00 20.00     0.054 C 
ENDROOT
BRANCH   3   4
HETATM    4  C5  UNL     1     -34.292  15.165  -2.989  1.00 20.00     0.057 C 
BRANCH   4   5
HETATM    5  C6  UNL     1     -34.942  14.766  -4.328  1.00 20.00     0.081 C 
HETATM    6  C1  UNL     1     -34.945  13.248  -4.494  1.00 20.00     0.026 C 
HETATM    7 CL9  UNL     1     -34.094  15.484  -5.727  1.00 20.00    -0.125 Cl
ENDBRANCH   4   5
ENDBRANCH   3   4
BRANCH   3   8
HETATM    8  O8  UNL     1     -33.671  17.511  -2.913  1.00 20.00    -0.386 OA
HETATM    9  C4  UNL     1     -34.301  18.540  -3.660  1.00 20.00     0.202 C 
ENDBRANCH   3   8
TORSDOF 3
ENDMDL
