MODEL 1
REMARK VINA RESULT:      -3.5      0.000      0.000
REMARK  4 active torsions:
REMARK  status: ('A' for Active; 'I' for Inactive)
REMARK    1  A    between atoms: C5_5  and  C6_6 
REMARK    2  A    between atoms: C5_5  and  C7_7 
REMARK    3  A    between atoms: C6_6  and  S9_9 
REMARK    4  A    between atoms: C7_7  and  O8_8 
ROOT
HETATM    1  C5  UNL     1     -34.982  15.506  -3.107  1.00 20.00     0.051 C 
ENDROOT
BRANCH   1   2
HETATM    2  C6  UNL     1     -34.090  16.420  -2.241  1.00 20.00     0.043 C 
HETATM    3  C1  UNL     1     -34.599  16.640  -0.821  1.00 20.00     0.021 C 
BRANCH   2   4
HETATM    4  S9  UNL     1     -33.963  18.052  -3.068  1.00 20.00    -0.178 SA
HETATM    5  H25 UNL     1     -35.172  17.995  -3.638  1.00 20.00     0.102 HD
ENDBRANCH   2   4
ENDBRANCH   1   2
BRANCH   1   6
HETATM    6  C7  UNL     1     -34.262  14.535  -4.073  1.00 20.00     0.054 C 
HETATM    7  C2  UNL     1     -32.884  14.109  -3.565  1.00 20.00     0.045 C 
HETATM    8  C3  UNL     1     -35.142  13.297  -4.294  1.00 20.00     0.045 C 
BRANCH   6   9
HETATM    9  O8  UNL     1     -34.108  15.173  -5.341  1.00 20.00    -0.386 OA
HETATM   10  C4  UNL     1     -34.868  14.518  -6.344  1.00 20.00     0.202 C 
ENDBRANCH   6   9
ENDBRANCH   1   6
TORSDOF 4
ENDMDL
MODEL 2
REMARK VINA RESULT:      -3.5      2.143      2.667
REMARK  4 active torsions:
REMARK  status: ('A' for Active; 'I' for Inactive)
REMARK    1  A    between atoms: C5_5  and  C6_6 
REMARK    2  A    between atoms: C5_5  and  C7_7 
REMARK    3  A    between atoms: C6_6  and  S9_9 
REMARK    4  A    between atoms: C7_7  and  O8_8 
ROOT
HETATM    1  C5  UNL     1     -36.127  15.784  -3.176  1.00 20.00     0.051 C 
ENDROOT
BRANCH   1   2
HETATM    2  C6  UNL     1     -34.682  15.935  -2.658  1.00 20.00     0.043 C 
HETATM    3  C1  UNL     1     -34.574  16.428  -1.219  1.00 20.00     0.021 C 
BRANCH   2   4
HETATM    4  S9  UNL     1     -33.801  17.124  -3.742  1.00 20.00    -0.178 SA
HETATM    5  H25 UNL     1     -32.627  16.482  -3.700  1.00 20.00     0.102 HD
ENDBRANCH   2   4
ENDBRANCH   1   2
BRANCH   1   6
HETATM    6  C7  UNL     1     -36.396  14.635  -4.178  1.00 20.00     0.054 C 
HETATM    7  C2  UNL     1     -36.508  15.125  -5.623  1.00 20.00     0.045 C 
HETATM    8  C3  UNL     1     -35.274  13.595  -4.067  1.00 20.00     0.045 C 
BRANCH   6   9
HETATM    9  O8  UNL     1     -37.613  13.983  -3.818  1.00 20.00    -0.386 OA
HETATM   10  C4  UNL     1     -38.707  14.886  -3.838  1.00 20.00     0.202 C 
ENDBRANCH   6   9
ENDBRANCH   1   6
TORSDOF 4
ENDMDL
MODEL 3
REMARK VINA RESULT:      -3.4      1.286      1.848
REMARK  4 active torsions:
REMARK  status: ('A' for Active; 'I' for Inactive)
REMARK    1  A    between atoms: C5_5  and  C6_6 
REMARK    2  A    between atoms: C5_5  and  C7_7 
REMARK    3  A    between atoms: C6_6  and  S9_9 
REMARK    4  A    between atoms: C7_7  and  O8_8 
ROOT
HETATM    1  C5  UNL     1     -34.793  15.388  -3.058  1.00 20.00     0.051 C 
ENDROOT
BRANCH   1   2
HETATM    2  C6  UNL     1     -34.825  16.744  -2.324  1.00 20.00     0.043 C 
HETATM    3  C1  UNL     1     -34.599  16.654  -0.819  1.00 20.00     0.021 C 
BRANCH   2   4
HETATM    4  S9  UNL     1     -36.462  17.519  -2.615  1.00 20.00    -0.178 SA
HETATM    5  H25 UNL     1     -37.109  16.365  -2.820  1.00 20.00     0.102 HD
ENDBRANCH   2   4
ENDBRANCH   1   2
BRANCH   1   6
HETATM    6  C7  UNL     1     -33.720  15.212  -4.159  1.00 20.00     0.054 C 
HETATM    7  C2  UNL     1     -33.344  16.533  -4.834  1.00 20.00     0.045 C 
HETATM    8  C3  UNL     1     -32.470  14.566  -3.549  1.00 20.00     0.045 C 
BRANCH   6   9
HETATM    9  O8  UNL     1     -34.217  14.314  -5.151  1.00 20.00    -0.386 OA
HETATM   10  C4  UNL     1     -34.970  13.264  -4.565  1.00 20.00     0.202 C 
ENDBRANCH   6   9
ENDBRANCH   1   6
TORSDOF 4
ENDMDL
MODEL 4
REMARK VINA RESULT:      -3.2      2.921      3.984
REMARK  4 active torsions:
REMARK  status: ('A' for Active; 'I' for Inactive)
REMARK    1  A    between atoms: C5_5  and  C6_6 
REMARK    2  A    between atoms: C5_5  and  C7_7 
REMARK    3  A    between atoms: C6_6  and  S9_9 
REMARK    4  A    between atoms: C7_7  and  O8_8 
ROOT
HETATM    1  C5  UNL     1     -36.172  15.390  -5.338  1.00 20.00     0.051 C 
ENDROOT
BRANCH   1   2
HETATM    2  C6  UNL     1     -34.976  15.371  -6.313  1.00 20.00     0.043 C 
HETATM    3  C1  UNL     1     -34.359  16.739  -6.582  1.00 20.00     0.021 C 
BRANCH   2   4
HETATM    4  S9  UNL     1     -35.545  14.671  -7.910  1.00 20.00    -0.178 SA
HETATM    5  H25 UNL     1     -35.132  15.706  -8.651  1.00 20.00     0.102 HD
ENDBRANCH   2   4
ENDBRANCH   1   2
BRANCH   1   6
HETATM    6  C7  UNL     1     -36.038  14.545  -4.049  1.00 20.00     0.054 C 
HETATM    7  C2  UNL     1     -35.121  13.334  -4.228  1.00 20.00     0.045 C 
HETATM    8  C3  UNL     1     -35.511  15.434  -2.915  1.00 20.00     0.045 C 
BRANCH   6   9
HETATM    9  O8  UNL     1     -37.333  14.088  -3.658  1.00 20.00    -0.386 OA
HETATM   10  C4  UNL     1     -38.352  14.941  -4.156  1.00 20.00     0.202 C 
ENDBRANCH   6   9
ENDBRANCH   1   6
TORSDOF 4
ENDMDL
MODEL 5
REMARK VINA RESULT:      -3.2      2.450      3.161
REMARK  4 active torsions:
REMARK  status: ('A' for Active; 'I' for Inactive)
REMARK    1  A    between atoms: C5_5  and  C6_6 
REMARK    2  A    between atoms: C5_5  and  C7_7 
REMARK    3  A    between atoms: C6_6  and  S9_9 
REMARK    4  A    between atoms: C7_7  and  O8_8 
ROOT
HETATM    1  C5  UNL     1     -34.847  16.591  -4.397  1.00 20.00     0.051 C 
ENDROOT
BRANCH   1   2
HETATM    2  C6  UNL     1     -33.866  16.873  -5.554  1.00 20.00     0.043 C 
HETATM    3  C1  UNL     1     -33.626  18.353  -5.833  1.00 20.00     0.021 C 
BRANCH   2   4
HETATM    4  S9  UNL     1     -34.534  16.101  -7.078  1.00 20.00    -0.178 SA
HETATM    5  H25 UNL     1     -33.544  16.523  -7.873  1.00 20.00     0.102 HD
ENDBRANCH   2   4
ENDBRANCH   1   2
BRANCH   1   6
HETATM    6  C7  UNL     1     -34.434  15.503  -3.378  1.00 20.00     0.054 C 
HETATM    7  C2  UNL     1     -33.012  14.986  -3.609  1.00 20.00     0.045 C 
HETATM    8  C3  UNL     1     -34.558  16.067  -1.957  1.00 20.00     0.045 C 
BRANCH   6   9
HETATM    9  O8  UNL     1     -35.343  14.407  -3.476  1.00 20.00    -0.386 OA
HETATM   10  C4  UNL     1     -34.839  13.394  -4.333  1.00 20.00     0.202 C 
ENDBRANCH   6   9
ENDBRANCH   1   6
TORSDOF 4
ENDMDL
MODEL 6
REMARK VINA RESULT:      -3.1      2.161      4.092
REMARK  4 active torsions:
REMARK  status: ('A' for Active; 'I' for Inactive)
REMARK    1  A    between atoms: C5_5  and  C6_6 
REMARK    2  A    between atoms: C5_5  and  C7_7 
REMARK    3  A    between atoms: C6_6  and  S9_9 
REMARK    4  A    between atoms: C7_7  and  O8_8 
ROOT
HETATM    1  C5  UNL     1     -34.728  15.478  -5.446  1.00 20.00     0.051 C 
ENDROOT
BRANCH   1   2
HETATM    2  C6  UNL     1     -35.630  14.719  -6.441  1.00 20.00     0.043 C 
HETATM    3  C1  UNL     1     -35.144  14.751  -7.886  1.00 20.00     0.021 C 
BRANCH   2   4
HETATM    4  S9  UNL     1     -37.307  15.459  -6.381  1.00 20.00    -0.178 SA
HETATM    5  H25 UNL     1     -37.947  14.344  -6.753  1.00 20.00     0.102 HD
ENDBRANCH   2   4
ENDBRANCH   1   2
BRANCH   1   6
HETATM    6  C7  UNL     1     -34.474  14.804  -4.076  1.00 20.00     0.054 C 
HETATM    7  C2  UNL     1     -34.724  13.295  -4.105  1.00 20.00     0.045 C 
HETATM    8  C3  UNL     1     -33.032  15.084  -3.635  1.00 20.00     0.045 C 
BRANCH   6   9
HETATM    9  O8  UNL     1     -35.335  15.395  -3.103  1.00 20.00    -0.386 OA
HETATM   10  C4  UNL     1     -34.591  16.062  -2.095  1.00 20.00     0.202 C 
ENDBRANCH   6   9
ENDBRANCH   1   6
TORSDOF 4
ENDMDL
MODEL 7
REMARK VINA RESULT:      -3.0      2.133      2.811
REMARK  4 active torsions:
REMARK  status: ('A' for Active; 'I' for Inactive)
REMARK    1  A    between atoms: C5_5  and  C6_6 
REMARK    2  A    between atoms: C5_5  and  C7_7 
REMARK    3  A    between atoms: C6_6  and  S9_9 
REMARK    4  A    between atoms: C7_7  and  O8_8 
ROOT
HETATM    1  C5  UNL     1     -35.329  15.543  -4.619  1.00 20.00     0.051 C 
ENDROOT
BRANCH   1   2
HETATM    2  C6  UNL     1     -36.617  15.791  -3.806  1.00 20.00     0.043 C 
HETATM    3  C1  UNL     1     -37.691  14.723  -3.982  1.00 20.00     0.021 C 
BRANCH   2   4
HETATM    4  S9  UNL     1     -37.320  17.406  -4.318  1.00 20.00    -0.178 SA
HETATM    5  H25 UNL     1     -38.532  17.182  -3.797  1.00 20.00     0.102 HD
ENDBRANCH   2   4
ENDBRANCH   1   2
BRANCH   1   6
HETATM    6  C7  UNL     1     -34.016  15.377  -3.817  1.00 20.00     0.054 C 
HETATM    7  C2  UNL     1     -34.107  15.959  -2.405  1.00 20.00     0.045 C 
HETATM    8  C3  UNL     1     -33.654  13.888  -3.743  1.00 20.00     0.045 C 
BRANCH   6   9
HETATM    9  O8  UNL     1     -32.959  16.033  -4.518  1.00 20.00    -0.386 OA
HETATM   10  C4  UNL     1     -33.437  17.164  -5.229  1.00 20.00     0.202 C 
ENDBRANCH   6   9
ENDBRANCH   1   6
TORSDOF 4
ENDMDL
MODEL 8
REMARK VINA RESULT:      -3.0      2.296      4.167
REMARK  4 active torsions:
REMARK  status: ('A' for Active; 'I' for Inactive)
REMARK    1  A    between atoms: C5_5  and  C6_6 
REMARK    2  A    between atoms: C5_5  and  C7_7 
REMARK    3  A    between atoms: C6_6  and  S9_9 
REMARK    4  A    between atoms: C7_7  and  O8_8 
ROOT
HETATM    1  C5  UNL     1     -34.006  15.535  -3.036  1.00 20.00     0.051 C 
ENDROOT
BRANCH   1   2
HETATM    2  C6  UNL     1     -34.908  14.950  -4.141  1.00 20.00     0.043 C 
HETATM    3  C1  UNL     1     -34.941  13.426  -4.190  1.00 20.00     0.021 C 
BRANCH   2   4
HETATM    4  S9  UNL     1     -34.309  15.565  -5.762  1.00 20.00    -0.178 SA
HETATM    5  H25 UNL     1     -35.528  15.737  -6.286  1.00 20.00     0.102 HD
ENDBRANCH   2   4
ENDBRANCH   1   2
BRANCH   1   6
HETATM    6  C7  UNL     1     -34.596  16.687  -2.186  1.00 20.00     0.054 C 
HETATM    7  C2  UNL     1     -33.777  17.975  -2.287  1.00 20.00     0.045 C 
HETATM    8  C3  UNL     1     -36.041  16.952  -2.629  1.00 20.00     0.045 C 
BRANCH   6   9
HETATM    9  O8  UNL     1     -34.643  16.277  -0.820  1.00 20.00    -0.386 OA
HETATM   10  C4  UNL     1     -34.879  17.380   0.041  1.00 20.00     0.202 C 
ENDBRANCH   6   9
ENDBRANCH   1   6
TORSDOF 4
ENDMDL
MODEL 9
REMARK VINA RESULT:      -3.0      1.927      3.528
REMARK  4 active torsions:
REMARK  status: ('A' for Active; 'I' for Inactive)
REMARK    1  A    between atoms: C5_5  and  C6_6 
REMARK    2  A    between atoms: C5_5  and  C7_7 
REMARK    3  A    between atoms: C6_6  and  S9_9 
REMARK    4  A    between atoms: C7_7  and  O8_8 
ROOT
HETATM    1  C5  UNL     1     -34.580  15.841  -4.756  1.00 20.00     0.051 C 
ENDROOT
BRANCH   1   2
HETATM    2  C6  UNL     1     -35.353  15.635  -6.075  1.00 20.00     0.043 C 
HETATM    3  C1  UNL     1     -34.552  14.951  -7.178  1.00 20.00     0.021 C 
BRANCH   2   4
HETATM    4  S9  UNL     1     -35.892  17.277  -6.690  1.00 20.00    -0.178 SA
HETATM    5  H25 UNL     1     -37.089  16.861  -7.118  1.00 20.00     0.102 HD
ENDBRANCH   2   4
ENDBRANCH   1   2
BRANCH   1   6
HETATM    6  C7  UNL     1     -35.132  15.122  -3.502  1.00 20.00     0.054 C 
HETATM    7  C2  UNL     1     -34.790  15.855  -2.203  1.00 20.00     0.045 C 
HETATM    8  C3  UNL     1     -36.654  14.976  -3.632  1.00 20.00     0.045 C 
BRANCH   6   9
HETATM    9  O8  UNL     1     -34.585  13.805  -3.444  1.00 20.00    -0.386 OA
HETATM   10  C4  UNL     1     -33.192  13.813  -3.712  1.00 20.00     0.202 C 
ENDBRANCH   6   9
ENDBRANCH   1   6
TORSDOF 4
ENDMDL
