MODEL 1
REMARK VINA RESULT:      -4.2      0.000      0.000
REMARK  3 active torsions:
REMARK  status: ('A' for Active; 'I' for Inactive)
REMARK    1  A    between atoms: C5_5  and  O9_9 
REMARK    2  A    between atoms: C6_6  and  C7_7 
REMARK    3  A    between atoms: C7_7  and  O9_9 
ROOT
HETATM    1  C1  UNL     1     -32.538   7.069   2.810  1.00 20.00     0.085 C 
HETATM    2  C5  UNL     1     -33.437   5.947   3.075  1.00 20.00     0.292 C 
HETATM    3  N8  UNL     1     -31.825   7.961   2.599  1.00 20.00    -0.195 NA
ENDROOT
BRANCH   2   4
HETATM    4  O9  UNL     1     -33.271   5.481   4.405  1.00 20.00    -0.367 OA
BRANCH   4   5
HETATM    5  C7  UNL     1     -34.530   5.174   5.007  1.00 20.00     0.054 C 
HETATM    6  C3  UNL     1     -35.623   5.586   4.020  1.00 20.00     0.045 C 
HETATM    7  C4  UNL     1     -34.585   3.660   5.236  1.00 20.00     0.045 C 
BRANCH   5   8
HETATM    8  C6  UNL     1     -34.647   5.913   6.354  1.00 20.00     0.033 C 
HETATM    9  C2  UNL     1     -33.617   7.018   6.561  1.00 20.00     0.008 C 
ENDBRANCH   5   8
ENDBRANCH   4   5
ENDBRANCH   2   4
TORSDOF 3
ENDMDL
MODEL 2
REMARK VINA RESULT:      -3.8      1.076      2.058
REMARK  3 active torsions:
REMARK  status: ('A' for Active; 'I' for Inactive)
REMARK    1  A    between atoms: C5_5  and  O9_9 
REMARK    2  A    between atoms: C6_6  and  C7_7 
REMARK    3  A    between atoms: C7_7  and  O9_9 
ROOT
HETATM    1  C1  UNL     1     -32.215   7.499   2.551  1.00 20.00     0.085 C 
HETATM    2  C5  UNL     1     -32.477   6.470   3.558  1.00 20.00     0.292 C 
HETATM    3  N8  UNL     1     -32.006   8.315   1.753  1.00 20.00    -0.195 NA
ENDROOT
BRANCH   2   4
HETATM    4  O9  UNL     1     -33.539   5.628   3.142  1.00 20.00    -0.367 OA
BRANCH   4   5
HETATM    5  C7  UNL     1     -34.568   5.563   4.130  1.00 20.00     0.054 C 
HETATM    6  C3  UNL     1     -34.154   6.480   5.282  1.00 20.00     0.045 C 
HETATM    7  C4  UNL     1     -35.863   6.081   3.498  1.00 20.00     0.045 C 
BRANCH   5   8
HETATM    8  C6  UNL     1     -34.753   4.101   4.583  1.00 20.00     0.033 C 
HETATM    9  C2  UNL     1     -34.837   3.912   6.093  1.00 20.00     0.008 C 
ENDBRANCH   5   8
ENDBRANCH   4   5
ENDBRANCH   2   4
TORSDOF 3
ENDMDL
MODEL 3
REMARK VINA RESULT:      -3.8     11.956     12.930
REMARK  3 active torsions:
REMARK  status: ('A' for Active; 'I' for Inactive)
REMARK    1  A    between atoms: C5_5  and  O9_9 
REMARK    2  A    between atoms: C6_6  and  C7_7 
REMARK    3  A    between atoms: C7_7  and  O9_9 
ROOT
HETATM    1  C1  UNL     1     -37.665  15.055  -3.657  1.00 20.00     0.085 C 
HETATM    2  C5  UNL     1     -36.570  15.988  -3.390  1.00 20.00     0.292 C 
HETATM    3  N8  UNL     1     -38.534  14.315  -3.869  1.00 20.00    -0.195 NA
ENDROOT
BRANCH   2   4
HETATM    4  O9  UNL     1     -35.507  15.779  -4.305  1.00 20.00    -0.367 OA
BRANCH   4   5
HETATM    5  C7  UNL     1     -34.299  15.432  -3.626  1.00 20.00     0.054 C 
HETATM    6  C3  UNL     1     -33.144  16.094  -4.379  1.00 20.00     0.045 C 
HETATM    7  C4  UNL     1     -34.379  15.996  -2.204  1.00 20.00     0.045 C 
BRANCH   5   8
HETATM    8  C6  UNL     1     -34.162  13.897  -3.576  1.00 20.00     0.033 C 
HETATM    9  C2  UNL     1     -34.611  13.181  -4.845  1.00 20.00     0.008 C 
ENDBRANCH   5   8
ENDBRANCH   4   5
ENDBRANCH   2   4
TORSDOF 3
ENDMDL
MODEL 4
REMARK VINA RESULT:      -3.8     12.165     12.939
REMARK  3 active torsions:
REMARK  status: ('A' for Active; 'I' for Inactive)
REMARK    1  A    between atoms: C5_5  and  O9_9 
REMARK    2  A    between atoms: C6_6  and  C7_7 
REMARK    3  A    between atoms: C7_7  and  O9_9 
ROOT
HETATM    1  C1  UNL     1     -37.286  14.502  -3.999  1.00 20.00     0.085 C 
HETATM    2  C5  UNL     1     -35.867  14.580  -4.344  1.00 20.00     0.292 C 
HETATM    3  N8  UNL     1     -38.413  14.439  -3.725  1.00 20.00    -0.195 NA
ENDROOT
BRANCH   2   4
HETATM    4  O9  UNL     1     -35.341  15.850  -3.998  1.00 20.00    -0.367 OA
BRANCH   4   5
HETATM    5  C7  UNL     1     -33.936  15.779  -3.744  1.00 20.00     0.054 C 
HETATM    6  C3  UNL     1     -33.557  14.298  -3.689  1.00 20.00     0.045 C 
HETATM    7  C4  UNL     1     -33.212  16.454  -4.913  1.00 20.00     0.045 C 
BRANCH   5   8
HETATM    8  C6  UNL     1     -33.615  16.516  -2.430  1.00 20.00     0.033 C 
HETATM    9  C2  UNL     1     -34.676  16.368  -1.346  1.00 20.00     0.008 C 
ENDBRANCH   5   8
ENDBRANCH   4   5
ENDBRANCH   2   4
TORSDOF 3
ENDMDL
MODEL 5
REMARK VINA RESULT:      -3.7     11.912     12.975
REMARK  3 active torsions:
REMARK  status: ('A' for Active; 'I' for Inactive)
REMARK    1  A    between atoms: C5_5  and  O9_9 
REMARK    2  A    between atoms: C6_6  and  C7_7 
REMARK    3  A    between atoms: C7_7  and  O9_9 
ROOT
HETATM    1  C1  UNL     1     -34.155  13.637  -4.208  1.00 20.00     0.085 C 
HETATM    2  C5  UNL     1     -33.341  14.769  -3.764  1.00 20.00     0.292 C 
HETATM    3  N8  UNL     1     -34.801  12.739  -4.559  1.00 20.00    -0.195 NA
ENDROOT
BRANCH   2   4
HETATM    4  O9  UNL     1     -33.753  15.961  -4.413  1.00 20.00    -0.367 OA
BRANCH   4   5
HETATM    5  C7  UNL     1     -34.246  16.918  -3.474  1.00 20.00     0.054 C 
HETATM    6  C3  UNL     1     -33.843  18.304  -3.979  1.00 20.00     0.045 C 
HETATM    7  C4  UNL     1     -35.773  16.805  -3.444  1.00 20.00     0.045 C 
BRANCH   5   8
HETATM    8  C6  UNL     1     -33.669  16.612  -2.078  1.00 20.00     0.033 C 
HETATM    9  C2  UNL     1     -34.696  16.630  -0.952  1.00 20.00     0.008 C 
ENDBRANCH   5   8
ENDBRANCH   4   5
ENDBRANCH   2   4
TORSDOF 3
ENDMDL
MODEL 6
REMARK VINA RESULT:      -3.6     11.722     12.687
REMARK  3 active torsions:
REMARK  status: ('A' for Active; 'I' for Inactive)
REMARK    1  A    between atoms: C5_5  and  O9_9 
REMARK    2  A    between atoms: C6_6  and  C7_7 
REMARK    3  A    between atoms: C7_7  and  O9_9 
ROOT
HETATM    1  C1  UNL     1     -34.447  16.637  -1.158  1.00 20.00     0.085 C 
HETATM    2  C5  UNL     1     -34.001  16.218  -2.487  1.00 20.00     0.292 C 
HETATM    3  N8  UNL     1     -34.799  16.970  -0.104  1.00 20.00    -0.195 NA
ENDROOT
BRANCH   2   4
HETATM    4  O9  UNL     1     -34.852  15.205  -2.999  1.00 20.00    -0.367 OA
BRANCH   4   5
HETATM    5  C7  UNL     1     -34.224  14.491  -4.065  1.00 20.00     0.054 C 
HETATM    6  C3  UNL     1     -32.863  14.013  -3.556  1.00 20.00     0.045 C 
HETATM    7  C4  UNL     1     -35.102  13.282  -4.403  1.00 20.00     0.045 C 
BRANCH   5   8
HETATM    8  C6  UNL     1     -34.100  15.411  -5.296  1.00 20.00     0.033 C 
HETATM    9  C2  UNL     1     -34.604  14.797  -6.597  1.00 20.00     0.008 C 
ENDBRANCH   5   8
ENDBRANCH   4   5
ENDBRANCH   2   4
TORSDOF 3
ENDMDL
MODEL 7
REMARK VINA RESULT:      -3.6      1.599      2.212
REMARK  3 active torsions:
REMARK  status: ('A' for Active; 'I' for Inactive)
REMARK    1  A    between atoms: C5_5  and  O9_9 
REMARK    2  A    between atoms: C6_6  and  C7_7 
REMARK    3  A    between atoms: C7_7  and  O9_9 
ROOT
HETATM    1  C1  UNL     1     -32.267   8.881   1.715  1.00 20.00     0.085 C 
HETATM    2  C5  UNL     1     -32.219   7.709   2.590  1.00 20.00     0.292 C 
HETATM    3  N8  UNL     1     -32.305   9.810   1.020  1.00 20.00    -0.195 NA
ENDROOT
BRANCH   2   4
HETATM    4  O9  UNL     1     -33.492   7.468   3.167  1.00 20.00    -0.367 OA
BRANCH   4   5
HETATM    5  C7  UNL     1     -33.544   6.183   3.790  1.00 20.00     0.054 C 
HETATM    6  C3  UNL     1     -34.747   5.440   3.208  1.00 20.00     0.045 C 
HETATM    7  C4  UNL     1     -32.255   5.436   3.437  1.00 20.00     0.045 C 
BRANCH   5   8
HETATM    8  C6  UNL     1     -33.646   6.360   5.318  1.00 20.00     0.033 C 
HETATM    9  C2  UNL     1     -34.553   5.350   6.012  1.00 20.00     0.008 C 
ENDBRANCH   5   8
ENDBRANCH   4   5
ENDBRANCH   2   4
TORSDOF 3
ENDMDL
MODEL 8
REMARK VINA RESULT:      -3.6     12.006     13.193
REMARK  3 active torsions:
REMARK  status: ('A' for Active; 'I' for Inactive)
REMARK    1  A    between atoms: C5_5  and  O9_9 
REMARK    2  A    between atoms: C6_6  and  C7_7 
REMARK    3  A    between atoms: C7_7  and  O9_9 
ROOT
HETATM    1  C1  UNL     1     -37.603  14.825  -3.692  1.00 20.00     0.085 C 
HETATM    2  C5  UNL     1     -36.325  15.474  -3.396  1.00 20.00     0.292 C 
HETATM    3  N8  UNL     1     -38.617  14.312  -3.926  1.00 20.00    -0.195 NA
ENDROOT
BRANCH   2   4
HETATM    4  O9  UNL     1     -35.333  15.060  -4.321  1.00 20.00    -0.367 OA
BRANCH   4   5
HETATM    5  C7  UNL     1     -34.019  15.278  -3.804  1.00 20.00     0.054 C 
HETATM    6  C3  UNL     1     -34.171  15.873  -2.404  1.00 20.00     0.045 C 
HETATM    7  C4  UNL     1     -33.317  13.920  -3.715  1.00 20.00     0.045 C 
BRANCH   5   8
HETATM    8  C6  UNL     1     -33.243  16.209  -4.756  1.00 20.00     0.033 C 
HETATM    9  C2  UNL     1     -33.861  16.355  -6.142  1.00 20.00     0.008 C 
ENDBRANCH   5   8
ENDBRANCH   4   5
ENDBRANCH   2   4
TORSDOF 3
ENDMDL
MODEL 9
REMARK VINA RESULT:      -3.5     11.867     12.801
REMARK  3 active torsions:
REMARK  status: ('A' for Active; 'I' for Inactive)
REMARK    1  A    between atoms: C5_5  and  O9_9 
REMARK    2  A    between atoms: C6_6  and  C7_7 
REMARK    3  A    between atoms: C7_7  and  O9_9 
ROOT
HETATM    1  C1  UNL     1     -34.376  16.468  -1.451  1.00 20.00     0.085 C 
HETATM    2  C5  UNL     1     -33.958  16.040  -2.786  1.00 20.00     0.292 C 
HETATM    3  N8  UNL     1     -34.708  16.810  -0.392  1.00 20.00    -0.195 NA
ENDROOT
BRANCH   2   4
HETATM    4  O9  UNL     1     -34.335  14.692  -3.015  1.00 20.00    -0.367 OA
BRANCH   4   5
HETATM    5  C7  UNL     1     -35.018  14.549  -4.261  1.00 20.00     0.054 C 
HETATM    6  C3  UNL     1     -34.670  13.168  -4.818  1.00 20.00     0.045 C 
HETATM    7  C4  UNL     1     -36.522  14.631  -3.986  1.00 20.00     0.045 C 
BRANCH   5   8
HETATM    8  C6  UNL     1     -34.595  15.688  -5.211  1.00 20.00     0.033 C 
HETATM    9  C2  UNL     1     -34.344  15.250  -6.649  1.00 20.00     0.008 C 
ENDBRANCH   5   8
ENDBRANCH   4   5
ENDBRANCH   2   4
TORSDOF 3
ENDMDL
