MODEL 1
REMARK VINA RESULT:      -5.5      0.000      0.000
REMARK  3 active torsions:
REMARK  status: ('A' for Active; 'I' for Inactive)
REMARK    1  A    between atoms: C1_1  and  C7_7 
REMARK    2  A    between atoms: C1_1  and  C9_9 
REMARK    3  A    between atoms: C8_8  and  C9_9 
ROOT
HETATM    1  C1  UNL     1     -32.524   6.811   2.968  1.00 20.00     0.131 C 
HETATM    2  O10 UNL     1     -32.087   5.741   2.545  1.00 20.00    -0.298 OA
ENDROOT
BRANCH   1   3
HETATM    3  C7  UNL     1     -31.893   8.119   2.568  1.00 20.00     0.055 A 
HETATM    4  C3  UNL     1     -31.756   8.415   1.118  1.00 20.00     0.013 A 
HETATM    5  C4  UNL     1     -32.762   9.153   1.948  1.00 20.00     0.013 A 
ENDBRANCH   1   3
BRANCH   1   6
HETATM    6  C9  UNL     1     -33.712   6.898   3.910  1.00 20.00     0.083 C 
BRANCH   6   7
HETATM    7  C8  UNL     1     -33.858   5.671   4.785  1.00 20.00    -0.008 C 
HETATM    8  C5  UNL     1     -35.147   4.829   4.594  1.00 20.00     0.005 C 
HETATM    9  C2  UNL     1     -35.131   4.595   6.119  1.00 20.00     0.001 C 
HETATM   10  C6  UNL     1     -34.334   5.910   6.241  1.00 20.00     0.005 C 
ENDBRANCH   6   7
ENDBRANCH   1   6
TORSDOF 3
ENDMDL
MODEL 2
REMARK VINA RESULT:      -5.4      1.031      1.572
REMARK  3 active torsions:
REMARK  status: ('A' for Active; 'I' for Inactive)
REMARK    1  A    between atoms: C1_1  and  C7_7 
REMARK    2  A    between atoms: C1_1  and  C9_9 
REMARK    3  A    between atoms: C8_8  and  C9_9 
ROOT
HETATM    1  C1  UNL     1     -32.266   7.335   2.999  1.00 20.00     0.131 C 
HETATM    2  O10 UNL     1     -31.344   7.712   3.720  1.00 20.00    -0.298 OA
ENDROOT
BRANCH   1   3
HETATM    3  C7  UNL     1     -32.727   8.165   1.829  1.00 20.00     0.055 A 
HETATM    4  C3  UNL     1     -32.428   9.621   1.845  1.00 20.00     0.013 A 
HETATM    5  C4  UNL     1     -31.694   8.709   0.909  1.00 20.00     0.013 A 
ENDBRANCH   1   3
BRANCH   1   6
HETATM    6  C9  UNL     1     -33.003   6.026   3.225  1.00 20.00     0.083 C 
BRANCH   6   7
HETATM    7  C8  UNL     1     -34.106   6.145   4.255  1.00 20.00    -0.008 C 
HETATM    8  C5  UNL     1     -33.664   6.272   5.737  1.00 20.00     0.005 C 
HETATM    9  C2  UNL     1     -34.887   5.404   6.099  1.00 20.00     0.001 C 
HETATM   10  C6  UNL     1     -34.813   4.828   4.671  1.00 20.00     0.005 C 
ENDBRANCH   6   7
ENDBRANCH   1   6
TORSDOF 3
ENDMDL
MODEL 3
REMARK VINA RESULT:      -4.7      0.892      4.828
REMARK  3 active torsions:
REMARK  status: ('A' for Active; 'I' for Inactive)
REMARK    1  A    between atoms: C1_1  and  C7_7 
REMARK    2  A    between atoms: C1_1  and  C9_9 
REMARK    3  A    between atoms: C8_8  and  C9_9 
ROOT
HETATM    1  C1  UNL     1     -32.625   6.351   3.452  1.00 20.00     0.131 C 
HETATM    2  O10 UNL     1     -32.099   5.281   3.148  1.00 20.00    -0.298 OA
ENDROOT
BRANCH   1   3
HETATM    3  C7  UNL     1     -33.965   6.388   4.140  1.00 20.00     0.055 A 
HETATM    4  C3  UNL     1     -34.960   5.342   3.790  1.00 20.00     0.013 A 
HETATM    5  C4  UNL     1     -34.276   5.319   5.123  1.00 20.00     0.013 A 
ENDBRANCH   1   3
BRANCH   1   6
HETATM    6  C9  UNL     1     -31.980   7.695   3.163  1.00 20.00     0.083 C 
BRANCH   6   7
HETATM    7  C8  UNL     1     -32.542   8.361   1.925  1.00 20.00    -0.008 C 
HETATM    8  C5  UNL     1     -31.576   8.521   0.722  1.00 20.00     0.005 C 
HETATM    9  C2  UNL     1     -32.254   9.881   0.453  1.00 20.00     0.001 C 
HETATM   10  C6  UNL     1     -32.630   9.909   1.949  1.00 20.00     0.005 C 
ENDBRANCH   6   7
ENDBRANCH   1   6
TORSDOF 3
ENDMDL
MODEL 4
REMARK VINA RESULT:      -4.6      1.536      4.682
REMARK  3 active torsions:
REMARK  status: ('A' for Active; 'I' for Inactive)
REMARK    1  A    between atoms: C1_1  and  C7_7 
REMARK    2  A    between atoms: C1_1  and  C9_9 
REMARK    3  A    between atoms: C8_8  and  C9_9 
ROOT
HETATM    1  C1  UNL     1     -34.707   5.375   3.927  1.00 20.00     0.131 C 
HETATM    2  O10 UNL     1     -35.915   5.426   3.700  1.00 20.00    -0.298 OA
ENDROOT
BRANCH   1   3
HETATM    3  C7  UNL     1     -34.188   4.938   5.272  1.00 20.00     0.055 A 
HETATM    4  C3  UNL     1     -34.402   5.842   6.432  1.00 20.00     0.013 A 
HETATM    5  C4  UNL     1     -35.177   4.564   6.315  1.00 20.00     0.013 A 
ENDBRANCH   1   3
BRANCH   1   6
HETATM    6  C9  UNL     1     -33.661   5.743   2.890  1.00 20.00     0.083 C 
BRANCH   6   7
HETATM    7  C8  UNL     1     -33.054   7.109   3.128  1.00 20.00    -0.008 C 
HETATM    8  C5  UNL     1     -32.370   7.788   1.912  1.00 20.00     0.005 C 
HETATM    9  C2  UNL     1     -31.320   8.335   2.902  1.00 20.00     0.001 C 
HETATM   10  C6  UNL     1     -31.665   7.141   3.816  1.00 20.00     0.005 C 
ENDBRANCH   6   7
ENDBRANCH   1   6
TORSDOF 3
ENDMDL
MODEL 5
REMARK VINA RESULT:      -4.6     11.076     12.052
REMARK  3 active torsions:
REMARK  status: ('A' for Active; 'I' for Inactive)
REMARK    1  A    between atoms: C1_1  and  C7_7 
REMARK    2  A    between atoms: C1_1  and  C9_9 
REMARK    3  A    between atoms: C8_8  and  C9_9 
ROOT
HETATM    1  C1  UNL     1     -35.189  13.763  -4.840  1.00 20.00     0.131 C 
HETATM    2  O10 UNL     1     -34.787  12.670  -4.444  1.00 20.00    -0.298 OA
ENDROOT
BRANCH   1   3
HETATM    3  C7  UNL     1     -35.177  14.111  -6.305  1.00 20.00     0.055 A 
HETATM    4  C3  UNL     1     -35.869  15.354  -6.735  1.00 20.00     0.013 A 
HETATM    5  C4  UNL     1     -34.372  15.283  -6.738  1.00 20.00     0.013 A 
ENDBRANCH   1   3
BRANCH   1   6
HETATM    6  C9  UNL     1     -35.720  14.832  -3.900  1.00 20.00     0.083 C 
BRANCH   6   7
HETATM    7  C8  UNL     1     -34.721  15.223  -2.832  1.00 20.00    -0.008 C 
HETATM    8  C5  UNL     1     -35.153  16.344  -1.851  1.00 20.00     0.005 C 
HETATM    9  C2  UNL     1     -33.690  16.834  -1.883  1.00 20.00     0.001 C 
HETATM   10  C6  UNL     1     -33.572  16.168  -3.269  1.00 20.00     0.005 C 
ENDBRANCH   6   7
ENDBRANCH   1   6
TORSDOF 3
ENDMDL
MODEL 6
REMARK VINA RESULT:      -4.5      1.362      4.759
REMARK  3 active torsions:
REMARK  status: ('A' for Active; 'I' for Inactive)
REMARK    1  A    between atoms: C1_1  and  C7_7 
REMARK    2  A    between atoms: C1_1  and  C9_9 
REMARK    3  A    between atoms: C8_8  and  C9_9 
ROOT
HETATM    1  C1  UNL     1     -33.248   6.275   3.816  1.00 20.00     0.131 C 
HETATM    2  O10 UNL     1     -33.193   6.792   4.931  1.00 20.00    -0.298 OA
ENDROOT
BRANCH   1   3
HETATM    3  C7  UNL     1     -34.366   5.334   3.450  1.00 20.00     0.055 A 
HETATM    4  C3  UNL     1     -35.080   4.637   4.551  1.00 20.00     0.013 A 
HETATM    5  C4  UNL     1     -35.756   5.736   3.788  1.00 20.00     0.013 A 
ENDBRANCH   1   3
BRANCH   1   6
HETATM    6  C9  UNL     1     -32.211   6.538   2.738  1.00 20.00     0.083 C 
BRANCH   6   7
HETATM    7  C8  UNL     1     -31.969   8.014   2.503  1.00 20.00    -0.008 C 
HETATM    8  C5  UNL     1     -33.226   8.905   2.322  1.00 20.00     0.005 C 
HETATM    9  C2  UNL     1     -32.419   9.704   1.278  1.00 20.00     0.001 C 
HETATM   10  C6  UNL     1     -31.573   8.433   1.063  1.00 20.00     0.005 C 
ENDBRANCH   6   7
ENDBRANCH   1   6
TORSDOF 3
ENDMDL
MODEL 7
REMARK VINA RESULT:      -4.4     10.807     11.674
REMARK  3 active torsions:
REMARK  status: ('A' for Active; 'I' for Inactive)
REMARK    1  A    between atoms: C1_1  and  C7_7 
REMARK    2  A    between atoms: C1_1  and  C9_9 
REMARK    3  A    between atoms: C8_8  and  C9_9 
ROOT
HETATM    1  C1  UNL     1     -33.989  15.426  -3.341  1.00 20.00     0.131 C 
HETATM    2  O10 UNL     1     -33.039  15.906  -3.959  1.00 20.00    -0.298 OA
ENDROOT
BRANCH   1   3
HETATM    3  C7  UNL     1     -34.360  13.974  -3.495  1.00 20.00     0.055 A 
HETATM    4  C3  UNL     1     -35.643  13.648  -4.171  1.00 20.00     0.013 A 
HETATM    5  C4  UNL     1     -34.337  13.388  -4.860  1.00 20.00     0.013 A 
ENDBRANCH   1   3
BRANCH   1   6
HETATM    6  C9  UNL     1     -34.848  16.243  -2.392  1.00 20.00     0.083 C 
BRANCH   6   7
HETATM    7  C8  UNL     1     -34.091  16.704  -1.164  1.00 20.00    -0.008 C 
HETATM    8  C5  UNL     1     -34.943  17.165   0.047  1.00 20.00     0.005 C 
HETATM    9  C2  UNL     1     -33.869  18.243   0.299  1.00 20.00     0.001 C 
HETATM   10  C6  UNL     1     -33.521  18.145  -1.201  1.00 20.00     0.005 C 
ENDBRANCH   6   7
ENDBRANCH   1   6
TORSDOF 3
ENDMDL
MODEL 8
REMARK VINA RESULT:      -4.4     10.609     12.669
REMARK  3 active torsions:
REMARK  status: ('A' for Active; 'I' for Inactive)
REMARK    1  A    between atoms: C1_1  and  C7_7 
REMARK    2  A    between atoms: C1_1  and  C9_9 
REMARK    3  A    between atoms: C8_8  and  C9_9 
ROOT
HETATM    1  C1  UNL     1     -34.980  13.635  -4.370  1.00 20.00     0.131 C 
HETATM    2  O10 UNL     1     -34.819  12.521  -4.865  1.00 20.00    -0.298 OA
ENDROOT
BRANCH   1   3
HETATM    3  C7  UNL     1     -34.044  14.155  -3.309  1.00 20.00     0.055 A 
HETATM    4  C3  UNL     1     -33.068  15.208  -3.694  1.00 20.00     0.013 A 
HETATM    5  C4  UNL     1     -34.241  15.546  -2.825  1.00 20.00     0.013 A 
ENDBRANCH   1   3
BRANCH   1   6
HETATM    6  C9  UNL     1     -36.114  14.560  -4.778  1.00 20.00     0.083 C 
BRANCH   6   7
HETATM    7  C8  UNL     1     -35.917  15.157  -6.155  1.00 20.00    -0.008 C 
HETATM    8  C5  UNL     1     -34.570  14.850  -6.861  1.00 20.00     0.005 C 
HETATM    9  C2  UNL     1     -34.620  16.287  -7.421  1.00 20.00     0.001 C 
HETATM   10  C6  UNL     1     -35.505  16.651  -6.211  1.00 20.00     0.005 C 
ENDBRANCH   6   7
ENDBRANCH   1   6
TORSDOF 3
ENDMDL
MODEL 9
REMARK VINA RESULT:      -4.4     10.976     12.047
REMARK  3 active torsions:
REMARK  status: ('A' for Active; 'I' for Inactive)
REMARK    1  A    between atoms: C1_1  and  C7_7 
REMARK    2  A    between atoms: C1_1  and  C9_9 
REMARK    3  A    between atoms: C8_8  and  C9_9 
ROOT
HETATM    1  C1  UNL     1     -34.543  15.917  -4.608  1.00 20.00     0.131 C 
HETATM    2  O10 UNL     1     -35.547  16.424  -5.107  1.00 20.00    -0.298 OA
ENDROOT
BRANCH   1   3
HETATM    3  C7  UNL     1     -34.179  14.482  -4.887  1.00 20.00     0.055 A 
HETATM    4  C3  UNL     1     -33.518  13.706  -3.805  1.00 20.00     0.013 A 
HETATM    5  C4  UNL     1     -34.941  13.419  -4.181  1.00 20.00     0.013 A 
ENDBRANCH   1   3
BRANCH   1   6
HETATM    6  C9  UNL     1     -33.608  16.681  -3.688  1.00 20.00     0.083 C 
BRANCH   6   7
HETATM    7  C8  UNL     1     -34.309  17.233  -2.465  1.00 20.00    -0.008 C 
HETATM    8  C5  UNL     1     -33.411  17.602  -1.255  1.00 20.00     0.005 C 
HETATM    9  C2  UNL     1     -34.546  17.083  -0.348  1.00 20.00     0.001 C 
HETATM   10  C6  UNL     1     -34.992  16.199  -1.531  1.00 20.00     0.005 C 
ENDBRANCH   6   7
ENDBRANCH   1   6
TORSDOF 3
ENDMDL
