MODEL 1
REMARK VINA RESULT:      -5.1      0.000      0.000
REMARK  1 active torsions:
REMARK  status: ('A' for Active; 'I' for Inactive)
REMARK    1  A    between atoms: C9_9  and  O10_10 
ROOT
HETATM    1  C1  UNL     1     -34.242  15.629  -5.897  1.00 20.00     0.001 C 
HETATM    2  C2  UNL     1     -33.259  16.235  -4.899  1.00 20.00     0.005 C 
HETATM    3  C3  UNL     1     -35.636  15.340  -5.349  1.00 20.00     0.007 C 
HETATM    4  C4  UNL     1     -34.069  15.976  -2.507  1.00 20.00     0.005 C 
HETATM    5  C5  UNL     1     -35.528  15.669  -2.832  1.00 20.00     0.007 C 
HETATM    6  C6  UNL     1     -33.240  13.948  -3.739  1.00 20.00     0.036 C 
HETATM    7  C7  UNL     1     -33.092  15.469  -3.572  1.00 20.00    -0.012 C 
HETATM    8  C8  UNL     1     -35.702  14.652  -3.970  1.00 20.00     0.014 C 
HETATM    9  C9  UNL     1     -34.707  13.493  -3.800  1.00 20.00     0.122 C 
ENDROOT
BRANCH   9  10
HETATM   10  O10 UNL     1     -34.883  12.544  -4.848  1.00 20.00    -0.395 OA
HETATM   11  H26 UNL     1     -34.359  11.765  -4.607  1.00 20.00     0.210 HD
ENDBRANCH   9  10
TORSDOF 1
ENDMDL
MODEL 2
REMARK VINA RESULT:      -4.8      0.934      2.286
REMARK  1 active torsions:
REMARK  status: ('A' for Active; 'I' for Inactive)
REMARK    1  A    between atoms: C9_9  and  O10_10 
ROOT
HETATM    1  C1  UNL     1     -36.564  15.640  -4.212  1.00 20.00     0.001 C 
HETATM    2  C2  UNL     1     -35.884  16.412  -5.340  1.00 20.00     0.005 C 
HETATM    3  C3  UNL     1     -35.667  15.284  -3.031  1.00 20.00     0.007 C 
HETATM    4  C4  UNL     1     -33.354  16.297  -5.166  1.00 20.00     0.005 C 
HETATM    5  C5  UNL     1     -33.284  15.841  -3.711  1.00 20.00     0.007 C 
HETATM    6  C6  UNL     1     -34.622  14.246  -5.876  1.00 20.00     0.036 C 
HETATM    7  C7  UNL     1     -34.595  15.782  -5.902  1.00 20.00    -0.012 C 
HETATM    8  C8  UNL     1     -34.275  14.717  -3.372  1.00 20.00     0.014 C 
HETATM    9  C9  UNL     1     -34.284  13.665  -4.493  1.00 20.00     0.122 C 
ENDROOT
BRANCH   9  10
HETATM   10  O10 UNL     1     -35.192  12.616  -4.167  1.00 20.00    -0.395 OA
HETATM   11  H26 UNL     1     -35.220  12.565  -3.200  1.00 20.00     0.210 HD
ENDBRANCH   9  10
TORSDOF 1
ENDMDL
MODEL 3
REMARK VINA RESULT:      -4.7      1.523      2.502
REMARK  1 active torsions:
REMARK  status: ('A' for Active; 'I' for Inactive)
REMARK    1  A    between atoms: C9_9  and  O10_10 
ROOT
HETATM    1  C1  UNL     1     -34.718  13.644  -5.405  1.00 20.00     0.001 C 
HETATM    2  C2  UNL     1     -35.414  14.879  -5.971  1.00 20.00     0.005 C 
HETATM    3  C3  UNL     1     -34.694  13.547  -3.883  1.00 20.00     0.007 C 
HETATM    4  C4  UNL     1     -35.745  16.666  -4.199  1.00 20.00     0.005 C 
HETATM    5  C5  UNL     1     -35.529  15.771  -2.983  1.00 20.00     0.007 C 
HETATM    6  C6  UNL     1     -33.431  16.237  -5.080  1.00 20.00     0.036 C 
HETATM    7  C7  UNL     1     -34.929  16.234  -5.422  1.00 20.00    -0.012 C 
HETATM    8  C8  UNL     1     -34.320  14.833  -3.119  1.00 20.00     0.014 C 
HETATM    9  C9  UNL     1     -33.126  15.593  -3.718  1.00 20.00     0.122 C 
ENDROOT
BRANCH   9  10
HETATM   10  O10 UNL     1     -32.003  14.724  -3.827  1.00 20.00    -0.395 OA
HETATM   11  H26 UNL     1     -32.320  13.832  -3.620  1.00 20.00     0.210 HD
ENDBRANCH   9  10
TORSDOF 1
ENDMDL
MODEL 4
REMARK VINA RESULT:      -4.7      1.405      2.452
REMARK  1 active torsions:
REMARK  status: ('A' for Active; 'I' for Inactive)
REMARK    1  A    between atoms: C9_9  and  O10_10 
ROOT
HETATM    1  C1  UNL     1     -34.582  13.276  -4.163  1.00 20.00     0.001 C 
HETATM    2  C2  UNL     1     -33.292  13.992  -3.769  1.00 20.00     0.005 C 
HETATM    3  C3  UNL     1     -35.467  14.021  -5.157  1.00 20.00     0.007 C 
HETATM    4  C4  UNL     1     -33.351  16.449  -4.406  1.00 20.00     0.005 C 
HETATM    5  C5  UNL     1     -34.509  16.362  -5.395  1.00 20.00     0.007 C 
HETATM    6  C6  UNL     1     -34.768  15.652  -2.489  1.00 20.00     0.036 C 
HETATM    7  C7  UNL     1     -33.456  15.437  -3.260  1.00 20.00    -0.012 C 
HETATM    8  C8  UNL     1     -35.690  15.522  -4.885  1.00 20.00     0.014 C 
HETATM    9  C9  UNL     1     -35.979  15.856  -3.413  1.00 20.00     0.122 C 
ENDROOT
BRANCH   9  10
HETATM   10  O10 UNL     1     -37.085  15.088  -2.949  1.00 20.00    -0.395 OA
HETATM   11  H26 UNL     1     -37.084  15.156  -1.982  1.00 20.00     0.210 HD
ENDBRANCH   9  10
TORSDOF 1
ENDMDL
MODEL 5
REMARK VINA RESULT:      -4.6      1.601      2.971
REMARK  1 active torsions:
REMARK  status: ('A' for Active; 'I' for Inactive)
REMARK    1  A    between atoms: C9_9  and  O10_10 
ROOT
HETATM    1  C1  UNL     1     -33.254  16.392  -4.438  1.00 20.00     0.001 C 
HETATM    2  C2  UNL     1     -33.821  16.176  -5.839  1.00 20.00     0.005 C 
HETATM    3  C3  UNL     1     -33.190  15.148  -3.559  1.00 20.00     0.007 C 
HETATM    4  C4  UNL     1     -35.050  13.961  -6.023  1.00 20.00     0.005 C 
HETATM    5  C5  UNL     1     -34.465  13.314  -4.771  1.00 20.00     0.007 C 
HETATM    6  C6  UNL     1     -36.100  15.833  -4.714  1.00 20.00     0.036 C 
HETATM    7  C7  UNL     1     -35.196  15.482  -5.907  1.00 20.00    -0.012 C 
HETATM    8  C8  UNL     1     -34.443  14.248  -3.551  1.00 20.00     0.014 C 
HETATM    9  C9  UNL     1     -35.768  15.020  -3.452  1.00 20.00     0.122 C 
ENDROOT
BRANCH   9  10
HETATM   10  O10 UNL     1     -35.750  15.871  -2.311  1.00 20.00    -0.395 OA
HETATM   11  H26 UNL     1     -34.900  15.724  -1.868  1.00 20.00     0.210 HD
ENDBRANCH   9  10
TORSDOF 1
ENDMDL
MODEL 6
REMARK VINA RESULT:      -4.5      1.072      1.243
REMARK  1 active torsions:
REMARK  status: ('A' for Active; 'I' for Inactive)
REMARK    1  A    between atoms: C9_9  and  O10_10 
ROOT
HETATM    1  C1  UNL     1     -34.302  15.183  -6.312  1.00 20.00     0.001 C 
HETATM    2  C2  UNL     1     -34.214  16.516  -5.574  1.00 20.00     0.005 C 
HETATM    3  C3  UNL     1     -35.289  14.176  -5.730  1.00 20.00     0.007 C 
HETATM    4  C4  UNL     1     -35.266  16.384  -3.267  1.00 20.00     0.005 C 
HETATM    5  C5  UNL     1     -36.064  15.104  -3.495  1.00 20.00     0.007 C 
HETATM    6  C6  UNL     1     -33.069  15.231  -3.673  1.00 20.00     0.036 C 
HETATM    7  C7  UNL     1     -33.954  16.428  -4.057  1.00 20.00    -0.012 C 
HETATM    8  C8  UNL     1     -35.263  13.998  -4.199  1.00 20.00     0.014 C 
HETATM    9  C9  UNL     1     -33.850  13.908  -3.602  1.00 20.00     0.122 C 
ENDROOT
BRANCH   9  10
HETATM   10  O10 UNL     1     -33.116  12.870  -4.245  1.00 20.00    -0.395 OA
HETATM   11  H26 UNL     1     -33.718  12.460  -4.884  1.00 20.00     0.210 HD
ENDBRANCH   9  10
TORSDOF 1
ENDMDL
MODEL 7
REMARK VINA RESULT:      -4.5      1.688      2.951
REMARK  1 active torsions:
REMARK  status: ('A' for Active; 'I' for Inactive)
REMARK    1  A    between atoms: C9_9  and  O10_10 
ROOT
HETATM    1  C1  UNL     1     -33.826  16.378  -5.750  1.00 20.00     0.001 C 
HETATM    2  C2  UNL     1     -34.399  15.143  -6.442  1.00 20.00     0.005 C 
HETATM    3  C3  UNL     1     -33.105  16.113  -4.433  1.00 20.00     0.007 C 
HETATM    4  C4  UNL     1     -34.515  13.154  -4.869  1.00 20.00     0.005 C 
HETATM    5  C5  UNL     1     -33.556  13.692  -3.811  1.00 20.00     0.007 C 
HETATM    6  C6  UNL     1     -36.127  15.056  -4.550  1.00 20.00     0.036 C 
HETATM    7  C7  UNL     1     -35.313  14.253  -5.577  1.00 20.00    -0.012 C 
HETATM    8  C8  UNL     1     -33.809  15.162  -3.444  1.00 20.00     0.014 C 
HETATM    9  C9  UNL     1     -35.317  15.417  -3.294  1.00 20.00     0.122 C 
ENDROOT
BRANCH   9  10
HETATM   10  O10 UNL     1     -35.545  16.778  -2.938  1.00 20.00    -0.395 OA
HETATM   11  H26 UNL     1     -36.420  17.012  -3.283  1.00 20.00     0.210 HD
ENDBRANCH   9  10
TORSDOF 1
ENDMDL
MODEL 8
REMARK VINA RESULT:      -4.5      1.723      3.174
REMARK  1 active torsions:
REMARK  status: ('A' for Active; 'I' for Inactive)
REMARK    1  A    between atoms: C9_9  and  O10_10 
ROOT
HETATM    1  C1  UNL     1     -34.178  13.798  -3.535  1.00 20.00     0.001 C 
HETATM    2  C2  UNL     1     -35.280  13.326  -4.481  1.00 20.00     0.005 C 
HETATM    3  C3  UNL     1     -34.338  15.218  -3.001  1.00 20.00     0.007 C 
HETATM    4  C4  UNL     1     -36.671  15.266  -5.346  1.00 20.00     0.005 C 
HETATM    5  C5  UNL     1     -36.243  16.289  -4.298  1.00 20.00     0.007 C 
HETATM    6  C6  UNL     1     -34.324  14.974  -6.196  1.00 20.00     0.036 C 
HETATM    7  C7  UNL     1     -35.576  14.247  -5.680  1.00 20.00    -0.012 C 
HETATM    8  C8  UNL     1     -34.730  16.297  -4.030  1.00 20.00     0.014 C 
HETATM    9  C9  UNL     1     -33.959  16.209  -5.356  1.00 20.00     0.122 C 
ENDROOT
BRANCH   9  10
HETATM   10  O10 UNL     1     -32.557  16.234  -5.105  1.00 20.00    -0.395 OA
HETATM   11  H26 UNL     1     -32.391  17.001  -4.537  1.00 20.00     0.210 HD
ENDBRANCH   9  10
TORSDOF 1
ENDMDL
MODEL 9
REMARK VINA RESULT:      -4.5      1.011      2.825
REMARK  1 active torsions:
REMARK  status: ('A' for Active; 'I' for Inactive)
REMARK    1  A    between atoms: C9_9  and  O10_10 
ROOT
HETATM    1  C1  UNL     1     -34.451  15.615  -2.513  1.00 20.00     0.001 C 
HETATM    2  C2  UNL     1     -35.577  16.539  -2.972  1.00 20.00     0.005 C 
HETATM    3  C3  UNL     1     -33.490  15.162  -3.606  1.00 20.00     0.007 C 
HETATM    4  C4  UNL     1     -35.847  16.507  -5.496  1.00 20.00     0.005 C 
HETATM    5  C5  UNL     1     -34.491  15.890  -5.825  1.00 20.00     0.007 C 
HETATM    6  C6  UNL     1     -36.574  14.502  -4.167  1.00 20.00     0.036 C 
HETATM    7  C7  UNL     1     -36.420  16.031  -4.158  1.00 20.00    -0.012 C 
HETATM    8  C8  UNL     1     -34.127  14.695  -4.930  1.00 20.00     0.014 C 
HETATM    9  C9  UNL     1     -35.348  13.780  -4.750  1.00 20.00     0.122 C 
ENDROOT
BRANCH   9  10
HETATM   10  O10 UNL     1     -35.002  12.665  -3.934  1.00 20.00    -0.395 OA
HETATM   11  H26 UNL     1     -35.821  12.171  -3.777  1.00 20.00     0.210 HD
ENDBRANCH   9  10
TORSDOF 1
ENDMDL
