MODEL 1
REMARK VINA RESULT:      -3.4      0.000      0.000
REMARK  2 active torsions:
REMARK  status: ('A' for Active; 'I' for Inactive)
REMARK    1  A    between atoms: C1_1  and  C2_2 
REMARK    2  A    between atoms: C2_2  and  O3_3 
ROOT
HETATM    1  C2  UNL     1     -34.816  13.822  -4.315  1.00 20.00     0.226 C 
HETATM    2 CL5  UNL     1     -34.769  14.209  -6.054  1.00 20.00    -0.070 Cl
HETATM    3 CL6  UNL     1     -33.141  13.753  -3.696  1.00 20.00    -0.070 Cl
ENDROOT
BRANCH   1   4
HETATM    4  C1  UNL     1     -35.604  14.859  -3.517  1.00 20.00     0.187 C 
HETATM    5 CL4  UNL     1     -34.599  15.691  -2.295  1.00 20.00    -0.125 Cl
ENDBRANCH   1   4
BRANCH   1   6
HETATM    6  O3  UNL     1     -35.394  12.536  -4.144  1.00 20.00    -0.361 OA
HETATM    7  H9  UNL     1     -36.278  12.679  -3.765  1.00 20.00     0.213 HD
ENDBRANCH   1   6
TORSDOF 2
ENDMDL
MODEL 2
REMARK VINA RESULT:      -3.3      1.162      2.538
REMARK  2 active torsions:
REMARK  status: ('A' for Active; 'I' for Inactive)
REMARK    1  A    between atoms: C1_1  and  C2_2 
REMARK    2  A    between atoms: C2_2  and  O3_3 
ROOT
HETATM    1  C2  UNL     1     -34.814  13.774  -4.328  1.00 20.00     0.226 C 
HETATM    2 CL5  UNL     1     -33.137  13.758  -3.725  1.00 20.00    -0.070 Cl
HETATM    3 CL6  UNL     1     -35.746  14.985  -3.401  1.00 20.00    -0.070 Cl
ENDROOT
BRANCH   1   4
HETATM    4  C1  UNL     1     -34.887  14.115  -5.814  1.00 20.00     0.187 C 
HETATM    5 CL4  UNL     1     -34.048  15.645  -6.208  1.00 20.00    -0.125 Cl
ENDBRANCH   1   4
BRANCH   1   6
HETATM    6  O3  UNL     1     -35.402  12.502  -4.092  1.00 20.00    -0.361 OA
HETATM    7  H9  UNL     1     -34.694  11.846  -4.213  1.00 20.00     0.213 HD
ENDBRANCH   1   6
TORSDOF 2
ENDMDL
MODEL 3
REMARK VINA RESULT:      -3.2     12.421     12.661
REMARK  2 active torsions:
REMARK  status: ('A' for Active; 'I' for Inactive)
REMARK    1  A    between atoms: C1_1  and  C2_2 
REMARK    2  A    between atoms: C2_2  and  O3_3 
ROOT
HETATM    1  C2  UNL     1     -34.904   4.952   4.748  1.00 20.00     0.226 C 
HETATM    2 CL5  UNL     1     -36.192   5.748   3.808  1.00 20.00    -0.070 Cl
HETATM    3 CL6  UNL     1     -33.326   5.344   4.006  1.00 20.00    -0.070 Cl
ENDROOT
BRANCH   1   4
HETATM    4  C1  UNL     1     -34.897   5.400   6.207  1.00 20.00     0.187 C 
HETATM    5 CL4  UNL     1     -33.822   6.801   6.489  1.00 20.00    -0.125 Cl
ENDBRANCH   1   4
BRANCH   1   6
HETATM    6  O3  UNL     1     -35.080   3.544   4.673  1.00 20.00    -0.361 OA
HETATM    7  H9  UNL     1     -34.953   3.203   5.574  1.00 20.00     0.213 HD
ENDBRANCH   1   6
TORSDOF 2
ENDMDL
MODEL 4
REMARK VINA RESULT:      -3.2      1.331      1.832
REMARK  2 active torsions:
REMARK  status: ('A' for Active; 'I' for Inactive)
REMARK    1  A    between atoms: C1_1  and  C2_2 
REMARK    2  A    between atoms: C2_2  and  O3_3 
ROOT
HETATM    1  C2  UNL     1     -35.166  13.954  -4.280  1.00 20.00     0.226 C 
HETATM    2 CL5  UNL     1     -36.782  14.579  -3.863  1.00 20.00    -0.070 Cl
HETATM    3 CL6  UNL     1     -34.833  14.323  -5.997  1.00 20.00    -0.070 Cl
ENDROOT
BRANCH   1   4
HETATM    4  C1  UNL     1     -34.071  14.569  -3.413  1.00 20.00     0.187 C 
HETATM    5 CL4  UNL     1     -34.712  15.751  -2.235  1.00 20.00    -0.125 Cl
ENDBRANCH   1   4
BRANCH   1   6
HETATM    6  O3  UNL     1     -35.166  12.541  -4.134  1.00 20.00    -0.361 OA
HETATM    7  H9  UNL     1     -36.098  12.267  -4.110  1.00 20.00     0.213 HD
ENDBRANCH   1   6
TORSDOF 2
ENDMDL
MODEL 5
REMARK VINA RESULT:      -3.2     11.845     12.209
REMARK  2 active torsions:
REMARK  status: ('A' for Active; 'I' for Inactive)
REMARK    1  A    between atoms: C1_1  and  C2_2 
REMARK    2  A    between atoms: C2_2  and  O3_3 
ROOT
HETATM    1  C2  UNL     1     -34.782   5.342   3.964  1.00 20.00     0.226 C 
HETATM    2 CL5  UNL     1     -33.930   4.980   2.441  1.00 20.00    -0.070 Cl
HETATM    3 CL6  UNL     1     -34.943   3.830   4.904  1.00 20.00    -0.070 Cl
ENDROOT
BRANCH   1   4
HETATM    4  C1  UNL     1     -34.041   6.378   4.804  1.00 20.00     0.187 C 
HETATM    5 CL4  UNL     1     -34.273   6.131   6.560  1.00 20.00    -0.125 Cl
ENDBRANCH   1   4
BRANCH   1   6
HETATM    6  O3  UNL     1     -36.090   5.806   3.662  1.00 20.00    -0.361 OA
HETATM    7  H9  UNL     1     -36.031   6.774   3.600  1.00 20.00     0.213 HD
ENDBRANCH   1   6
TORSDOF 2
ENDMDL
MODEL 6
REMARK VINA RESULT:      -3.1      2.209      3.280
REMARK  2 active torsions:
REMARK  status: ('A' for Active; 'I' for Inactive)
REMARK    1  A    between atoms: C1_1  and  C2_2 
REMARK    2  A    between atoms: C2_2  and  O3_3 
ROOT
HETATM    1  C2  UNL     1     -33.533  15.278  -4.124  1.00 20.00     0.226 C 
HETATM    2 CL5  UNL     1     -33.756  16.129  -2.574  1.00 20.00    -0.070 Cl
HETATM    3 CL6  UNL     1     -33.311  13.535  -3.796  1.00 20.00    -0.070 Cl
ENDROOT
BRANCH   1   4
HETATM    4  C1  UNL     1     -34.725  15.465  -5.059  1.00 20.00     0.187 C 
HETATM    5 CL4  UNL     1     -34.375  14.937  -6.731  1.00 20.00    -0.125 Cl
ENDBRANCH   1   4
BRANCH   1   6
HETATM    6  O3  UNL     1     -32.348  15.756  -4.746  1.00 20.00    -0.361 OA
HETATM    7  H9  UNL     1     -32.243  16.681  -4.464  1.00 20.00     0.213 HD
ENDBRANCH   1   6
TORSDOF 2
ENDMDL
MODEL 7
REMARK VINA RESULT:      -3.1     11.570     12.139
REMARK  2 active torsions:
REMARK  status: ('A' for Active; 'I' for Inactive)
REMARK    1  A    between atoms: C1_1  and  C2_2 
REMARK    2  A    between atoms: C2_2  and  O3_3 
ROOT
HETATM    1  C2  UNL     1     -34.730   5.324   4.232  1.00 20.00     0.226 C 
HETATM    2 CL5  UNL     1     -34.875   3.691   4.931  1.00 20.00    -0.070 Cl
HETATM    3 CL6  UNL     1     -34.159   6.444   5.502  1.00 20.00    -0.070 Cl
ENDROOT
BRANCH   1   4
HETATM    4  C1  UNL     1     -33.757   5.361   3.056  1.00 20.00     0.187 C 
HETATM    5 CL4  UNL     1     -32.372   6.454   3.346  1.00 20.00    -0.125 Cl
ENDBRANCH   1   4
BRANCH   1   6
HETATM    6  O3  UNL     1     -36.015   5.763   3.813  1.00 20.00    -0.361 OA
HETATM    7  H9  UNL     1     -36.457   6.113   4.605  1.00 20.00     0.213 HD
ENDBRANCH   1   6
TORSDOF 2
ENDMDL
MODEL 8
REMARK VINA RESULT:      -3.1     12.047     12.308
REMARK  2 active torsions:
REMARK  status: ('A' for Active; 'I' for Inactive)
REMARK    1  A    between atoms: C1_1  and  C2_2 
REMARK    2  A    between atoms: C2_2  and  O3_3 
ROOT
HETATM    1  C2  UNL     1     -41.283   4.814  -1.171  1.00 20.00     0.226 C 
HETATM    2 CL5  UNL     1     -40.966   6.567  -1.219  1.00 20.00    -0.070 Cl
HETATM    3 CL6  UNL     1     -42.119   4.423   0.360  1.00 20.00    -0.070 Cl
ENDROOT
BRANCH   1   4
HETATM    4  C1  UNL     1     -42.145   4.354  -2.344  1.00 20.00     0.187 C 
HETATM    5 CL4  UNL     1     -41.604   2.789  -3.020  1.00 20.00    -0.125 Cl
ENDBRANCH   1   4
BRANCH   1   6
HETATM    6  O3  UNL     1     -40.043   4.120  -1.177  1.00 20.00    -0.361 OA
HETATM    7  H9  UNL     1     -39.851   3.908  -2.106  1.00 20.00     0.213 HD
ENDBRANCH   1   6
TORSDOF 2
ENDMDL
MODEL 9
REMARK VINA RESULT:      -3.1     12.028     12.586
REMARK  2 active torsions:
REMARK  status: ('A' for Active; 'I' for Inactive)
REMARK    1  A    between atoms: C1_1  and  C2_2 
REMARK    2  A    between atoms: C2_2  and  O3_3 
ROOT
HETATM    1  C2  UNL     1     -34.817   4.975   4.769  1.00 20.00     0.226 C 
HETATM    2 CL5  UNL     1     -34.716   5.757   6.367  1.00 20.00    -0.070 Cl
HETATM    3 CL6  UNL     1     -36.097   5.780   3.816  1.00 20.00    -0.070 Cl
ENDROOT
BRANCH   1   4
HETATM    4  C1  UNL     1     -33.498   5.054   4.006  1.00 20.00     0.187 C 
HETATM    5 CL4  UNL     1     -33.122   6.714   3.457  1.00 20.00    -0.125 Cl
ENDBRANCH   1   4
BRANCH   1   6
HETATM    6  O3  UNL     1     -35.197   3.617   4.943  1.00 20.00    -0.361 OA
HETATM    7  H9  UNL     1     -34.382   3.128   5.151  1.00 20.00     0.213 HD
ENDBRANCH   1   6
TORSDOF 2
ENDMDL
