MODEL 1
REMARK VINA RESULT:      -4.7      0.000      0.000
REMARK  5 active torsions:
REMARK  status: ('A' for Active; 'I' for Inactive)
REMARK    1  A    between atoms: C3_3  and  C8_8 
REMARK    2  A    between atoms: C6_6  and  C7_7 
REMARK    3  A    between atoms: C7_7  and  C9_9 
REMARK    4  A    between atoms: C8_8  and  C9_9 
REMARK    5  A    between atoms: C8_8  and  O10_10 
ROOT
HETATM    1  C8  UNL     1     -34.437  13.618  -4.707  1.00 20.00     0.126 C 
ENDROOT
BRANCH   1   2
HETATM    2  C3  UNL     1     -35.104  14.610  -5.618  1.00 20.00     0.015 A 
HETATM    3  C1  UNL     1     -34.333  15.241  -6.744  1.00 20.00     0.007 A 
HETATM    4  C2  UNL     1     -35.414  14.240  -7.042  1.00 20.00     0.007 A 
ENDBRANCH   1   2
BRANCH   1   5
HETATM    5  C9  UNL     1     -33.850  14.225  -3.410  1.00 20.00     0.011 C 
HETATM    6  C5  UNL     1     -32.406  14.712  -3.583  1.00 20.00     0.012 C 
BRANCH   5   7
HETATM    7  C7  UNL     1     -34.772  15.329  -2.852  1.00 20.00     0.006 C 
BRANCH   7   8
HETATM    8  C6  UNL     1     -34.013  16.443  -2.124  1.00 20.00    -0.004 C 
HETATM    9  C4  UNL     1     -34.592  16.696  -0.741  1.00 20.00     0.005 C 
ENDBRANCH   7   8
ENDBRANCH   5   7
ENDBRANCH   1   5
BRANCH   1  10
HETATM   10  O10 UNL     1     -35.380  12.604  -4.351  1.00 20.00    -0.395 OA
HETATM   11  H28 UNL     1     -35.739  12.859  -3.488  1.00 20.00     0.210 HD
ENDBRANCH   1  10
TORSDOF 5
ENDMDL
MODEL 2
REMARK VINA RESULT:      -4.4     10.804     12.086
REMARK  5 active torsions:
REMARK  status: ('A' for Active; 'I' for Inactive)
REMARK    1  A    between atoms: C3_3  and  C8_8 
REMARK    2  A    between atoms: C6_6  and  C7_7 
REMARK    3  A    between atoms: C7_7  and  C9_9 
REMARK    4  A    between atoms: C8_8  and  C9_9 
REMARK    5  A    between atoms: C8_8  and  O10_10 
ROOT
HETATM    1  C8  UNL     1     -34.079   6.087   4.159  1.00 20.00     0.126 C 
ENDROOT
BRANCH   1   2
HETATM    2  C3  UNL     1     -33.961   5.192   5.360  1.00 20.00     0.015 A 
HETATM    3  C1  UNL     1     -34.801   5.448   6.581  1.00 20.00     0.007 A 
HETATM    4  C2  UNL     1     -35.078   4.251   5.716  1.00 20.00     0.007 A 
ENDBRANCH   1   2
BRANCH   1   5
HETATM    5  C9  UNL     1     -32.730   6.594   3.595  1.00 20.00     0.011 C 
HETATM    6  C5  UNL     1     -32.059   5.578   2.660  1.00 20.00     0.012 C 
BRANCH   5   7
HETATM    7  C7  UNL     1     -32.896   7.975   2.927  1.00 20.00     0.006 C 
BRANCH   7   8
HETATM    8  C6  UNL     1     -31.903   8.221   1.787  1.00 20.00    -0.004 C 
HETATM    9  C4  UNL     1     -32.283   9.451   0.977  1.00 20.00     0.005 C 
ENDBRANCH   7   8
ENDBRANCH   5   7
ENDBRANCH   1   5
BRANCH   1  10
HETATM   10  O10 UNL     1     -34.773   5.389   3.123  1.00 20.00    -0.395 OA
HETATM   11  H28 UNL     1     -34.378   5.679   2.288  1.00 20.00     0.210 HD
ENDBRANCH   1  10
TORSDOF 5
ENDMDL
MODEL 3
REMARK VINA RESULT:      -4.4      1.790      4.459
REMARK  5 active torsions:
REMARK  status: ('A' for Active; 'I' for Inactive)
REMARK    1  A    between atoms: C3_3  and  C8_8 
REMARK    2  A    between atoms: C6_6  and  C7_7 
REMARK    3  A    between atoms: C7_7  and  C9_9 
REMARK    4  A    between atoms: C8_8  and  C9_9 
REMARK    5  A    between atoms: C8_8  and  O10_10 
ROOT
HETATM    1  C8  UNL     1     -34.961  16.549  -2.780  1.00 20.00     0.126 C 
ENDROOT
BRANCH   1   2
HETATM    2  C3  UNL     1     -34.187  16.486  -1.494  1.00 20.00     0.015 A 
HETATM    3  C1  UNL     1     -33.631  17.742  -0.882  1.00 20.00     0.007 A 
HETATM    4  C2  UNL     1     -34.781  17.032  -0.225  1.00 20.00     0.007 A 
ENDBRANCH   1   2
BRANCH   1   5
HETATM    5  C9  UNL     1     -34.175  16.089  -4.031  1.00 20.00     0.011 C 
HETATM    6  C5  UNL     1     -33.639  17.263  -4.860  1.00 20.00     0.012 C 
BRANCH   5   7
HETATM    7  C7  UNL     1     -33.060  15.094  -3.645  1.00 20.00     0.006 C 
BRANCH   7   8
HETATM    8  C6  UNL     1     -33.482  13.627  -3.780  1.00 20.00    -0.004 C 
HETATM    9  C4  UNL     1     -34.525  13.449  -4.871  1.00 20.00     0.005 C 
ENDBRANCH   7   8
ENDBRANCH   5   7
ENDBRANCH   1   5
BRANCH   1  10
HETATM   10  O10 UNL     1     -36.136  15.743  -2.658  1.00 20.00    -0.395 OA
HETATM   11  H28 UNL     1     -36.811  16.161  -3.212  1.00 20.00     0.210 HD
ENDBRANCH   1  10
TORSDOF 5
ENDMDL
MODEL 4
REMARK VINA RESULT:      -4.3     11.077     12.364
REMARK  5 active torsions:
REMARK  status: ('A' for Active; 'I' for Inactive)
REMARK    1  A    between atoms: C3_3  and  C8_8 
REMARK    2  A    between atoms: C6_6  and  C7_7 
REMARK    3  A    between atoms: C7_7  and  C9_9 
REMARK    4  A    between atoms: C8_8  and  C9_9 
REMARK    5  A    between atoms: C8_8  and  O10_10 
ROOT
HETATM    1  C8  UNL     1     -33.352   5.809   4.783  1.00 20.00     0.126 C 
ENDROOT
BRANCH   1   2
HETATM    2  C3  UNL     1     -34.727   5.275   5.071  1.00 20.00     0.015 A 
HETATM    3  C1  UNL     1     -34.910   3.851   5.516  1.00 20.00     0.007 A 
HETATM    4  C2  UNL     1     -35.143   4.977   6.484  1.00 20.00     0.007 A 
ENDBRANCH   1   2
BRANCH   1   5
HETATM    5  C9  UNL     1     -33.072   6.102   3.290  1.00 20.00     0.011 C 
HETATM    6  C5  UNL     1     -34.130   5.498   2.357  1.00 20.00     0.012 C 
BRANCH   5   7
HETATM    7  C7  UNL     1     -32.885   7.615   3.051  1.00 20.00     0.006 C 
BRANCH   7   8
HETATM    8  C6  UNL     1     -31.860   7.935   1.958  1.00 20.00    -0.004 C 
HETATM    9  C4  UNL     1     -32.245   9.189   1.188  1.00 20.00     0.005 C 
ENDBRANCH   7   8
ENDBRANCH   5   7
ENDBRANCH   1   5
BRANCH   1  10
HETATM   10  O10 UNL     1     -33.153   7.012   5.529  1.00 20.00    -0.395 OA
HETATM   11  H28 UNL     1     -32.195   7.117   5.623  1.00 20.00     0.210 HD
ENDBRANCH   1  10
TORSDOF 5
ENDMDL
MODEL 5
REMARK VINA RESULT:      -4.2      2.053      2.835
REMARK  5 active torsions:
REMARK  status: ('A' for Active; 'I' for Inactive)
REMARK    1  A    between atoms: C3_3  and  C8_8 
REMARK    2  A    between atoms: C6_6  and  C7_7 
REMARK    3  A    between atoms: C7_7  and  C9_9 
REMARK    4  A    between atoms: C8_8  and  C9_9 
REMARK    5  A    between atoms: C8_8  and  O10_10 
ROOT
HETATM    1  C8  UNL     1     -33.876  15.857  -4.368  1.00 20.00     0.126 C 
ENDROOT
BRANCH   1   2
HETATM    2  C3  UNL     1     -34.192  14.505  -3.795  1.00 20.00     0.015 A 
HETATM    3  C1  UNL     1     -35.504  13.838  -4.105  1.00 20.00     0.007 A 
HETATM    4  C2  UNL     1     -34.229  13.294  -4.685  1.00 20.00     0.007 A 
ENDBRANCH   1   2
BRANCH   1   5
HETATM    5  C9  UNL     1     -34.085  17.039  -3.391  1.00 20.00     0.011 C 
HETATM    6  C5  UNL     1     -35.506  17.613  -3.450  1.00 20.00     0.012 C 
BRANCH   5   7
HETATM    7  C7  UNL     1     -33.677  16.645  -1.956  1.00 20.00     0.006 C 
BRANCH   7   8
HETATM    8  C6  UNL     1     -34.845  16.672  -0.964  1.00 20.00    -0.004 C 
HETATM    9  C4  UNL     1     -34.549  17.584   0.215  1.00 20.00     0.005 C 
ENDBRANCH   7   8
ENDBRANCH   5   7
ENDBRANCH   1   5
BRANCH   1  10
HETATM   10  O10 UNL     1     -32.518  15.869  -4.814  1.00 20.00    -0.395 OA
HETATM   11  H28 UNL     1     -32.140  15.015  -4.557  1.00 20.00     0.210 HD
ENDBRANCH   1  10
TORSDOF 5
ENDMDL
MODEL 6
REMARK VINA RESULT:      -4.1      1.623      4.508
REMARK  5 active torsions:
REMARK  status: ('A' for Active; 'I' for Inactive)
REMARK    1  A    between atoms: C3_3  and  C8_8 
REMARK    2  A    between atoms: C6_6  and  C7_7 
REMARK    3  A    between atoms: C7_7  and  C9_9 
REMARK    4  A    between atoms: C8_8  and  C9_9 
REMARK    5  A    between atoms: C8_8  and  O10_10 
ROOT
HETATM    1  C8  UNL     1     -33.396  14.978  -3.658  1.00 20.00     0.126 C 
ENDROOT
BRANCH   1   2
HETATM    2  C3  UNL     1     -34.107  16.183  -3.110  1.00 20.00     0.015 A 
HETATM    3  C1  UNL     1     -34.824  16.104  -1.791  1.00 20.00     0.007 A 
HETATM    4  C2  UNL     1     -33.558  16.905  -1.910  1.00 20.00     0.007 A 
ENDBRANCH   1   2
BRANCH   1   5
HETATM    5  C9  UNL     1     -34.137  14.260  -4.812  1.00 20.00     0.011 C 
HETATM    6  C5  UNL     1     -35.221  13.296  -4.312  1.00 20.00     0.012 C 
BRANCH   5   7
HETATM    7  C7  UNL     1     -34.692  15.280  -5.829  1.00 20.00     0.006 C 
BRANCH   7   8
HETATM    8  C6  UNL     1     -34.576  14.811  -7.283  1.00 20.00    -0.004 C 
HETATM    9  C4  UNL     1     -35.946  14.632  -7.918  1.00 20.00     0.005 C 
ENDBRANCH   7   8
ENDBRANCH   5   7
ENDBRANCH   1   5
BRANCH   1  10
HETATM   10  O10 UNL     1     -32.103  15.371  -4.122  1.00 20.00    -0.395 OA
HETATM   11  H28 UNL     1     -31.938  14.863  -4.930  1.00 20.00     0.210 HD
ENDBRANCH   1  10
TORSDOF 5
ENDMDL
MODEL 7
REMARK VINA RESULT:      -4.1      1.483      4.505
REMARK  5 active torsions:
REMARK  status: ('A' for Active; 'I' for Inactive)
REMARK    1  A    between atoms: C3_3  and  C8_8 
REMARK    2  A    between atoms: C6_6  and  C7_7 
REMARK    3  A    between atoms: C7_7  and  C9_9 
REMARK    4  A    between atoms: C8_8  and  C9_9 
REMARK    5  A    between atoms: C8_8  and  O10_10 
ROOT
HETATM    1  C8  UNL     1     -34.990  16.266  -2.734  1.00 20.00     0.126 C 
ENDROOT
BRANCH   1   2
HETATM    2  C3  UNL     1     -34.265  16.373  -1.422  1.00 20.00     0.015 A 
HETATM    3  C1  UNL     1     -33.714  17.697  -0.968  1.00 20.00     0.007 A 
HETATM    4  C2  UNL     1     -34.898  17.094  -0.264  1.00 20.00     0.007 A 
ENDBRANCH   1   2
BRANCH   1   5
HETATM    5  C9  UNL     1     -34.302  15.356  -3.780  1.00 20.00     0.011 C 
HETATM    6  C5  UNL     1     -32.777  15.311  -3.616  1.00 20.00     0.012 C 
BRANCH   5   7
HETATM    7  C7  UNL     1     -34.926  13.945  -3.779  1.00 20.00     0.006 C 
BRANCH   7   8
HETATM    8  C6  UNL     1     -34.868  13.254  -5.145  1.00 20.00    -0.004 C 
HETATM    9  C4  UNL     1     -35.116  14.240  -6.275  1.00 20.00     0.005 C 
ENDBRANCH   7   8
ENDBRANCH   5   7
ENDBRANCH   1   5
BRANCH   1  10
HETATM   10  O10 UNL     1     -36.310  15.771  -2.499  1.00 20.00    -0.395 OA
HETATM   11  H28 UNL     1     -36.558  16.071  -1.612  1.00 20.00     0.210 HD
ENDBRANCH   1  10
TORSDOF 5
ENDMDL
MODEL 8
REMARK VINA RESULT:      -4.1     10.606     11.620
REMARK  5 active torsions:
REMARK  status: ('A' for Active; 'I' for Inactive)
REMARK    1  A    between atoms: C3_3  and  C8_8 
REMARK    2  A    between atoms: C6_6  and  C7_7 
REMARK    3  A    between atoms: C7_7  and  C9_9 
REMARK    4  A    between atoms: C8_8  and  C9_9 
REMARK    5  A    between atoms: C8_8  and  O10_10 
ROOT
HETATM    1  C8  UNL     1     -32.631   7.133   3.274  1.00 20.00     0.126 C 
ENDROOT
BRANCH   1   2
HETATM    2  C3  UNL     1     -32.846   7.939   2.024  1.00 20.00     0.015 A 
HETATM    3  C1  UNL     1     -32.506   9.403   1.999  1.00 20.00     0.007 A 
HETATM    4  C2  UNL     1     -31.670   8.424   1.223  1.00 20.00     0.007 A 
ENDBRANCH   1   2
BRANCH   1   5
HETATM    5  C9  UNL     1     -33.929   6.653   3.966  1.00 20.00     0.011 C 
HETATM    6  C5  UNL     1     -34.616   5.508   3.210  1.00 20.00     0.012 C 
BRANCH   5   7
HETATM    7  C7  UNL     1     -33.666   6.296   5.444  1.00 20.00     0.006 C 
BRANCH   7   8
HETATM    8  C6  UNL     1     -34.811   5.510   6.092  1.00 20.00    -0.004 C 
HETATM    9  C4  UNL     1     -34.560   4.012   6.027  1.00 20.00     0.005 C 
ENDBRANCH   7   8
ENDBRANCH   5   7
ENDBRANCH   1   5
BRANCH   1  10
HETATM   10  O10 UNL     1     -31.832   5.990   2.961  1.00 20.00    -0.395 OA
HETATM   11  H28 UNL     1     -32.451   5.274   2.757  1.00 20.00     0.210 HD
ENDBRANCH   1  10
TORSDOF 5
ENDMDL
MODEL 9
REMARK VINA RESULT:      -4.0      2.392      2.752
REMARK  5 active torsions:
REMARK  status: ('A' for Active; 'I' for Inactive)
REMARK    1  A    between atoms: C3_3  and  C8_8 
REMARK    2  A    between atoms: C6_6  and  C7_7 
REMARK    3  A    between atoms: C7_7  and  C9_9 
REMARK    4  A    between atoms: C8_8  and  C9_9 
REMARK    5  A    between atoms: C8_8  and  O10_10 
ROOT
HETATM    1  C8  UNL     1     -33.564  16.386  -4.382  1.00 20.00     0.126 C 
ENDROOT
BRANCH   1   2
HETATM    2  C3  UNL     1     -34.271  17.183  -5.441  1.00 20.00     0.015 A 
HETATM    3  C1  UNL     1     -34.836  18.538  -5.119  1.00 20.00     0.007 A 
HETATM    4  C2  UNL     1     -33.633  18.419  -6.012  1.00 20.00     0.007 A 
ENDBRANCH   1   2
BRANCH   1   5
HETATM    5  C9  UNL     1     -34.398  15.231  -3.777  1.00 20.00     0.011 C 
HETATM    6  C5  UNL     1     -33.615  13.914  -3.693  1.00 20.00     0.012 C 
BRANCH   5   7
HETATM    7  C7  UNL     1     -34.996  15.639  -2.414  1.00 20.00     0.006 C 
BRANCH   7   8
HETATM    8  C6  UNL     1     -34.119  16.628  -1.639  1.00 20.00    -0.004 C 
HETATM    9  C4  UNL     1     -34.751  17.002  -0.307  1.00 20.00     0.005 C 
ENDBRANCH   7   8
ENDBRANCH   5   7
ENDBRANCH   1   5
BRANCH   1  10
HETATM   10  O10 UNL     1     -32.363  15.840  -4.933  1.00 20.00    -0.395 OA
HETATM   11  H28 UNL     1     -31.722  16.565  -4.958  1.00 20.00     0.210 HD
ENDBRANCH   1  10
TORSDOF 5
ENDMDL
