MODEL 1
REMARK VINA RESULT:      -4.3      0.000      0.000
REMARK  2 active torsions:
REMARK  status: ('A' for Active; 'I' for Inactive)
REMARK    1  A    between atoms: C1_1  and  C3_3 
REMARK    2  A    between atoms: C2_2  and  C7_7 
ROOT
HETATM    1  C1  UNL     1     -33.227   6.873   3.484  1.00 20.00     0.038 C 
HETATM    2  C2  UNL     1     -33.312   5.717   4.157  1.00 20.00    -0.015 C 
ENDROOT
BRANCH   2   3
HETATM    3  C7  UNL     1     -34.508   5.200   4.943  1.00 20.00    -0.034 C 
HETATM    4  C4  UNL     1     -35.785   5.511   4.140  1.00 20.00     0.018 C 
HETATM    5  C5  UNL     1     -34.470   3.687   5.229  1.00 20.00     0.018 C 
HETATM    6  C6  UNL     1     -34.564   5.949   6.286  1.00 20.00     0.018 C 
ENDBRANCH   2   3
BRANCH   1   7
HETATM    7  C3  UNL     1     -31.973   7.200   2.778  1.00 20.00     0.258 C 
HETATM    8  O8  UNL     1     -31.893   8.149   2.007  1.00 20.00    -0.302 OA
ENDBRANCH   1   7
TORSDOF 2
ENDMDL
MODEL 2
REMARK VINA RESULT:      -4.1      0.093      1.515
REMARK  2 active torsions:
REMARK  status: ('A' for Active; 'I' for Inactive)
REMARK    1  A    between atoms: C1_1  and  C3_3 
REMARK    2  A    between atoms: C2_2  and  C7_7 
ROOT
HETATM    1  C1  UNL     1     -33.204   6.885   3.538  1.00 20.00     0.038 C 
HETATM    2  C2  UNL     1     -33.344   5.684   4.116  1.00 20.00    -0.015 C 
ENDROOT
BRANCH   2   3
HETATM    3  C7  UNL     1     -34.535   5.189   4.923  1.00 20.00    -0.034 C 
HETATM    4  C4  UNL     1     -34.411   3.663   5.081  1.00 20.00     0.018 C 
HETATM    5  C5  UNL     1     -34.652   5.815   6.326  1.00 20.00     0.018 C 
HETATM    6  C6  UNL     1     -35.819   5.510   4.137  1.00 20.00     0.018 C 
ENDBRANCH   2   3
BRANCH   1   7
HETATM    7  C3  UNL     1     -31.966   7.180   2.791  1.00 20.00     0.258 C 
HETATM    8  O8  UNL     1     -31.907   8.087   1.969  1.00 20.00    -0.302 OA
ENDBRANCH   1   7
TORSDOF 2
ENDMDL
MODEL 3
REMARK VINA RESULT:      -3.8     11.255     12.424
REMARK  2 active torsions:
REMARK  status: ('A' for Active; 'I' for Inactive)
REMARK    1  A    between atoms: C1_1  and  C3_3 
REMARK    2  A    between atoms: C2_2  and  C7_7 
ROOT
HETATM    1  C1  UNL     1     -34.983  14.790  -3.343  1.00 20.00     0.038 C 
HETATM    2  C2  UNL     1     -34.214  15.667  -2.682  1.00 20.00    -0.015 C 
ENDROOT
BRANCH   2   3
HETATM    3  C7  UNL     1     -34.660  16.972  -2.039  1.00 20.00    -0.034 C 
HETATM    4  C4  UNL     1     -34.678  16.777  -0.512  1.00 20.00     0.018 C 
HETATM    5  C5  UNL     1     -33.757  18.177  -2.365  1.00 20.00     0.018 C 
HETATM    6  C6  UNL     1     -36.086  17.287  -2.523  1.00 20.00     0.018 C 
ENDBRANCH   2   3
BRANCH   1   7
HETATM    7  C3  UNL     1     -34.363  13.571  -3.899  1.00 20.00     0.258 C 
HETATM    8  O8  UNL     1     -35.033  12.670  -4.390  1.00 20.00    -0.302 OA
ENDBRANCH   1   7
TORSDOF 2
ENDMDL
MODEL 4
REMARK VINA RESULT:      -3.8     11.309     12.370
REMARK  2 active torsions:
REMARK  status: ('A' for Active; 'I' for Inactive)
REMARK    1  A    between atoms: C1_1  and  C3_3 
REMARK    2  A    between atoms: C2_2  and  C7_7 
ROOT
HETATM    1  C1  UNL     1     -34.890  14.688  -3.273  1.00 20.00     0.038 C 
HETATM    2  C2  UNL     1     -34.142  15.711  -2.836  1.00 20.00    -0.015 C 
ENDROOT
BRANCH   2   3
HETATM    3  C7  UNL     1     -34.626  16.948  -2.092  1.00 20.00    -0.034 C 
HETATM    4  C4  UNL     1     -36.057  17.264  -2.562  1.00 20.00     0.018 C 
HETATM    5  C5  UNL     1     -34.639  16.797  -0.559  1.00 20.00     0.018 C 
HETATM    6  C6  UNL     1     -33.704  18.124  -2.459  1.00 20.00     0.018 C 
ENDBRANCH   2   3
BRANCH   1   7
HETATM    7  C3  UNL     1     -34.232  13.572  -3.980  1.00 20.00     0.258 C 
HETATM    8  O8  UNL     1     -34.876  12.686  -4.531  1.00 20.00    -0.302 OA
ENDBRANCH   1   7
TORSDOF 2
ENDMDL
MODEL 5
REMARK VINA RESULT:      -3.6     11.394     12.263
REMARK  2 active torsions:
REMARK  status: ('A' for Active; 'I' for Inactive)
REMARK    1  A    between atoms: C1_1  and  C3_3 
REMARK    2  A    between atoms: C2_2  and  C7_7 
ROOT
HETATM    1  C1  UNL     1     -34.787  16.211  -1.563  1.00 20.00     0.038 C 
HETATM    2  C2  UNL     1     -33.943  15.972  -2.577  1.00 20.00    -0.015 C 
ENDROOT
BRANCH   2   3
HETATM    3  C7  UNL     1     -34.170  15.036  -3.756  1.00 20.00    -0.034 C 
HETATM    4  C4  UNL     1     -33.849  15.805  -5.051  1.00 20.00     0.018 C 
HETATM    5  C5  UNL     1     -33.310  13.759  -3.723  1.00 20.00     0.018 C 
HETATM    6  C6  UNL     1     -35.653  14.625  -3.769  1.00 20.00     0.018 C 
ENDBRANCH   2   3
BRANCH   1   7
HETATM    7  C3  UNL     1     -34.385  17.158  -0.506  1.00 20.00     0.258 C 
HETATM    8  O8  UNL     1     -34.979  17.225   0.563  1.00 20.00    -0.302 OA
ENDBRANCH   1   7
TORSDOF 2
ENDMDL
MODEL 6
REMARK VINA RESULT:      -3.4     11.533     12.722
REMARK  2 active torsions:
REMARK  status: ('A' for Active; 'I' for Inactive)
REMARK    1  A    between atoms: C1_1  and  C3_3 
REMARK    2  A    between atoms: C2_2  and  C7_7 
ROOT
HETATM    1  C1  UNL     1     -36.629  15.756  -3.527  1.00 20.00     0.038 C 
HETATM    2  C2  UNL     1     -35.638  14.892  -3.789  1.00 20.00    -0.015 C 
ENDROOT
BRANCH   2   3
HETATM    3  C7  UNL     1     -34.144  15.187  -3.796  1.00 20.00    -0.034 C 
HETATM    4  C4  UNL     1     -33.388  13.848  -3.721  1.00 20.00     0.018 C 
HETATM    5  C5  UNL     1     -33.657  15.951  -5.041  1.00 20.00     0.018 C 
HETATM    6  C6  UNL     1     -33.811  16.024  -2.548  1.00 20.00     0.018 C 
ENDBRANCH   2   3
BRANCH   1   7
HETATM    7  C3  UNL     1     -38.024  15.278  -3.570  1.00 20.00     0.258 C 
HETATM    8  O8  UNL     1     -38.301  14.107  -3.805  1.00 20.00    -0.302 OA
ENDBRANCH   1   7
TORSDOF 2
ENDMDL
MODEL 7
REMARK VINA RESULT:      -3.4     11.745     12.863
REMARK  2 active torsions:
REMARK  status: ('A' for Active; 'I' for Inactive)
REMARK    1  A    between atoms: C1_1  and  C3_3 
REMARK    2  A    between atoms: C2_2  and  C7_7 
ROOT
HETATM    1  C1  UNL     1     -36.219  14.547  -4.122  1.00 20.00     0.038 C 
HETATM    2  C2  UNL     1     -35.421  15.617  -4.001  1.00 20.00    -0.015 C 
ENDROOT
BRANCH   2   3
HETATM    3  C7  UNL     1     -33.923  15.617  -3.733  1.00 20.00    -0.034 C 
HETATM    4  C4  UNL     1     -33.672  16.332  -2.393  1.00 20.00     0.018 C 
HETATM    5  C5  UNL     1     -33.294  14.213  -3.661  1.00 20.00     0.018 C 
HETATM    6  C6  UNL     1     -33.231  16.404  -4.860  1.00 20.00     0.018 C 
ENDBRANCH   2   3
BRANCH   1   7
HETATM    7  C3  UNL     1     -37.657  14.752  -4.384  1.00 20.00     0.258 C 
HETATM    8  O8  UNL     1     -38.522  14.230  -3.690  1.00 20.00    -0.302 OA
ENDBRANCH   1   7
TORSDOF 2
ENDMDL
MODEL 8
REMARK VINA RESULT:      -3.4     11.519     12.736
REMARK  2 active torsions:
REMARK  status: ('A' for Active; 'I' for Inactive)
REMARK    1  A    between atoms: C1_1  and  C3_3 
REMARK    2  A    between atoms: C2_2  and  C7_7 
ROOT
HETATM    1  C1  UNL     1     -36.680  15.729  -3.486  1.00 20.00     0.038 C 
HETATM    2  C2  UNL     1     -35.714  14.865  -3.827  1.00 20.00    -0.015 C 
ENDROOT
BRANCH   2   3
HETATM    3  C7  UNL     1     -34.214  15.126  -3.840  1.00 20.00    -0.034 C 
HETATM    4  C4  UNL     1     -33.855  15.815  -5.168  1.00 20.00     0.018 C 
HETATM    5  C5  UNL     1     -33.718  16.011  -2.681  1.00 20.00     0.018 C 
HETATM    6  C6  UNL     1     -33.488  13.771  -3.764  1.00 20.00     0.018 C 
ENDBRANCH   2   3
BRANCH   1   7
HETATM    7  C3  UNL     1     -38.087  15.286  -3.538  1.00 20.00     0.258 C 
HETATM    8  O8  UNL     1     -38.394  14.137  -3.834  1.00 20.00    -0.302 OA
ENDBRANCH   1   7
TORSDOF 2
ENDMDL
MODEL 9
REMARK VINA RESULT:      -3.4      9.114     10.430
REMARK  2 active torsions:
REMARK  status: ('A' for Active; 'I' for Inactive)
REMARK    1  A    between atoms: C1_1  and  C3_3 
REMARK    2  A    between atoms: C2_2  and  C7_7 
ROOT
HETATM    1  C1  UNL     1     -41.910   7.204  -2.408  1.00 20.00     0.038 C 
HETATM    2  C2  UNL     1     -42.206   5.971  -1.973  1.00 20.00    -0.015 C 
ENDROOT
BRANCH   2   3
HETATM    3  C7  UNL     1     -41.535   5.216  -0.834  1.00 20.00    -0.034 C 
HETATM    4  C4  UNL     1     -40.602   6.191  -0.092  1.00 20.00     0.018 C 
HETATM    5  C5  UNL     1     -42.517   4.610   0.186  1.00 20.00     0.018 C 
HETATM    6  C6  UNL     1     -40.694   4.077  -1.438  1.00 20.00     0.018 C 
ENDBRANCH   2   3
BRANCH   1   7
HETATM    7  C3  UNL     1     -42.679   7.769  -3.534  1.00 20.00     0.258 C 
HETATM    8  O8  UNL     1     -43.387   7.070  -4.250  1.00 20.00    -0.302 OA
ENDBRANCH   1   7
TORSDOF 2
ENDMDL
