MODEL 1
REMARK VINA RESULT:      -4.5      0.000      0.000
REMARK  3 active torsions:
REMARK  status: ('A' for Active; 'I' for Inactive)
REMARK    1  A    between atoms: C2_2  and  C5_5 
REMARK    2  A    between atoms: C2_2  and  C8_8 
REMARK    3  A    between atoms: C7_7  and  C8_8 
ROOT
HETATM    1  C1  UNL     1     -37.253  14.655  -3.883  1.00 20.00     0.071 C 
HETATM    2  C8  UNL     1     -35.831  14.954  -4.131  1.00 20.00     0.162 C 
HETATM    3  N9  UNL     1     -38.374  14.422  -3.689  1.00 20.00    -0.196 NA
ENDROOT
BRANCH   2   4
HETATM    4  C2  UNL     1     -35.139  13.798  -4.838  1.00 20.00     0.148 C 
HETATM    5  O10 UNL     1     -34.987  12.683  -4.353  1.00 20.00    -0.296 OA
BRANCH   4   6
HETATM    6  C5  UNL     1     -34.620  14.085  -6.209  1.00 20.00     0.057 A 
HETATM    7  C3  UNL     1     -35.584  14.526  -7.258  1.00 20.00     0.013 A 
HETATM    8  C4  UNL     1     -34.604  15.500  -6.679  1.00 20.00     0.013 A 
ENDBRANCH   4   6
ENDBRANCH   2   4
BRANCH   2   9
HETATM    9  C7  UNL     1     -35.097  15.340  -2.838  1.00 20.00     0.022 C 
HETATM   10  C6  UNL     1     -33.666  15.832  -3.041  1.00 20.00     0.007 C 
ENDBRANCH   2   9
TORSDOF 3
ENDMDL
MODEL 2
REMARK VINA RESULT:      -4.3      2.416      4.290
REMARK  3 active torsions:
REMARK  status: ('A' for Active; 'I' for Inactive)
REMARK    1  A    between atoms: C2_2  and  C5_5 
REMARK    2  A    between atoms: C2_2  and  C8_8 
REMARK    3  A    between atoms: C7_7  and  C8_8 
ROOT
HETATM    1  C1  UNL     1     -34.294  13.740  -4.062  1.00 20.00     0.071 C 
HETATM    2  C8  UNL     1     -33.656  14.942  -3.493  1.00 20.00     0.162 C 
HETATM    3  N9  UNL     1     -34.793  12.793  -4.510  1.00 20.00    -0.196 NA
ENDROOT
BRANCH   2   4
HETATM    4  C2  UNL     1     -34.624  15.713  -2.608  1.00 20.00     0.148 C 
HETATM    5  O10 UNL     1     -35.844  15.624  -2.679  1.00 20.00    -0.296 OA
BRANCH   4   6
HETATM    6  C5  UNL     1     -34.007  16.633  -1.607  1.00 20.00     0.057 A 
HETATM    7  C3  UNL     1     -34.603  17.988  -1.424  1.00 20.00     0.013 A 
HETATM    8  C4  UNL     1     -34.771  16.942  -0.364  1.00 20.00     0.013 A 
ENDBRANCH   4   6
ENDBRANCH   2   4
BRANCH   2   9
HETATM    9  C7  UNL     1     -33.058  15.840  -4.586  1.00 20.00     0.022 C 
HETATM   10  C6  UNL     1     -33.998  16.139  -5.749  1.00 20.00     0.007 C 
ENDBRANCH   2   9
TORSDOF 3
ENDMDL
MODEL 3
REMARK VINA RESULT:      -4.1      2.956      3.749
REMARK  3 active torsions:
REMARK  status: ('A' for Active; 'I' for Inactive)
REMARK    1  A    between atoms: C2_2  and  C5_5 
REMARK    2  A    between atoms: C2_2  and  C8_8 
REMARK    3  A    between atoms: C7_7  and  C8_8 
ROOT
HETATM    1  C1  UNL     1     -33.767  18.043  -2.878  1.00 20.00     0.071 C 
HETATM    2  C8  UNL     1     -33.670  16.635  -2.452  1.00 20.00     0.162 C 
HETATM    3  N9  UNL     1     -33.841  19.152  -3.211  1.00 20.00    -0.196 NA
ENDROOT
BRANCH   2   4
HETATM    4  C2  UNL     1     -33.690  15.694  -3.647  1.00 20.00     0.148 C 
HETATM    5  O10 UNL     1     -33.247  15.976  -4.754  1.00 20.00    -0.296 OA
BRANCH   4   6
HETATM    6  C5  UNL     1     -34.304  14.353  -3.416  1.00 20.00     0.057 A 
HETATM    7  C3  UNL     1     -35.539  13.997  -4.172  1.00 20.00     0.013 A 
HETATM    8  C4  UNL     1     -34.234  13.343  -4.512  1.00 20.00     0.013 A 
ENDBRANCH   4   6
ENDBRANCH   2   4
BRANCH   2   9
HETATM    9  C7  UNL     1     -34.762  16.272  -1.434  1.00 20.00     0.022 C 
HETATM   10  C6  UNL     1     -34.745  17.109  -0.158  1.00 20.00     0.007 C 
ENDBRANCH   2   9
TORSDOF 3
ENDMDL
MODEL 4
REMARK VINA RESULT:      -4.1      2.423      3.189
REMARK  3 active torsions:
REMARK  status: ('A' for Active; 'I' for Inactive)
REMARK    1  A    between atoms: C2_2  and  C5_5 
REMARK    2  A    between atoms: C2_2  and  C8_8 
REMARK    3  A    between atoms: C7_7  and  C8_8 
ROOT
HETATM    1  C1  UNL     1     -34.413  16.345  -1.911  1.00 20.00     0.071 C 
HETATM    2  C8  UNL     1     -34.249  16.091  -3.354  1.00 20.00     0.162 C 
HETATM    3  N9  UNL     1     -34.545  16.545  -0.775  1.00 20.00    -0.196 NA
ENDROOT
BRANCH   2   4
HETATM    4  C2  UNL     1     -33.437  14.829  -3.603  1.00 20.00     0.148 C 
HETATM    5  O10 UNL     1     -32.218  14.761  -3.499  1.00 20.00    -0.296 OA
BRANCH   4   6
HETATM    6  C5  UNL     1     -34.213  13.619  -4.007  1.00 20.00     0.057 A 
HETATM    7  C3  UNL     1     -35.688  13.748  -4.190  1.00 20.00     0.013 A 
HETATM    8  C4  UNL     1     -34.794  13.576  -5.381  1.00 20.00     0.013 A 
ENDBRANCH   4   6
ENDBRANCH   2   4
BRANCH   2   9
HETATM    9  C7  UNL     1     -33.642  17.302  -4.079  1.00 20.00     0.022 C 
HETATM   10  C6  UNL     1     -33.641  17.197  -5.602  1.00 20.00     0.007 C 
ENDBRANCH   2   9
TORSDOF 3
ENDMDL
MODEL 5
REMARK VINA RESULT:      -4.1     10.814     11.620
REMARK  3 active torsions:
REMARK  status: ('A' for Active; 'I' for Inactive)
REMARK    1  A    between atoms: C2_2  and  C5_5 
REMARK    2  A    between atoms: C2_2  and  C8_8 
REMARK    3  A    between atoms: C7_7  and  C8_8 
ROOT
HETATM    1  C1  UNL     1     -33.446   6.467   5.254  1.00 20.00     0.071 C 
HETATM    2  C8  UNL     1     -32.935   6.169   3.903  1.00 20.00     0.162 C 
HETATM    3  N9  UNL     1     -33.847   6.699   6.318  1.00 20.00    -0.196 NA
ENDROOT
BRANCH   2   4
HETATM    4  C2  UNL     1     -32.137   7.338   3.345  1.00 20.00     0.148 C 
HETATM    5  O10 UNL     1     -31.129   7.798   3.868  1.00 20.00    -0.296 OA
BRANCH   4   6
HETATM    6  C5  UNL     1     -32.654   7.941   2.080  1.00 20.00     0.057 A 
HETATM    7  C3  UNL     1     -32.555   9.418   1.904  1.00 20.00     0.013 A 
HETATM    8  C4  UNL     1     -31.671   8.505   1.110  1.00 20.00     0.013 A 
ENDBRANCH   4   6
ENDBRANCH   2   4
BRANCH   2   9
HETATM    9  C7  UNL     1     -34.064   5.753   2.947  1.00 20.00     0.022 C 
HETATM   10  C6  UNL     1     -35.374   5.380   3.635  1.00 20.00     0.007 C 
ENDBRANCH   2   9
TORSDOF 3
ENDMDL
MODEL 6
REMARK VINA RESULT:      -4.1      2.999      4.720
REMARK  3 active torsions:
REMARK  status: ('A' for Active; 'I' for Inactive)
REMARK    1  A    between atoms: C2_2  and  C5_5 
REMARK    2  A    between atoms: C2_2  and  C8_8 
REMARK    3  A    between atoms: C7_7  and  C8_8 
ROOT
HETATM    1  C1  UNL     1     -33.904  16.271  -4.576  1.00 20.00     0.071 C 
HETATM    2  C8  UNL     1     -35.018  15.614  -3.868  1.00 20.00     0.162 C 
HETATM    3  N9  UNL     1     -33.029  16.788  -5.137  1.00 20.00    -0.196 NA
ENDROOT
BRANCH   2   4
HETATM    4  C2  UNL     1     -35.419  16.396  -2.626  1.00 20.00     0.148 C 
HETATM    5  O10 UNL     1     -36.425  17.091  -2.544  1.00 20.00    -0.296 OA
BRANCH   4   6
HETATM    6  C5  UNL     1     -34.497  16.287  -1.457  1.00 20.00     0.057 A 
HETATM    7  C3  UNL     1     -33.677  17.477  -1.085  1.00 20.00     0.013 A 
HETATM    8  C4  UNL     1     -34.827  17.055  -0.221  1.00 20.00     0.013 A 
ENDBRANCH   4   6
ENDBRANCH   2   4
BRANCH   2   9
HETATM    9  C7  UNL     1     -34.693  14.151  -3.530  1.00 20.00     0.022 C 
HETATM   10  C6  UNL     1     -34.538  13.237  -4.742  1.00 20.00     0.007 C 
ENDBRANCH   2   9
TORSDOF 3
ENDMDL
MODEL 7
REMARK VINA RESULT:      -4.1      2.284      4.019
REMARK  3 active torsions:
REMARK  status: ('A' for Active; 'I' for Inactive)
REMARK    1  A    between atoms: C2_2  and  C5_5 
REMARK    2  A    between atoms: C2_2  and  C8_8 
REMARK    3  A    between atoms: C7_7  and  C8_8 
ROOT
HETATM    1  C1  UNL     1     -34.623  13.609  -4.940  1.00 20.00     0.071 C 
HETATM    2  C8  UNL     1     -34.125  14.848  -5.564  1.00 20.00     0.162 C 
HETATM    3  N9  UNL     1     -35.014  12.631  -4.450  1.00 20.00    -0.196 NA
ENDROOT
BRANCH   2   4
HETATM    4  C2  UNL     1     -33.620  15.829  -4.517  1.00 20.00     0.148 C 
HETATM    5  O10 UNL     1     -32.954  16.826  -4.769  1.00 20.00    -0.296 OA
BRANCH   4   6
HETATM    6  C5  UNL     1     -33.975  15.516  -3.100  1.00 20.00     0.057 A 
HETATM    7  C3  UNL     1     -33.848  16.596  -2.080  1.00 20.00     0.013 A 
HETATM    8  C4  UNL     1     -35.203  16.137  -2.524  1.00 20.00     0.013 A 
ENDBRANCH   4   6
ENDBRANCH   2   4
BRANCH   2   9
HETATM    9  C7  UNL     1     -35.182  15.492  -6.473  1.00 20.00     0.022 C 
HETATM   10  C6  UNL     1     -35.291  14.870  -7.863  1.00 20.00     0.007 C 
ENDBRANCH   2   9
TORSDOF 3
ENDMDL
MODEL 8
REMARK VINA RESULT:      -4.0      1.637      3.646
REMARK  3 active torsions:
REMARK  status: ('A' for Active; 'I' for Inactive)
REMARK    1  A    between atoms: C2_2  and  C5_5 
REMARK    2  A    between atoms: C2_2  and  C8_8 
REMARK    3  A    between atoms: C7_7  and  C8_8 
ROOT
HETATM    1  C1  UNL     1     -36.413  14.238  -3.827  1.00 20.00     0.071 C 
HETATM    2  C8  UNL     1     -34.957  14.007  -3.790  1.00 20.00     0.162 C 
HETATM    3  N9  UNL     1     -37.559  14.418  -3.855  1.00 20.00    -0.196 NA
ENDROOT
BRANCH   2   4
HETATM    4  C2  UNL     1     -34.223  15.206  -3.209  1.00 20.00     0.148 C 
HETATM    5  O10 UNL     1     -33.149  15.626  -3.624  1.00 20.00    -0.296 OA
BRANCH   4   6
HETATM    6  C5  UNL     1     -34.884  15.883  -2.053  1.00 20.00     0.057 A 
HETATM    7  C3  UNL     1     -34.101  16.882  -1.270  1.00 20.00     0.013 A 
HETATM    8  C4  UNL     1     -35.208  17.335  -2.173  1.00 20.00     0.013 A 
ENDBRANCH   4   6
ENDBRANCH   2   4
BRANCH   2   9
HETATM    9  C7  UNL     1     -34.406  13.627  -5.172  1.00 20.00     0.022 C 
HETATM   10  C6  UNL     1     -34.972  14.445  -6.330  1.00 20.00     0.007 C 
ENDBRANCH   2   9
TORSDOF 3
ENDMDL
MODEL 9
REMARK VINA RESULT:      -4.0      1.940      3.359
REMARK  3 active torsions:
REMARK  status: ('A' for Active; 'I' for Inactive)
REMARK    1  A    between atoms: C2_2  and  C5_5 
REMARK    2  A    between atoms: C2_2  and  C8_8 
REMARK    3  A    between atoms: C7_7  and  C8_8 
ROOT
HETATM    1  C1  UNL     1     -35.131  14.791  -6.615  1.00 20.00     0.071 C 
HETATM    2  C8  UNL     1     -35.558  14.854  -5.205  1.00 20.00     0.162 C 
HETATM    3  N9  UNL     1     -34.795  14.745  -7.725  1.00 20.00    -0.196 NA
ENDROOT
BRANCH   2   4
HETATM    4  C2  UNL     1     -34.893  13.763  -4.379  1.00 20.00     0.148 C 
HETATM    5  O10 UNL     1     -35.094  12.564  -4.529  1.00 20.00    -0.296 OA
BRANCH   4   6
HETATM    6  C5  UNL     1     -33.947  14.226  -3.320  1.00 20.00     0.057 A 
HETATM    7  C3  UNL     1     -32.909  15.233  -3.685  1.00 20.00     0.013 A 
HETATM    8  C4  UNL     1     -34.070  15.628  -2.824  1.00 20.00     0.013 A 
ENDBRANCH   4   6
ENDBRANCH   2   4
BRANCH   2   9
HETATM    9  C7  UNL     1     -37.087  14.807  -5.070  1.00 20.00     0.022 C 
HETATM   10  C6  UNL     1     -37.614  15.132  -3.676  1.00 20.00     0.007 C 
ENDBRANCH   2   9
TORSDOF 3
ENDMDL
