MODEL 1
REMARK VINA RESULT:      -4.9      0.000      0.000
REMARK  3 active torsions:
REMARK  status: ('A' for Active; 'I' for Inactive)
REMARK    1  A    between atoms: C5_5  and  C9_9 
REMARK    2  A    between atoms: C8_8  and  N10_10 
REMARK    3  A    between atoms: C9_9  and  N10_10 
ROOT
HETATM    1  C1  UNL     1     -32.074   8.760   1.413  1.00 20.00     0.013 C 
HETATM    2  C2  UNL     1     -32.103   7.964   2.312  1.00 20.00    -0.087 C 
HETATM    3  C8  UNL     1     -32.133   6.995   3.409  1.00 20.00     0.364 C 
ENDROOT
BRANCH   3   4
HETATM    4  N10 UNL     1     -33.500   6.587   3.696  1.00 20.00     0.099 N 
HETATM    5  C7  UNL     1     -33.991   5.643   2.703  1.00 20.00     0.311 C 
BRANCH   4   6
HETATM    6  C9  UNL     1     -33.566   5.972   5.045  1.00 20.00     0.223 C 
HETATM    7  C6  UNL     1     -33.479   7.072   6.093  1.00 20.00     0.043 C 
BRANCH   6   8
HETATM    8  C5  UNL     1     -34.857   5.177   5.168  1.00 20.00     0.018 A 
HETATM    9  C3  UNL     1     -34.812   3.697   5.431  1.00 20.00     0.007 A 
HETATM   10  C4  UNL     1     -35.288   4.636   6.503  1.00 20.00     0.007 A 
ENDBRANCH   6   8
ENDBRANCH   4   6
ENDBRANCH   3   4
TORSDOF 3
ENDMDL
MODEL 2
REMARK VINA RESULT:      -4.7      1.066      1.879
REMARK  3 active torsions:
REMARK  status: ('A' for Active; 'I' for Inactive)
REMARK    1  A    between atoms: C5_5  and  C9_9 
REMARK    2  A    between atoms: C8_8  and  N10_10 
REMARK    3  A    between atoms: C9_9  and  N10_10 
ROOT
HETATM    1  C1  UNL     1     -32.131   9.138   0.908  1.00 20.00     0.013 C 
HETATM    2  C2  UNL     1     -32.136   8.472   1.909  1.00 20.00    -0.087 C 
HETATM    3  C8  UNL     1     -32.140   7.665   3.131  1.00 20.00     0.364 C 
ENDROOT
BRANCH   3   4
HETATM    4  N10 UNL     1     -32.961   6.476   2.958  1.00 20.00     0.099 N 
HETATM    5  C7  UNL     1     -32.176   5.262   3.127  1.00 20.00     0.311 C 
BRANCH   4   6
HETATM    6  C9  UNL     1     -34.074   6.491   3.938  1.00 20.00     0.223 C 
HETATM    7  C6  UNL     1     -35.187   5.584   3.433  1.00 20.00     0.043 C 
BRANCH   6   8
HETATM    8  C5  UNL     1     -33.552   6.040   5.294  1.00 20.00     0.018 A 
HETATM    9  C3  UNL     1     -33.908   6.809   6.537  1.00 20.00     0.007 A 
HETATM   10  C4  UNL     1     -34.490   5.443   6.306  1.00 20.00     0.007 A 
ENDBRANCH   6   8
ENDBRANCH   4   6
ENDBRANCH   3   4
TORSDOF 3
ENDMDL
MODEL 3
REMARK VINA RESULT:      -4.3     11.421     12.977
REMARK  3 active torsions:
REMARK  status: ('A' for Active; 'I' for Inactive)
REMARK    1  A    between atoms: C5_5  and  C9_9 
REMARK    2  A    between atoms: C8_8  and  N10_10 
REMARK    3  A    between atoms: C9_9  and  N10_10 
ROOT
HETATM    1  C1  UNL     1     -34.742  16.980  -0.215  1.00 20.00     0.013 C 
HETATM    2  C2  UNL     1     -34.375  16.646  -1.309  1.00 20.00    -0.087 C 
HETATM    3  C8  UNL     1     -33.924  16.243  -2.642  1.00 20.00     0.364 C 
ENDROOT
BRANCH   3   4
HETATM    4  N10 UNL     1     -34.707  15.118  -3.131  1.00 20.00     0.099 N 
HETATM    5  C7  UNL     1     -36.107  15.480  -3.296  1.00 20.00     0.311 C 
BRANCH   4   6
HETATM    6  C9  UNL     1     -34.156  14.650  -4.425  1.00 20.00     0.223 C 
HETATM    7  C6  UNL     1     -34.412  13.156  -4.559  1.00 20.00     0.043 C 
BRANCH   6   8
HETATM    8  C5  UNL     1     -34.804  15.435  -5.557  1.00 20.00     0.018 A 
HETATM    9  C3  UNL     1     -33.974  16.349  -6.416  1.00 20.00     0.007 A 
HETATM   10  C4  UNL     1     -34.521  15.072  -6.988  1.00 20.00     0.007 A 
ENDBRANCH   6   8
ENDBRANCH   4   6
ENDBRANCH   3   4
TORSDOF 3
ENDMDL
MODEL 4
REMARK VINA RESULT:      -4.2     11.362     13.170
REMARK  3 active torsions:
REMARK  status: ('A' for Active; 'I' for Inactive)
REMARK    1  A    between atoms: C5_5  and  C9_9 
REMARK    2  A    between atoms: C8_8  and  N10_10 
REMARK    3  A    between atoms: C9_9  and  N10_10 
ROOT
HETATM    1  C1  UNL     1     -34.395  16.985  -0.666  1.00 20.00     0.013 C 
HETATM    2  C2  UNL     1     -34.725  16.273  -1.576  1.00 20.00    -0.087 C 
HETATM    3  C8  UNL     1     -35.132  15.405  -2.683  1.00 20.00     0.364 C 
ENDROOT
BRANCH   3   4
HETATM    4  N10 UNL     1     -34.039  15.230  -3.627  1.00 20.00     0.099 N 
HETATM    5  C7  UNL     1     -33.710  13.823  -3.801  1.00 20.00     0.311 C 
BRANCH   4   6
HETATM    6  C9  UNL     1     -34.409  15.822  -4.936  1.00 20.00     0.223 C 
HETATM    7  C6  UNL     1     -33.374  16.873  -5.312  1.00 20.00     0.043 C 
BRANCH   6   8
HETATM    8  C5  UNL     1     -34.494  14.717  -5.978  1.00 20.00     0.018 A 
HETATM    9  C3  UNL     1     -35.733  14.560  -6.816  1.00 20.00     0.007 A 
HETATM   10  C4  UNL     1     -34.460  15.053  -7.443  1.00 20.00     0.007 A 
ENDBRANCH   6   8
ENDBRANCH   4   6
ENDBRANCH   3   4
TORSDOF 3
ENDMDL
MODEL 5
REMARK VINA RESULT:      -4.2     11.292     12.326
REMARK  3 active torsions:
REMARK  status: ('A' for Active; 'I' for Inactive)
REMARK    1  A    between atoms: C5_5  and  C9_9 
REMARK    2  A    between atoms: C8_8  and  N10_10 
REMARK    3  A    between atoms: C9_9  and  N10_10 
ROOT
HETATM    1  C1  UNL     1     -35.040  17.349   0.514  1.00 20.00     0.013 C 
HETATM    2  C2  UNL     1     -34.569  17.049  -0.549  1.00 20.00    -0.087 C 
HETATM    3  C8  UNL     1     -33.989  16.681  -1.843  1.00 20.00     0.364 C 
ENDROOT
BRANCH   3   4
HETATM    4  N10 UNL     1     -35.022  16.609  -2.866  1.00 20.00     0.099 N 
HETATM    5  C7  UNL     1     -34.590  17.248  -4.100  1.00 20.00     0.311 C 
BRANCH   4   6
HETATM    6  C9  UNL     1     -35.365  15.191  -3.131  1.00 20.00     0.223 C 
HETATM    7  C6  UNL     1     -36.818  15.110  -3.576  1.00 20.00     0.043 C 
BRANCH   6   8
HETATM    8  C5  UNL     1     -34.421  14.638  -4.188  1.00 20.00     0.018 A 
HETATM    9  C3  UNL     1     -33.444  13.551  -3.837  1.00 20.00     0.007 A 
HETATM   10  C4  UNL     1     -34.617  13.248  -4.725  1.00 20.00     0.007 A 
ENDBRANCH   6   8
ENDBRANCH   4   6
ENDBRANCH   3   4
TORSDOF 3
ENDMDL
MODEL 6
REMARK VINA RESULT:      -4.1     11.764     12.580
REMARK  3 active torsions:
REMARK  status: ('A' for Active; 'I' for Inactive)
REMARK    1  A    between atoms: C5_5  and  C9_9 
REMARK    2  A    between atoms: C8_8  and  N10_10 
REMARK    3  A    between atoms: C9_9  and  N10_10 
ROOT
HETATM    1  C1  UNL     1     -34.971  14.768  -7.697  1.00 20.00     0.013 C 
HETATM    2  C2  UNL     1     -34.881  14.427  -6.549  1.00 20.00    -0.087 C 
HETATM    3  C8  UNL     1     -34.768  14.006  -5.150  1.00 20.00     0.364 C 
ENDROOT
BRANCH   3   4
HETATM    4  N10 UNL     1     -35.283  15.036  -4.261  1.00 20.00     0.099 N 
HETATM    5  C7  UNL     1     -36.622  14.710  -3.793  1.00 20.00     0.311 C 
BRANCH   4   6
HETATM    6  C9  UNL     1     -34.374  15.195  -3.101  1.00 20.00     0.223 C 
HETATM    7  C6  UNL     1     -32.936  15.193  -3.598  1.00 20.00     0.043 C 
BRANCH   6   8
HETATM    8  C5  UNL     1     -34.716  16.486  -2.371  1.00 20.00     0.018 A 
HETATM    9  C3  UNL     1     -34.739  16.524  -0.868  1.00 20.00     0.007 A 
HETATM   10  C4  UNL     1     -33.651  17.236  -1.621  1.00 20.00     0.007 A 
ENDBRANCH   6   8
ENDBRANCH   4   6
ENDBRANCH   3   4
TORSDOF 3
ENDMDL
MODEL 7
REMARK VINA RESULT:      -4.1     11.724     12.786
REMARK  3 active torsions:
REMARK  status: ('A' for Active; 'I' for Inactive)
REMARK    1  A    between atoms: C5_5  and  C9_9 
REMARK    2  A    between atoms: C8_8  and  N10_10 
REMARK    3  A    between atoms: C9_9  and  N10_10 
ROOT
HETATM    1  C1  UNL     1     -34.827  17.352   0.248  1.00 20.00     0.013 C 
HETATM    2  C2  UNL     1     -34.401  16.918  -0.787  1.00 20.00    -0.087 C 
HETATM    3  C8  UNL     1     -33.877  16.385  -2.047  1.00 20.00     0.364 C 
ENDROOT
BRANCH   3   4
HETATM    4  N10 UNL     1     -34.520  17.028  -3.183  1.00 20.00     0.099 N 
HETATM    5  C7  UNL     1     -33.848  18.269  -3.539  1.00 20.00     0.311 C 
BRANCH   4   6
HETATM    6  C9  UNL     1     -34.518  16.108  -4.346  1.00 20.00     0.223 C 
HETATM    7  C6  UNL     1     -33.336  16.449  -5.242  1.00 20.00     0.043 C 
BRANCH   6   8
HETATM    8  C5  UNL     1     -34.450  14.672  -3.846  1.00 20.00     0.018 A 
HETATM    9  C3  UNL     1     -35.594  13.728  -4.097  1.00 20.00     0.007 A 
HETATM   10  C4  UNL     1     -34.291  13.539  -4.821  1.00 20.00     0.007 A 
ENDBRANCH   6   8
ENDBRANCH   4   6
ENDBRANCH   3   4
TORSDOF 3
ENDMDL
MODEL 8
REMARK VINA RESULT:      -4.0     11.201     12.397
REMARK  3 active torsions:
REMARK  status: ('A' for Active; 'I' for Inactive)
REMARK    1  A    between atoms: C5_5  and  C9_9 
REMARK    2  A    between atoms: C8_8  and  N10_10 
REMARK    3  A    between atoms: C9_9  and  N10_10 
ROOT
HETATM    1  C1  UNL     1     -34.134  15.679  -6.892  1.00 20.00     0.013 C 
HETATM    2  C2  UNL     1     -34.571  14.775  -6.232  1.00 20.00    -0.087 C 
HETATM    3  C8  UNL     1     -35.105  13.671  -5.432  1.00 20.00     0.364 C 
ENDROOT
BRANCH   3   4
HETATM    4  N10 UNL     1     -34.790  13.857  -4.024  1.00 20.00     0.099 N 
HETATM    5  C7  UNL     1     -33.366  13.691  -3.774  1.00 20.00     0.311 C 
BRANCH   4   6
HETATM    6  C9  UNL     1     -35.218  15.210  -3.591  1.00 20.00     0.223 C 
HETATM    7  C6  UNL     1     -36.710  15.183  -3.294  1.00 20.00     0.043 C 
BRANCH   6   8
HETATM    8  C5  UNL     1     -34.409  15.622  -2.370  1.00 20.00     0.018 A 
HETATM    9  C3  UNL     1     -33.795  16.994  -2.297  1.00 20.00     0.007 A 
HETATM   10  C4  UNL     1     -34.955  16.641  -1.409  1.00 20.00     0.007 A 
ENDBRANCH   6   8
ENDBRANCH   4   6
ENDBRANCH   3   4
TORSDOF 3
ENDMDL
MODEL 9
REMARK VINA RESULT:      -4.0     11.469     12.368
REMARK  3 active torsions:
REMARK  status: ('A' for Active; 'I' for Inactive)
REMARK    1  A    between atoms: C5_5  and  C9_9 
REMARK    2  A    between atoms: C8_8  and  N10_10 
REMARK    3  A    between atoms: C9_9  and  N10_10 
ROOT
HETATM    1  C1  UNL     1     -38.703  14.760  -4.119  1.00 20.00     0.013 C 
HETATM    2  C2  UNL     1     -37.538  15.047  -4.162  1.00 20.00    -0.087 C 
HETATM    3  C8  UNL     1     -36.118  15.402  -4.218  1.00 20.00     0.364 C 
ENDROOT
BRANCH   3   4
HETATM    4  N10 UNL     1     -35.309  14.388  -3.559  1.00 20.00     0.099 N 
HETATM    5  C7  UNL     1     -34.790  13.422  -4.515  1.00 20.00     0.311 C 
BRANCH   4   6
HETATM    6  C9  UNL     1     -34.184  15.035  -2.841  1.00 20.00     0.223 C 
HETATM    7  C6  UNL     1     -33.024  15.220  -3.808  1.00 20.00     0.043 C 
BRANCH   6   8
HETATM    8  C5  UNL     1     -34.655  16.363  -2.266  1.00 20.00     0.018 A 
HETATM    9  C3  UNL     1     -34.697  16.571  -0.778  1.00 20.00     0.007 A 
HETATM   10  C4  UNL     1     -33.675  17.293  -1.609  1.00 20.00     0.007 A 
ENDBRANCH   6   8
ENDBRANCH   4   6
ENDBRANCH   3   4
TORSDOF 3
ENDMDL
