MODEL 1
REMARK VINA RESULT:      -4.0      0.000      0.000
REMARK  3 active torsions:
REMARK  status: ('A' for Active; 'I' for Inactive)
REMARK    1  A    between atoms: C4_4  and  C8_8 
REMARK    2  A    between atoms: C7_7  and  N10_10 
REMARK    3  A    between atoms: C8_8  and  N10_10 
ROOT
HETATM    1  C1  UNL     1     -34.906  13.802  -4.913  1.00 20.00     0.089 C 
HETATM    2  C7  UNL     1     -34.931  15.199  -5.342  1.00 20.00     0.395 C 
HETATM    3  N9  UNL     1     -34.886  12.691  -4.577  1.00 20.00    -0.195 NA
ENDROOT
BRANCH   2   4
HETATM    4  N10 UNL     1     -35.461  16.054  -4.290  1.00 20.00     0.101 N 
HETATM    5  C6  UNL     1     -36.638  16.782  -4.744  1.00 20.00     0.311 C 
BRANCH   4   6
HETATM    6  C8  UNL     1     -34.419  17.014  -3.853  1.00 20.00     0.223 C 
HETATM    7  C5  UNL     1     -33.373  17.138  -4.953  1.00 20.00     0.043 C 
BRANCH   6   8
HETATM    8  C4  UNL     1     -33.808  16.527  -2.547  1.00 20.00     0.018 A 
HETATM    9  C2  UNL     1     -33.694  17.459  -1.371  1.00 20.00     0.007 A 
HETATM   10  C3  UNL     1     -34.677  16.321  -1.337  1.00 20.00     0.007 A 
ENDBRANCH   6   8
ENDBRANCH   4   6
ENDBRANCH   2   4
TORSDOF 3
ENDMDL
MODEL 2
REMARK VINA RESULT:      -4.0      1.570      1.663
REMARK  3 active torsions:
REMARK  status: ('A' for Active; 'I' for Inactive)
REMARK    1  A    between atoms: C4_4  and  C8_8 
REMARK    2  A    between atoms: C7_7  and  N10_10 
REMARK    3  A    between atoms: C8_8  and  N10_10 
ROOT
HETATM    1  C1  UNL     1     -37.062  14.708  -3.844  1.00 20.00     0.089 C 
HETATM    2  C7  UNL     1     -35.696  15.219  -3.919  1.00 20.00     0.395 C 
HETATM    3  N9  UNL     1     -38.147  14.297  -3.788  1.00 20.00    -0.195 NA
ENDROOT
BRANCH   2   4
HETATM    4  N10 UNL     1     -35.638  16.607  -3.485  1.00 20.00     0.101 N 
HETATM    5  C6  UNL     1     -36.264  17.491  -4.459  1.00 20.00     0.311 C 
BRANCH   4   6
HETATM    6  C8  UNL     1     -34.226  17.010  -3.281  1.00 20.00     0.223 C 
HETATM    7  C5  UNL     1     -33.363  16.325  -4.332  1.00 20.00     0.043 C 
BRANCH   6   8
HETATM    8  C4  UNL     1     -33.799  16.633  -1.869  1.00 20.00     0.018 A 
HETATM    9  C2  UNL     1     -33.535  17.704  -0.847  1.00 20.00     0.007 A 
HETATM   10  C3  UNL     1     -34.746  16.822  -0.717  1.00 20.00     0.007 A 
ENDBRANCH   6   8
ENDBRANCH   4   6
ENDBRANCH   2   4
TORSDOF 3
ENDMDL
MODEL 3
REMARK VINA RESULT:      -3.8      1.506      2.688
REMARK  3 active torsions:
REMARK  status: ('A' for Active; 'I' for Inactive)
REMARK    1  A    between atoms: C4_4  and  C8_8 
REMARK    2  A    between atoms: C7_7  and  N10_10 
REMARK    3  A    between atoms: C8_8  and  N10_10 
ROOT
HETATM    1  C1  UNL     1     -34.856  13.569  -4.187  1.00 20.00     0.089 C 
HETATM    2  C7  UNL     1     -34.929  14.755  -3.336  1.00 20.00     0.395 C 
HETATM    3  N9  UNL     1     -34.802  12.625  -4.860  1.00 20.00    -0.195 NA
ENDROOT
BRANCH   2   4
HETATM    4  N10 UNL     1     -33.826  15.662  -3.616  1.00 20.00     0.101 N 
HETATM    5  C6  UNL     1     -32.550  14.961  -3.607  1.00 20.00     0.311 C 
BRANCH   4   6
HETATM    6  C8  UNL     1     -33.805  16.751  -2.609  1.00 20.00     0.223 C 
HETATM    7  C5  UNL     1     -34.662  16.337  -1.421  1.00 20.00     0.043 C 
BRANCH   6   8
HETATM    8  C4  UNL     1     -34.313  18.034  -3.252  1.00 20.00     0.018 A 
HETATM    9  C2  UNL     1     -33.447  19.263  -3.276  1.00 20.00     0.007 A 
HETATM   10  C3  UNL     1     -33.726  18.513  -4.550  1.00 20.00     0.007 A 
ENDBRANCH   6   8
ENDBRANCH   4   6
ENDBRANCH   2   4
TORSDOF 3
ENDMDL
MODEL 4
REMARK VINA RESULT:      -3.7      1.836      3.212
REMARK  3 active torsions:
REMARK  status: ('A' for Active; 'I' for Inactive)
REMARK    1  A    between atoms: C4_4  and  C8_8 
REMARK    2  A    between atoms: C7_7  and  N10_10 
REMARK    3  A    between atoms: C8_8  and  N10_10 
ROOT
HETATM    1  C1  UNL     1     -33.756  17.467  -5.305  1.00 20.00     0.089 C 
HETATM    2  C7  UNL     1     -34.108  16.117  -4.870  1.00 20.00     0.395 C 
HETATM    3  N9  UNL     1     -33.478  18.538  -5.655  1.00 20.00    -0.195 NA
ENDROOT
BRANCH   2   4
HETATM    4  N10 UNL     1     -33.529  15.826  -3.567  1.00 20.00     0.101 N 
HETATM    5  C6  UNL     1     -32.668  14.653  -3.622  1.00 20.00     0.311 C 
BRANCH   4   6
HETATM    6  C8  UNL     1     -34.611  15.604  -2.577  1.00 20.00     0.223 C 
HETATM    7  C5  UNL     1     -35.874  15.181  -3.316  1.00 20.00     0.043 C 
BRANCH   6   8
HETATM    8  C4  UNL     1     -34.827  16.882  -1.779  1.00 20.00     0.018 A 
HETATM    9  C2  UNL     1     -34.692  16.870  -0.280  1.00 20.00     0.007 A 
HETATM   10  C3  UNL     1     -33.661  17.569  -1.123  1.00 20.00     0.007 A 
ENDBRANCH   6   8
ENDBRANCH   4   6
ENDBRANCH   2   4
TORSDOF 3
ENDMDL
MODEL 5
REMARK VINA RESULT:      -3.7      1.778      2.223
REMARK  3 active torsions:
REMARK  status: ('A' for Active; 'I' for Inactive)
REMARK    1  A    between atoms: C4_4  and  C8_8 
REMARK    2  A    between atoms: C7_7  and  N10_10 
REMARK    3  A    between atoms: C8_8  and  N10_10 
ROOT
HETATM    1  C1  UNL     1     -35.165  14.366  -6.730  1.00 20.00     0.089 C 
HETATM    2  C7  UNL     1     -34.611  14.256  -5.383  1.00 20.00     0.395 C 
HETATM    3  N9  UNL     1     -35.605  14.449  -7.801  1.00 20.00    -0.195 NA
ENDROOT
BRANCH   2   4
HETATM    4  N10 UNL     1     -34.382  15.573  -4.808  1.00 20.00     0.101 N 
HETATM    5  C6  UNL     1     -33.651  16.432  -5.728  1.00 20.00     0.311 C 
BRANCH   4   6
HETATM    6  C8  UNL     1     -33.625  15.441  -3.539  1.00 20.00     0.223 C 
HETATM    7  C5  UNL     1     -32.937  14.083  -3.518  1.00 20.00     0.043 C 
BRANCH   6   8
HETATM    8  C4  UNL     1     -34.582  15.607  -2.368  1.00 20.00     0.018 A 
HETATM    9  C2  UNL     1     -34.326  16.659  -1.323  1.00 20.00     0.007 A 
HETATM   10  C3  UNL     1     -35.473  16.816  -2.284  1.00 20.00     0.007 A 
ENDBRANCH   6   8
ENDBRANCH   4   6
ENDBRANCH   2   4
TORSDOF 3
ENDMDL
MODEL 6
REMARK VINA RESULT:      -3.6      1.760      4.174
REMARK  3 active torsions:
REMARK  status: ('A' for Active; 'I' for Inactive)
REMARK    1  A    between atoms: C4_4  and  C8_8 
REMARK    2  A    between atoms: C7_7  and  N10_10 
REMARK    3  A    between atoms: C8_8  and  N10_10 
ROOT
HETATM    1  C1  UNL     1     -34.503  16.006  -1.952  1.00 20.00     0.089 C 
HETATM    2  C7  UNL     1     -34.246  15.277  -3.191  1.00 20.00     0.395 C 
HETATM    3  N9  UNL     1     -34.704  16.583  -0.964  1.00 20.00    -0.195 NA
ENDROOT
BRANCH   2   4
HETATM    4  N10 UNL     1     -35.344  15.450  -4.131  1.00 20.00     0.101 N 
HETATM    5  C6  UNL     1     -36.634  15.320  -3.466  1.00 20.00     0.311 C 
BRANCH   4   6
HETATM    6  C8  UNL     1     -35.238  14.444  -5.216  1.00 20.00     0.223 C 
HETATM    7  C5  UNL     1     -34.675  13.154  -4.636  1.00 20.00     0.043 C 
BRANCH   6   8
HETATM    8  C4  UNL     1     -34.354  14.998  -6.324  1.00 20.00     0.018 A 
HETATM    9  C2  UNL     1     -34.860  15.055  -7.739  1.00 20.00     0.007 A 
HETATM   10  C3  UNL     1     -34.674  16.325  -6.955  1.00 20.00     0.007 A 
ENDBRANCH   6   8
ENDBRANCH   4   6
ENDBRANCH   2   4
TORSDOF 3
ENDMDL
MODEL 7
REMARK VINA RESULT:      -3.6      1.983      3.975
REMARK  3 active torsions:
REMARK  status: ('A' for Active; 'I' for Inactive)
REMARK    1  A    between atoms: C4_4  and  C8_8 
REMARK    2  A    between atoms: C7_7  and  N10_10 
REMARK    3  A    between atoms: C8_8  and  N10_10 
ROOT
HETATM    1  C1  UNL     1     -37.076  14.765  -3.713  1.00 20.00     0.089 C 
HETATM    2  C7  UNL     1     -35.708  15.269  -3.629  1.00 20.00     0.395 C 
HETATM    3  N9  UNL     1     -38.165  14.368  -3.775  1.00 20.00    -0.195 NA
ENDROOT
BRANCH   2   4
HETATM    4  N10 UNL     1     -34.809  14.464  -4.443  1.00 20.00     0.101 N 
HETATM    5  C6  UNL     1     -33.885  13.702  -3.614  1.00 20.00     0.311 C 
BRANCH   4   6
HETATM    6  C8  UNL     1     -34.046  15.342  -5.364  1.00 20.00     0.223 C 
HETATM    7  C5  UNL     1     -33.664  16.616  -4.623  1.00 20.00     0.043 C 
BRANCH   6   8
HETATM    8  C4  UNL     1     -34.897  15.637  -6.591  1.00 20.00     0.018 A 
HETATM    9  C2  UNL     1     -34.553  15.016  -7.917  1.00 20.00     0.007 A 
HETATM   10  C3  UNL     1     -35.781  14.569  -7.172  1.00 20.00     0.007 A 
ENDBRANCH   6   8
ENDBRANCH   4   6
ENDBRANCH   2   4
TORSDOF 3
ENDMDL
MODEL 8
REMARK VINA RESULT:      -3.6      2.096      2.665
REMARK  3 active torsions:
REMARK  status: ('A' for Active; 'I' for Inactive)
REMARK    1  A    between atoms: C4_4  and  C8_8 
REMARK    2  A    between atoms: C7_7  and  N10_10 
REMARK    3  A    between atoms: C8_8  and  N10_10 
ROOT
HETATM    1  C1  UNL     1     -37.652  14.811  -4.576  1.00 20.00     0.089 C 
HETATM    2  C7  UNL     1     -36.874  15.322  -5.702  1.00 20.00     0.395 C 
HETATM    3  N9  UNL     1     -38.273  14.403  -3.684  1.00 20.00    -0.195 NA
ENDROOT
BRANCH   2   4
HETATM    4  N10 UNL     1     -35.791  16.175  -5.239  1.00 20.00     0.101 N 
HETATM    5  C6  UNL     1     -35.901  17.517  -5.793  1.00 20.00     0.311 C 
BRANCH   4   6
HETATM    6  C8  UNL     1     -34.487  15.582  -5.623  1.00 20.00     0.223 C 
HETATM    7  C5  UNL     1     -34.656  14.834  -6.939  1.00 20.00     0.043 C 
BRANCH   6   8
HETATM    8  C4  UNL     1     -34.010  14.661  -4.509  1.00 20.00     0.018 A 
HETATM    9  C2  UNL     1     -32.840  15.054  -3.650  1.00 20.00     0.007 A 
HETATM   10  C3  UNL     1     -34.228  15.039  -3.070  1.00 20.00     0.007 A 
ENDBRANCH   6   8
ENDBRANCH   4   6
ENDBRANCH   2   4
TORSDOF 3
ENDMDL
MODEL 9
REMARK VINA RESULT:      -3.6     10.797     12.152
REMARK  3 active torsions:
REMARK  status: ('A' for Active; 'I' for Inactive)
REMARK    1  A    between atoms: C4_4  and  C8_8 
REMARK    2  A    between atoms: C7_7  and  N10_10 
REMARK    3  A    between atoms: C8_8  and  N10_10 
ROOT
HETATM    1  C1  UNL     1     -32.279   8.754   1.541  1.00 20.00     0.089 C 
HETATM    2  C7  UNL     1     -32.269   7.392   2.071  1.00 20.00     0.395 C 
HETATM    3  N9  UNL     1     -32.285   9.834   1.116  1.00 20.00    -0.195 NA
ENDROOT
BRANCH   2   4
HETATM    4  N10 UNL     1     -32.553   7.389   3.498  1.00 20.00     0.101 N 
HETATM    5  C6  UNL     1     -31.346   7.626   4.277  1.00 20.00     0.311 C 
BRANCH   4   6
HETATM    6  C8  UNL     1     -33.152   6.089   3.887  1.00 20.00     0.223 C 
HETATM    7  C5  UNL     1     -33.686   5.402   2.638  1.00 20.00     0.043 C 
BRANCH   6   8
HETATM    8  C4  UNL     1     -34.251   6.333   4.911  1.00 20.00     0.018 A 
HETATM    9  C2  UNL     1     -34.617   5.259   5.898  1.00 20.00     0.007 A 
HETATM   10  C3  UNL     1     -33.907   6.500   6.365  1.00 20.00     0.007 A 
ENDBRANCH   6   8
ENDBRANCH   4   6
ENDBRANCH   2   4
TORSDOF 3
ENDMDL
