MODEL 1
REMARK VINA RESULT:      -5.1      0.000      0.000
REMARK  0 active torsions:
REMARK  status: ('A' for Active; 'I' for Inactive)
ROOT
HETATM    1  C1  UNL     1     -35.168   4.122   5.308  1.00 20.00    -0.030 C 
HETATM    2  C2  UNL     1     -35.036   4.654   4.083  1.00 20.00    -0.020 C 
HETATM    3  C3  UNL     1     -33.363   6.642   5.882  1.00 20.00    -0.021 C 
HETATM    4  C4  UNL     1     -33.318   6.518   4.550  1.00 20.00    -0.050 C 
HETATM    5  C5  UNL     1     -34.735   4.670   6.636  1.00 20.00     0.030 C 
HETATM    6  C6  UNL     1     -34.516   6.180   6.711  1.00 20.00     0.031 C 
HETATM    7  C7  UNL     1     -32.169   6.982   3.716  1.00 20.00     0.202 C 
HETATM    8  C8  UNL     1     -33.529   5.700   2.388  1.00 20.00     0.180 C 
HETATM    9  C9  UNL     1     -34.360   5.924   3.651  1.00 20.00     0.062 C 
HETATM   10  O10 UNL     1     -32.574   6.768   2.357  1.00 20.00    -0.386 OA
ENDROOT
TORSDOF 0
ENDMDL
MODEL 2
REMARK VINA RESULT:      -4.4     11.943     12.883
REMARK  0 active torsions:
REMARK  status: ('A' for Active; 'I' for Inactive)
ROOT
HETATM    1  C1  UNL     1     -35.771  13.829  -4.364  1.00 20.00    -0.030 C 
HETATM    2  C2  UNL     1     -36.181  14.790  -3.524  1.00 20.00    -0.020 C 
HETATM    3  C3  UNL     1     -33.053  15.236  -3.606  1.00 20.00    -0.021 C 
HETATM    4  C4  UNL     1     -33.985  16.095  -3.174  1.00 20.00    -0.050 C 
HETATM    5  C5  UNL     1     -34.375  13.402  -4.715  1.00 20.00     0.030 C 
HETATM    6  C6  UNL     1     -33.280  13.763  -3.713  1.00 20.00     0.031 C 
HETATM    7  C7  UNL     1     -33.761  17.567  -3.061  1.00 20.00     0.202 C 
HETATM    8  C8  UNL     1     -36.004  17.174  -2.797  1.00 20.00     0.180 C 
HETATM    9  C9  UNL     1     -35.381  15.781  -2.726  1.00 20.00     0.062 C 
HETATM   10  O10 UNL     1     -34.954  18.088  -2.458  1.00 20.00    -0.386 OA
ENDROOT
TORSDOF 0
ENDMDL
MODEL 3
REMARK VINA RESULT:      -4.3     12.669     14.169
REMARK  0 active torsions:
REMARK  status: ('A' for Active; 'I' for Inactive)
ROOT
HETATM    1  C1  UNL     1     -34.240  14.956  -3.093  1.00 20.00    -0.030 C 
HETATM    2  C2  UNL     1     -33.566  16.001  -3.596  1.00 20.00    -0.020 C 
HETATM    3  C3  UNL     1     -34.797  14.666  -6.182  1.00 20.00    -0.021 C 
HETATM    4  C4  UNL     1     -34.296  15.901  -6.066  1.00 20.00    -0.050 C 
HETATM    5  C5  UNL     1     -34.926  13.830  -3.810  1.00 20.00     0.030 C 
HETATM    6  C6  UNL     1     -34.468  13.554  -5.240  1.00 20.00     0.031 C 
HETATM    7  C7  UNL     1     -34.620  17.015  -7.007  1.00 20.00     0.202 C 
HETATM    8  C8  UNL     1     -33.532  17.915  -5.201  1.00 20.00     0.180 C 
HETATM    9  C9  UNL     1     -33.345  16.408  -5.025  1.00 20.00     0.062 C 
HETATM   10  O10 UNL     1     -33.795  18.114  -6.595  1.00 20.00    -0.386 OA
ENDROOT
TORSDOF 0
ENDMDL
MODEL 4
REMARK VINA RESULT:      -4.3     12.319     13.756
REMARK  0 active torsions:
REMARK  status: ('A' for Active; 'I' for Inactive)
ROOT
HETATM    1  C1  UNL     1     -33.777  13.329  -4.128  1.00 20.00    -0.030 C 
HETATM    2  C2  UNL     1     -34.788  13.479  -4.996  1.00 20.00    -0.020 C 
HETATM    3  C3  UNL     1     -33.441  16.337  -5.010  1.00 20.00    -0.021 C 
HETATM    4  C4  UNL     1     -34.292  15.836  -5.914  1.00 20.00    -0.050 C 
HETATM    5  C5  UNL     1     -32.840  14.361  -3.571  1.00 20.00     0.030 C 
HETATM    6  C6  UNL     1     -33.317  15.810  -3.618  1.00 20.00     0.031 C 
HETATM    7  C7  UNL     1     -34.423  16.362  -7.306  1.00 20.00     0.202 C 
HETATM    8  C8  UNL     1     -35.569  14.379  -7.192  1.00 20.00     0.180 C 
HETATM    9  C9  UNL     1     -35.256  14.703  -5.731  1.00 20.00     0.062 C 
HETATM   10  O10 UNL     1     -35.510  15.630  -7.888  1.00 20.00    -0.386 OA
ENDROOT
TORSDOF 0
ENDMDL
MODEL 5
REMARK VINA RESULT:      -4.3     12.093     13.453
REMARK  0 active torsions:
REMARK  status: ('A' for Active; 'I' for Inactive)
ROOT
HETATM    1  C1  UNL     1     -33.649  17.938  -4.234  1.00 20.00    -0.030 C 
HETATM    2  C2  UNL     1     -33.476  16.871  -5.028  1.00 20.00    -0.020 C 
HETATM    3  C3  UNL     1     -34.726  15.595  -2.422  1.00 20.00    -0.021 C 
HETATM    4  C4  UNL     1     -34.643  15.041  -3.637  1.00 20.00    -0.050 C 
HETATM    5  C5  UNL     1     -34.067  17.996  -2.794  1.00 20.00     0.030 C 
HETATM    6  C6  UNL     1     -33.859  16.726  -1.972  1.00 20.00     0.031 C 
HETATM    7  C7  UNL     1     -35.504  13.907  -4.089  1.00 20.00     0.202 C 
HETATM    8  C8  UNL     1     -34.410  14.736  -5.926  1.00 20.00     0.180 C 
HETATM    9  C9  UNL     1     -33.709  15.413  -4.750  1.00 20.00     0.062 C 
HETATM   10  O10 UNL     1     -35.014  13.552  -5.390  1.00 20.00    -0.386 OA
ENDROOT
TORSDOF 0
ENDMDL
MODEL 6
REMARK VINA RESULT:      -4.3     12.066     13.641
REMARK  0 active torsions:
REMARK  status: ('A' for Active; 'I' for Inactive)
ROOT
HETATM    1  C1  UNL     1     -34.936  13.580  -4.504  1.00 20.00    -0.030 C 
HETATM    2  C2  UNL     1     -34.247  14.218  -3.546  1.00 20.00    -0.020 C 
HETATM    3  C3  UNL     1     -34.294  16.339  -5.887  1.00 20.00    -0.021 C 
HETATM    4  C4  UNL     1     -34.011  16.560  -4.598  1.00 20.00    -0.050 C 
HETATM    5  C5  UNL     1     -35.182  13.984  -5.928  1.00 20.00     0.030 C 
HETATM    6  C6  UNL     1     -34.207  14.993  -6.529  1.00 20.00     0.031 C 
HETATM    7  C7  UNL     1     -34.093  17.904  -3.953  1.00 20.00     0.202 C 
HETATM    8  C8  UNL     1     -33.846  16.342  -2.293  1.00 20.00     0.180 C 
HETATM    9  C9  UNL     1     -33.568  15.558  -3.575  1.00 20.00     0.062 C 
HETATM   10  O10 UNL     1     -33.604  17.717  -2.618  1.00 20.00    -0.386 OA
ENDROOT
TORSDOF 0
ENDMDL
MODEL 7
REMARK VINA RESULT:      -4.2     11.728     12.929
REMARK  0 active torsions:
REMARK  status: ('A' for Active; 'I' for Inactive)
ROOT
HETATM    1  C1  UNL     1     -33.934  17.371  -3.018  1.00 20.00    -0.030 C 
HETATM    2  C2  UNL     1     -33.523  16.097  -2.931  1.00 20.00    -0.020 C 
HETATM    3  C3  UNL     1     -36.610  15.783  -3.529  1.00 20.00    -0.021 C 
HETATM    4  C4  UNL     1     -35.660  14.848  -3.652  1.00 20.00    -0.050 C 
HETATM    5  C5  UNL     1     -35.328  17.915  -3.140  1.00 20.00     0.030 C 
HETATM    6  C6  UNL     1     -36.459  17.001  -2.676  1.00 20.00     0.031 C 
HETATM    7  C7  UNL     1     -35.807  13.628  -4.500  1.00 20.00     0.202 C 
HETATM    8  C8  UNL     1     -33.609  13.782  -3.865  1.00 20.00     0.180 C 
HETATM    9  C9  UNL     1     -34.313  14.821  -2.993  1.00 20.00     0.062 C 
HETATM   10  O10 UNL     1     -34.626  12.851  -4.258  1.00 20.00    -0.386 OA
ENDROOT
TORSDOF 0
ENDMDL
MODEL 8
REMARK VINA RESULT:      -4.2     12.126     13.648
REMARK  0 active torsions:
REMARK  status: ('A' for Active; 'I' for Inactive)
ROOT
HETATM    1  C1  UNL     1     -35.962  17.427  -4.446  1.00 20.00    -0.030 C 
HETATM    2  C2  UNL     1     -36.267  16.156  -4.746  1.00 20.00    -0.020 C 
HETATM    3  C3  UNL     1     -33.120  16.064  -4.481  1.00 20.00    -0.021 C 
HETATM    4  C4  UNL     1     -33.967  15.027  -4.464  1.00 20.00    -0.050 C 
HETATM    5  C5  UNL     1     -34.616  18.083  -4.337  1.00 20.00     0.030 C 
HETATM    6  C6  UNL     1     -33.463  17.396  -5.064  1.00 20.00     0.031 C 
HETATM    7  C7  UNL     1     -33.627  13.693  -3.887  1.00 20.00     0.202 C 
HETATM    8  C8  UNL     1     -35.883  13.730  -4.293  1.00 20.00     0.180 C 
HETATM    9  C9  UNL     1     -35.366  14.981  -5.001  1.00 20.00     0.062 C 
HETATM   10  O10 UNL     1     -34.754  12.855  -4.176  1.00 20.00    -0.386 OA
ENDROOT
TORSDOF 0
ENDMDL
MODEL 9
REMARK VINA RESULT:      -4.2     12.376     14.145
REMARK  0 active torsions:
REMARK  status: ('A' for Active; 'I' for Inactive)
ROOT
HETATM    1  C1  UNL     1     -33.620  17.386  -5.886  1.00 20.00    -0.030 C 
HETATM    2  C2  UNL     1     -33.442  16.710  -4.741  1.00 20.00    -0.020 C 
HETATM    3  C3  UNL     1     -35.556  14.928  -6.272  1.00 20.00    -0.021 C 
HETATM    4  C4  UNL     1     -34.798  14.572  -5.228  1.00 20.00    -0.050 C 
HETATM    5  C5  UNL     1     -34.612  17.150  -6.987  1.00 20.00     0.030 C 
HETATM    6  C6  UNL     1     -35.859  16.349  -6.621  1.00 20.00     0.031 C 
HETATM    7  C7  UNL     1     -34.495  13.153  -4.873  1.00 20.00     0.202 C 
HETATM    8  C8  UNL     1     -33.121  14.499  -3.624  1.00 20.00     0.180 C 
HETATM    9  C9  UNL     1     -34.128  15.473  -4.235  1.00 20.00     0.062 C 
HETATM   10  O10 UNL     1     -33.761  13.217  -3.642  1.00 20.00    -0.386 OA
ENDROOT
TORSDOF 0
ENDMDL
