MODEL 1
REMARK VINA RESULT:      -4.8      0.000      0.000
REMARK  2 active torsions:
REMARK  status: ('A' for Active; 'I' for Inactive)
REMARK    1  A    between atoms: C1_1  and  C3_3 
REMARK    2  A    between atoms: C1_1  and  C8_8 
ROOT
HETATM    1  C2  UNL     1     -34.043   6.530   5.603  1.00 20.00     0.022 A 
HETATM    2  C3  UNL     1     -33.206   5.676   4.686  1.00 20.00     0.064 A 
HETATM    3  C4  UNL     1     -34.651   5.301   4.968  1.00 20.00    -0.037 A 
HETATM    4  C5  UNL     1     -34.896   4.102   5.846  1.00 20.00     0.015 C 
HETATM    5  C6  UNL     1     -35.699   5.509   3.906  1.00 20.00     0.015 C 
ENDROOT
BRANCH   2   6
HETATM    6  C1  UNL     1     -32.803   6.203   3.376  1.00 20.00     0.131 C 
HETATM    7  O9  UNL     1     -33.104   5.615   2.337  1.00 20.00    -0.298 OA
BRANCH   6   8
HETATM    8  C8  UNL     1     -32.007   7.495   3.391  1.00 20.00     0.074 C 
HETATM    9  C7  UNL     1     -32.068   8.234   2.066  1.00 20.00     0.013 C 
ENDBRANCH   6   8
ENDBRANCH   2   6
TORSDOF 2
ENDMDL
MODEL 2
REMARK VINA RESULT:      -4.5     11.549     12.322
REMARK  2 active torsions:
REMARK  status: ('A' for Active; 'I' for Inactive)
REMARK    1  A    between atoms: C1_1  and  C3_3 
REMARK    2  A    between atoms: C1_1  and  C8_8 
ROOT
HETATM    1  C2  UNL     1     -33.736  16.268  -3.833  1.00 20.00     0.022 A 
HETATM    2  C3  UNL     1     -33.992  14.826  -3.480  1.00 20.00     0.064 A 
HETATM    3  C4  UNL     1     -34.837  15.924  -2.858  1.00 20.00    -0.037 A 
HETATM    4  C5  UNL     1     -34.609  16.231  -1.401  1.00 20.00     0.015 C 
HETATM    5  C6  UNL     1     -36.260  16.121  -3.312  1.00 20.00     0.015 C 
ENDROOT
BRANCH   2   6
HETATM    6  C1  UNL     1     -34.552  13.923  -4.494  1.00 20.00     0.131 C 
HETATM    7  O9  UNL     1     -35.070  12.854  -4.172  1.00 20.00    -0.298 OA
BRANCH   6   8
HETATM    8  C8  UNL     1     -34.450  14.388  -5.935  1.00 20.00     0.074 C 
HETATM    9  C7  UNL     1     -35.808  14.574  -6.586  1.00 20.00     0.013 C 
ENDBRANCH   6   8
ENDBRANCH   2   6
TORSDOF 2
ENDMDL
MODEL 3
REMARK VINA RESULT:      -4.4     11.469     12.352
REMARK  2 active torsions:
REMARK  status: ('A' for Active; 'I' for Inactive)
REMARK    1  A    between atoms: C1_1  and  C3_3 
REMARK    2  A    between atoms: C1_1  and  C8_8 
ROOT
HETATM    1  C2  UNL     1     -33.766  17.574  -2.888  1.00 20.00     0.022 A 
HETATM    2  C3  UNL     1     -33.466  16.098  -2.840  1.00 20.00     0.064 A 
HETATM    3  C4  UNL     1     -34.709  16.646  -2.160  1.00 20.00    -0.037 A 
HETATM    4  C5  UNL     1     -34.714  16.684  -0.654  1.00 20.00     0.015 C 
HETATM    5  C6  UNL     1     -36.065  16.404  -2.772  1.00 20.00     0.015 C 
ENDROOT
BRANCH   2   6
HETATM    6  C1  UNL     1     -33.565  15.301  -4.069  1.00 20.00     0.131 C 
HETATM    7  O9  UNL     1     -33.562  15.839  -5.175  1.00 20.00    -0.298 OA
BRANCH   6   8
HETATM    8  C8  UNL     1     -33.670  13.798  -3.884  1.00 20.00     0.074 C 
HETATM    9  C7  UNL     1     -35.013  13.247  -4.326  1.00 20.00     0.013 C 
ENDBRANCH   6   8
ENDBRANCH   2   6
TORSDOF 2
ENDMDL
MODEL 4
REMARK VINA RESULT:      -4.3     11.231     13.186
REMARK  2 active torsions:
REMARK  status: ('A' for Active; 'I' for Inactive)
REMARK    1  A    between atoms: C1_1  and  C3_3 
REMARK    2  A    between atoms: C1_1  and  C8_8 
ROOT
HETATM    1  C2  UNL     1     -35.260  14.295  -7.157  1.00 20.00     0.022 A 
HETATM    2  C3  UNL     1     -34.485  14.612  -5.904  1.00 20.00     0.064 A 
HETATM    3  C4  UNL     1     -35.707  15.436  -6.274  1.00 20.00    -0.037 A 
HETATM    4  C5  UNL     1     -35.472  16.841  -6.765  1.00 20.00     0.015 C 
HETATM    5  C6  UNL     1     -36.989  15.262  -5.502  1.00 20.00     0.015 C 
ENDROOT
BRANCH   2   6
HETATM    6  C1  UNL     1     -34.520  13.673  -4.776  1.00 20.00     0.131 C 
HETATM    7  O9  UNL     1     -34.880  12.507  -4.934  1.00 20.00    -0.298 OA
BRANCH   6   8
HETATM    8  C8  UNL     1     -34.090  14.228  -3.430  1.00 20.00     0.074 C 
HETATM    9  C7  UNL     1     -33.169  15.428  -3.560  1.00 20.00     0.013 C 
ENDBRANCH   6   8
ENDBRANCH   2   6
TORSDOF 2
ENDMDL
MODEL 5
REMARK VINA RESULT:      -4.3      1.282      3.864
REMARK  2 active torsions:
REMARK  status: ('A' for Active; 'I' for Inactive)
REMARK    1  A    between atoms: C1_1  and  C3_3 
REMARK    2  A    between atoms: C1_1  and  C8_8 
ROOT
HETATM    1  C2  UNL     1     -32.538   7.240   4.693  1.00 20.00     0.022 A 
HETATM    2  C3  UNL     1     -33.852   7.056   3.978  1.00 20.00     0.064 A 
HETATM    3  C4  UNL     1     -32.543   6.848   3.235  1.00 20.00    -0.037 A 
HETATM    4  C5  UNL     1     -32.149   7.893   2.223  1.00 20.00     0.015 C 
HETATM    5  C6  UNL     1     -32.095   5.454   2.883  1.00 20.00     0.015 C 
ENDROOT
BRANCH   2   6
HETATM    6  C1  UNL     1     -34.711   5.918   4.328  1.00 20.00     0.131 C 
HETATM    7  O9  UNL     1     -35.500   5.445   3.511  1.00 20.00    -0.298 OA
BRANCH   6   8
HETATM    8  C8  UNL     1     -34.563   5.376   5.738  1.00 20.00     0.074 C 
HETATM    9  C7  UNL     1     -34.845   3.888   5.826  1.00 20.00     0.013 C 
ENDBRANCH   6   8
ENDBRANCH   2   6
TORSDOF 2
ENDMDL
MODEL 6
REMARK VINA RESULT:      -4.3     11.182     12.258
REMARK  2 active torsions:
REMARK  status: ('A' for Active; 'I' for Inactive)
REMARK    1  A    between atoms: C1_1  and  C3_3 
REMARK    2  A    between atoms: C1_1  and  C8_8 
ROOT
HETATM    1  C2  UNL     1     -32.868  14.226  -3.411  1.00 20.00     0.022 A 
HETATM    2  C3  UNL     1     -34.373  14.290  -3.370  1.00 20.00     0.064 A 
HETATM    3  C4  UNL     1     -33.564  15.548  -3.636  1.00 20.00    -0.037 A 
HETATM    4  C5  UNL     1     -33.500  16.574  -2.535  1.00 20.00     0.015 C 
HETATM    5  C6  UNL     1     -33.524  16.132  -5.023  1.00 20.00     0.015 C 
ENDROOT
BRANCH   2   6
HETATM    6  C1  UNL     1     -35.152  13.652  -4.439  1.00 20.00     0.131 C 
HETATM    7  O9  UNL     1     -34.758  12.619  -4.979  1.00 20.00    -0.298 OA
BRANCH   6   8
HETATM    8  C8  UNL     1     -36.449  14.340  -4.822  1.00 20.00     0.074 C 
HETATM    9  C7  UNL     1     -37.171  14.935  -3.628  1.00 20.00     0.013 C 
ENDBRANCH   6   8
ENDBRANCH   2   6
TORSDOF 2
ENDMDL
MODEL 7
REMARK VINA RESULT:      -4.2     11.720     13.152
REMARK  2 active torsions:
REMARK  status: ('A' for Active; 'I' for Inactive)
REMARK    1  A    between atoms: C1_1  and  C3_3 
REMARK    2  A    between atoms: C1_1  and  C8_8 
ROOT
HETATM    1  C2  UNL     1     -35.690  15.120  -5.188  1.00 20.00     0.022 A 
HETATM    2  C3  UNL     1     -34.335  14.532  -4.888  1.00 20.00     0.064 A 
HETATM    3  C4  UNL     1     -34.507  15.494  -6.050  1.00 20.00    -0.037 A 
HETATM    4  C5  UNL     1     -34.439  14.919  -7.441  1.00 20.00     0.015 C 
HETATM    5  C6  UNL     1     -33.980  16.901  -5.941  1.00 20.00     0.015 C 
ENDROOT
BRANCH   2   6
HETATM    6  C1  UNL     1     -33.626  14.938  -3.668  1.00 20.00     0.131 C 
HETATM    7  O9  UNL     1     -32.408  14.801  -3.569  1.00 20.00    -0.298 OA
BRANCH   6   8
HETATM    8  C8  UNL     1     -34.482  15.526  -2.561  1.00 20.00     0.074 C 
HETATM    9  C7  UNL     1     -33.846  16.743  -1.915  1.00 20.00     0.013 C 
ENDBRANCH   6   8
ENDBRANCH   2   6
TORSDOF 2
ENDMDL
MODEL 8
REMARK VINA RESULT:      -4.2     11.686     12.823
REMARK  2 active torsions:
REMARK  status: ('A' for Active; 'I' for Inactive)
REMARK    1  A    between atoms: C1_1  and  C3_3 
REMARK    2  A    between atoms: C1_1  and  C8_8 
ROOT
HETATM    1  C2  UNL     1     -33.446  15.887  -5.037  1.00 20.00     0.022 A 
HETATM    2  C3  UNL     1     -34.888  15.981  -4.611  1.00 20.00     0.064 A 
HETATM    3  C4  UNL     1     -34.403  14.774  -5.395  1.00 20.00    -0.037 A 
HETATM    4  C5  UNL     1     -34.845  14.660  -6.831  1.00 20.00     0.015 C 
HETATM    5  C6  UNL     1     -34.228  13.450  -4.699  1.00 20.00     0.015 C 
ENDROOT
BRANCH   2   6
HETATM    6  C1  UNL     1     -35.229  15.870  -3.187  1.00 20.00     0.131 C 
HETATM    7  O9  UNL     1     -36.345  15.495  -2.830  1.00 20.00    -0.298 OA
BRANCH   6   8
HETATM    8  C8  UNL     1     -34.132  16.242  -2.206  1.00 20.00     0.074 C 
HETATM    9  C7  UNL     1     -34.671  16.598  -0.833  1.00 20.00     0.013 C 
ENDBRANCH   6   8
ENDBRANCH   2   6
TORSDOF 2
ENDMDL
MODEL 9
REMARK VINA RESULT:      -4.1     11.411     12.383
REMARK  2 active torsions:
REMARK  status: ('A' for Active; 'I' for Inactive)
REMARK    1  A    between atoms: C1_1  and  C3_3 
REMARK    2  A    between atoms: C1_1  and  C8_8 
ROOT
HETATM    1  C2  UNL     1     -35.501  14.947  -4.046  1.00 20.00     0.022 A 
HETATM    2  C3  UNL     1     -35.042  15.203  -2.634  1.00 20.00     0.064 A 
HETATM    3  C4  UNL     1     -34.023  14.984  -3.738  1.00 20.00    -0.037 A 
HETATM    4  C5  UNL     1     -33.270  13.679  -3.737  1.00 20.00     0.015 C 
HETATM    5  C6  UNL     1     -33.228  16.151  -4.264  1.00 20.00     0.015 C 
ENDROOT
BRANCH   2   6
HETATM    6  C1  UNL     1     -35.241  16.531  -2.039  1.00 20.00     0.131 C 
HETATM    7  O9  UNL     1     -35.934  17.379  -2.600  1.00 20.00    -0.298 OA
BRANCH   6   8
HETATM    8  C8  UNL     1     -34.545  16.780  -0.713  1.00 20.00     0.074 C 
HETATM    9  C7  UNL     1     -33.436  17.811  -0.819  1.00 20.00     0.013 C 
ENDBRANCH   6   8
ENDBRANCH   2   6
TORSDOF 2
ENDMDL
