MODEL 1
REMARK VINA RESULT:      -4.9      0.000      0.000
REMARK  3 active torsions:
REMARK  status: ('A' for Active; 'I' for Inactive)
REMARK    1  A    between atoms: C4_4  and  C6_6 
REMARK    2  A    between atoms: C5_5  and  C7_7 
REMARK    3  A    between atoms: C6_6  and  C7_7 
ROOT
HETATM    1  C1  UNL     1     -33.896   6.592   5.571  1.00 20.00     0.064 C 
HETATM    2  C7  UNL     1     -34.349   6.167   4.232  1.00 20.00     0.092 C 
HETATM    3  N8  UNL     1     -33.540   6.929   6.623  1.00 20.00    -0.197 NA
ENDROOT
BRANCH   2   4
HETATM    4  C5  UNL     1     -35.239   4.912   4.335  1.00 20.00     0.014 C 
HETATM    5  C3  UNL     1     -34.962   4.019   5.540  1.00 20.00     0.006 C 
ENDBRANCH   2   4
BRANCH   2   6
HETATM    6  C6  UNL     1     -33.157   5.960   3.279  1.00 20.00     0.019 C 
BRANCH   6   7
HETATM    7  C4  UNL     1     -32.090   7.052   3.421  1.00 20.00    -0.003 C 
HETATM    8  C2  UNL     1     -32.084   7.982   2.218  1.00 20.00     0.005 C 
ENDBRANCH   6   7
ENDBRANCH   2   6
TORSDOF 3
ENDMDL
MODEL 2
REMARK VINA RESULT:      -4.3      1.730      2.538
REMARK  3 active torsions:
REMARK  status: ('A' for Active; 'I' for Inactive)
REMARK    1  A    between atoms: C4_4  and  C6_6 
REMARK    2  A    between atoms: C5_5  and  C7_7 
REMARK    3  A    between atoms: C6_6  and  C7_7 
ROOT
HETATM    1  C1  UNL     1     -34.675   4.480   5.139  1.00 20.00     0.064 C 
HETATM    2  C7  UNL     1     -33.822   5.682   5.229  1.00 20.00     0.092 C 
HETATM    3  N8  UNL     1     -35.343   3.534   5.069  1.00 20.00    -0.197 NA
ENDROOT
BRANCH   2   4
HETATM    4  C5  UNL     1     -34.236   6.551   6.434  1.00 20.00     0.014 C 
HETATM    5  C3  UNL     1     -33.173   7.528   6.924  1.00 20.00     0.006 C 
ENDBRANCH   2   4
BRANCH   2   6
HETATM    6  C6  UNL     1     -33.832   6.474   3.908  1.00 20.00     0.019 C 
BRANCH   6   7
HETATM    7  C4  UNL     1     -32.508   6.365   3.143  1.00 20.00    -0.003 C 
HETATM    8  C2  UNL     1     -32.081   7.711   2.577  1.00 20.00     0.005 C 
ENDBRANCH   6   7
ENDBRANCH   2   6
TORSDOF 3
ENDMDL
MODEL 3
REMARK VINA RESULT:      -4.1     11.403     12.550
REMARK  3 active torsions:
REMARK  status: ('A' for Active; 'I' for Inactive)
REMARK    1  A    between atoms: C4_4  and  C6_6 
REMARK    2  A    between atoms: C5_5  and  C7_7 
REMARK    3  A    between atoms: C6_6  and  C7_7 
ROOT
HETATM    1  C1  UNL     1     -34.531  13.702  -3.865  1.00 20.00     0.064 C 
HETATM    2  C7  UNL     1     -33.934  14.850  -3.155  1.00 20.00     0.092 C 
HETATM    3  N8  UNL     1     -34.999  12.798  -4.421  1.00 20.00    -0.197 NA
ENDROOT
BRANCH   2   4
HETATM    4  C5  UNL     1     -35.033  15.725  -2.520  1.00 20.00     0.014 C 
HETATM    5  C3  UNL     1     -34.622  16.462  -1.249  1.00 20.00     0.006 C 
ENDBRANCH   2   4
BRANCH   2   6
HETATM    6  C6  UNL     1     -33.007  15.659  -4.081  1.00 20.00     0.019 C 
BRANCH   6   7
HETATM    7  C4  UNL     1     -33.724  16.167  -5.338  1.00 20.00    -0.003 C 
HETATM    8  C2  UNL     1     -33.585  17.675  -5.485  1.00 20.00     0.005 C 
ENDBRANCH   6   7
ENDBRANCH   2   6
TORSDOF 3
ENDMDL
MODEL 4
REMARK VINA RESULT:      -4.1     11.882     12.593
REMARK  3 active torsions:
REMARK  status: ('A' for Active; 'I' for Inactive)
REMARK    1  A    between atoms: C4_4  and  C6_6 
REMARK    2  A    between atoms: C5_5  and  C7_7 
REMARK    3  A    between atoms: C6_6  and  C7_7 
ROOT
HETATM    1  C1  UNL     1     -33.336  16.245  -4.541  1.00 20.00     0.064 C 
HETATM    2  C7  UNL     1     -33.338  15.332  -3.381  1.00 20.00     0.092 C 
HETATM    3  N8  UNL     1     -33.331  16.964  -5.452  1.00 20.00    -0.197 NA
ENDROOT
BRANCH   2   4
HETATM    4  C5  UNL     1     -33.511  13.871  -3.843  1.00 20.00     0.014 C 
HETATM    5  C3  UNL     1     -34.942  13.460  -4.170  1.00 20.00     0.006 C 
ENDBRANCH   2   4
BRANCH   2   6
HETATM    6  C6  UNL     1     -34.401  15.746  -2.347  1.00 20.00     0.019 C 
BRANCH   6   7
HETATM    7  C4  UNL     1     -33.966  16.948  -1.500  1.00 20.00    -0.003 C 
HETATM    8  C2  UNL     1     -34.769  17.040  -0.212  1.00 20.00     0.005 C 
ENDBRANCH   6   7
ENDBRANCH   2   6
TORSDOF 3
ENDMDL
MODEL 5
REMARK VINA RESULT:      -4.0     11.648     12.642
REMARK  3 active torsions:
REMARK  status: ('A' for Active; 'I' for Inactive)
REMARK    1  A    between atoms: C4_4  and  C6_6 
REMARK    2  A    between atoms: C5_5  and  C7_7 
REMARK    3  A    between atoms: C6_6  and  C7_7 
ROOT
HETATM    1  C1  UNL     1     -34.807  13.881  -4.116  1.00 20.00     0.064 C 
HETATM    2  C7  UNL     1     -34.685  15.311  -3.768  1.00 20.00     0.092 C 
HETATM    3  N8  UNL     1     -34.905  12.758  -4.390  1.00 20.00    -0.197 NA
ENDROOT
BRANCH   2   4
HETATM    4  C5  UNL     1     -33.304  15.854  -4.186  1.00 20.00     0.014 C 
HETATM    5  C3  UNL     1     -33.325  16.872  -5.321  1.00 20.00     0.006 C 
ENDBRANCH   2   4
BRANCH   2   6
HETATM    6  C6  UNL     1     -34.978  15.549  -2.275  1.00 20.00     0.019 C 
BRANCH   6   7
HETATM    7  C4  UNL     1     -34.094  16.645  -1.667  1.00 20.00    -0.003 C 
HETATM    8  C2  UNL     1     -34.622  17.098  -0.314  1.00 20.00     0.005 C 
ENDBRANCH   6   7
ENDBRANCH   2   6
TORSDOF 3
ENDMDL
MODEL 6
REMARK VINA RESULT:      -4.0      1.808      2.264
REMARK  3 active torsions:
REMARK  status: ('A' for Active; 'I' for Inactive)
REMARK    1  A    between atoms: C4_4  and  C6_6 
REMARK    2  A    between atoms: C5_5  and  C7_7 
REMARK    3  A    between atoms: C6_6  and  C7_7 
ROOT
HETATM    1  C1  UNL     1     -34.856   5.609   3.837  1.00 20.00     0.064 C 
HETATM    2  C7  UNL     1     -33.427   5.804   4.153  1.00 20.00     0.092 C 
HETATM    3  N8  UNL     1     -35.978   5.453   3.588  1.00 20.00    -0.197 NA
ENDROOT
BRANCH   2   4
HETATM    4  C5  UNL     1     -33.261   6.819   5.302  1.00 20.00     0.014 C 
HETATM    5  C3  UNL     1     -34.072   6.516   6.557  1.00 20.00     0.006 C 
ENDBRANCH   2   4
BRANCH   2   6
HETATM    6  C6  UNL     1     -32.627   6.205   2.900  1.00 20.00     0.019 C 
BRANCH   6   7
HETATM    7  C4  UNL     1     -31.908   7.550   3.063  1.00 20.00    -0.003 C 
HETATM    8  C2  UNL     1     -32.058   8.413   1.820  1.00 20.00     0.005 C 
ENDBRANCH   6   7
ENDBRANCH   2   6
TORSDOF 3
ENDMDL
MODEL 7
REMARK VINA RESULT:      -4.0      1.795      3.470
REMARK  3 active torsions:
REMARK  status: ('A' for Active; 'I' for Inactive)
REMARK    1  A    between atoms: C4_4  and  C6_6 
REMARK    2  A    between atoms: C5_5  and  C7_7 
REMARK    3  A    between atoms: C6_6  and  C7_7 
ROOT
HETATM    1  C1  UNL     1     -32.498   6.883   3.357  1.00 20.00     0.064 C 
HETATM    2  C7  UNL     1     -33.404   5.887   3.962  1.00 20.00     0.092 C 
HETATM    3  N8  UNL     1     -31.783   7.665   2.882  1.00 20.00    -0.197 NA
ENDROOT
BRANCH   2   4
HETATM    4  C5  UNL     1     -34.460   5.424   2.938  1.00 20.00     0.014 C 
HETATM    5  C3  UNL     1     -35.891   5.853   3.244  1.00 20.00     0.006 C 
ENDBRANCH   2   4
BRANCH   2   6
HETATM    6  C6  UNL     1     -34.044   6.427   5.255  1.00 20.00     0.019 C 
BRANCH   6   7
HETATM    7  C4  UNL     1     -34.008   5.409   6.401  1.00 20.00    -0.003 C 
HETATM    8  C2  UNL     1     -35.064   4.330   6.219  1.00 20.00     0.005 C 
ENDBRANCH   6   7
ENDBRANCH   2   6
TORSDOF 3
ENDMDL
MODEL 8
REMARK VINA RESULT:      -3.9     11.432     12.732
REMARK  3 active torsions:
REMARK  status: ('A' for Active; 'I' for Inactive)
REMARK    1  A    between atoms: C4_4  and  C6_6 
REMARK    2  A    between atoms: C5_5  and  C7_7 
REMARK    3  A    between atoms: C6_6  and  C7_7 
ROOT
HETATM    1  C1  UNL     1     -36.870  14.456  -4.182  1.00 20.00     0.064 C 
HETATM    2  C7  UNL     1     -35.560  14.553  -4.856  1.00 20.00     0.092 C 
HETATM    3  N8  UNL     1     -37.899  14.382  -3.650  1.00 20.00    -0.197 NA
ENDROOT
BRANCH   2   4
HETATM    4  C5  UNL     1     -35.746  14.754  -6.374  1.00 20.00     0.014 C 
HETATM    5  C3  UNL     1     -34.459  14.981  -7.160  1.00 20.00     0.006 C 
ENDBRANCH   2   4
BRANCH   2   6
HETATM    6  C6  UNL     1     -34.675  13.334  -4.534  1.00 20.00     0.019 C 
BRANCH   6   7
HETATM    7  C4  UNL     1     -33.412  13.712  -3.750  1.00 20.00    -0.003 C 
HETATM    8  C2  UNL     1     -33.279  15.220  -3.605  1.00 20.00     0.005 C 
ENDBRANCH   6   7
ENDBRANCH   2   6
TORSDOF 3
ENDMDL
MODEL 9
REMARK VINA RESULT:      -3.9      0.799      3.588
REMARK  3 active torsions:
REMARK  status: ('A' for Active; 'I' for Inactive)
REMARK    1  A    between atoms: C4_4  and  C6_6 
REMARK    2  A    between atoms: C5_5  and  C7_7 
REMARK    3  A    between atoms: C6_6  and  C7_7 
ROOT
HETATM    1  C1  UNL     1     -33.459   6.678   5.581  1.00 20.00     0.064 C 
HETATM    2  C7  UNL     1     -33.519   5.979   4.282  1.00 20.00     0.092 C 
HETATM    3  N8  UNL     1     -33.411   7.225   6.603  1.00 20.00    -0.197 NA
ENDROOT
BRANCH   2   4
HETATM    4  C5  UNL     1     -33.003   6.893   3.152  1.00 20.00     0.014 C 
HETATM    5  C3  UNL     1     -31.608   7.469   3.371  1.00 20.00     0.006 C 
ENDBRANCH   2   4
BRANCH   2   6
HETATM    6  C6  UNL     1     -34.936   5.446   3.999  1.00 20.00     0.019 C 
BRANCH   6   7
HETATM    7  C4  UNL     1     -35.186   4.070   4.629  1.00 20.00    -0.003 C 
HETATM    8  C2  UNL     1     -35.203   4.150   6.148  1.00 20.00     0.005 C 
ENDBRANCH   6   7
ENDBRANCH   2   6
TORSDOF 3
ENDMDL
