MODEL 1
REMARK VINA RESULT:      -4.6      0.000      0.000
REMARK  1 active torsions:
REMARK  status: ('A' for Active; 'I' for Inactive)
REMARK    1  A    between atoms: C6_6  and  N7_7 
ROOT
HETATM    1  C1  UNL     1     -35.081   4.308   5.983  1.00 20.00     0.003 C 
HETATM    2  C2  UNL     1     -33.991   5.281   6.422  1.00 20.00     0.030 C 
HETATM    3  C3  UNL     1     -35.087   4.147   4.467  1.00 20.00     0.030 C 
HETATM    4  C4  UNL     1     -34.081   6.600   5.651  1.00 20.00     0.274 C 
HETATM    5  C5  UNL     1     -35.140   5.506   3.763  1.00 20.00     0.274 C 
HETATM    6  N7  UNL     1     -34.095   6.444   4.191  1.00 20.00     0.101 N 
ENDROOT
BRANCH   6   7
HETATM    7  C6  UNL     1     -32.780   6.088   3.660  1.00 20.00     0.386 C 
HETATM    8 CL8  UNL     1     -32.221   7.409   2.635  1.00 20.00    -0.098 Cl
ENDBRANCH   6   7
TORSDOF 1
ENDMDL
MODEL 2
REMARK VINA RESULT:      -3.7     12.140     13.278
REMARK  1 active torsions:
REMARK  status: ('A' for Active; 'I' for Inactive)
REMARK    1  A    between atoms: C6_6  and  N7_7 
ROOT
HETATM    1  C1  UNL     1     -34.419  14.758  -6.301  1.00 20.00     0.003 C 
HETATM    2  C2  UNL     1     -34.200  16.141  -5.698  1.00 20.00     0.030 C 
HETATM    3  C3  UNL     1     -34.787  13.746  -5.222  1.00 20.00     0.030 C 
HETATM    4  C4  UNL     1     -33.214  16.087  -4.527  1.00 20.00     0.274 C 
HETATM    5  C5  UNL     1     -33.781  13.774  -4.068  1.00 20.00     0.274 C 
HETATM    6  N7  UNL     1     -33.565  15.107  -3.491  1.00 20.00     0.101 N 
ENDROOT
BRANCH   6   7
HETATM    7  C6  UNL     1     -34.694  15.546  -2.674  1.00 20.00     0.386 C 
HETATM    8 CL8  UNL     1     -34.089  16.653  -1.442  1.00 20.00    -0.098 Cl
ENDBRANCH   6   7
TORSDOF 1
ENDMDL
MODEL 3
REMARK VINA RESULT:      -3.7     12.089     12.676
REMARK  1 active torsions:
REMARK  status: ('A' for Active; 'I' for Inactive)
REMARK    1  A    between atoms: C6_6  and  N7_7 
ROOT
HETATM    1  C1  UNL     1     -34.625  13.306  -4.592  1.00 20.00     0.003 C 
HETATM    2  C2  UNL     1     -35.877  14.097  -4.225  1.00 20.00     0.030 C 
HETATM    3  C3  UNL     1     -33.434  13.753  -3.753  1.00 20.00     0.030 C 
HETATM    4  C4  UNL     1     -35.611  15.605  -4.264  1.00 20.00     0.274 C 
HETATM    5  C5  UNL     1     -33.253  15.272  -3.808  1.00 20.00     0.274 C 
HETATM    6  N7  UNL     1     -34.459  16.034  -3.461  1.00 20.00     0.101 N 
ENDROOT
BRANCH   6   7
HETATM    7  C6  UNL     1     -34.741  16.002  -2.027  1.00 20.00     0.386 C 
HETATM    8 CL8  UNL     1     -33.675  17.156  -1.228  1.00 20.00    -0.098 Cl
ENDBRANCH   6   7
TORSDOF 1
ENDMDL
MODEL 4
REMARK VINA RESULT:      -3.5     12.535     13.041
REMARK  1 active torsions:
REMARK  status: ('A' for Active; 'I' for Inactive)
REMARK    1  A    between atoms: C6_6  and  N7_7 
ROOT
HETATM    1  C1  UNL     1     -34.990  15.703  -2.358  1.00 20.00     0.003 C 
HETATM    2  C2  UNL     1     -36.016  15.171  -3.354  1.00 20.00     0.030 C 
HETATM    3  C3  UNL     1     -33.650  15.954  -3.041  1.00 20.00     0.030 C 
HETATM    4  C4  UNL     1     -35.469  13.967  -4.125  1.00 20.00     0.274 C 
HETATM    5  C5  UNL     1     -33.185  14.722  -3.823  1.00 20.00     0.274 C 
HETATM    6  N7  UNL     1     -34.175  14.206  -4.776  1.00 20.00     0.101 N 
ENDROOT
BRANCH   6   7
HETATM    7  C6  UNL     1     -34.300  15.056  -5.959  1.00 20.00     0.386 C 
HETATM    8 CL8  UNL     1     -35.419  14.284  -7.080  1.00 20.00    -0.098 Cl
ENDBRANCH   6   7
TORSDOF 1
ENDMDL
MODEL 5
REMARK VINA RESULT:      -3.5      9.113     10.231
REMARK  1 active torsions:
REMARK  status: ('A' for Active; 'I' for Inactive)
REMARK    1  A    between atoms: C6_6  and  N7_7 
ROOT
HETATM    1  C1  UNL     1     -41.248   7.285  -0.863  1.00 20.00     0.003 C 
HETATM    2  C2  UNL     1     -41.684   6.853  -2.259  1.00 20.00     0.030 C 
HETATM    3  C3  UNL     1     -40.713   6.100  -0.069  1.00 20.00     0.030 C 
HETATM    4  C4  UNL     1     -42.638   5.657  -2.197  1.00 20.00     0.274 C 
HETATM    5  C5  UNL     1     -41.701   4.930  -0.082  1.00 20.00     0.274 C 
HETATM    6  N7  UNL     1     -42.125   4.518  -1.426  1.00 20.00     0.101 N 
ENDROOT
BRANCH   6   7
HETATM    7  C6  UNL     1     -41.076   3.793  -2.140  1.00 20.00     0.386 C 
HETATM    8 CL8  UNL     1     -41.834   2.521  -3.097  1.00 20.00    -0.098 Cl
ENDBRANCH   6   7
TORSDOF 1
ENDMDL
MODEL 6
REMARK VINA RESULT:      -3.4     12.491     13.456
REMARK  1 active torsions:
REMARK  status: ('A' for Active; 'I' for Inactive)
REMARK    1  A    between atoms: C6_6  and  N7_7 
ROOT
HETATM    1  C1  UNL     1     -34.686  13.199  -4.884  1.00 20.00     0.003 C 
HETATM    2  C2  UNL     1     -33.829  13.729  -3.739  1.00 20.00     0.030 C 
HETATM    3  C3  UNL     1     -34.881  14.265  -5.955  1.00 20.00     0.030 C 
HETATM    4  C4  UNL     1     -34.372  15.059  -3.208  1.00 20.00     0.274 C 
HETATM    5  C5  UNL     1     -35.388  15.577  -5.349  1.00 20.00     0.274 C 
HETATM    6  N7  UNL     1     -34.567  16.084  -4.242  1.00 20.00     0.101 N 
ENDROOT
BRANCH   6   7
HETATM    7  C6  UNL     1     -33.302  16.650  -4.706  1.00 20.00     0.386 C 
HETATM    8 CL8  UNL     1     -33.659  17.901  -5.896  1.00 20.00    -0.098 Cl
ENDBRANCH   6   7
TORSDOF 1
ENDMDL
MODEL 7
REMARK VINA RESULT:      -3.4     12.523     13.586
REMARK  1 active torsions:
REMARK  status: ('A' for Active; 'I' for Inactive)
REMARK    1  A    between atoms: C6_6  and  N7_7 
ROOT
HETATM    1  C1  UNL     1     -33.337  13.791  -3.731  1.00 20.00     0.003 C 
HETATM    2  C2  UNL     1     -34.595  13.429  -4.515  1.00 20.00     0.030 C 
HETATM    3  C3  UNL     1     -33.246  15.297  -3.516  1.00 20.00     0.030 C 
HETATM    4  C4  UNL     1     -34.706  14.254  -5.800  1.00 20.00     0.274 C 
HETATM    5  C5  UNL     1     -33.403  16.058  -4.835  1.00 20.00     0.274 C 
HETATM    6  N7  UNL     1     -34.610  15.705  -5.593  1.00 20.00     0.101 N 
ENDROOT
BRANCH   6   7
HETATM    7  C6  UNL     1     -35.822  16.259  -4.993  1.00 20.00     0.386 C 
HETATM    8 CL8  UNL     1     -37.215  15.591  -5.842  1.00 20.00    -0.098 Cl
ENDBRANCH   6   7
TORSDOF 1
ENDMDL
MODEL 8
REMARK VINA RESULT:      -3.4     12.243     13.286
REMARK  1 active torsions:
REMARK  status: ('A' for Active; 'I' for Inactive)
REMARK    1  A    between atoms: C6_6  and  N7_7 
ROOT
HETATM    1  C1  UNL     1     -34.845  13.767  -5.613  1.00 20.00     0.003 C 
HETATM    2  C2  UNL     1     -35.085  13.645  -4.112  1.00 20.00     0.030 C 
HETATM    3  C3  UNL     1     -34.343  15.161  -5.972  1.00 20.00     0.030 C 
HETATM    4  C4  UNL     1     -35.973  14.782  -3.598  1.00 20.00     0.274 C 
HETATM    5  C5  UNL     1     -35.257  16.246  -5.395  1.00 20.00     0.274 C 
HETATM    6  N7  UNL     1     -35.494  16.125  -3.951  1.00 20.00     0.101 N 
ENDROOT
BRANCH   6   7
HETATM    7  C6  UNL     1     -34.329  16.521  -3.163  1.00 20.00     0.386 C 
HETATM    8 CL8  UNL     1     -34.673  16.199  -1.464  1.00 20.00    -0.098 Cl
ENDBRANCH   6   7
TORSDOF 1
ENDMDL
MODEL 9
REMARK VINA RESULT:      -3.4     12.537     13.578
REMARK  1 active torsions:
REMARK  status: ('A' for Active; 'I' for Inactive)
REMARK    1  A    between atoms: C6_6  and  N7_7 
ROOT
HETATM    1  C1  UNL     1     -32.998  15.070  -3.615  1.00 20.00     0.003 C 
HETATM    2  C2  UNL     1     -33.319  16.047  -4.742  1.00 20.00     0.030 C 
HETATM    3  C3  UNL     1     -33.631  13.709  -3.878  1.00 20.00     0.030 C 
HETATM    4  C4  UNL     1     -34.824  16.097  -5.021  1.00 20.00     0.274 C 
HETATM    5  C5  UNL     1     -35.125  13.840  -4.186  1.00 20.00     0.274 C 
HETATM    6  N7  UNL     1     -35.435  14.785  -5.267  1.00 20.00     0.101 N 
ENDROOT
BRANCH   6   7
HETATM    7  C6  UNL     1     -35.090  14.252  -6.584  1.00 20.00     0.386 C 
HETATM    8 CL8  UNL     1     -35.189  15.565  -7.756  1.00 20.00    -0.098 Cl
ENDBRANCH   6   7
TORSDOF 1
ENDMDL
