MODEL 1
REMARK VINA RESULT:      -5.3      0.000      0.000
REMARK  1 active torsions:
REMARK  status: ('A' for Active; 'I' for Inactive)
REMARK    1  A    between atoms: C7_7  and  O11_11 
ROOT
HETATM    1  C1  UNL     1     -35.109   4.341   6.154  1.00 20.00    -0.027 C 
HETATM    2  C2  UNL     1     -34.792   5.517   6.725  1.00 20.00     0.001 C 
HETATM    3  C3  UNL     1     -34.798   3.996   4.714  1.00 20.00     0.036 C 
HETATM    4  C4  UNL     1     -32.854   6.310   2.387  1.00 20.00     0.001 C 
HETATM    5  C5  UNL     1     -32.883   7.088   3.713  1.00 20.00     0.008 C 
HETATM    6  C6  UNL     1     -33.612   4.991   2.627  1.00 20.00     0.010 C 
HETATM    7  C7  UNL     1     -34.057   6.622   6.001  1.00 20.00     0.145 C 
HETATM    8  C8  UNL     1     -33.443   6.084   4.712  1.00 20.00     0.026 C 
HETATM    9  C9  UNL     1     -34.441   5.249   3.892  1.00 20.00    -0.035 C 
HETATM   10  C10 UNL     1     -35.736   6.005   3.509  1.00 20.00     0.016 C 
ENDROOT
BRANCH   7  11
HETATM   11  O11 UNL     1     -33.025   7.113   6.851  1.00 20.00    -0.391 OA
HETATM   12  H27 UNL     1     -32.198   7.051   6.349  1.00 20.00     0.210 HD
ENDBRANCH   7  11
TORSDOF 1
ENDMDL
MODEL 2
REMARK VINA RESULT:      -5.1     12.144     13.750
REMARK  1 active torsions:
REMARK  status: ('A' for Active; 'I' for Inactive)
REMARK    1  A    between atoms: C7_7  and  O11_11 
ROOT
HETATM    1  C1  UNL     1     -34.464  14.959  -6.754  1.00 20.00    -0.027 C 
HETATM    2  C2  UNL     1     -35.149  13.991  -6.119  1.00 20.00     0.001 C 
HETATM    3  C3  UNL     1     -33.892  16.177  -6.061  1.00 20.00     0.036 C 
HETATM    4  C4  UNL     1     -34.077  16.706  -2.287  1.00 20.00     0.001 C 
HETATM    5  C5  UNL     1     -34.764  15.345  -2.485  1.00 20.00     0.008 C 
HETATM    6  C6  UNL     1     -33.650  17.198  -3.683  1.00 20.00     0.010 C 
HETATM    7  C7  UNL     1     -35.398  13.989  -4.628  1.00 20.00     0.145 C 
HETATM    8  C8  UNL     1     -34.489  15.007  -3.945  1.00 20.00     0.026 C 
HETATM    9  C9  UNL     1     -34.499  16.371  -4.658  1.00 20.00    -0.035 C 
HETATM   10  C10 UNL     1     -35.903  17.011  -4.784  1.00 20.00     0.016 C 
ENDROOT
BRANCH   7  11
HETATM   11  O11 UNL     1     -35.117  12.687  -4.123  1.00 20.00    -0.391 OA
HETATM   12  H27 UNL     1     -35.274  12.067  -4.851  1.00 20.00     0.210 HD
ENDBRANCH   7  11
TORSDOF 1
ENDMDL
MODEL 3
REMARK VINA RESULT:      -4.9     11.969     13.683
REMARK  1 active torsions:
REMARK  status: ('A' for Active; 'I' for Inactive)
REMARK    1  A    between atoms: C7_7  and  O11_11 
ROOT
HETATM    1  C1  UNL     1     -32.883  14.933  -3.543  1.00 20.00    -0.027 C 
HETATM    2  C2  UNL     1     -33.374  13.743  -3.933  1.00 20.00     0.001 C 
HETATM    3  C3  UNL     1     -33.560  16.255  -3.832  1.00 20.00     0.036 C 
HETATM    4  C4  UNL     1     -36.943  16.531  -5.573  1.00 20.00     0.001 C 
HETATM    5  C5  UNL     1     -36.709  15.013  -5.498  1.00 20.00     0.008 C 
HETATM    6  C6  UNL     1     -35.720  17.204  -4.921  1.00 20.00     0.010 C 
HETATM    7  C7  UNL     1     -34.680  13.584  -4.678  1.00 20.00     0.145 C 
HETATM    8  C8  UNL     1     -35.486  14.877  -4.600  1.00 20.00     0.026 C 
HETATM    9  C9  UNL     1     -34.636  16.118  -4.925  1.00 20.00    -0.035 C 
HETATM   10  C10 UNL     1     -33.960  16.076  -6.318  1.00 20.00     0.016 C 
ENDROOT
BRANCH   7  11
HETATM   11  O11 UNL     1     -35.419  12.525  -4.078  1.00 20.00    -0.391 OA
HETATM   12  H27 UNL     1     -35.337  11.760  -4.668  1.00 20.00     0.210 HD
ENDBRANCH   7  11
TORSDOF 1
ENDMDL
MODEL 4
REMARK VINA RESULT:      -4.9     11.958     12.996
REMARK  1 active torsions:
REMARK  status: ('A' for Active; 'I' for Inactive)
REMARK    1  A    between atoms: C7_7  and  O11_11 
ROOT
HETATM    1  C1  UNL     1     -33.922  13.366  -4.248  1.00 20.00    -0.027 C 
HETATM    2  C2  UNL     1     -35.207  13.466  -4.632  1.00 20.00     0.001 C 
HETATM    3  C3  UNL     1     -33.218  14.399  -3.394  1.00 20.00     0.036 C 
HETATM    4  C4  UNL     1     -34.977  17.457  -1.945  1.00 20.00     0.001 C 
HETATM    5  C5  UNL     1     -36.103  16.728  -2.698  1.00 20.00     0.008 C 
HETATM    6  C6  UNL     1     -33.699  16.620  -2.134  1.00 20.00     0.010 C 
HETATM    7  C7  UNL     1     -36.111  14.608  -4.225  1.00 20.00     0.145 C 
HETATM    8  C8  UNL     1     -35.479  15.392  -3.079  1.00 20.00     0.026 C 
HETATM    9  C9  UNL     1     -34.000  15.725  -3.343  1.00 20.00    -0.035 C 
HETATM   10  C10 UNL     1     -33.753  16.525  -4.645  1.00 20.00     0.016 C 
ENDROOT
BRANCH   7  11
HETATM   11  O11 UNL     1     -37.360  14.070  -3.802  1.00 20.00    -0.391 OA
HETATM   12  H27 UNL     1     -37.939  14.825  -3.615  1.00 20.00     0.210 HD
ENDBRANCH   7  11
TORSDOF 1
ENDMDL
MODEL 5
REMARK VINA RESULT:      -4.8     12.305     13.856
REMARK  1 active torsions:
REMARK  status: ('A' for Active; 'I' for Inactive)
REMARK    1  A    between atoms: C7_7  and  O11_11 
ROOT
HETATM    1  C1  UNL     1     -34.770  13.308  -4.638  1.00 20.00    -0.027 C 
HETATM    2  C2  UNL     1     -33.770  13.726  -3.842  1.00 20.00     0.001 C 
HETATM    3  C3  UNL     1     -35.460  14.193  -5.653  1.00 20.00     0.036 C 
HETATM    4  C4  UNL     1     -34.396  17.789  -6.353  1.00 20.00     0.001 C 
HETATM    5  C5  UNL     1     -33.393  17.327  -5.283  1.00 20.00     0.008 C 
HETATM    6  C6  UNL     1     -35.337  16.600  -6.626  1.00 20.00     0.010 C 
HETATM    7  C7  UNL     1     -33.193  15.123  -3.893  1.00 20.00     0.145 C 
HETATM    8  C8  UNL     1     -33.649  15.830  -5.166  1.00 20.00     0.026 C 
HETATM    9  C9  UNL     1     -35.161  15.684  -5.407  1.00 20.00    -0.035 C 
HETATM   10  C10 UNL     1     -36.042  16.205  -4.245  1.00 20.00     0.016 C 
ENDROOT
BRANCH   7  11
HETATM   11  O11 UNL     1     -31.772  15.028  -3.884  1.00 20.00    -0.391 OA
HETATM   12  H27 UNL     1     -31.444  15.808  -3.411  1.00 20.00     0.210 HD
ENDBRANCH   7  11
TORSDOF 1
ENDMDL
MODEL 6
REMARK VINA RESULT:      -4.8     12.280     13.440
REMARK  1 active torsions:
REMARK  status: ('A' for Active; 'I' for Inactive)
REMARK    1  A    between atoms: C7_7  and  O11_11 
ROOT
HETATM    1  C1  UNL     1     -33.625  15.988  -2.789  1.00 20.00    -0.027 C 
HETATM    2  C2  UNL     1     -34.871  15.848  -2.303  1.00 20.00     0.001 C 
HETATM    3  C3  UNL     1     -33.255  15.739  -4.236  1.00 20.00     0.036 C 
HETATM    4  C4  UNL     1     -35.815  14.842  -6.918  1.00 20.00     0.001 C 
HETATM    5  C5  UNL     1     -36.674  15.010  -5.654  1.00 20.00     0.008 C 
HETATM    6  C6  UNL     1     -34.356  15.110  -6.504  1.00 20.00     0.010 C 
HETATM    7  C7  UNL     1     -36.059  15.458  -3.154  1.00 20.00     0.145 C 
HETATM    8  C8  UNL     1     -35.709  15.597  -4.633  1.00 20.00     0.026 C 
HETATM    9  C9  UNL     1     -34.354  14.955  -4.977  1.00 20.00    -0.035 C 
HETATM   10  C10 UNL     1     -34.254  13.453  -4.617  1.00 20.00     0.016 C 
ENDROOT
BRANCH   7  11
HETATM   11  O11 UNL     1     -37.147  16.321  -2.838  1.00 20.00    -0.391 OA
HETATM   12  H27 UNL     1     -37.929  15.952  -3.276  1.00 20.00     0.210 HD
ENDBRANCH   7  11
TORSDOF 1
ENDMDL
MODEL 7
REMARK VINA RESULT:      -4.7     12.541     13.668
REMARK  1 active torsions:
REMARK  status: ('A' for Active; 'I' for Inactive)
REMARK    1  A    between atoms: C7_7  and  O11_11 
ROOT
HETATM    1  C1  UNL     1     -34.891  15.848  -2.294  1.00 20.00    -0.027 C 
HETATM    2  C2  UNL     1     -33.628  16.066  -2.705  1.00 20.00     0.001 C 
HETATM    3  C3  UNL     1     -36.023  15.470  -3.224  1.00 20.00     0.036 C 
HETATM    4  C4  UNL     1     -35.536  14.844  -6.956  1.00 20.00     0.001 C 
HETATM    5  C5  UNL     1     -34.115  15.167  -6.465  1.00 20.00     0.008 C 
HETATM    6  C6  UNL     1     -36.462  14.928  -5.727  1.00 20.00     0.010 C 
HETATM    7  C7  UNL     1     -33.185  15.926  -4.143  1.00 20.00     0.145 C 
HETATM    8  C8  UNL     1     -34.249  15.185  -4.947  1.00 20.00     0.026 C 
HETATM    9  C9  UNL     1     -35.663  15.738  -4.698  1.00 20.00    -0.035 C 
HETATM   10  C10 UNL     1     -35.817  17.247  -5.004  1.00 20.00     0.016 C 
ENDROOT
BRANCH   7  11
HETATM   11  O11 UNL     1     -31.967  15.189  -4.173  1.00 20.00    -0.391 OA
HETATM   12  H27 UNL     1     -32.042  14.500  -3.494  1.00 20.00     0.210 HD
ENDBRANCH   7  11
TORSDOF 1
ENDMDL
MODEL 8
REMARK VINA RESULT:      -4.7     12.272     13.887
REMARK  1 active torsions:
REMARK  status: ('A' for Active; 'I' for Inactive)
REMARK    1  A    between atoms: C7_7  and  O11_11 
ROOT
HETATM    1  C1  UNL     1     -35.093  15.892  -2.815  1.00 20.00    -0.027 C 
HETATM    2  C2  UNL     1     -34.680  14.620  -2.957  1.00 20.00     0.001 C 
HETATM    3  C3  UNL     1     -35.399  16.811  -3.978  1.00 20.00     0.036 C 
HETATM    4  C4  UNL     1     -35.269  15.681  -7.619  1.00 20.00     0.001 C 
HETATM    5  C5  UNL     1     -34.907  14.405  -6.841  1.00 20.00     0.008 C 
HETATM    6  C6  UNL     1     -35.506  16.788  -6.574  1.00 20.00     0.010 C 
HETATM    7  C7  UNL     1     -34.507  13.946  -4.300  1.00 20.00     0.145 C 
HETATM    8  C8  UNL     1     -35.185  14.771  -5.389  1.00 20.00     0.026 C 
HETATM    9  C9  UNL     1     -34.828  16.265  -5.300  1.00 20.00    -0.035 C 
HETATM   10  C10 UNL     1     -33.310  16.560  -5.372  1.00 20.00     0.016 C 
ENDROOT
BRANCH   7  11
HETATM   11  O11 UNL     1     -35.104  12.654  -4.240  1.00 20.00    -0.391 OA
HETATM   12  H27 UNL     1     -34.461  12.071  -3.809  1.00 20.00     0.210 HD
ENDBRANCH   7  11
TORSDOF 1
ENDMDL
MODEL 9
REMARK VINA RESULT:      -4.6     12.460     13.796
REMARK  1 active torsions:
REMARK  status: ('A' for Active; 'I' for Inactive)
REMARK    1  A    between atoms: C7_7  and  O11_11 
ROOT
HETATM    1  C1  UNL     1     -34.968  13.652  -5.327  1.00 20.00    -0.027 C 
HETATM    2  C2  UNL     1     -34.581  14.527  -6.272  1.00 20.00     0.001 C 
HETATM    3  C3  UNL     1     -34.927  13.946  -3.843  1.00 20.00     0.036 C 
HETATM    4  C4  UNL     1     -33.898  17.331  -2.415  1.00 20.00     0.001 C 
HETATM    5  C5  UNL     1     -33.799  17.545  -3.934  1.00 20.00     0.008 C 
HETATM    6  C6  UNL     1     -34.357  15.876  -2.199  1.00 20.00     0.010 C 
HETATM    7  C7  UNL     1     -34.090  15.924  -5.963  1.00 20.00     0.145 C 
HETATM    8  C8  UNL     1     -34.431  16.289  -4.522  1.00 20.00     0.026 C 
HETATM    9  C9  UNL     1     -34.053  15.176  -3.530  1.00 20.00    -0.035 C 
HETATM   10  C10 UNL     1     -32.558  14.774  -3.567  1.00 20.00     0.016 C 
ENDROOT
BRANCH   7  11
HETATM   11  O11 UNL     1     -34.731  16.836  -6.850  1.00 20.00    -0.391 OA
HETATM   12  H27 UNL     1     -35.452  16.349  -7.276  1.00 20.00     0.210 HD
ENDBRANCH   7  11
TORSDOF 1
ENDMDL
