MODEL 1
REMARK VINA RESULT:      -5.5      0.000      0.000
REMARK  1 active torsions:
REMARK  status: ('A' for Active; 'I' for Inactive)
REMARK    1  A    between atoms: C4_4  and  C8_8 
ROOT
HETATM    1  C1  UNL     1     -34.069   6.359   5.919  1.00 20.00    -0.057 C 
HETATM    2  C2  UNL     1     -33.448   7.276   6.678  1.00 20.00     0.017 C 
HETATM    3  C5  UNL     1     -34.743   5.159   6.530  1.00 20.00     0.038 C 
HETATM    4  C6  UNL     1     -34.701   3.991   5.557  1.00 20.00     0.030 C 
HETATM    5  C7  UNL     1     -35.309   4.363   4.204  1.00 20.00     0.169 C 
HETATM    6  C8  UNL     1     -34.157   6.482   4.415  1.00 20.00     0.171 C 
HETATM    7  O9  UNL     1     -35.297   5.766   3.925  1.00 20.00    -0.378 OA
ENDROOT
BRANCH   6   8
HETATM    8  C4  UNL     1     -32.907   6.064   3.699  1.00 20.00    -0.001 C 
HETATM    9  C3  UNL     1     -32.126   6.899   3.005  1.00 20.00     0.010 C 
ENDBRANCH   6   8
TORSDOF 1
ENDMDL
MODEL 2
REMARK VINA RESULT:      -4.3      1.178      2.789
REMARK  1 active torsions:
REMARK  status: ('A' for Active; 'I' for Inactive)
REMARK    1  A    between atoms: C4_4  and  C8_8 
ROOT
HETATM    1  C1  UNL     1     -33.282   6.080   3.917  1.00 20.00    -0.057 C 
HETATM    2  C2  UNL     1     -32.295   6.873   3.471  1.00 20.00     0.017 C 
HETATM    3  C5  UNL     1     -34.323   5.520   2.984  1.00 20.00     0.038 C 
HETATM    4  C6  UNL     1     -35.634   5.321   3.731  1.00 20.00     0.030 C 
HETATM    5  C7  UNL     1     -35.447   4.447   4.972  1.00 20.00     0.169 C 
HETATM    6  C8  UNL     1     -33.397   5.674   5.368  1.00 20.00     0.171 C 
HETATM    7  O9  UNL     1     -34.111   4.437   5.482  1.00 20.00    -0.378 OA
ENDROOT
BRANCH   6   8
HETATM    8  C4  UNL     1     -34.002   6.729   6.245  1.00 20.00    -0.001 C 
HETATM    9  C3  UNL     1     -33.297   7.518   7.063  1.00 20.00     0.010 C 
ENDBRANCH   6   8
TORSDOF 1
ENDMDL
MODEL 3
REMARK VINA RESULT:      -4.3     12.177     13.475
REMARK  1 active torsions:
REMARK  status: ('A' for Active; 'I' for Inactive)
REMARK    1  A    between atoms: C4_4  and  C8_8 
ROOT
HETATM    1  C1  UNL     1     -33.729  16.046  -5.041  1.00 20.00    -0.057 C 
HETATM    2  C2  UNL     1     -33.442  17.351  -5.166  1.00 20.00     0.017 C 
HETATM    3  C5  UNL     1     -34.235  15.237  -6.206  1.00 20.00     0.038 C 
HETATM    4  C6  UNL     1     -35.134  14.116  -5.705  1.00 20.00     0.030 C 
HETATM    5  C7  UNL     1     -34.423  13.245  -4.668  1.00 20.00     0.169 C 
HETATM    6  C8  UNL     1     -33.538  15.299  -3.740  1.00 20.00     0.171 C 
HETATM    7  O9  UNL     1     -33.345  13.902  -3.995  1.00 20.00    -0.378 OA
ENDROOT
BRANCH   6   8
HETATM    8  C4  UNL     1     -34.639  15.521  -2.747  1.00 20.00    -0.001 C 
HETATM    9  C3  UNL     1     -34.512  16.261  -1.641  1.00 20.00     0.010 C 
ENDBRANCH   6   8
TORSDOF 1
ENDMDL
MODEL 4
REMARK VINA RESULT:      -4.2     12.018     12.830
REMARK  1 active torsions:
REMARK  status: ('A' for Active; 'I' for Inactive)
REMARK    1  A    between atoms: C4_4  and  C8_8 
ROOT
HETATM    1  C1  UNL     1     -35.630  14.873  -3.761  1.00 20.00    -0.057 C 
HETATM    2  C2  UNL     1     -36.971  14.825  -3.716  1.00 20.00     0.017 C 
HETATM    3  C5  UNL     1     -34.823  13.756  -4.368  1.00 20.00     0.038 C 
HETATM    4  C6  UNL     1     -33.466  13.669  -3.685  1.00 20.00     0.030 C 
HETATM    5  C7  UNL     1     -32.723  15.004  -3.734  1.00 20.00     0.169 C 
HETATM    6  C8  UNL     1     -34.848  16.055  -3.236  1.00 20.00     0.171 C 
HETATM    7  O9  UNL     1     -33.578  16.140  -3.894  1.00 20.00    -0.378 OA
ENDROOT
BRANCH   6   8
HETATM    8  C4  UNL     1     -34.685  16.060  -1.746  1.00 20.00    -0.001 C 
HETATM    9  C3  UNL     1     -34.159  17.076  -1.053  1.00 20.00     0.010 C 
ENDBRANCH   6   8
TORSDOF 1
ENDMDL
MODEL 5
REMARK VINA RESULT:      -4.1     12.181     12.970
REMARK  1 active torsions:
REMARK  status: ('A' for Active; 'I' for Inactive)
REMARK    1  A    between atoms: C4_4  and  C8_8 
ROOT
HETATM    1  C1  UNL     1     -35.736  14.596  -3.808  1.00 20.00    -0.057 C 
HETATM    2  C2  UNL     1     -37.068  14.711  -3.929  1.00 20.00     0.017 C 
HETATM    3  C5  UNL     1     -34.988  15.273  -2.690  1.00 20.00     0.038 C 
HETATM    4  C6  UNL     1     -33.577  15.616  -3.146  1.00 20.00     0.030 C 
HETATM    5  C7  UNL     1     -32.838  14.383  -3.666  1.00 20.00     0.169 C 
HETATM    6  C8  UNL     1     -34.908  13.764  -4.760  1.00 20.00     0.171 C 
HETATM    7  O9  UNL     1     -33.699  13.335  -4.120  1.00 20.00    -0.378 OA
ENDROOT
BRANCH   6   8
HETATM    8  C4  UNL     1     -34.617  14.445  -6.063  1.00 20.00    -0.001 C 
HETATM    9  C3  UNL     1     -35.385  14.336  -7.153  1.00 20.00     0.010 C 
ENDBRANCH   6   8
TORSDOF 1
ENDMDL
MODEL 6
REMARK VINA RESULT:      -4.0     12.212     13.613
REMARK  1 active torsions:
REMARK  status: ('A' for Active; 'I' for Inactive)
REMARK    1  A    between atoms: C4_4  and  C8_8 
ROOT
HETATM    1  C1  UNL     1     -34.037  16.681  -2.396  1.00 20.00    -0.057 C 
HETATM    2  C2  UNL     1     -34.413  16.608  -1.110  1.00 20.00     0.017 C 
HETATM    3  C5  UNL     1     -34.009  17.994  -3.133  1.00 20.00     0.038 C 
HETATM    4  C6  UNL     1     -34.280  17.762  -4.613  1.00 20.00     0.030 C 
HETATM    5  C7  UNL     1     -33.305  16.748  -5.212  1.00 20.00     0.169 C 
HETATM    6  C8  UNL     1     -33.592  15.466  -3.177  1.00 20.00     0.171 C 
HETATM    7  O9  UNL     1     -32.729  15.856  -4.252  1.00 20.00    -0.378 OA
ENDROOT
BRANCH   6   8
HETATM    8  C4  UNL     1     -34.725  14.618  -3.674  1.00 20.00    -0.001 C 
HETATM    9  C3  UNL     1     -34.569  13.412  -4.230  1.00 20.00     0.010 C 
ENDBRANCH   6   8
TORSDOF 1
ENDMDL
MODEL 7
REMARK VINA RESULT:      -4.0     12.055     13.724
REMARK  1 active torsions:
REMARK  status: ('A' for Active; 'I' for Inactive)
REMARK    1  A    between atoms: C4_4  and  C8_8 
ROOT
HETATM    1  C1  UNL     1     -33.909  16.027  -4.730  1.00 20.00    -0.057 C 
HETATM    2  C2  UNL     1     -33.420  17.245  -5.010  1.00 20.00     0.017 C 
HETATM    3  C5  UNL     1     -33.392  15.220  -3.569  1.00 20.00     0.038 C 
HETATM    4  C6  UNL     1     -33.515  13.735  -3.875  1.00 20.00     0.030 C 
HETATM    5  C7  UNL     1     -34.949  13.353  -4.244  1.00 20.00     0.169 C 
HETATM    6  C8  UNL     1     -35.022  15.399  -5.537  1.00 20.00     0.171 C 
HETATM    7  O9  UNL     1     -35.732  14.442  -4.742  1.00 20.00    -0.378 OA
ENDROOT
BRANCH   6   8
HETATM    8  C4  UNL     1     -34.566  14.795  -6.831  1.00 20.00    -0.001 C 
HETATM    9  C3  UNL     1     -35.343  14.662  -7.911  1.00 20.00     0.010 C 
ENDBRANCH   6   8
TORSDOF 1
ENDMDL
MODEL 8
REMARK VINA RESULT:      -3.9      9.184     10.294
REMARK  1 active torsions:
REMARK  status: ('A' for Active; 'I' for Inactive)
REMARK    1  A    between atoms: C4_4  and  C8_8 
ROOT
HETATM    1  C1  UNL     1     -41.463   6.341  -1.427  1.00 20.00    -0.057 C 
HETATM    2  C2  UNL     1     -41.244   7.549  -0.883  1.00 20.00     0.017 C 
HETATM    3  C5  UNL     1     -42.191   6.188  -2.736  1.00 20.00     0.038 C 
HETATM    4  C6  UNL     1     -42.928   4.858  -2.764  1.00 20.00     0.030 C 
HETATM    5  C7  UNL     1     -41.985   3.685  -2.493  1.00 20.00     0.169 C 
HETATM    6  C8  UNL     1     -40.971   5.066  -0.781  1.00 20.00     0.171 C 
HETATM    7  O9  UNL     1     -40.804   4.043  -1.771  1.00 20.00    -0.378 OA
ENDROOT
BRANCH   6   8
HETATM    8  C4  UNL     1     -41.833   4.589   0.349  1.00 20.00    -0.001 C 
HETATM    9  C3  UNL     1     -42.872   5.274   0.839  1.00 20.00     0.010 C 
ENDBRANCH   6   8
TORSDOF 1
ENDMDL
MODEL 9
REMARK VINA RESULT:      -3.9     11.922     13.387
REMARK  1 active torsions:
REMARK  status: ('A' for Active; 'I' for Inactive)
REMARK    1  A    between atoms: C4_4  and  C8_8 
ROOT
HETATM    1  C1  UNL     1     -34.200  14.592  -4.010  1.00 20.00    -0.057 C 
HETATM    2  C2  UNL     1     -33.370  13.574  -3.731  1.00 20.00     0.017 C 
HETATM    3  C5  UNL     1     -34.374  15.101  -5.416  1.00 20.00     0.038 C 
HETATM    4  C6  UNL     1     -34.714  16.584  -5.390  1.00 20.00     0.030 C 
HETATM    5  C7  UNL     1     -35.942  16.865  -4.522  1.00 20.00     0.169 C 
HETATM    6  C8  UNL     1     -35.030  15.270  -2.944  1.00 20.00     0.171 C 
HETATM    7  O9  UNL     1     -36.194  15.867  -3.529  1.00 20.00    -0.378 OA
ENDROOT
BRANCH   6   8
HETATM    8  C4  UNL     1     -34.266  16.267  -2.125  1.00 20.00    -0.001 C 
HETATM    9  C3  UNL     1     -34.581  16.601  -0.868  1.00 20.00     0.010 C 
ENDBRANCH   6   8
TORSDOF 1
ENDMDL
