MODEL 1
REMARK VINA RESULT:      -4.3      0.000      0.000
REMARK  1 active torsions:
REMARK  status: ('A' for Active; 'I' for Inactive)
REMARK    1  A    between atoms: C1_1  and  C3_3 
ROOT
HETATM    1  C2  UNL     1     -34.803   3.912   5.546  1.00 20.00     0.054 A 
HETATM    2  C3  UNL     1     -35.136   5.155   4.761  1.00 20.00     0.109 A 
HETATM    3  C4  UNL     1     -35.001   5.214   6.253  1.00 20.00     0.183 A 
HETATM    4  F6  UNL     1     -33.881   5.827   6.785  1.00 20.00    -0.249 F 
ENDROOT
BRANCH   2   5
HETATM    5  C1  UNL     1     -34.108   5.767   3.913  1.00 20.00     0.225 C 
HETATM    6  O5  UNL     1     -33.343   6.624   4.345  1.00 20.00    -0.279 OA
HETATM    7 CL7  UNL     1     -34.131   5.135   2.295  1.00 20.00    -0.043 Cl
ENDBRANCH   2   5
TORSDOF 1
ENDMDL
MODEL 2
REMARK VINA RESULT:      -4.2      2.439      2.524
REMARK  1 active torsions:
REMARK  status: ('A' for Active; 'I' for Inactive)
REMARK    1  A    between atoms: C1_1  and  C3_3 
ROOT
HETATM    1  C2  UNL     1     -35.223   4.505   6.172  1.00 20.00     0.054 A 
HETATM    2  C3  UNL     1     -34.053   4.904   5.309  1.00 20.00     0.109 A 
HETATM    3  C4  UNL     1     -35.293   4.333   4.689  1.00 20.00     0.183 A 
HETATM    4  F6  UNL     1     -36.126   5.186   3.987  1.00 20.00    -0.249 F 
ENDROOT
BRANCH   2   5
HETATM    5  C1  UNL     1     -33.742   6.326   5.133  1.00 20.00     0.225 C 
HETATM    6  O5  UNL     1     -33.635   6.830   4.019  1.00 20.00    -0.279 OA
HETATM    7 CL7  UNL     1     -33.556   7.149   6.653  1.00 20.00    -0.043 Cl
ENDBRANCH   2   5
TORSDOF 1
ENDMDL
MODEL 3
REMARK VINA RESULT:      -4.2      1.996      2.012
REMARK  1 active torsions:
REMARK  status: ('A' for Active; 'I' for Inactive)
REMARK    1  A    between atoms: C1_1  and  C3_3 
ROOT
HETATM    1  C2  UNL     1     -34.935   3.995   4.565  1.00 20.00     0.054 A 
HETATM    2  C3  UNL     1     -35.044   5.423   5.037  1.00 20.00     0.109 A 
HETATM    3  C4  UNL     1     -35.069   4.294   6.024  1.00 20.00     0.183 A 
HETATM    4  F6  UNL     1     -33.956   4.095   6.821  1.00 20.00    -0.249 F 
ENDROOT
BRANCH   2   5
HETATM    5  C1  UNL     1     -33.869   6.296   4.963  1.00 20.00     0.225 C 
HETATM    6  O5  UNL     1     -33.246   6.451   3.916  1.00 20.00    -0.279 OA
HETATM    7 CL7  UNL     1     -33.506   7.038   6.492  1.00 20.00    -0.043 Cl
ENDBRANCH   2   5
TORSDOF 1
ENDMDL
MODEL 4
REMARK VINA RESULT:      -4.1      1.796      1.960
REMARK  1 active torsions:
REMARK  status: ('A' for Active; 'I' for Inactive)
REMARK    1  A    between atoms: C1_1  and  C3_3 
ROOT
HETATM    1  C2  UNL     1     -34.841   5.546   6.350  1.00 20.00     0.054 A 
HETATM    2  C3  UNL     1     -33.797   5.493   5.264  1.00 20.00     0.109 A 
HETATM    3  C4  UNL     1     -34.301   4.229   5.892  1.00 20.00     0.183 A 
HETATM    4  F6  UNL     1     -35.142   3.419   5.150  1.00 20.00    -0.249 F 
ENDROOT
BRANCH   2   5
HETATM    5  C1  UNL     1     -34.176   5.822   3.886  1.00 20.00     0.225 C 
HETATM    6  O5  UNL     1     -35.304   5.596   3.457  1.00 20.00    -0.279 OA
HETATM    7 CL7  UNL     1     -32.865   6.538   2.999  1.00 20.00    -0.043 Cl
ENDBRANCH   2   5
TORSDOF 1
ENDMDL
MODEL 5
REMARK VINA RESULT:      -4.0      2.808      3.145
REMARK  1 active torsions:
REMARK  status: ('A' for Active; 'I' for Inactive)
REMARK    1  A    between atoms: C1_1  and  C3_3 
ROOT
HETATM    1  C2  UNL     1     -33.389   5.810   3.612  1.00 20.00     0.054 A 
HETATM    2  C3  UNL     1     -34.382   6.424   4.565  1.00 20.00     0.109 A 
HETATM    3  C4  UNL     1     -34.805   5.333   3.628  1.00 20.00     0.183 A 
HETATM    4  F6  UNL     1     -35.049   4.076   4.153  1.00 20.00    -0.249 F 
ENDROOT
BRANCH   2   5
HETATM    5  C1  UNL     1     -34.268   6.145   6.000  1.00 20.00     0.225 C 
HETATM    6  O5  UNL     1     -34.858   5.204   6.523  1.00 20.00    -0.279 OA
HETATM    7 CL7  UNL     1     -33.231   7.283   6.808  1.00 20.00    -0.043 Cl
ENDBRANCH   2   5
TORSDOF 1
ENDMDL
MODEL 6
REMARK VINA RESULT:      -3.9      2.510      2.917
REMARK  1 active torsions:
REMARK  status: ('A' for Active; 'I' for Inactive)
REMARK    1  A    between atoms: C1_1  and  C3_3 
ROOT
HETATM    1  C2  UNL     1     -33.225   5.930   3.449  1.00 20.00     0.054 A 
HETATM    2  C3  UNL     1     -34.248   6.492   4.403  1.00 20.00     0.109 A 
HETATM    3  C4  UNL     1     -34.628   5.418   3.429  1.00 20.00     0.183 A 
HETATM    4  F6  UNL     1     -34.848   4.141   3.916  1.00 20.00    -0.249 F 
ENDROOT
BRANCH   2   5
HETATM    5  C1  UNL     1     -34.148   6.176   5.831  1.00 20.00     0.225 C 
HETATM    6  O5  UNL     1     -33.470   6.855   6.596  1.00 20.00    -0.279 OA
HETATM    7 CL7  UNL     1     -35.082   4.774   6.258  1.00 20.00    -0.043 Cl
ENDBRANCH   2   5
TORSDOF 1
ENDMDL
MODEL 7
REMARK VINA RESULT:      -3.9      2.799      3.459
REMARK  1 active torsions:
REMARK  status: ('A' for Active; 'I' for Inactive)
REMARK    1  A    between atoms: C1_1  and  C3_3 
ROOT
HETATM    1  C2  UNL     1     -32.585   6.249   3.635  1.00 20.00     0.054 A 
HETATM    2  C3  UNL     1     -34.024   6.411   4.056  1.00 20.00     0.109 A 
HETATM    3  C4  UNL     1     -33.684   6.043   2.643  1.00 20.00     0.183 A 
HETATM    4  F6  UNL     1     -33.931   4.747   2.226  1.00 20.00    -0.249 F 
ENDROOT
BRANCH   2   5
HETATM    5  C1  UNL     1     -34.630   5.411   4.941  1.00 20.00     0.225 C 
HETATM    6  O5  UNL     1     -35.249   4.448   4.497  1.00 20.00    -0.279 OA
HETATM    7 CL7  UNL     1     -34.360   5.772   6.619  1.00 20.00    -0.043 Cl
ENDBRANCH   2   5
TORSDOF 1
ENDMDL
MODEL 8
REMARK VINA RESULT:      -3.7     12.436     12.682
REMARK  1 active torsions:
REMARK  status: ('A' for Active; 'I' for Inactive)
REMARK    1  A    between atoms: C1_1  and  C3_3 
ROOT
HETATM    1  C2  UNL     1     -33.896  15.475  -2.948  1.00 20.00     0.054 A 
HETATM    2  C3  UNL     1     -34.417  14.937  -4.256  1.00 20.00     0.109 A 
HETATM    3  C4  UNL     1     -33.001  14.675  -3.838  1.00 20.00     0.183 A 
HETATM    4  F6  UNL     1     -32.666  13.398  -3.425  1.00 20.00    -0.249 F 
ENDROOT
BRANCH   2   5
HETATM    5  C1  UNL     1     -35.391  13.841  -4.246  1.00 20.00     0.225 C 
HETATM    6  O5  UNL     1     -35.052  12.675  -4.423  1.00 20.00    -0.279 OA
HETATM    7 CL7  UNL     1     -37.010  14.407  -3.963  1.00 20.00    -0.043 Cl
ENDBRANCH   2   5
TORSDOF 1
ENDMDL
MODEL 9
REMARK VINA RESULT:      -3.6     12.215     12.595
REMARK  1 active torsions:
REMARK  status: ('A' for Active; 'I' for Inactive)
REMARK    1  A    between atoms: C1_1  and  C3_3 
ROOT
HETATM    1  C2  UNL     1     -36.566  15.123  -3.437  1.00 20.00     0.054 A 
HETATM    2  C3  UNL     1     -35.276  14.961  -4.200  1.00 20.00     0.109 A 
HETATM    3  C4  UNL     1     -35.349  15.884  -3.020  1.00 20.00     0.183 A 
HETATM    4  F6  UNL     1     -34.727  15.497  -1.847  1.00 20.00    -0.249 F 
ENDROOT
BRANCH   2   5
HETATM    5  C1  UNL     1     -34.531  13.703  -4.093  1.00 20.00     0.225 C 
HETATM    6  O5  UNL     1     -35.062  12.618  -4.312  1.00 20.00    -0.279 OA
HETATM    7 CL7  UNL     1     -32.874  13.960  -3.634  1.00 20.00    -0.043 Cl
ENDBRANCH   2   5
TORSDOF 1
ENDMDL
