MODEL 1
REMARK VINA RESULT:      -5.0      0.000      0.000
REMARK  0 active torsions:
REMARK  status: ('A' for Active; 'I' for Inactive)
ROOT
HETATM    1  C1  UNL     1     -35.087  16.655  -2.385  1.00 20.00    -0.071 C 
HETATM    2  C2  UNL     1     -35.332  14.036  -4.891  1.00 20.00     0.220 C 
HETATM    3  C3  UNL     1     -34.571  16.459  -1.163  1.00 20.00     0.016 C 
HETATM    4  C4  UNL     1     -34.886  17.929  -3.151  1.00 20.00     0.037 C 
HETATM    5  C5  UNL     1     -35.896  15.613  -3.097  1.00 20.00     0.159 C 
HETATM    6  C6  UNL     1     -34.753  13.798  -6.266  1.00 20.00     0.103 C 
HETATM    7  C7  UNL     1     -34.277  17.614  -4.515  1.00 20.00     0.030 C 
HETATM    8  C8  UNL     1     -34.998  14.946  -7.219  1.00 20.00     0.015 C 
HETATM    9  C9  UNL     1     -34.392  16.216  -6.630  1.00 20.00     0.005 C 
HETATM   10  C10 UNL     1     -35.077  16.540  -5.286  1.00 20.00     0.091 C 
HETATM   11  C11 UNL     1     -34.521  17.362  -7.638  1.00 20.00     0.012 C 
HETATM   12  N12 UNL     1     -35.326  15.352  -4.426  1.00 20.00    -0.343 N 
HETATM   13  O13 UNL     1     -35.710  13.065  -4.229  1.00 20.00    -0.273 OA
ENDROOT
TORSDOF 0
ENDMDL
MODEL 2
REMARK VINA RESULT:      -4.9      2.189      3.158
REMARK  0 active torsions:
REMARK  status: ('A' for Active; 'I' for Inactive)
ROOT
HETATM    1  C1  UNL     1     -34.307  15.746  -2.844  1.00 20.00    -0.071 C 
HETATM    2  C2  UNL     1     -33.930  17.941  -5.715  1.00 20.00     0.220 C 
HETATM    3  C3  UNL     1     -34.648  16.182  -1.623  1.00 20.00     0.016 C 
HETATM    4  C4  UNL     1     -34.790  14.437  -3.397  1.00 20.00     0.037 C 
HETATM    5  C5  UNL     1     -33.427  16.534  -3.767  1.00 20.00     0.159 C 
HETATM    6  C6  UNL     1     -34.613  18.096  -7.053  1.00 20.00     0.103 C 
HETATM    7  C7  UNL     1     -35.488  14.675  -4.734  1.00 20.00     0.030 C 
HETATM    8  C8  UNL     1     -34.658  16.811  -7.848  1.00 20.00     0.015 C 
HETATM    9  C9  UNL     1     -35.388  15.750  -7.031  1.00 20.00     0.005 C 
HETATM   10  C10 UNL     1     -34.619  15.488  -5.719  1.00 20.00     0.091 C 
HETATM   11  C11 UNL     1     -35.552  14.479  -7.870  1.00 20.00     0.012 C 
HETATM   12  N12 UNL     1     -34.092  16.716  -5.065  1.00 20.00    -0.343 N 
HETATM   13  O13 UNL     1     -33.334  18.909  -5.235  1.00 20.00    -0.273 OA
ENDROOT
TORSDOF 0
ENDMDL
MODEL 3
REMARK VINA RESULT:      -4.8      2.468      3.629
REMARK  0 active torsions:
REMARK  status: ('A' for Active; 'I' for Inactive)
ROOT
HETATM    1  C1  UNL     1     -34.442  18.283  -1.221  1.00 20.00    -0.071 C 
HETATM    2  C2  UNL     1     -33.724  18.089  -4.778  1.00 20.00     0.220 C 
HETATM    3  C3  UNL     1     -35.173  19.263  -0.670  1.00 20.00     0.016 C 
HETATM    4  C4  UNL     1     -34.507  16.862  -0.745  1.00 20.00     0.037 C 
HETATM    5  C5  UNL     1     -33.509  18.520  -2.371  1.00 20.00     0.159 C 
HETATM    6  C6  UNL     1     -34.040  17.120  -5.893  1.00 20.00     0.103 C 
HETATM    7  C7  UNL     1     -34.853  15.946  -1.916  1.00 20.00     0.030 C 
HETATM    8  C8  UNL     1     -33.631  15.699  -5.576  1.00 20.00     0.015 C 
HETATM    9  C9  UNL     1     -34.342  15.252  -4.304  1.00 20.00     0.005 C 
HETATM   10  C10 UNL     1     -33.919  16.158  -3.129  1.00 20.00     0.091 C 
HETATM   11  C11 UNL     1     -34.037  13.775  -4.037  1.00 20.00     0.012 C 
HETATM   12  N12 UNL     1     -33.824  17.601  -3.474  1.00 20.00    -0.343 N 
HETATM   13  O13 UNL     1     -33.469  19.262  -5.064  1.00 20.00    -0.273 OA
ENDROOT
TORSDOF 0
ENDMDL
MODEL 4
REMARK VINA RESULT:      -4.8      1.558      3.758
REMARK  0 active torsions:
REMARK  status: ('A' for Active; 'I' for Inactive)
ROOT
HETATM    1  C1  UNL     1     -36.523  15.305  -7.481  1.00 20.00    -0.071 C 
HETATM    2  C2  UNL     1     -34.659  13.717  -4.796  1.00 20.00     0.220 C 
HETATM    3  C3  UNL     1     -37.709  14.859  -7.917  1.00 20.00     0.016 C 
HETATM    4  C4  UNL     1     -36.192  16.766  -7.393  1.00 20.00     0.037 C 
HETATM    5  C5  UNL     1     -35.430  14.383  -7.029  1.00 20.00     0.159 C 
HETATM    6  C6  UNL     1     -34.194  14.122  -3.418  1.00 20.00     0.103 C 
HETATM    7  C7  UNL     1     -35.755  17.105  -5.970  1.00 20.00     0.030 C 
HETATM    8  C8  UNL     1     -33.401  15.410  -3.414  1.00 20.00     0.015 C 
HETATM    9  C9  UNL     1     -34.263  16.523  -4.001  1.00 20.00     0.005 C 
HETATM   10  C10 UNL     1     -34.631  16.177  -5.459  1.00 20.00     0.091 C 
HETATM   11  C11 UNL     1     -33.523  17.859  -3.890  1.00 20.00     0.012 C 
HETATM   12  N12 UNL     1     -34.987  14.750  -5.677  1.00 20.00    -0.343 N 
HETATM   13  O13 UNL     1     -34.792  12.517  -5.051  1.00 20.00    -0.273 OA
ENDROOT
TORSDOF 0
ENDMDL
MODEL 5
REMARK VINA RESULT:      -4.7      2.069      3.420
REMARK  0 active torsions:
REMARK  status: ('A' for Active; 'I' for Inactive)
ROOT
HETATM    1  C1  UNL     1     -38.082  15.333  -4.433  1.00 20.00    -0.071 C 
HETATM    2  C2  UNL     1     -34.801  13.773  -4.495  1.00 20.00     0.220 C 
HETATM    3  C3  UNL     1     -39.224  14.641  -4.309  1.00 20.00     0.016 C 
HETATM    4  C4  UNL     1     -37.878  16.676  -3.796  1.00 20.00     0.037 C 
HETATM    5  C5  UNL     1     -36.905  14.817  -5.206  1.00 20.00     0.159 C 
HETATM    6  C6  UNL     1     -33.566  13.819  -3.627  1.00 20.00     0.103 C 
HETATM    7  C7  UNL     1     -36.631  16.640  -2.917  1.00 20.00     0.030 C 
HETATM    8  C8  UNL     1     -33.063  15.224  -3.385  1.00 20.00     0.015 C 
HETATM    9  C9  UNL     1     -34.171  16.040  -2.728  1.00 20.00     0.005 C 
HETATM   10  C10 UNL     1     -35.391  16.110  -3.672  1.00 20.00     0.091 C 
HETATM   11  C11 UNL     1     -33.639  17.429  -2.364  1.00 20.00     0.012 C 
HETATM   12  N12 UNL     1     -35.702  14.831  -4.363  1.00 20.00    -0.343 N 
HETATM   13  O13 UNL     1     -34.987  12.786  -5.214  1.00 20.00    -0.273 OA
ENDROOT
TORSDOF 0
ENDMDL
MODEL 6
REMARK VINA RESULT:      -4.7      2.014      3.815
REMARK  0 active torsions:
REMARK  status: ('A' for Active; 'I' for Inactive)
ROOT
HETATM    1  C1  UNL     1     -34.419  14.252  -4.758  1.00 20.00    -0.071 C 
HETATM    2  C2  UNL     1     -33.730  17.243  -2.813  1.00 20.00     0.220 C 
HETATM    3  C3  UNL     1     -35.227  13.269  -4.336  1.00 20.00     0.016 C 
HETATM    4  C4  UNL     1     -34.349  14.680  -6.194  1.00 20.00     0.037 C 
HETATM    5  C5  UNL     1     -33.525  15.018  -3.828  1.00 20.00     0.159 C 
HETATM    6  C6  UNL     1     -33.971  18.724  -2.987  1.00 20.00     0.103 C 
HETATM    7  C7  UNL     1     -34.626  16.178  -6.294  1.00 20.00     0.030 C 
HETATM    8  C8  UNL     1     -33.432  19.263  -4.293  1.00 20.00     0.015 C 
HETATM    9  C9  UNL     1     -34.084  18.508  -5.446  1.00 20.00     0.005 C 
HETATM   10  C10 UNL     1     -33.729  17.010  -5.350  1.00 20.00     0.091 C 
HETATM   11  C11 UNL     1     -33.644  19.124  -6.777  1.00 20.00     0.012 C 
HETATM   12  N12 UNL     1     -33.770  16.460  -3.968  1.00 20.00    -0.343 N 
HETATM   13  O13 UNL     1     -33.585  16.794  -1.672  1.00 20.00    -0.273 OA
ENDROOT
TORSDOF 0
ENDMDL
MODEL 7
REMARK VINA RESULT:      -4.7      2.258      4.488
REMARK  0 active torsions:
REMARK  status: ('A' for Active; 'I' for Inactive)
ROOT
HETATM    1  C1  UNL     1     -34.937  14.117  -4.523  1.00 20.00    -0.071 C 
HETATM    2  C2  UNL     1     -37.178  16.654  -3.203  1.00 20.00     0.220 C 
HETATM    3  C3  UNL     1     -34.923  13.744  -5.811  1.00 20.00     0.016 C 
HETATM    4  C4  UNL     1     -33.688  14.213  -3.697  1.00 20.00     0.037 C 
HETATM    5  C5  UNL     1     -36.199  14.485  -3.802  1.00 20.00     0.159 C 
HETATM    6  C6  UNL     1     -37.014  18.010  -2.558  1.00 20.00     0.103 C 
HETATM    7  C7  UNL     1     -33.578  15.613  -3.099  1.00 20.00     0.030 C 
HETATM    8  C8  UNL     1     -36.085  17.990  -1.365  1.00 20.00     0.015 C 
HETATM    9  C9  UNL     1     -34.720  17.477  -1.810  1.00 20.00     0.005 C 
HETATM   10  C10 UNL     1     -34.859  16.037  -2.347  1.00 20.00     0.091 C 
HETATM   11  C11 UNL     1     -33.732  17.568  -0.643  1.00 20.00     0.012 C 
HETATM   12  N12 UNL     1     -36.062  15.815  -3.192  1.00 20.00    -0.343 N 
HETATM   13  O13 UNL     1     -38.245  16.386  -3.762  1.00 20.00    -0.273 OA
ENDROOT
TORSDOF 0
ENDMDL
MODEL 8
REMARK VINA RESULT:      -4.7      2.047      4.304
REMARK  0 active torsions:
REMARK  status: ('A' for Active; 'I' for Inactive)
ROOT
HETATM    1  C1  UNL     1     -34.439  18.126  -7.035  1.00 20.00    -0.071 C 
HETATM    2  C2  UNL     1     -34.160  17.371  -3.491  1.00 20.00     0.220 C 
HETATM    3  C3  UNL     1     -33.751  19.108  -7.635  1.00 20.00     0.016 C 
HETATM    4  C4  UNL     1     -34.724  16.814  -7.705  1.00 20.00     0.037 C 
HETATM    5  C5  UNL     1     -34.968  18.247  -5.637  1.00 20.00     0.159 C 
HETATM    6  C6  UNL     1     -33.697  16.189  -2.672  1.00 20.00     0.103 C 
HETATM    7  C7  UNL     1     -34.209  15.672  -6.833  1.00 20.00     0.030 C 
HETATM    8  C8  UNL     1     -34.388  14.898  -3.050  1.00 20.00     0.015 C 
HETATM    9  C9  UNL     1     -34.134  14.616  -4.526  1.00 20.00     0.005 C 
HETATM   10  C10 UNL     1     -34.726  15.757  -5.380  1.00 20.00     0.091 C 
HETATM   11  C11 UNL     1     -34.721  13.251  -4.896  1.00 20.00     0.012 C 
HETATM   12  N12 UNL     1     -34.502  17.117  -4.821  1.00 20.00    -0.343 N 
HETATM   13  O13 UNL     1     -34.145  18.493  -2.978  1.00 20.00    -0.273 OA
ENDROOT
TORSDOF 0
ENDMDL
MODEL 9
REMARK VINA RESULT:      -4.6      2.127      2.865
REMARK  0 active torsions:
REMARK  status: ('A' for Active; 'I' for Inactive)
ROOT
HETATM    1  C1  UNL     1     -34.775  17.011  -1.385  1.00 20.00    -0.071 C 
HETATM    2  C2  UNL     1     -37.719  16.377  -3.418  1.00 20.00     0.220 C 
HETATM    3  C3  UNL     1     -34.793  17.013  -0.044  1.00 20.00     0.016 C 
HETATM    4  C4  UNL     1     -33.616  16.481  -2.177  1.00 20.00     0.037 C 
HETATM    5  C5  UNL     1     -35.918  17.525  -2.209  1.00 20.00     0.159 C 
HETATM    6  C6  UNL     1     -38.136  15.324  -4.417  1.00 20.00     0.103 C 
HETATM    7  C7  UNL     1     -34.108  15.407  -3.144  1.00 20.00     0.030 C 
HETATM    8  C8  UNL     1     -37.134  15.138  -5.535  1.00 20.00     0.015 C 
HETATM    9  C9  UNL     1     -35.787  14.755  -4.933  1.00 20.00     0.005 C 
HETATM   10  C10 UNL     1     -35.290  15.891  -4.013  1.00 20.00     0.091 C 
HETATM   11  C11 UNL     1     -34.793  14.442  -6.055  1.00 20.00     0.012 C 
HETATM   12  N12 UNL     1     -36.351  16.498  -3.167  1.00 20.00    -0.343 N 
HETATM   13  O13 UNL     1     -38.594  17.019  -2.830  1.00 20.00    -0.273 OA
ENDROOT
TORSDOF 0
ENDMDL
