MODEL 1
REMARK VINA RESULT:      -4.7      0.000      0.000
REMARK  0 active torsions:
REMARK  status: ('A' for Active; 'I' for Inactive)
ROOT
HETATM    1  C1  UNL     1     -34.206   6.223   5.855  1.00 20.00    -0.057 C 
HETATM    2  C2  UNL     1     -33.749   6.980   6.858  1.00 20.00     0.017 C 
HETATM    3  C3  UNL     1     -34.907   4.917   6.008  1.00 20.00     0.205 C 
HETATM    4  C4  UNL     1     -32.716   6.288   3.803  1.00 20.00     0.040 C 
HETATM    5  C5  UNL     1     -33.066   5.818   2.410  1.00 20.00     0.172 C 
HETATM    6  C6  UNL     1     -34.084   6.533   4.406  1.00 20.00     0.073 C 
HETATM    7  C7  UNL     1     -34.923   5.442   3.758  1.00 20.00     0.268 C 
HETATM    8  O8  UNL     1     -34.946   4.349   4.690  1.00 20.00    -0.356 OA
HETATM    9  O9  UNL     1     -34.286   5.076   2.529  1.00 20.00    -0.361 OA
ENDROOT
TORSDOF 0
ENDMDL
MODEL 2
REMARK VINA RESULT:      -4.2      1.571      3.552
REMARK  0 active torsions:
REMARK  status: ('A' for Active; 'I' for Inactive)
ROOT
HETATM    1  C1  UNL     1     -34.056   5.560   3.103  1.00 20.00    -0.057 C 
HETATM    2  C2  UNL     1     -34.232   5.012   1.897  1.00 20.00     0.017 C 
HETATM    3  C3  UNL     1     -32.904   6.415   3.504  1.00 20.00     0.205 C 
HETATM    4  C4  UNL     1     -34.863   4.074   4.995  1.00 20.00     0.040 C 
HETATM    5  C5  UNL     1     -35.103   4.481   6.431  1.00 20.00     0.172 C 
HETATM    6  C6  UNL     1     -34.963   5.402   4.271  1.00 20.00     0.073 C 
HETATM    7  C7  UNL     1     -34.374   6.369   5.287  1.00 20.00     0.268 C 
HETATM    8  O8  UNL     1     -32.989   6.526   4.933  1.00 20.00    -0.356 OA
HETATM    9  O9  UNL     1     -34.525   5.782   6.585  1.00 20.00    -0.361 OA
ENDROOT
TORSDOF 0
ENDMDL
MODEL 3
REMARK VINA RESULT:      -4.1      1.154      3.009
REMARK  0 active torsions:
REMARK  status: ('A' for Active; 'I' for Inactive)
ROOT
HETATM    1  C1  UNL     1     -33.322   6.153   3.456  1.00 20.00    -0.057 C 
HETATM    2  C2  UNL     1     -32.327   6.915   2.991  1.00 20.00     0.017 C 
HETATM    3  C3  UNL     1     -34.524   5.733   2.682  1.00 20.00     0.205 C 
HETATM    4  C4  UNL     1     -33.849   6.592   5.899  1.00 20.00     0.040 C 
HETATM    5  C5  UNL     1     -34.678   5.726   6.820  1.00 20.00     0.172 C 
HETATM    6  C6  UNL     1     -33.425   5.601   4.833  1.00 20.00     0.073 C 
HETATM    7  C7  UNL     1     -34.638   4.688   4.740  1.00 20.00     0.268 C 
HETATM    8  O8  UNL     1     -35.432   5.189   3.652  1.00 20.00    -0.356 OA
HETATM    9  O9  UNL     1     -35.338   4.766   5.987  1.00 20.00    -0.361 OA
ENDROOT
TORSDOF 0
ENDMDL
MODEL 4
REMARK VINA RESULT:      -4.1     12.391     13.067
REMARK  0 active torsions:
REMARK  status: ('A' for Active; 'I' for Inactive)
ROOT
HETATM    1  C1  UNL     1     -34.231  16.497  -2.139  1.00 20.00    -0.057 C 
HETATM    2  C2  UNL     1     -34.654  16.567  -0.873  1.00 20.00     0.017 C 
HETATM    3  C3  UNL     1     -33.771  17.651  -2.961  1.00 20.00     0.205 C 
HETATM    4  C4  UNL     1     -35.486  14.771  -3.510  1.00 20.00     0.040 C 
HETATM    5  C5  UNL     1     -35.085  14.212  -4.857  1.00 20.00     0.172 C 
HETATM    6  C6  UNL     1     -34.161  15.263  -2.966  1.00 20.00     0.073 C 
HETATM    7  C7  UNL     1     -33.453  15.743  -4.224  1.00 20.00     0.268 C 
HETATM    8  O8  UNL     1     -33.698  17.156  -4.307  1.00 20.00    -0.356 OA
HETATM    9  O9  UNL     1     -34.020  15.041  -5.337  1.00 20.00    -0.361 OA
ENDROOT
TORSDOF 0
ENDMDL
MODEL 5
REMARK VINA RESULT:      -4.1     12.166     13.431
REMARK  0 active torsions:
REMARK  status: ('A' for Active; 'I' for Inactive)
ROOT
HETATM    1  C1  UNL     1     -34.955  14.635  -5.850  1.00 20.00    -0.057 C 
HETATM    2  C2  UNL     1     -34.307  15.157  -6.896  1.00 20.00     0.017 C 
HETATM    3  C3  UNL     1     -34.656  13.320  -5.216  1.00 20.00     0.205 C 
HETATM    4  C4  UNL     1     -37.436  15.164  -5.855  1.00 20.00     0.040 C 
HETATM    5  C5  UNL     1     -38.401  15.009  -4.702  1.00 20.00     0.172 C 
HETATM    6  C6  UNL     1     -36.104  15.257  -5.139  1.00 20.00     0.073 C 
HETATM    7  C7  UNL     1     -36.308  14.327  -3.953  1.00 20.00     0.268 C 
HETATM    8  O8  UNL     1     -35.765  13.055  -4.344  1.00 20.00    -0.356 OA
HETATM    9  O9  UNL     1     -37.716  14.247  -3.701  1.00 20.00    -0.361 OA
ENDROOT
TORSDOF 0
ENDMDL
MODEL 6
REMARK VINA RESULT:      -3.9     11.877     13.066
REMARK  0 active torsions:
REMARK  status: ('A' for Active; 'I' for Inactive)
ROOT
HETATM    1  C1  UNL     1     -34.131  15.088  -3.640  1.00 20.00    -0.057 C 
HETATM    2  C2  UNL     1     -33.735  16.026  -2.773  1.00 20.00     0.017 C 
HETATM    3  C3  UNL     1     -33.911  13.623  -3.489  1.00 20.00     0.205 C 
HETATM    4  C4  UNL     1     -33.982  15.846  -6.057  1.00 20.00     0.040 C 
HETATM    5  C5  UNL     1     -34.620  15.185  -7.258  1.00 20.00     0.172 C 
HETATM    6  C6  UNL     1     -34.845  15.335  -4.921  1.00 20.00     0.073 C 
HETATM    7  C7  UNL     1     -35.193  13.929  -5.387  1.00 20.00     0.268 C 
HETATM    8  O8  UNL     1     -34.236  13.054  -4.767  1.00 20.00    -0.356 OA
HETATM    9  O9  UNL     1     -35.085  13.904  -6.815  1.00 20.00    -0.361 OA
ENDROOT
TORSDOF 0
ENDMDL
MODEL 7
REMARK VINA RESULT:      -3.9     11.533     12.639
REMARK  0 active torsions:
REMARK  status: ('A' for Active; 'I' for Inactive)
ROOT
HETATM    1  C1  UNL     1     -36.189  16.112  -4.052  1.00 20.00    -0.057 C 
HETATM    2  C2  UNL     1     -36.100  17.439  -3.915  1.00 20.00     0.017 C 
HETATM    3  C3  UNL     1     -37.400  15.293  -3.766  1.00 20.00     0.205 C 
HETATM    4  C4  UNL     1     -34.040  14.905  -3.453  1.00 20.00     0.040 C 
HETATM    5  C5  UNL     1     -33.681  13.472  -3.775  1.00 20.00     0.172 C 
HETATM    6  C6  UNL     1     -35.095  15.207  -4.497  1.00 20.00     0.073 C 
HETATM    7  C7  UNL     1     -35.803  13.869  -4.638  1.00 20.00     0.268 C 
HETATM    8  O8  UNL     1     -36.950  13.929  -3.774  1.00 20.00    -0.356 OA
HETATM    9  O9  UNL     1     -34.886  12.847  -4.231  1.00 20.00    -0.361 OA
ENDROOT
TORSDOF 0
ENDMDL
MODEL 8
REMARK VINA RESULT:      -3.9      9.399     10.484
REMARK  0 active torsions:
REMARK  status: ('A' for Active; 'I' for Inactive)
ROOT
HETATM    1  C1  UNL     1     -41.294   5.659  -0.924  1.00 20.00    -0.057 C 
HETATM    2  C2  UNL     1     -40.557   6.184   0.060  1.00 20.00     0.017 C 
HETATM    3  C3  UNL     1     -41.123   4.296  -1.499  1.00 20.00     0.205 C 
HETATM    4  C4  UNL     1     -41.979   7.367  -2.670  1.00 20.00     0.040 C 
HETATM    5  C5  UNL     1     -43.045   7.206  -3.730  1.00 20.00     0.172 C 
HETATM    6  C6  UNL     1     -42.405   6.343  -1.638  1.00 20.00     0.073 C 
HETATM    7  C7  UNL     1     -42.981   5.232  -2.503  1.00 20.00     0.268 C 
HETATM    8  O8  UNL     1     -41.920   4.282  -2.693  1.00 20.00    -0.356 OA
HETATM    9  O9  UNL     1     -43.396   5.817  -3.743  1.00 20.00    -0.361 OA
ENDROOT
TORSDOF 0
ENDMDL
MODEL 9
REMARK VINA RESULT:      -3.8     12.022     13.358
REMARK  0 active torsions:
REMARK  status: ('A' for Active; 'I' for Inactive)
ROOT
HETATM    1  C1  UNL     1     -34.630  14.411  -5.765  1.00 20.00    -0.057 C 
HETATM    2  C2  UNL     1     -35.148  14.435  -6.997  1.00 20.00     0.017 C 
HETATM    3  C3  UNL     1     -34.727  13.274  -4.808  1.00 20.00     0.205 C 
HETATM    4  C4  UNL     1     -34.732  16.664  -4.603  1.00 20.00     0.040 C 
HETATM    5  C5  UNL     1     -33.982  17.080  -3.358  1.00 20.00     0.172 C 
HETATM    6  C6  UNL     1     -33.881  15.520  -5.115  1.00 20.00     0.073 C 
HETATM    7  C7  UNL     1     -33.389  14.881  -3.826  1.00 20.00     0.268 C 
HETATM    8  O8  UNL     1     -34.293  13.799  -3.545  1.00 20.00    -0.356 OA
HETATM    9  O9  UNL     1     -33.427  15.882  -2.802  1.00 20.00    -0.361 OA
ENDROOT
TORSDOF 0
ENDMDL
