MODEL 1
REMARK VINA RESULT:      -3.8      0.000      0.000
REMARK  4 active torsions:
REMARK  status: ('A' for Active; 'I' for Inactive)
REMARK    1  A    between atoms: C2_2  and  C5_5 
REMARK    2  A    between atoms: C2_2  and  C6_6 
REMARK    3  A    between atoms: C5_5  and  C7_7 
REMARK    4  A    between atoms: C6_6  and  C8_8 
ROOT
HETATM    1  C1  UNL     1     -33.562  17.792  -4.839  1.00 20.00     0.207 A 
HETATM    2  C2  UNL     1     -33.975  16.502  -4.171  1.00 20.00     0.082 A 
HETATM    3  O9  UNL     1     -32.871  16.558  -5.086  1.00 20.00    -0.375 OA
ENDROOT
BRANCH   2   4
HETATM    4  C5  UNL     1     -33.565  16.238  -2.731  1.00 20.00     0.040 C 
BRANCH   4   5
HETATM    5  C7  UNL     1     -34.782  16.111  -1.817  1.00 20.00    -0.002 C 
HETATM    6  C3  UNL     1     -34.602  16.910  -0.535  1.00 20.00     0.005 C 
ENDBRANCH   4   5
ENDBRANCH   2   4
BRANCH   2   7
HETATM    7  C6  UNL     1     -35.152  15.745  -4.695  1.00 20.00     0.040 C 
BRANCH   7   8
HETATM    8  C8  UNL     1     -34.753  14.396  -5.314  1.00 20.00    -0.002 C 
HETATM    9  C4  UNL     1     -34.989  13.231  -4.368  1.00 20.00     0.005 C 
ENDBRANCH   7   8
ENDBRANCH   2   7
TORSDOF 4
ENDMDL
MODEL 2
REMARK VINA RESULT:      -3.7      1.568      3.782
REMARK  4 active torsions:
REMARK  status: ('A' for Active; 'I' for Inactive)
REMARK    1  A    between atoms: C2_2  and  C5_5 
REMARK    2  A    between atoms: C2_2  and  C6_6 
REMARK    3  A    between atoms: C5_5  and  C7_7 
REMARK    4  A    between atoms: C6_6  and  C8_8 
ROOT
HETATM    1  C1  UNL     1     -34.919  13.546  -4.348  1.00 20.00     0.207 A 
HETATM    2  C2  UNL     1     -34.286  14.749  -3.690  1.00 20.00     0.082 A 
HETATM    3  O9  UNL     1     -33.910  13.410  -3.335  1.00 20.00    -0.375 OA
ENDROOT
BRANCH   2   4
HETATM    4  C5  UNL     1     -33.196  15.517  -4.421  1.00 20.00     0.040 C 
BRANCH   4   5
HETATM    5  C7  UNL     1     -33.782  16.435  -5.492  1.00 20.00    -0.002 C 
HETATM    6  C3  UNL     1     -33.509  17.899  -5.182  1.00 20.00     0.005 C 
ENDBRANCH   4   5
ENDBRANCH   2   4
BRANCH   2   7
HETATM    7  C6  UNL     1     -35.024  15.472  -2.611  1.00 20.00     0.040 C 
BRANCH   7   8
HETATM    8  C8  UNL     1     -34.123  16.444  -1.834  1.00 20.00    -0.002 C 
HETATM    9  C4  UNL     1     -34.725  16.850  -0.498  1.00 20.00     0.005 C 
ENDBRANCH   7   8
ENDBRANCH   2   7
TORSDOF 4
ENDMDL
MODEL 3
REMARK VINA RESULT:      -3.6      1.313      3.671
REMARK  4 active torsions:
REMARK  status: ('A' for Active; 'I' for Inactive)
REMARK    1  A    between atoms: C2_2  and  C5_5 
REMARK    2  A    between atoms: C2_2  and  C6_6 
REMARK    3  A    between atoms: C5_5  and  C7_7 
REMARK    4  A    between atoms: C6_6  and  C8_8 
ROOT
HETATM    1  C1  UNL     1     -34.000  17.462  -4.448  1.00 20.00     0.207 A 
HETATM    2  C2  UNL     1     -33.772  16.471  -3.331  1.00 20.00     0.082 A 
HETATM    3  O9  UNL     1     -35.076  16.695  -3.886  1.00 20.00    -0.375 OA
ENDROOT
BRANCH   2   4
HETATM    4  C5  UNL     1     -33.198  15.100  -3.651  1.00 20.00     0.040 C 
BRANCH   4   5
HETATM    5  C7  UNL     1     -34.254  14.005  -3.507  1.00 20.00    -0.002 C 
HETATM    6  C3  UNL     1     -34.484  13.277  -4.823  1.00 20.00     0.005 C 
ENDBRANCH   4   5
ENDBRANCH   2   4
BRANCH   2   7
HETATM    7  C6  UNL     1     -33.623  16.964  -1.929  1.00 20.00     0.040 C 
BRANCH   7   8
HETATM    8  C8  UNL     1     -34.753  16.473  -1.012  1.00 20.00    -0.002 C 
HETATM    9  C4  UNL     1     -34.903  17.330   0.235  1.00 20.00     0.005 C 
ENDBRANCH   7   8
ENDBRANCH   2   7
TORSDOF 4
ENDMDL
MODEL 4
REMARK VINA RESULT:      -3.6      1.472      2.846
REMARK  4 active torsions:
REMARK  status: ('A' for Active; 'I' for Inactive)
REMARK    1  A    between atoms: C2_2  and  C5_5 
REMARK    2  A    between atoms: C2_2  and  C6_6 
REMARK    3  A    between atoms: C5_5  and  C7_7 
REMARK    4  A    between atoms: C6_6  and  C8_8 
ROOT
HETATM    1  C1  UNL     1     -34.313  13.613  -3.799  1.00 20.00     0.207 A 
HETATM    2  C2  UNL     1     -34.235  15.110  -3.608  1.00 20.00     0.082 A 
HETATM    3  O9  UNL     1     -35.091  14.519  -4.597  1.00 20.00    -0.375 OA
ENDROOT
BRANCH   2   4
HETATM    4  C5  UNL     1     -34.988  15.758  -2.456  1.00 20.00     0.040 C 
BRANCH   4   5
HETATM    5  C7  UNL     1     -34.073  16.660  -1.629  1.00 20.00    -0.002 C 
HETATM    6  C3  UNL     1     -34.704  17.017  -0.292  1.00 20.00     0.005 C 
ENDBRANCH   4   5
ENDBRANCH   2   4
BRANCH   2   7
HETATM    7  C6  UNL     1     -33.084  15.867  -4.183  1.00 20.00     0.040 C 
BRANCH   7   8
HETATM    8  C8  UNL     1     -33.493  16.733  -5.385  1.00 20.00    -0.002 C 
HETATM    9  C4  UNL     1     -33.562  18.211  -5.038  1.00 20.00     0.005 C 
ENDBRANCH   7   8
ENDBRANCH   2   7
TORSDOF 4
ENDMDL
MODEL 5
REMARK VINA RESULT:      -3.6     11.865     13.150
REMARK  4 active torsions:
REMARK  status: ('A' for Active; 'I' for Inactive)
REMARK    1  A    between atoms: C2_2  and  C5_5 
REMARK    2  A    between atoms: C2_2  and  C6_6 
REMARK    3  A    between atoms: C5_5  and  C7_7 
REMARK    4  A    between atoms: C6_6  and  C8_8 
ROOT
HETATM    1  C1  UNL     1     -35.294   5.860   3.126  1.00 20.00     0.207 A 
HETATM    2  C2  UNL     1     -33.999   5.900   3.902  1.00 20.00     0.082 A 
HETATM    3  O9  UNL     1     -34.710   4.673   3.686  1.00 20.00    -0.375 OA
ENDROOT
BRANCH   2   4
HETATM    4  C5  UNL     1     -32.678   5.983   3.153  1.00 20.00     0.040 C 
BRANCH   4   5
HETATM    5  C7  UNL     1     -32.007   7.341   3.351  1.00 20.00    -0.002 C 
HETATM    6  C3  UNL     1     -32.042   8.171   2.077  1.00 20.00     0.005 C 
ENDBRANCH   4   5
ENDBRANCH   2   4
BRANCH   2   7
HETATM    7  C6  UNL     1     -34.006   6.357   5.324  1.00 20.00     0.040 C 
BRANCH   7   8
HETATM    8  C8  UNL     1     -33.892   5.188   6.316  1.00 20.00    -0.002 C 
HETATM    9  C4  UNL     1     -35.237   4.547   6.614  1.00 20.00     0.005 C 
ENDBRANCH   7   8
ENDBRANCH   2   7
TORSDOF 4
ENDMDL
MODEL 6
REMARK VINA RESULT:      -3.6     11.515     12.723
REMARK  4 active torsions:
REMARK  status: ('A' for Active; 'I' for Inactive)
REMARK    1  A    between atoms: C2_2  and  C5_5 
REMARK    2  A    between atoms: C2_2  and  C6_6 
REMARK    3  A    between atoms: C5_5  and  C7_7 
REMARK    4  A    between atoms: C6_6  and  C8_8 
ROOT
HETATM    1  C1  UNL     1     -35.052   5.497   3.212  1.00 20.00     0.207 A 
HETATM    2  C2  UNL     1     -33.786   5.723   4.005  1.00 20.00     0.082 A 
HETATM    3  O9  UNL     1     -34.744   6.772   3.798  1.00 20.00    -0.375 OA
ENDROOT
BRANCH   2   4
HETATM    4  C5  UNL     1     -33.708   5.241   5.445  1.00 20.00     0.040 C 
BRANCH   4   5
HETATM    5  C7  UNL     1     -34.324   6.254   6.408  1.00 20.00    -0.002 C 
HETATM    6  C3  UNL     1     -33.315   7.315   6.820  1.00 20.00     0.005 C 
ENDBRANCH   4   5
ENDBRANCH   2   4
BRANCH   2   7
HETATM    7  C6  UNL     1     -32.495   5.938   3.286  1.00 20.00     0.040 C 
BRANCH   7   8
HETATM    8  C8  UNL     1     -31.981   7.379   3.422  1.00 20.00    -0.002 C 
HETATM    9  C4  UNL     1     -32.036   8.142   2.109  1.00 20.00     0.005 C 
ENDBRANCH   7   8
ENDBRANCH   2   7
TORSDOF 4
ENDMDL
MODEL 7
REMARK VINA RESULT:      -3.5      1.953      2.699
REMARK  4 active torsions:
REMARK  status: ('A' for Active; 'I' for Inactive)
REMARK    1  A    between atoms: C2_2  and  C5_5 
REMARK    2  A    between atoms: C2_2  and  C6_6 
REMARK    3  A    between atoms: C5_5  and  C7_7 
REMARK    4  A    between atoms: C6_6  and  C8_8 
ROOT
HETATM    1  C1  UNL     1     -33.414  13.263  -3.843  1.00 20.00     0.207 A 
HETATM    2  C2  UNL     1     -34.432  14.334  -4.158  1.00 20.00     0.082 A 
HETATM    3  O9  UNL     1     -34.756  12.939  -4.241  1.00 20.00    -0.375 OA
ENDROOT
BRANCH   2   4
HETATM    4  C5  UNL     1     -35.134  15.059  -3.020  1.00 20.00     0.040 C 
BRANCH   4   5
HETATM    5  C7  UNL     1     -34.299  16.230  -2.504  1.00 20.00    -0.002 C 
HETATM    6  C3  UNL     1     -34.605  16.532  -1.045  1.00 20.00     0.005 C 
ENDBRANCH   4   5
ENDBRANCH   2   4
BRANCH   2   7
HETATM    7  C6  UNL     1     -34.392  15.022  -5.483  1.00 20.00     0.040 C 
BRANCH   7   8
HETATM    8  C8  UNL     1     -35.708  14.871  -6.261  1.00 20.00    -0.002 C 
HETATM    9  C4  UNL     1     -35.482  14.473  -7.711  1.00 20.00     0.005 C 
ENDBRANCH   7   8
ENDBRANCH   2   7
TORSDOF 4
ENDMDL
MODEL 8
REMARK VINA RESULT:      -3.4      2.385      4.061
REMARK  4 active torsions:
REMARK  status: ('A' for Active; 'I' for Inactive)
REMARK    1  A    between atoms: C2_2  and  C5_5 
REMARK    2  A    between atoms: C2_2  and  C6_6 
REMARK    3  A    between atoms: C5_5  and  C7_7 
REMARK    4  A    between atoms: C6_6  and  C8_8 
ROOT
HETATM    1  C1  UNL     1     -38.003  15.218  -4.623  1.00 20.00     0.207 A 
HETATM    2  C2  UNL     1     -36.612  15.118  -4.042  1.00 20.00     0.082 A 
HETATM    3  O9  UNL     1     -37.617  14.132  -3.766  1.00 20.00    -0.375 OA
ENDROOT
BRANCH   2   4
HETATM    4  C5  UNL     1     -35.473  14.605  -4.909  1.00 20.00     0.040 C 
BRANCH   4   5
HETATM    5  C7  UNL     1     -34.887  13.308  -4.351  1.00 20.00    -0.002 C 
HETATM    6  C3  UNL     1     -33.472  13.514  -3.834  1.00 20.00     0.005 C 
ENDBRANCH   4   5
ENDBRANCH   2   4
BRANCH   2   7
HETATM    7  C6  UNL     1     -36.247  15.953  -2.859  1.00 20.00     0.040 C 
BRANCH   7   8
HETATM    8  C8  UNL     1     -34.961  16.763  -3.087  1.00 20.00    -0.002 C 
HETATM    9  C4  UNL     1     -33.995  16.659  -1.919  1.00 20.00     0.005 C 
ENDBRANCH   7   8
ENDBRANCH   2   7
TORSDOF 4
ENDMDL
MODEL 9
REMARK VINA RESULT:      -3.4      1.973      4.349
REMARK  4 active torsions:
REMARK  status: ('A' for Active; 'I' for Inactive)
REMARK    1  A    between atoms: C2_2  and  C5_5 
REMARK    2  A    between atoms: C2_2  and  C6_6 
REMARK    3  A    between atoms: C5_5  and  C7_7 
REMARK    4  A    between atoms: C6_6  and  C8_8 
ROOT
HETATM    1  C1  UNL     1     -36.842  14.740  -3.708  1.00 20.00     0.207 A 
HETATM    2  C2  UNL     1     -35.408  15.005  -4.101  1.00 20.00     0.082 A 
HETATM    3  O9  UNL     1     -36.031  13.734  -4.335  1.00 20.00    -0.375 OA
ENDROOT
BRANCH   2   4
HETATM    4  C5  UNL     1     -35.111  15.785  -5.373  1.00 20.00     0.040 C 
BRANCH   4   5
HETATM    5  C7  UNL     1     -34.359  14.928  -6.390  1.00 20.00    -0.002 C 
HETATM    6  C3  UNL     1     -35.203  14.662  -7.627  1.00 20.00     0.005 C 
ENDBRANCH   4   5
ENDBRANCH   2   4
BRANCH   2   7
HETATM    7  C6  UNL     1     -34.340  14.968  -3.058  1.00 20.00     0.040 C 
BRANCH   7   8
HETATM    8  C8  UNL     1     -34.027  16.361  -2.489  1.00 20.00    -0.002 C 
HETATM    9  C4  UNL     1     -34.585  16.554  -1.089  1.00 20.00     0.005 C 
ENDBRANCH   7   8
ENDBRANCH   2   7
TORSDOF 4
ENDMDL
