MODEL 1
REMARK VINA RESULT:      -4.3      0.000      0.000
REMARK  2 active torsions:
REMARK  status: ('A' for Active; 'I' for Inactive)
REMARK    1  A    between atoms: C1_1  and  C3_3 
REMARK    2  A    between atoms: C3_3  and  C4_4 
ROOT
HETATM    1  C2  UNL     1     -34.387  15.626  -2.620  1.00 20.00     0.069 C 
HETATM    2  C3  UNL     1     -34.115  14.778  -3.871  1.00 20.00     0.264 C 
HETATM    3  O5  UNL     1     -33.006  14.084  -3.713  1.00 20.00    -0.210 OA
ENDROOT
BRANCH   2   4
HETATM    4  C1  UNL     1     -35.244  13.761  -4.142  1.00 20.00     0.265 C 
HETATM    5  O6  UNL     1     -35.005  12.595  -4.452  1.00 20.00    -0.276 OA
HETATM    6 CL10 UNL     1     -36.873  14.402  -4.000  1.00 20.00    -0.040 Cl
ENDBRANCH   2   4
BRANCH   2   7
HETATM    7  C4  UNL     1     -33.943  15.713  -5.079  1.00 20.00     0.429 C 
HETATM    8  F7  UNL     1     -32.730  16.315  -5.086  1.00 20.00    -0.167 F 
HETATM    9  F8  UNL     1     -34.876  16.694  -5.114  1.00 20.00    -0.167 F 
HETATM   10  F9  UNL     1     -34.046  15.022  -6.240  1.00 20.00    -0.167 F 
ENDBRANCH   2   7
TORSDOF 2
ENDMDL
MODEL 2
REMARK VINA RESULT:      -4.3      2.256      3.073
REMARK  2 active torsions:
REMARK  status: ('A' for Active; 'I' for Inactive)
REMARK    1  A    between atoms: C1_1  and  C3_3 
REMARK    2  A    between atoms: C3_3  and  C4_4 
ROOT
HETATM    1  C2  UNL     1     -34.971  14.172  -6.155  1.00 20.00     0.069 C 
HETATM    2  C3  UNL     1     -34.933  13.868  -4.650  1.00 20.00     0.264 C 
HETATM    3  O5  UNL     1     -35.218  12.599  -4.439  1.00 20.00    -0.210 OA
ENDROOT
BRANCH   2   4
HETATM    4  C1  UNL     1     -33.537  14.120  -4.041  1.00 20.00     0.265 C 
HETATM    5  O6  UNL     1     -32.902  13.225  -3.484  1.00 20.00    -0.276 OA
HETATM    6 CL10 UNL     1     -32.948  15.768  -4.181  1.00 20.00    -0.040 Cl
ENDBRANCH   2   4
BRANCH   2   7
HETATM    7  C4  UNL     1     -35.985  14.735  -3.939  1.00 20.00     0.429 C 
HETATM    8  F7  UNL     1     -35.613  15.048  -2.675  1.00 20.00    -0.167 F 
HETATM    9  F8  UNL     1     -37.193  14.127  -3.862  1.00 20.00    -0.167 F 
HETATM   10  F9  UNL     1     -36.168  15.904  -4.597  1.00 20.00    -0.167 F 
ENDBRANCH   2   7
TORSDOF 2
ENDMDL
MODEL 3
REMARK VINA RESULT:      -4.3      1.663      2.365
REMARK  2 active torsions:
REMARK  status: ('A' for Active; 'I' for Inactive)
REMARK    1  A    between atoms: C1_1  and  C3_3 
REMARK    2  A    between atoms: C3_3  and  C4_4 
ROOT
HETATM    1  C2  UNL     1     -33.537  14.315  -3.910  1.00 20.00     0.069 C 
HETATM    2  C3  UNL     1     -34.897  13.994  -4.547  1.00 20.00     0.264 C 
HETATM    3  O5  UNL     1     -35.057  12.689  -4.636  1.00 20.00    -0.210 OA
ENDROOT
BRANCH   2   4
HETATM    4  C1  UNL     1     -36.075  14.533  -3.707  1.00 20.00     0.265 C 
HETATM    5  O6  UNL     1     -37.203  14.051  -3.791  1.00 20.00    -0.276 OA
HETATM    6 CL10 UNL     1     -35.685  15.886  -2.658  1.00 20.00    -0.040 Cl
ENDBRANCH   2   4
BRANCH   2   7
HETATM    7  C4  UNL     1     -34.938  14.593  -5.963  1.00 20.00     0.429 C 
HETATM    8  F7  UNL     1     -35.312  13.679  -6.889  1.00 20.00    -0.167 F 
HETATM    9  F8  UNL     1     -33.740  15.090  -6.352  1.00 20.00    -0.167 F 
HETATM   10  F9  UNL     1     -35.833  15.609  -6.028  1.00 20.00    -0.167 F 
ENDBRANCH   2   7
TORSDOF 2
ENDMDL
MODEL 4
REMARK VINA RESULT:      -4.2      1.964      2.441
REMARK  2 active torsions:
REMARK  status: ('A' for Active; 'I' for Inactive)
REMARK    1  A    between atoms: C1_1  and  C3_3 
REMARK    2  A    between atoms: C3_3  and  C4_4 
ROOT
HETATM    1  C2  UNL     1     -35.268  16.332  -4.794  1.00 20.00     0.069 C 
HETATM    2  C3  UNL     1     -34.701  15.033  -4.202  1.00 20.00     0.264 C 
HETATM    3  O5  UNL     1     -35.410  14.668  -3.153  1.00 20.00    -0.210 OA
ENDROOT
BRANCH   2   4
HETATM    4  C1  UNL     1     -34.756  13.863  -5.208  1.00 20.00     0.265 C 
HETATM    5  O6  UNL     1     -34.803  12.691  -4.836  1.00 20.00    -0.276 OA
HETATM    6 CL10 UNL     1     -34.720  14.331  -6.900  1.00 20.00    -0.040 Cl
ENDBRANCH   2   4
BRANCH   2   7
HETATM    7  C4  UNL     1     -33.251  15.280  -3.756  1.00 20.00     0.429 C 
HETATM    8  F7  UNL     1     -32.578  16.066  -4.629  1.00 20.00    -0.167 F 
HETATM    9  F8  UNL     1     -32.545  14.132  -3.624  1.00 20.00    -0.167 F 
HETATM   10  F9  UNL     1     -33.218  15.908  -2.556  1.00 20.00    -0.167 F 
ENDBRANCH   2   7
TORSDOF 2
ENDMDL
MODEL 5
REMARK VINA RESULT:      -4.1     12.105     12.483
REMARK  2 active torsions:
REMARK  status: ('A' for Active; 'I' for Inactive)
REMARK    1  A    between atoms: C1_1  and  C3_3 
REMARK    2  A    between atoms: C3_3  and  C4_4 
ROOT
HETATM    1  C2  UNL     1     -34.496   5.193   3.069  1.00 20.00     0.069 C 
HETATM    2  C3  UNL     1     -33.941   6.322   3.950  1.00 20.00     0.264 C 
HETATM    3  O5  UNL     1     -34.664   7.412   3.795  1.00 20.00    -0.210 OA
ENDROOT
BRANCH   2   4
HETATM    4  C1  UNL     1     -33.987   5.964   5.451  1.00 20.00     0.265 C 
HETATM    5  O6  UNL     1     -33.717   6.790   6.321  1.00 20.00    -0.276 OA
HETATM    6 CL10 UNL     1     -34.422   4.301   5.808  1.00 20.00    -0.040 Cl
ENDBRANCH   2   4
BRANCH   2   7
HETATM    7  C4  UNL     1     -32.495   6.624   3.521  1.00 20.00     0.429 C 
HETATM    8  F7  UNL     1     -31.773   5.493   3.341  1.00 20.00    -0.167 F 
HETATM    9  F8  UNL     1     -31.833   7.382   4.427  1.00 20.00    -0.167 F 
HETATM   10  F9  UNL     1     -32.474   7.297   2.345  1.00 20.00    -0.167 F 
ENDBRANCH   2   7
TORSDOF 2
ENDMDL
MODEL 6
REMARK VINA RESULT:      -4.1      2.682      3.134
REMARK  2 active torsions:
REMARK  status: ('A' for Active; 'I' for Inactive)
REMARK    1  A    between atoms: C1_1  and  C3_3 
REMARK    2  A    between atoms: C3_3  and  C4_4 
ROOT
HETATM    1  C2  UNL     1     -34.408  15.455  -5.938  1.00 20.00     0.069 C 
HETATM    2  C3  UNL     1     -33.811  15.411  -4.524  1.00 20.00     0.264 C 
HETATM    3  O5  UNL     1     -32.595  15.920  -4.531  1.00 20.00    -0.210 OA
ENDROOT
BRANCH   2   4
HETATM    4  C1  UNL     1     -34.637  16.240  -3.518  1.00 20.00     0.265 C 
HETATM    5  O6  UNL     1     -35.772  16.634  -3.782  1.00 20.00    -0.276 OA
HETATM    6 CL10 UNL     1     -33.827  16.594  -2.000  1.00 20.00    -0.040 Cl
ENDBRANCH   2   4
BRANCH   2   7
HETATM    7  C4  UNL     1     -33.729  13.946  -4.063  1.00 20.00     0.429 C 
HETATM    8  F7  UNL     1     -32.497  13.629  -3.600  1.00 20.00    -0.167 F 
HETATM    9  F8  UNL     1     -34.021  13.072  -5.055  1.00 20.00    -0.167 F 
HETATM   10  F9  UNL     1     -34.602  13.712  -3.054  1.00 20.00    -0.167 F 
ENDBRANCH   2   7
TORSDOF 2
ENDMDL
MODEL 7
REMARK VINA RESULT:      -4.1     12.114     12.522
REMARK  2 active torsions:
REMARK  status: ('A' for Active; 'I' for Inactive)
REMARK    1  A    between atoms: C1_1  and  C3_3 
REMARK    2  A    between atoms: C3_3  and  C4_4 
ROOT
HETATM    1  C2  UNL     1     -34.524   5.225   3.079  1.00 20.00     0.069 C 
HETATM    2  C3  UNL     1     -33.941   6.337   3.964  1.00 20.00     0.264 C 
HETATM    3  O5  UNL     1     -34.645   7.442   3.823  1.00 20.00    -0.210 OA
ENDROOT
BRANCH   2   4
HETATM    4  C1  UNL     1     -33.981   5.969   5.462  1.00 20.00     0.265 C 
HETATM    5  O6  UNL     1     -33.709   6.790   6.338  1.00 20.00    -0.276 OA
HETATM    6 CL10 UNL     1     -34.413   4.303   5.810  1.00 20.00    -0.040 Cl
ENDBRANCH   2   4
BRANCH   2   7
HETATM    7  C4  UNL     1     -32.494   6.616   3.525  1.00 20.00     0.429 C 
HETATM    8  F7  UNL     1     -32.441   7.294   2.354  1.00 20.00    -0.167 F 
HETATM    9  F8  UNL     1     -31.772   5.481   3.363  1.00 20.00    -0.167 F 
HETATM   10  F9  UNL     1     -31.850   7.371   4.447  1.00 20.00    -0.167 F 
ENDBRANCH   2   7
TORSDOF 2
ENDMDL
MODEL 8
REMARK VINA RESULT:      -4.1      2.151      2.725
REMARK  2 active torsions:
REMARK  status: ('A' for Active; 'I' for Inactive)
REMARK    1  A    between atoms: C1_1  and  C3_3 
REMARK    2  A    between atoms: C3_3  and  C4_4 
ROOT
HETATM    1  C2  UNL     1     -36.181  14.199  -3.864  1.00 20.00     0.069 C 
HETATM    2  C3  UNL     1     -34.893  14.011  -4.679  1.00 20.00     0.264 C 
HETATM    3  O5  UNL     1     -34.753  12.745  -5.016  1.00 20.00    -0.210 OA
ENDROOT
BRANCH   2   4
HETATM    4  C1  UNL     1     -34.911  14.824  -5.991  1.00 20.00     0.265 C 
HETATM    5  O6  UNL     1     -34.398  14.396  -7.024  1.00 20.00    -0.276 OA
HETATM    6 CL10 UNL     1     -35.685  16.396  -5.884  1.00 20.00    -0.040 Cl
ENDBRANCH   2   4
BRANCH   2   7
HETATM    7  C4  UNL     1     -33.691  14.426  -3.814  1.00 20.00     0.429 C 
HETATM    8  F7  UNL     1     -32.981  15.429  -4.382  1.00 20.00    -0.167 F 
HETATM    9  F8  UNL     1     -32.832  13.403  -3.593  1.00 20.00    -0.167 F 
HETATM   10  F9  UNL     1     -34.103  14.872  -2.603  1.00 20.00    -0.167 F 
ENDBRANCH   2   7
TORSDOF 2
ENDMDL
MODEL 9
REMARK VINA RESULT:      -4.1      2.042      2.430
REMARK  2 active torsions:
REMARK  status: ('A' for Active; 'I' for Inactive)
REMARK    1  A    between atoms: C1_1  and  C3_3 
REMARK    2  A    between atoms: C3_3  and  C4_4 
ROOT
HETATM    1  C2  UNL     1     -32.833  14.236  -3.545  1.00 20.00     0.069 C 
HETATM    2  C3  UNL     1     -34.035  14.796  -4.319  1.00 20.00     0.264 C 
HETATM    3  O5  UNL     1     -33.638  15.740  -5.148  1.00 20.00    -0.210 OA
ENDROOT
BRANCH   2   4
HETATM    4  C1  UNL     1     -34.733  13.715  -5.172  1.00 20.00     0.265 C 
HETATM    5  O6  UNL     1     -34.791  12.542  -4.808  1.00 20.00    -0.276 OA
HETATM    6 CL10 UNL     1     -35.402  14.283  -6.693  1.00 20.00    -0.040 Cl
ENDBRANCH   2   4
BRANCH   2   7
HETATM    7  C4  UNL     1     -35.031  15.407  -3.319  1.00 20.00     0.429 C 
HETATM    8  F7  UNL     1     -34.509  15.495  -2.073  1.00 20.00    -0.167 F 
HETATM    9  F8  UNL     1     -36.176  14.690  -3.223  1.00 20.00    -0.167 F 
HETATM   10  F9  UNL     1     -35.377  16.663  -3.692  1.00 20.00    -0.167 F 
ENDBRANCH   2   7
TORSDOF 2
ENDMDL
