MODEL 1
REMARK VINA RESULT:      -4.4      0.000      0.000
REMARK  1 active torsions:
REMARK  status: ('A' for Active; 'I' for Inactive)
REMARK    1  A    between atoms: C2_2  and  C3_3 
ROOT
HETATM    1  C1  UNL     1     -33.071   6.374   3.685  1.00 20.00     0.112 C 
HETATM    2  C2  UNL     1     -33.809   6.132   4.773  1.00 20.00     0.090 C 
HETATM    3 CL6  UNL     1     -31.740   7.457   3.607  1.00 20.00    -0.095 Cl
HETATM    4 CL7  UNL     1     -33.507   6.905   6.292  1.00 20.00    -0.080 Cl
ENDROOT
BRANCH   2   5
HETATM    5  C3  UNL     1     -34.956   5.169   4.751  1.00 20.00     0.167 C 
HETATM    6  C4  UNL     1     -35.032   4.087   5.801  1.00 20.00     0.097 C 
HETATM    7  O5  UNL     1     -35.831   5.253   3.888  1.00 20.00    -0.292 OA
ENDBRANCH   2   5
TORSDOF 1
ENDMDL
MODEL 2
REMARK VINA RESULT:      -4.3      2.073      2.073
REMARK  1 active torsions:
REMARK  status: ('A' for Active; 'I' for Inactive)
REMARK    1  A    between atoms: C2_2  and  C3_3 
ROOT
HETATM    1  C1  UNL     1     -32.778   6.851   4.085  1.00 20.00     0.112 C 
HETATM    2  C2  UNL     1     -33.805   6.015   4.274  1.00 20.00     0.090 C 
HETATM    3 CL6  UNL     1     -32.140   7.313   2.559  1.00 20.00    -0.095 Cl
HETATM    4 CL7  UNL     1     -34.649   5.268   2.960  1.00 20.00    -0.080 Cl
ENDROOT
BRANCH   2   5
HETATM    5  C3  UNL     1     -34.298   5.666   5.645  1.00 20.00     0.167 C 
HETATM    6  C4  UNL     1     -34.948   4.324   5.876  1.00 20.00     0.097 C 
HETATM    7  O5  UNL     1     -34.177   6.462   6.577  1.00 20.00    -0.292 OA
ENDBRANCH   2   5
TORSDOF 1
ENDMDL
MODEL 3
REMARK VINA RESULT:      -4.0      1.817      2.030
REMARK  1 active torsions:
REMARK  status: ('A' for Active; 'I' for Inactive)
REMARK    1  A    between atoms: C2_2  and  C3_3 
ROOT
HETATM    1  C1  UNL     1     -32.882   6.707   4.018  1.00 20.00     0.112 C 
HETATM    2  C2  UNL     1     -33.849   5.787   3.942  1.00 20.00     0.090 C 
HETATM    3 CL6  UNL     1     -32.101   7.442   2.677  1.00 20.00    -0.095 Cl
HETATM    4 CL7  UNL     1     -34.457   5.201   2.430  1.00 20.00    -0.080 Cl
ENDROOT
BRANCH   2   5
HETATM    5  C3  UNL     1     -34.477   5.196   5.167  1.00 20.00     0.167 C 
HETATM    6  C4  UNL     1     -34.374   5.935   6.479  1.00 20.00     0.097 C 
HETATM    7  O5  UNL     1     -35.070   4.118   5.110  1.00 20.00    -0.292 OA
ENDBRANCH   2   5
TORSDOF 1
ENDMDL
MODEL 4
REMARK VINA RESULT:      -3.7     12.022     12.440
REMARK  1 active torsions:
REMARK  status: ('A' for Active; 'I' for Inactive)
REMARK    1  A    between atoms: C2_2  and  C3_3 
ROOT
HETATM    1  C1  UNL     1     -34.936  15.303  -2.902  1.00 20.00     0.112 C 
HETATM    2  C2  UNL     1     -34.121  14.613  -3.706  1.00 20.00     0.090 C 
HETATM    3 CL6  UNL     1     -34.436  16.296  -1.593  1.00 20.00    -0.095 Cl
HETATM    4 CL7  UNL     1     -32.399  14.634  -3.523  1.00 20.00    -0.080 Cl
ENDROOT
BRANCH   2   5
HETATM    5  C3  UNL     1     -34.644  13.768  -4.827  1.00 20.00     0.167 C 
HETATM    6  C4  UNL     1     -34.861  14.394  -6.183  1.00 20.00     0.097 C 
HETATM    7  O5  UNL     1     -34.897  12.576  -4.649  1.00 20.00    -0.292 OA
ENDBRANCH   2   5
TORSDOF 1
ENDMDL
MODEL 5
REMARK VINA RESULT:      -3.7      0.997      2.025
REMARK  1 active torsions:
REMARK  status: ('A' for Active; 'I' for Inactive)
REMARK    1  A    between atoms: C2_2  and  C3_3 
ROOT
HETATM    1  C1  UNL     1     -34.056   6.557   6.353  1.00 20.00     0.112 C 
HETATM    2  C2  UNL     1     -33.980   6.146   5.083  1.00 20.00     0.090 C 
HETATM    3 CL6  UNL     1     -32.995   7.681   7.100  1.00 20.00    -0.095 Cl
HETATM    4 CL7  UNL     1     -32.759   6.715   3.994  1.00 20.00    -0.080 Cl
ENDROOT
BRANCH   2   5
HETATM    5  C3  UNL     1     -34.950   5.159   4.511  1.00 20.00     0.167 C 
HETATM    6  C4  UNL     1     -35.132   3.823   5.190  1.00 20.00     0.097 C 
HETATM    7  O5  UNL     1     -35.596   5.428   3.497  1.00 20.00    -0.292 OA
ENDBRANCH   2   5
TORSDOF 1
ENDMDL
MODEL 6
REMARK VINA RESULT:      -3.7      1.642      3.237
REMARK  1 active torsions:
REMARK  status: ('A' for Active; 'I' for Inactive)
REMARK    1  A    between atoms: C2_2  and  C3_3 
ROOT
HETATM    1  C1  UNL     1     -34.757   4.656   5.106  1.00 20.00     0.112 C 
HETATM    2  C2  UNL     1     -33.991   5.732   4.899  1.00 20.00     0.090 C 
HETATM    3 CL6  UNL     1     -35.474   4.219   6.604  1.00 20.00    -0.095 Cl
HETATM    4 CL7  UNL     1     -33.612   6.859   6.157  1.00 20.00    -0.080 Cl
ENDROOT
BRANCH   2   5
HETATM    5  C3  UNL     1     -33.404   6.038   3.555  1.00 20.00     0.167 C 
HETATM    6  C4  UNL     1     -32.190   6.930   3.465  1.00 20.00     0.097 C 
HETATM    7  O5  UNL     1     -33.903   5.569   2.531  1.00 20.00    -0.292 OA
ENDBRANCH   2   5
TORSDOF 1
ENDMDL
MODEL 7
REMARK VINA RESULT:      -3.5      2.743      4.083
REMARK  1 active torsions:
REMARK  status: ('A' for Active; 'I' for Inactive)
REMARK    1  A    between atoms: C2_2  and  C3_3 
ROOT
HETATM    1  C1  UNL     1     -33.627   6.324   5.116  1.00 20.00     0.112 C 
HETATM    2  C2  UNL     1     -33.231   6.371   3.840  1.00 20.00     0.090 C 
HETATM    3 CL6  UNL     1     -34.857   5.301   5.739  1.00 20.00    -0.095 Cl
HETATM    4 CL7  UNL     1     -33.932   5.372   2.612  1.00 20.00    -0.080 Cl
ENDROOT
BRANCH   2   5
HETATM    5  C3  UNL     1     -32.147   7.298   3.382  1.00 20.00     0.167 C 
HETATM    6  C4  UNL     1     -32.244   7.930   2.015  1.00 20.00     0.097 C 
HETATM    7  O5  UNL     1     -31.183   7.544   4.108  1.00 20.00    -0.292 OA
ENDBRANCH   2   5
TORSDOF 1
ENDMDL
MODEL 8
REMARK VINA RESULT:      -3.5      2.239      2.517
REMARK  1 active torsions:
REMARK  status: ('A' for Active; 'I' for Inactive)
REMARK    1  A    between atoms: C2_2  and  C3_3 
ROOT
HETATM    1  C1  UNL     1     -34.665   5.283   3.567  1.00 20.00     0.112 C 
HETATM    2  C2  UNL     1     -33.874   5.945   4.418  1.00 20.00     0.090 C 
HETATM    3 CL6  UNL     1     -34.436   5.183   1.868  1.00 20.00    -0.095 Cl
HETATM    4 CL7  UNL     1     -32.470   6.814   3.897  1.00 20.00    -0.080 Cl
ENDROOT
BRANCH   2   5
HETATM    5  C3  UNL     1     -34.149   5.979   5.890  1.00 20.00     0.167 C 
HETATM    6  C4  UNL     1     -34.954   4.867   6.517  1.00 20.00     0.097 C 
HETATM    7  O5  UNL     1     -33.727   6.904   6.586  1.00 20.00    -0.292 OA
ENDBRANCH   2   5
TORSDOF 1
ENDMDL
MODEL 9
REMARK VINA RESULT:      -3.4     12.623     13.541
REMARK  1 active torsions:
REMARK  status: ('A' for Active; 'I' for Inactive)
REMARK    1  A    between atoms: C2_2  and  C3_3 
ROOT
HETATM    1  C1  UNL     1     -34.047  15.930  -5.572  1.00 20.00     0.112 C 
HETATM    2  C2  UNL     1     -34.509  14.686  -5.731  1.00 20.00     0.090 C 
HETATM    3 CL6  UNL     1     -34.246  17.216  -6.694  1.00 20.00    -0.095 Cl
HETATM    4 CL7  UNL     1     -35.397  14.196  -7.134  1.00 20.00    -0.080 Cl
ENDROOT
BRANCH   2   5
HETATM    5  C3  UNL     1     -34.289  13.623  -4.698  1.00 20.00     0.167 C 
HETATM    6  C4  UNL     1     -33.207  13.812  -3.663  1.00 20.00     0.097 C 
HETATM    7  O5  UNL     1     -34.980  12.604  -4.689  1.00 20.00    -0.292 OA
ENDBRANCH   2   5
TORSDOF 1
ENDMDL
