MODEL 1
REMARK VINA RESULT:      -6.2      0.000      0.000
REMARK  1 active torsions:
REMARK  status: ('A' for Active; 'I' for Inactive)
REMARK    1  A    between atoms: C5_5  and  C6_6 
ROOT
HETATM    1  C1  UNL     1     -33.866   6.242   5.494  1.00 20.00     0.139 C 
HETATM    2  C2  UNL     1     -34.760   5.075   5.828  1.00 20.00     0.079 C 
HETATM    3  C3  UNL     1     -35.486   4.847   4.507  1.00 20.00     0.008 C 
HETATM    4  C4  UNL     1     -34.479   5.264   3.443  1.00 20.00     0.021 C 
HETATM    5  C5  UNL     1     -33.847   6.538   4.008  1.00 20.00     0.163 C 
HETATM    6  O7  UNL     1     -33.233   6.872   6.333  1.00 20.00    -0.297 OA
ENDROOT
BRANCH   5   7
HETATM    7  C6  UNL     1     -32.452   6.793   3.473  1.00 20.00     0.398 C 
HETATM    8  F8  UNL     1     -31.786   5.634   3.321  1.00 20.00    -0.170 F 
HETATM    9  F9  UNL     1     -32.512   7.409   2.277  1.00 20.00    -0.170 F 
HETATM   10  F10 UNL     1     -31.757   7.575   4.319  1.00 20.00    -0.170 F 
ENDBRANCH   5   7
TORSDOF 1
ENDMDL
MODEL 2
REMARK VINA RESULT:      -5.3      1.591      2.351
REMARK  1 active torsions:
REMARK  status: ('A' for Active; 'I' for Inactive)
REMARK    1  A    between atoms: C5_5  and  C6_6 
ROOT
HETATM    1  C1  UNL     1     -34.316   5.337   3.509  1.00 20.00     0.139 C 
HETATM    2  C2  UNL     1     -35.449   5.144   4.485  1.00 20.00     0.079 C 
HETATM    3  C3  UNL     1     -34.756   5.373   5.823  1.00 20.00     0.008 C 
HETATM    4  C4  UNL     1     -33.656   6.380   5.513  1.00 20.00     0.021 C 
HETATM    5  C5  UNL     1     -33.080   5.904   4.178  1.00 20.00     0.163 C 
HETATM    6  O7  UNL     1     -34.394   5.063   2.318  1.00 20.00    -0.297 OA
ENDROOT
BRANCH   5   7
HETATM    7  C6  UNL     1     -32.435   7.020   3.381  1.00 20.00     0.398 C 
HETATM    8  F8  UNL     1     -33.362   7.904   2.971  1.00 20.00    -0.170 F 
HETATM    9  F9  UNL     1     -31.528   7.672   4.132  1.00 20.00    -0.170 F 
HETATM   10  F10 UNL     1     -31.810   6.525   2.296  1.00 20.00    -0.170 F 
ENDBRANCH   5   7
TORSDOF 1
ENDMDL
MODEL 3
REMARK VINA RESULT:      -5.1      2.069      2.781
REMARK  1 active torsions:
REMARK  status: ('A' for Active; 'I' for Inactive)
REMARK    1  A    between atoms: C5_5  and  C6_6 
ROOT
HETATM    1  C1  UNL     1     -34.731   4.564   5.215  1.00 20.00     0.139 C 
HETATM    2  C2  UNL     1     -35.049   5.162   6.562  1.00 20.00     0.079 C 
HETATM    3  C3  UNL     1     -34.036   6.298   6.650  1.00 20.00     0.008 C 
HETATM    4  C4  UNL     1     -33.837   6.742   5.207  1.00 20.00     0.021 C 
HETATM    5  C5  UNL     1     -33.777   5.431   4.419  1.00 20.00     0.163 C 
HETATM    6  O7  UNL     1     -35.195   3.502   4.819  1.00 20.00    -0.297 OA
ENDROOT
BRANCH   5   7
HETATM    7  C6  UNL     1     -34.191   5.593   2.970  1.00 20.00     0.398 C 
HETATM    8  F8  UNL     1     -33.598   6.673   2.429  1.00 20.00    -0.170 F 
HETATM    9  F9  UNL     1     -33.835   4.510   2.255  1.00 20.00    -0.170 F 
HETATM   10  F10 UNL     1     -35.524   5.747   2.875  1.00 20.00    -0.170 F 
ENDBRANCH   5   7
TORSDOF 1
ENDMDL
MODEL 4
REMARK VINA RESULT:      -5.1      2.570      3.429
REMARK  1 active torsions:
REMARK  status: ('A' for Active; 'I' for Inactive)
REMARK    1  A    between atoms: C5_5  and  C6_6 
ROOT
HETATM    1  C1  UNL     1     -34.738   5.371   3.986  1.00 20.00     0.139 C 
HETATM    2  C2  UNL     1     -33.992   5.196   2.688  1.00 20.00     0.079 C 
HETATM    3  C3  UNL     1     -33.037   6.385   2.711  1.00 20.00     0.008 C 
HETATM    4  C4  UNL     1     -32.748   6.610   4.189  1.00 20.00     0.021 C 
HETATM    5  C5  UNL     1     -34.108   6.431   4.866  1.00 20.00     0.163 C 
HETATM    6  O7  UNL     1     -35.737   4.727   4.285  1.00 20.00    -0.297 OA
ENDROOT
BRANCH   5   7
HETATM    7  C6  UNL     1     -33.994   6.005   6.317  1.00 20.00     0.398 C 
HETATM    8  F8  UNL     1     -35.201   6.028   6.911  1.00 20.00    -0.170 F 
HETATM    9  F9  UNL     1     -33.500   4.756   6.404  1.00 20.00    -0.170 F 
HETATM   10  F10 UNL     1     -33.174   6.834   6.989  1.00 20.00    -0.170 F 
ENDBRANCH   5   7
TORSDOF 1
ENDMDL
MODEL 5
REMARK VINA RESULT:      -5.0      2.607      3.415
REMARK  1 active torsions:
REMARK  status: ('A' for Active; 'I' for Inactive)
REMARK    1  A    between atoms: C5_5  and  C6_6 
ROOT
HETATM    1  C1  UNL     1     -33.409   6.489   5.116  1.00 20.00     0.139 C 
HETATM    2  C2  UNL     1     -32.714   7.399   4.135  1.00 20.00     0.079 C 
HETATM    3  C3  UNL     1     -32.454   6.459   2.963  1.00 20.00     0.008 C 
HETATM    4  C4  UNL     1     -33.614   5.473   3.003  1.00 20.00     0.021 C 
HETATM    5  C5  UNL     1     -33.788   5.162   4.491  1.00 20.00     0.163 C 
HETATM    6  O7  UNL     1     -33.636   6.796   6.280  1.00 20.00    -0.297 OA
ENDROOT
BRANCH   5   7
HETATM    7  C6  UNL     1     -35.195   4.722   4.843  1.00 20.00     0.398 C 
HETATM    8  F8  UNL     1     -36.094   5.351   4.065  1.00 20.00    -0.170 F 
HETATM    9  F9  UNL     1     -35.332   3.395   4.663  1.00 20.00    -0.170 F 
HETATM   10  F10 UNL     1     -35.471   5.007   6.128  1.00 20.00    -0.170 F 
ENDBRANCH   5   7
TORSDOF 1
ENDMDL
MODEL 6
REMARK VINA RESULT:      -5.0      2.762      3.769
REMARK  1 active torsions:
REMARK  status: ('A' for Active; 'I' for Inactive)
REMARK    1  A    between atoms: C5_5  and  C6_6 
ROOT
HETATM    1  C1  UNL     1     -33.677   5.750   3.204  1.00 20.00     0.139 C 
HETATM    2  C2  UNL     1     -32.311   6.248   2.806  1.00 20.00     0.079 C 
HETATM    3  C3  UNL     1     -32.065   7.348   3.832  1.00 20.00     0.008 C 
HETATM    4  C4  UNL     1     -32.806   6.878   5.077  1.00 20.00     0.021 C 
HETATM    5  C5  UNL     1     -34.122   6.316   4.537  1.00 20.00     0.163 C 
HETATM    6  O7  UNL     1     -34.342   4.977   2.524  1.00 20.00    -0.297 OA
ENDROOT
BRANCH   5   7
HETATM    7  C6  UNL     1     -34.738   5.273   5.448  1.00 20.00     0.398 C 
HETATM    8  F8  UNL     1     -35.904   4.833   4.942  1.00 20.00    -0.170 F 
HETATM    9  F9  UNL     1     -33.910   4.220   5.586  1.00 20.00    -0.170 F 
HETATM   10  F10 UNL     1     -34.973   5.791   6.668  1.00 20.00    -0.170 F 
ENDBRANCH   5   7
TORSDOF 1
ENDMDL
MODEL 7
REMARK VINA RESULT:      -4.6     11.740     12.692
REMARK  1 active torsions:
REMARK  status: ('A' for Active; 'I' for Inactive)
REMARK    1  A    between atoms: C5_5  and  C6_6 
ROOT
HETATM    1  C1  UNL     1     -33.583  15.902  -4.599  1.00 20.00     0.139 C 
HETATM    2  C2  UNL     1     -34.158  14.976  -5.641  1.00 20.00     0.079 C 
HETATM    3  C3  UNL     1     -34.480  13.735  -4.816  1.00 20.00     0.008 C 
HETATM    4  C4  UNL     1     -34.825  14.276  -3.434  1.00 20.00     0.021 C 
HETATM    5  C5  UNL     1     -33.784  15.372  -3.194  1.00 20.00     0.163 C 
HETATM    6  O7  UNL     1     -33.021  16.957  -4.867  1.00 20.00    -0.297 OA
ENDROOT
BRANCH   5   7
HETATM    7  C6  UNL     1     -34.258  16.434  -2.222  1.00 20.00     0.398 C 
HETATM    8  F8  UNL     1     -35.204  17.204  -2.789  1.00 20.00    -0.170 F 
HETATM    9  F9  UNL     1     -34.778  15.865  -1.119  1.00 20.00    -0.170 F 
HETATM   10  F10 UNL     1     -33.234  17.224  -1.850  1.00 20.00    -0.170 F 
ENDBRANCH   5   7
TORSDOF 1
ENDMDL
MODEL 8
REMARK VINA RESULT:      -4.6     11.631     12.382
REMARK  1 active torsions:
REMARK  status: ('A' for Active; 'I' for Inactive)
REMARK    1  A    between atoms: C5_5  and  C6_6 
ROOT
HETATM    1  C1  UNL     1     -33.604  16.259  -3.925  1.00 20.00     0.139 C 
HETATM    2  C2  UNL     1     -33.584  17.083  -2.662  1.00 20.00     0.079 C 
HETATM    3  C3  UNL     1     -34.895  16.674  -1.999  1.00 20.00     0.008 C 
HETATM    4  C4  UNL     1     -35.105  15.230  -2.433  1.00 20.00     0.021 C 
HETATM    5  C5  UNL     1     -34.709  15.224  -3.911  1.00 20.00     0.163 C 
HETATM    6  O7  UNL     1     -32.814  16.416  -4.848  1.00 20.00    -0.297 OA
ENDROOT
BRANCH   5   7
HETATM    7  C6  UNL     1     -34.252  13.862  -4.395  1.00 20.00     0.398 C 
HETATM    8  F8  UNL     1     -33.039  13.567  -3.894  1.00 20.00    -0.170 F 
HETATM    9  F9  UNL     1     -35.117  12.908  -4.003  1.00 20.00    -0.170 F 
HETATM   10  F10 UNL     1     -34.174  13.840  -5.738  1.00 20.00    -0.170 F 
ENDBRANCH   5   7
TORSDOF 1
ENDMDL
MODEL 9
REMARK VINA RESULT:      -4.6     11.920     13.038
REMARK  1 active torsions:
REMARK  status: ('A' for Active; 'I' for Inactive)
REMARK    1  A    between atoms: C5_5  and  C6_6 
ROOT
HETATM    1  C1  UNL     1     -33.777  15.961  -5.343  1.00 20.00     0.139 C 
HETATM    2  C2  UNL     1     -34.675  16.910  -6.094  1.00 20.00     0.079 C 
HETATM    3  C3  UNL     1     -35.619  15.951  -6.811  1.00 20.00     0.008 C 
HETATM    4  C4  UNL     1     -35.727  14.754  -5.874  1.00 20.00     0.021 C 
HETATM    5  C5  UNL     1     -34.295  14.537  -5.381  1.00 20.00     0.163 C 
HETATM    6  O7  UNL     1     -32.750  16.308  -4.771  1.00 20.00    -0.297 OA
ENDROOT
BRANCH   5   7
HETATM    7  C6  UNL     1     -34.232  13.848  -4.033  1.00 20.00     0.398 C 
HETATM    8  F8  UNL     1     -35.104  12.824  -3.986  1.00 20.00    -0.170 F 
HETATM    9  F9  UNL     1     -32.997  13.364  -3.808  1.00 20.00    -0.170 F 
HETATM   10  F10 UNL     1     -34.537  14.711  -3.046  1.00 20.00    -0.170 F 
ENDBRANCH   5   7
TORSDOF 1
ENDMDL
