MODEL 1
REMARK VINA RESULT:      -4.6      0.000      0.000
REMARK  2 active torsions:
REMARK  status: ('A' for Active; 'I' for Inactive)
REMARK    1  A    between atoms: C1_1  and  C3_3 
REMARK    2  A    between atoms: C3_3  and  C4_4 
ROOT
HETATM    1  C2  UNL     1     -34.674  14.198  -6.126  1.00 20.00     0.069 C 
HETATM    2  C3  UNL     1     -34.976  13.948  -4.640  1.00 20.00     0.264 C 
HETATM    3  O5  UNL     1     -35.147  12.659  -4.427  1.00 20.00    -0.210 OA
ENDROOT
BRANCH   2   4
HETATM    4  C1  UNL     1     -36.270  14.653  -4.182  1.00 20.00     0.265 C 
HETATM    5  O6  UNL     1     -37.229  14.023  -3.740  1.00 20.00    -0.276 OA
HETATM    6 CL10 UNL     1     -36.271  16.400  -4.367  1.00 20.00    -0.040 Cl
ENDBRANCH   2   4
BRANCH   2   7
HETATM    7  C4  UNL     1     -33.782  14.434  -3.801  1.00 20.00     0.429 C 
HETATM    8  F7  UNL     1     -34.166  14.852  -2.571  1.00 20.00    -0.167 F 
HETATM    9  F8  UNL     1     -33.119  15.459  -4.385  1.00 20.00    -0.167 F 
HETATM   10  F9  UNL     1     -32.887  13.434  -3.614  1.00 20.00    -0.167 F 
ENDBRANCH   2   7
TORSDOF 2
ENDMDL
MODEL 2
REMARK VINA RESULT:      -4.6      0.028      1.193
REMARK  2 active torsions:
REMARK  status: ('A' for Active; 'I' for Inactive)
REMARK    1  A    between atoms: C1_1  and  C3_3 
REMARK    2  A    between atoms: C3_3  and  C4_4 
ROOT
HETATM    1  C2  UNL     1     -34.700  14.187  -6.130  1.00 20.00     0.069 C 
HETATM    2  C3  UNL     1     -34.996  13.937  -4.643  1.00 20.00     0.264 C 
HETATM    3  O5  UNL     1     -35.176  12.649  -4.431  1.00 20.00    -0.210 OA
ENDROOT
BRANCH   2   4
HETATM    4  C1  UNL     1     -36.283  14.652  -4.178  1.00 20.00     0.265 C 
HETATM    5  O6  UNL     1     -37.235  14.031  -3.709  1.00 20.00    -0.276 OA
HETATM    6 CL10 UNL     1     -36.286  16.395  -4.395  1.00 20.00    -0.040 Cl
ENDBRANCH   2   4
BRANCH   2   7
HETATM    7  C4  UNL     1     -33.795  14.413  -3.809  1.00 20.00     0.429 C 
HETATM    8  F7  UNL     1     -33.150  15.449  -4.396  1.00 20.00    -0.167 F 
HETATM    9  F8  UNL     1     -32.882  13.434  -3.608  1.00 20.00    -0.167 F 
HETATM   10  F9  UNL     1     -34.197  14.840  -2.588  1.00 20.00    -0.167 F 
ENDBRANCH   2   7
TORSDOF 2
ENDMDL
MODEL 3
REMARK VINA RESULT:      -4.4      2.094      3.056
REMARK  2 active torsions:
REMARK  status: ('A' for Active; 'I' for Inactive)
REMARK    1  A    between atoms: C1_1  and  C3_3 
REMARK    2  A    between atoms: C3_3  and  C4_4 
ROOT
HETATM    1  C2  UNL     1     -36.334  14.411  -3.787  1.00 20.00     0.069 C 
HETATM    2  C3  UNL     1     -35.084  13.896  -4.518  1.00 20.00     0.264 C 
HETATM    3  O5  UNL     1     -35.170  12.592  -4.689  1.00 20.00    -0.210 OA
ENDROOT
BRANCH   2   4
HETATM    4  C1  UNL     1     -33.792  14.158  -3.716  1.00 20.00     0.265 C 
HETATM    5  O6  UNL     1     -32.910  13.307  -3.612  1.00 20.00    -0.276 OA
HETATM    6 CL10 UNL     1     -33.696  15.737  -2.953  1.00 20.00    -0.040 Cl
ENDBRANCH   2   4
BRANCH   2   7
HETATM    7  C4  UNL     1     -34.999  14.572  -5.896  1.00 20.00     0.429 C 
HETATM    8  F7  UNL     1     -35.291  13.712  -6.900  1.00 20.00    -0.167 F 
HETATM    9  F8  UNL     1     -33.771  15.082  -6.150  1.00 20.00    -0.167 F 
HETATM   10  F9  UNL     1     -35.882  15.596  -5.984  1.00 20.00    -0.167 F 
ENDBRANCH   2   7
TORSDOF 2
ENDMDL
MODEL 4
REMARK VINA RESULT:      -4.2      1.784      2.611
REMARK  2 active torsions:
REMARK  status: ('A' for Active; 'I' for Inactive)
REMARK    1  A    between atoms: C1_1  and  C3_3 
REMARK    2  A    between atoms: C3_3  and  C4_4 
ROOT
HETATM    1  C2  UNL     1     -35.668  15.153  -3.008  1.00 20.00     0.069 C 
HETATM    2  C3  UNL     1     -34.746  15.124  -4.237  1.00 20.00     0.264 C 
HETATM    3  O5  UNL     1     -35.031  16.134  -5.035  1.00 20.00    -0.210 OA
ENDROOT
BRANCH   2   4
HETATM    4  C1  UNL     1     -34.921  13.834  -5.065  1.00 20.00     0.265 C 
HETATM    5  O6  UNL     1     -35.001  12.728  -4.533  1.00 20.00    -0.276 OA
HETATM    6 CL10 UNL     1     -34.969  14.067  -6.805  1.00 20.00    -0.040 Cl
ENDBRANCH   2   4
BRANCH   2   7
HETATM    7  C4  UNL     1     -33.288  15.260  -3.769  1.00 20.00     0.429 C 
HETATM    8  F7  UNL     1     -32.552  16.017  -4.618  1.00 20.00    -0.167 F 
HETATM    9  F8  UNL     1     -32.665  14.064  -3.656  1.00 20.00    -0.167 F 
HETATM   10  F9  UNL     1     -33.226  15.858  -2.555  1.00 20.00    -0.167 F 
ENDBRANCH   2   7
TORSDOF 2
ENDMDL
MODEL 5
REMARK VINA RESULT:      -4.1      2.261      2.594
REMARK  2 active torsions:
REMARK  status: ('A' for Active; 'I' for Inactive)
REMARK    1  A    between atoms: C1_1  and  C3_3 
REMARK    2  A    between atoms: C3_3  and  C4_4 
ROOT
HETATM    1  C2  UNL     1     -34.378  14.973  -6.245  1.00 20.00     0.069 C 
HETATM    2  C3  UNL     1     -34.421  15.076  -4.713  1.00 20.00     0.264 C 
HETATM    3  O5  UNL     1     -35.666  15.233  -4.308  1.00 20.00    -0.210 OA
ENDROOT
BRANCH   2   4
HETATM    4  C1  UNL     1     -33.624  16.289  -4.188  1.00 20.00     0.265 C 
HETATM    5  O6  UNL     1     -32.968  17.007  -4.941  1.00 20.00    -0.276 OA
HETATM    6 CL10 UNL     1     -33.706  16.540  -2.452  1.00 20.00    -0.040 Cl
ENDBRANCH   2   4
BRANCH   2   7
HETATM    7  C4  UNL     1     -33.865  13.775  -4.110  1.00 20.00     0.429 C 
HETATM    8  F7  UNL     1     -34.527  13.416  -2.985  1.00 20.00    -0.167 F 
HETATM    9  F8  UNL     1     -32.553  13.870  -3.791  1.00 20.00    -0.167 F 
HETATM   10  F9  UNL     1     -33.990  12.749  -4.986  1.00 20.00    -0.167 F 
ENDBRANCH   2   7
TORSDOF 2
ENDMDL
MODEL 6
REMARK VINA RESULT:      -4.1      1.786      2.306
REMARK  2 active torsions:
REMARK  status: ('A' for Active; 'I' for Inactive)
REMARK    1  A    between atoms: C1_1  and  C3_3 
REMARK    2  A    between atoms: C3_3  and  C4_4 
ROOT
HETATM    1  C2  UNL     1     -35.639  15.242  -2.918  1.00 20.00     0.069 C 
HETATM    2  C3  UNL     1     -34.767  15.160  -4.181  1.00 20.00     0.264 C 
HETATM    3  O5  UNL     1     -35.086  16.134  -5.010  1.00 20.00    -0.210 OA
ENDROOT
BRANCH   2   4
HETATM    4  C1  UNL     1     -34.972  13.835  -4.945  1.00 20.00     0.265 C 
HETATM    5  O6  UNL     1     -35.064  12.758  -4.359  1.00 20.00    -0.276 OA
HETATM    6 CL10 UNL     1     -35.037  13.987  -6.693  1.00 20.00    -0.040 Cl
ENDBRANCH   2   4
BRANCH   2   7
HETATM    7  C4  UNL     1     -33.291  15.317  -3.778  1.00 20.00     0.429 C 
HETATM    8  F7  UNL     1     -33.158  15.903  -2.565  1.00 20.00    -0.167 F 
HETATM    9  F8  UNL     1     -32.587  16.061  -4.663  1.00 20.00    -0.167 F 
HETATM   10  F9  UNL     1     -32.684  14.108  -3.700  1.00 20.00    -0.167 F 
ENDBRANCH   2   7
TORSDOF 2
ENDMDL
MODEL 7
REMARK VINA RESULT:      -4.1      2.231      2.716
REMARK  2 active torsions:
REMARK  status: ('A' for Active; 'I' for Inactive)
REMARK    1  A    between atoms: C1_1  and  C3_3 
REMARK    2  A    between atoms: C3_3  and  C4_4 
ROOT
HETATM    1  C2  UNL     1     -33.988  16.112  -2.687  1.00 20.00     0.069 C 
HETATM    2  C3  UNL     1     -33.737  15.524  -4.084  1.00 20.00     0.264 C 
HETATM    3  O5  UNL     1     -32.585  15.959  -4.553  1.00 20.00    -0.210 OA
ENDROOT
BRANCH   2   4
HETATM    4  C1  UNL     1     -34.822  15.948  -5.097  1.00 20.00     0.265 C 
HETATM    5  O6  UNL     1     -35.994  16.107  -4.762  1.00 20.00    -0.276 OA
HETATM    6 CL10 UNL     1     -34.259  16.155  -6.747  1.00 20.00    -0.040 Cl
ENDBRANCH   2   4
BRANCH   2   7
HETATM    7  C4  UNL     1     -33.681  13.992  -3.976  1.00 20.00     0.429 C 
HETATM    8  F7  UNL     1     -32.456  13.555  -3.600  1.00 20.00    -0.167 F 
HETATM    9  F8  UNL     1     -33.985  13.377  -5.144  1.00 20.00    -0.167 F 
HETATM   10  F9  UNL     1     -34.561  13.543  -3.049  1.00 20.00    -0.167 F 
ENDBRANCH   2   7
TORSDOF 2
ENDMDL
MODEL 8
REMARK VINA RESULT:      -4.1     11.936     12.483
REMARK  2 active torsions:
REMARK  status: ('A' for Active; 'I' for Inactive)
REMARK    1  A    between atoms: C1_1  and  C3_3 
REMARK    2  A    between atoms: C3_3  and  C4_4 
ROOT
HETATM    1  C2  UNL     1     -32.542   6.077   3.798  1.00 20.00     0.069 C 
HETATM    2  C3  UNL     1     -33.993   6.277   4.262  1.00 20.00     0.264 C 
HETATM    3  O5  UNL     1     -34.400   7.492   3.953  1.00 20.00    -0.210 OA
ENDROOT
BRANCH   2   4
HETATM    4  C1  UNL     1     -34.141   6.131   5.791  1.00 20.00     0.265 C 
HETATM    5  O6  UNL     1     -34.868   5.275   6.293  1.00 20.00    -0.276 OA
HETATM    6 CL10 UNL     1     -33.221   7.285   6.742  1.00 20.00    -0.040 Cl
ENDBRANCH   2   4
BRANCH   2   7
HETATM    7  C4  UNL     1     -34.891   5.257   3.542  1.00 20.00     0.429 C 
HETATM    8  F7  UNL     1     -36.176   5.680   3.467  1.00 20.00    -0.167 F 
HETATM    9  F8  UNL     1     -34.901   4.050   4.155  1.00 20.00    -0.167 F 
HETATM   10  F9  UNL     1     -34.467   5.056   2.271  1.00 20.00    -0.167 F 
ENDBRANCH   2   7
TORSDOF 2
ENDMDL
MODEL 9
REMARK VINA RESULT:      -4.1      2.058      2.514
REMARK  2 active torsions:
REMARK  status: ('A' for Active; 'I' for Inactive)
REMARK    1  A    between atoms: C1_1  and  C3_3 
REMARK    2  A    between atoms: C3_3  and  C4_4 
ROOT
HETATM    1  C2  UNL     1     -33.385  16.051  -5.112  1.00 20.00     0.069 C 
HETATM    2  C3  UNL     1     -33.965  14.892  -4.286  1.00 20.00     0.264 C 
HETATM    3  O5  UNL     1     -32.999  14.278  -3.633  1.00 20.00    -0.210 OA
ENDROOT
BRANCH   2   4
HETATM    4  C1  UNL     1     -34.650  13.831  -5.173  1.00 20.00     0.265 C 
HETATM    5  O6  UNL     1     -34.675  12.642  -4.859  1.00 20.00    -0.276 OA
HETATM    6 CL10 UNL     1     -35.358  14.447  -6.658  1.00 20.00    -0.040 Cl
ENDBRANCH   2   4
BRANCH   2   7
HETATM    7  C4  UNL     1     -34.967  15.459  -3.268  1.00 20.00     0.429 C 
HETATM    8  F7  UNL     1     -36.062  14.671  -3.143  1.00 20.00    -0.167 F 
HETATM    9  F8  UNL     1     -35.401  16.698  -3.600  1.00 20.00    -0.167 F 
HETATM   10  F9  UNL     1     -34.405  15.550  -2.039  1.00 20.00    -0.167 F 
ENDBRANCH   2   7
TORSDOF 2
ENDMDL
