MODEL 1
REMARK VINA RESULT:      -5.3      0.000      0.000
REMARK  1 active torsions:
REMARK  status: ('A' for Active; 'I' for Inactive)
REMARK    1  A    between atoms: C4_4  and  C6_6 
ROOT
HETATM    1  C1  UNL     1     -35.413  13.714  -4.062  1.00 20.00     0.089 A 
HETATM    2  C2  UNL     1     -35.670  15.954  -3.217  1.00 20.00     0.044 A 
HETATM    3  C3  UNL     1     -36.221  14.745  -3.778  1.00 20.00    -0.053 A 
HETATM    4  C4  UNL     1     -34.355  16.020  -2.992  1.00 20.00     0.080 A 
HETATM    5  C5  UNL     1     -33.959  13.796  -3.809  1.00 20.00     0.288 A 
HETATM    6  C8  UNL     1     -37.700  14.709  -4.014  1.00 20.00     0.048 C 
HETATM    7  O11 UNL     1     -33.225  12.847  -4.072  1.00 20.00    -0.260 OA
HETATM    8  O12 UNL     1     -33.475  14.960  -3.276  1.00 20.00    -0.276 OA
ENDROOT
BRANCH   4   9
HETATM    9  C6  UNL     1     -33.708  17.177  -2.438  1.00 20.00     0.039 C 
HETATM   10  C7  UNL     1     -33.847  17.631  -1.163  1.00 20.00    -0.085 C 
HETATM   11  C9  UNL     1     -33.164  18.844  -0.593  1.00 20.00     0.043 C 
HETATM   12  C10 UNL     1     -34.740  16.915  -0.185  1.00 20.00     0.043 C 
ENDBRANCH   4   9
TORSDOF 1
ENDMDL
MODEL 2
REMARK VINA RESULT:      -5.3      1.937      2.153
REMARK  1 active torsions:
REMARK  status: ('A' for Active; 'I' for Inactive)
REMARK    1  A    between atoms: C4_4  and  C6_6 
ROOT
HETATM    1  C1  UNL     1     -34.770  14.410  -5.817  1.00 20.00     0.089 A 
HETATM    2  C2  UNL     1     -34.025  16.416  -4.715  1.00 20.00     0.044 A 
HETATM    3  C3  UNL     1     -34.428  15.702  -5.902  1.00 20.00    -0.053 A 
HETATM    4  C4  UNL     1     -34.002  15.766  -3.548  1.00 20.00     0.080 A 
HETATM    5  C5  UNL     1     -34.742  13.698  -4.522  1.00 20.00     0.288 A 
HETATM    6  C8  UNL     1     -34.443  16.466  -7.190  1.00 20.00     0.048 C 
HETATM    7  O11 UNL     1     -35.057  12.513  -4.453  1.00 20.00    -0.260 OA
HETATM    8  O12 UNL     1     -34.355  14.410  -3.419  1.00 20.00    -0.276 OA
ENDROOT
BRANCH   4   9
HETATM    9  C6  UNL     1     -33.616  16.384  -2.310  1.00 20.00     0.039 C 
HETATM   10  C7  UNL     1     -34.428  17.114  -1.499  1.00 20.00    -0.085 C 
HETATM   11  C9  UNL     1     -34.014  17.757  -0.204  1.00 20.00     0.043 C 
HETATM   12  C10 UNL     1     -35.873  17.341  -1.860  1.00 20.00     0.043 C 
ENDBRANCH   4   9
TORSDOF 1
ENDMDL
MODEL 3
REMARK VINA RESULT:      -5.0     12.058     14.536
REMARK  1 active torsions:
REMARK  status: ('A' for Active; 'I' for Inactive)
REMARK    1  A    between atoms: C4_4  and  C6_6 
ROOT
HETATM    1  C1  UNL     1     -42.014   6.598  -2.237  1.00 20.00     0.089 A 
HETATM    2  C2  UNL     1     -41.818   4.351  -1.396  1.00 20.00     0.044 A 
HETATM    3  C3  UNL     1     -41.496   5.755  -1.333  1.00 20.00    -0.053 A 
HETATM    4  C4  UNL     1     -42.633   3.918  -2.363  1.00 20.00     0.080 A 
HETATM    5  C5  UNL     1     -42.914   6.111  -3.304  1.00 20.00     0.288 A 
HETATM    6  C8  UNL     1     -40.581   6.202  -0.234  1.00 20.00     0.048 C 
HETATM    7  O11 UNL     1     -43.384   6.890  -4.129  1.00 20.00    -0.260 OA
HETATM    8  O12 UNL     1     -43.196   4.771  -3.329  1.00 20.00    -0.276 OA
ENDROOT
BRANCH   4   9
HETATM    9  C6  UNL     1     -43.015   2.542  -2.513  1.00 20.00     0.039 C 
HETATM   10  C7  UNL     1     -42.340   1.602  -3.228  1.00 20.00    -0.085 C 
HETATM   11  C9  UNL     1     -42.750   0.163  -3.379  1.00 20.00     0.043 C 
HETATM   12  C10 UNL     1     -41.070   1.956  -3.956  1.00 20.00     0.043 C 
ENDBRANCH   4   9
TORSDOF 1
ENDMDL
MODEL 4
REMARK VINA RESULT:      -5.0      0.785      1.188
REMARK  1 active torsions:
REMARK  status: ('A' for Active; 'I' for Inactive)
REMARK    1  A    between atoms: C4_4  and  C6_6 
ROOT
HETATM    1  C1  UNL     1     -35.864  13.910  -4.484  1.00 20.00     0.089 A 
HETATM    2  C2  UNL     1     -36.287  15.696  -2.927  1.00 20.00     0.044 A 
HETATM    3  C3  UNL     1     -36.713  14.822  -3.992  1.00 20.00    -0.053 A 
HETATM    4  C4  UNL     1     -35.045  15.575  -2.450  1.00 20.00     0.080 A 
HETATM    5  C5  UNL     1     -34.491  13.782  -3.951  1.00 20.00     0.288 A 
HETATM    6  C8  UNL     1     -38.113  14.988  -4.498  1.00 20.00     0.048 C 
HETATM    7  O11 UNL     1     -33.719  12.943  -4.407  1.00 20.00    -0.260 OA
HETATM    8  O12 UNL     1     -34.125  14.630  -2.939  1.00 20.00    -0.276 OA
ENDROOT
BRANCH   4   9
HETATM    9  C6  UNL     1     -34.524  16.395  -1.392  1.00 20.00     0.039 C 
HETATM   10  C7  UNL     1     -33.898  17.592  -1.549  1.00 20.00    -0.085 C 
HETATM   11  C9  UNL     1     -33.356  18.444  -0.434  1.00 20.00     0.043 C 
HETATM   12  C10 UNL     1     -33.694  18.179  -2.921  1.00 20.00     0.043 C 
ENDBRANCH   4   9
TORSDOF 1
ENDMDL
MODEL 5
REMARK VINA RESULT:      -5.0      2.115      2.588
REMARK  1 active torsions:
REMARK  status: ('A' for Active; 'I' for Inactive)
REMARK    1  A    between atoms: C4_4  and  C6_6 
ROOT
HETATM    1  C1  UNL     1     -36.172  14.627  -5.377  1.00 20.00     0.089 A 
HETATM    2  C2  UNL     1     -34.161  15.674  -4.570  1.00 20.00     0.044 A 
HETATM    3  C3  UNL     1     -34.953  15.117  -5.638  1.00 20.00    -0.053 A 
HETATM    4  C4  UNL     1     -34.665  15.689  -3.332  1.00 20.00     0.080 A 
HETATM    5  C5  UNL     1     -36.723  14.647  -4.005  1.00 20.00     0.288 A 
HETATM    6  C8  UNL     1     -34.354  15.120  -7.011  1.00 20.00     0.048 C 
HETATM    7  O11 UNL     1     -37.841  14.196  -3.774  1.00 20.00    -0.260 OA
HETATM    8  O12 UNL     1     -35.941  15.185  -3.019  1.00 20.00    -0.276 OA
ENDROOT
BRANCH   4   9
HETATM    9  C6  UNL     1     -33.959  16.221  -2.200  1.00 20.00     0.039 C 
HETATM   10  C7  UNL     1     -34.075  17.485  -1.713  1.00 20.00    -0.085 C 
HETATM   11  C9  UNL     1     -33.331  18.032  -0.526  1.00 20.00     0.043 C 
HETATM   12  C10 UNL     1     -35.005  18.477  -2.361  1.00 20.00     0.043 C 
ENDBRANCH   4   9
TORSDOF 1
ENDMDL
MODEL 6
REMARK VINA RESULT:      -5.0      2.137      2.683
REMARK  1 active torsions:
REMARK  status: ('A' for Active; 'I' for Inactive)
REMARK    1  A    between atoms: C4_4  and  C6_6 
ROOT
HETATM    1  C1  UNL     1     -34.001  15.687  -5.359  1.00 20.00     0.089 A 
HETATM    2  C2  UNL     1     -34.409  14.995  -3.089  1.00 20.00     0.044 A 
HETATM    3  C3  UNL     1     -34.363  14.720  -4.504  1.00 20.00    -0.053 A 
HETATM    4  C4  UNL     1     -34.088  16.219  -2.659  1.00 20.00     0.080 A 
HETATM    5  C5  UNL     1     -33.648  17.038  -4.874  1.00 20.00     0.288 A 
HETATM    6  C8  UNL     1     -34.727  13.337  -4.947  1.00 20.00     0.048 C 
HETATM    7  O11 UNL     1     -33.318  17.919  -5.664  1.00 20.00    -0.260 OA
HETATM    8  O12 UNL     1     -33.704  17.259  -3.524  1.00 20.00    -0.276 OA
ENDROOT
BRANCH   4   9
HETATM    9  C6  UNL     1     -34.102  16.595  -1.272  1.00 20.00     0.039 C 
HETATM   10  C7  UNL     1     -35.052  17.355  -0.665  1.00 20.00    -0.085 C 
HETATM   11  C9  UNL     1     -35.057  17.743   0.789  1.00 20.00     0.043 C 
HETATM   12  C10 UNL     1     -36.225  17.889  -1.445  1.00 20.00     0.043 C 
ENDBRANCH   4   9
TORSDOF 1
ENDMDL
MODEL 7
REMARK VINA RESULT:      -5.0      1.670      4.621
REMARK  1 active torsions:
REMARK  status: ('A' for Active; 'I' for Inactive)
REMARK    1  A    between atoms: C4_4  and  C6_6 
ROOT
HETATM    1  C1  UNL     1     -34.153  14.467  -3.408  1.00 20.00     0.089 A 
HETATM    2  C2  UNL     1     -36.173  15.698  -2.957  1.00 20.00     0.044 A 
HETATM    3  C3  UNL     1     -34.749  15.515  -2.822  1.00 20.00    -0.053 A 
HETATM    4  C4  UNL     1     -36.873  14.810  -3.670  1.00 20.00     0.080 A 
HETATM    5  C5  UNL     1     -34.935  13.490  -4.195  1.00 20.00     0.288 A 
HETATM    6  C8  UNL     1     -33.999  16.532  -2.017  1.00 20.00     0.048 C 
HETATM    7  O11 UNL     1     -34.382  12.532  -4.728  1.00 20.00    -0.260 OA
HETATM    8  O12 UNL     1     -36.284  13.699  -4.300  1.00 20.00    -0.276 OA
ENDROOT
BRANCH   4   9
HETATM    9  C6  UNL     1     -38.293  14.901  -3.866  1.00 20.00     0.039 C 
HETATM   10  C7  UNL     1     -38.913  15.368  -4.982  1.00 20.00    -0.085 C 
HETATM   11  C9  UNL     1     -40.402  15.459  -5.177  1.00 20.00     0.043 C 
HETATM   12  C10 UNL     1     -38.112  15.852  -6.162  1.00 20.00     0.043 C 
ENDBRANCH   4   9
TORSDOF 1
ENDMDL
MODEL 8
REMARK VINA RESULT:      -4.8     11.772     14.260
REMARK  1 active torsions:
REMARK  status: ('A' for Active; 'I' for Inactive)
REMARK    1  A    between atoms: C4_4  and  C6_6 
ROOT
HETATM    1  C1  UNL     1     -41.628   6.649  -1.927  1.00 20.00     0.089 A 
HETATM    2  C2  UNL     1     -43.015   5.057  -3.082  1.00 20.00     0.044 A 
HETATM    3  C3  UNL     1     -42.514   6.397  -2.900  1.00 20.00    -0.053 A 
HETATM    4  C4  UNL     1     -42.583   4.089  -2.268  1.00 20.00     0.080 A 
HETATM    5  C5  UNL     1     -41.154   5.573  -1.031  1.00 20.00     0.288 A 
HETATM    6  C8  UNL     1     -43.022   7.453  -3.833  1.00 20.00     0.048 C 
HETATM    7  O11 UNL     1     -40.342   5.813  -0.141  1.00 20.00    -0.260 OA
HETATM    8  O12 UNL     1     -41.654   4.315  -1.236  1.00 20.00    -0.276 OA
ENDROOT
BRANCH   4   9
HETATM    9  C6  UNL     1     -43.020   2.725  -2.365  1.00 20.00     0.039 C 
HETATM   10  C7  UNL     1     -42.413   1.745  -3.087  1.00 20.00    -0.085 C 
HETATM   11  C9  UNL     1     -42.879   0.318  -3.181  1.00 20.00     0.043 C 
HETATM   12  C10 UNL     1     -41.169   2.036  -3.885  1.00 20.00     0.043 C 
ENDBRANCH   4   9
TORSDOF 1
ENDMDL
MODEL 9
REMARK VINA RESULT:      -4.7      1.925      2.633
REMARK  1 active torsions:
REMARK  status: ('A' for Active; 'I' for Inactive)
REMARK    1  A    between atoms: C4_4  and  C6_6 
ROOT
HETATM    1  C1  UNL     1     -36.451  15.027  -3.889  1.00 20.00     0.089 A 
HETATM    2  C2  UNL     1     -34.198  15.361  -3.111  1.00 20.00     0.044 A 
HETATM    3  C3  UNL     1     -35.197  14.567  -3.783  1.00 20.00    -0.053 A 
HETATM    4  C4  UNL     1     -34.547  16.547  -2.605  1.00 20.00     0.080 A 
HETATM    5  C5  UNL     1     -36.830  16.341  -3.326  1.00 20.00     0.288 A 
HETATM    6  C8  UNL     1     -34.765  13.245  -4.338  1.00 20.00     0.048 C 
HETATM    7  O11 UNL     1     -37.982  16.755  -3.427  1.00 20.00    -0.260 OA
HETATM    8  O12 UNL     1     -35.853  17.064  -2.696  1.00 20.00    -0.276 OA
ENDROOT
BRANCH   4   9
HETATM    9  C6  UNL     1     -33.629  17.413  -1.919  1.00 20.00     0.039 C 
HETATM   10  C7  UNL     1     -33.683  17.744  -0.601  1.00 20.00    -0.085 C 
HETATM   11  C9  UNL     1     -32.716  18.652   0.109  1.00 20.00     0.043 C 
HETATM   12  C10 UNL     1     -34.771  17.197   0.286  1.00 20.00     0.043 C 
ENDBRANCH   4   9
TORSDOF 1
ENDMDL
