MODEL 1
REMARK VINA RESULT:      -4.7      0.000      0.000
REMARK  1 active torsions:
REMARK  status: ('A' for Active; 'I' for Inactive)
REMARK    1  A    between atoms: C2_2  and  C4_4 
REMARK       I    between atoms: C2_2  and  N7_7 
ROOT
HETATM    1  C1  UNL     1     -32.819   6.697   3.292  1.00 20.00     0.166 C 
HETATM    2  C2  UNL     1     -34.620   5.544   3.759  1.00 20.00     0.249 C 
HETATM    3  N7  UNL     1     -33.330   5.945   4.035  1.00 20.00    -0.199 NA
HETATM    4  O8  UNL     1     -35.321   5.881   2.810  1.00 20.00    -0.271 OA
HETATM    5  S9  UNL     1     -32.092   7.717   2.307  1.00 20.00    -0.055 SA
ENDROOT
BRANCH   2   6
HETATM    6  C4  UNL     1     -35.169   4.606   4.745  1.00 20.00     0.084 A 
HETATM    7  C3  UNL     1     -34.227   3.811   5.614  1.00 20.00     0.019 A 
HETATM    8  C5  UNL     1     -35.074   4.892   6.225  1.00 20.00    -0.005 A 
HETATM    9  C6  UNL     1     -34.435   6.130   6.754  1.00 20.00     0.011 C 
ENDBRANCH   2   6
TORSDOF 1
ENDMDL
MODEL 2
REMARK VINA RESULT:      -4.6     12.122     12.773
REMARK  1 active torsions:
REMARK  status: ('A' for Active; 'I' for Inactive)
REMARK    1  A    between atoms: C2_2  and  C4_4 
REMARK       I    between atoms: C2_2  and  N7_7 
ROOT
HETATM    1  C1  UNL     1     -34.165  16.403  -1.997  1.00 20.00     0.166 C 
HETATM    2  C2  UNL     1     -33.648  14.788  -3.381  1.00 20.00     0.249 C 
HETATM    3  N7  UNL     1     -34.552  15.468  -2.593  1.00 20.00    -0.199 NA
HETATM    4  O8  UNL     1     -32.458  15.041  -3.543  1.00 20.00    -0.271 OA
HETATM    5  S9  UNL     1     -33.677  17.677  -1.173  1.00 20.00    -0.055 SA
ENDROOT
BRANCH   2   6
HETATM    6  C4  UNL     1     -34.228  13.638  -4.083  1.00 20.00     0.084 A 
HETATM    7  C3  UNL     1     -35.704  13.626  -4.392  1.00 20.00     0.019 A 
HETATM    8  C5  UNL     1     -34.708  13.761  -5.510  1.00 20.00    -0.005 A 
HETATM    9  C6  UNL     1     -34.610  15.038  -6.272  1.00 20.00     0.011 C 
ENDBRANCH   2   6
TORSDOF 1
ENDMDL
MODEL 3
REMARK VINA RESULT:      -4.5      9.649     10.219
REMARK  1 active torsions:
REMARK  status: ('A' for Active; 'I' for Inactive)
REMARK    1  A    between atoms: C2_2  and  C4_4 
REMARK       I    between atoms: C2_2  and  N7_7 
ROOT
HETATM    1  C1  UNL     1     -42.371   7.591  -3.304  1.00 20.00     0.166 C 
HETATM    2  C2  UNL     1     -41.973   5.710  -2.257  1.00 20.00     0.249 C 
HETATM    3  N7  UNL     1     -41.765   7.059  -2.450  1.00 20.00    -0.199 NA
HETATM    4  O8  UNL     1     -42.730   4.973  -2.881  1.00 20.00    -0.271 OA
HETATM    5  S9  UNL     1     -43.175   8.346  -4.454  1.00 20.00    -0.055 SA
ENDROOT
BRANCH   2   6
HETATM    6  C4  UNL     1     -41.171   5.140  -1.168  1.00 20.00     0.084 A 
HETATM    7  C3  UNL     1     -40.619   6.052  -0.101  1.00 20.00     0.019 A 
HETATM    8  C5  UNL     1     -41.710   5.076   0.241  1.00 20.00    -0.005 A 
HETATM    9  C6  UNL     1     -43.070   5.571   0.593  1.00 20.00     0.011 C 
ENDBRANCH   2   6
TORSDOF 1
ENDMDL
MODEL 4
REMARK VINA RESULT:      -4.4     12.464     12.993
REMARK  1 active torsions:
REMARK  status: ('A' for Active; 'I' for Inactive)
REMARK    1  A    between atoms: C2_2  and  C4_4 
REMARK       I    between atoms: C2_2  and  N7_7 
ROOT
HETATM    1  C1  UNL     1     -38.729  14.999  -3.714  1.00 20.00     0.166 C 
HETATM    2  C2  UNL     1     -36.719  14.585  -4.476  1.00 20.00     0.249 C 
HETATM    3  N7  UNL     1     -37.764  14.338  -3.611  1.00 20.00    -0.199 NA
HETATM    4  O8  UNL     1     -36.667  15.430  -5.364  1.00 20.00    -0.271 OA
HETATM    5  S9  UNL     1     -40.055  15.876  -3.822  1.00 20.00    -0.055 SA
ENDROOT
BRANCH   2   6
HETATM    6  C4  UNL     1     -35.562  13.707  -4.268  1.00 20.00     0.084 A 
HETATM    7  C3  UNL     1     -34.242  14.058  -4.908  1.00 20.00     0.019 A 
HETATM    8  C5  UNL     1     -34.396  14.149  -3.416  1.00 20.00    -0.005 A 
HETATM    9  C6  UNL     1     -34.364  15.479  -2.743  1.00 20.00     0.011 C 
ENDBRANCH   2   6
TORSDOF 1
ENDMDL
MODEL 5
REMARK VINA RESULT:      -4.4     12.410     13.294
REMARK  1 active torsions:
REMARK  status: ('A' for Active; 'I' for Inactive)
REMARK    1  A    between atoms: C2_2  and  C4_4 
REMARK       I    between atoms: C2_2  and  N7_7 
ROOT
HETATM    1  C1  UNL     1     -34.776  15.991  -2.099  1.00 20.00     0.166 C 
HETATM    2  C2  UNL     1     -33.923  14.879  -3.780  1.00 20.00     0.249 C 
HETATM    3  N7  UNL     1     -34.998  15.355  -3.061  1.00 20.00    -0.199 NA
HETATM    4  O8  UNL     1     -32.731  15.037  -3.537  1.00 20.00    -0.271 OA
HETATM    5  S9  UNL     1     -34.513  16.856  -0.787  1.00 20.00    -0.055 SA
ENDROOT
BRANCH   2   6
HETATM    6  C4  UNL     1     -34.305  14.099  -4.963  1.00 20.00     0.084 A 
HETATM    7  C3  UNL     1     -35.666  14.306  -5.578  1.00 20.00     0.019 A 
HETATM    8  C5  UNL     1     -34.437  14.755  -6.316  1.00 20.00    -0.005 A 
HETATM    9  C6  UNL     1     -34.180  16.209  -6.521  1.00 20.00     0.011 C 
ENDBRANCH   2   6
TORSDOF 1
ENDMDL
MODEL 6
REMARK VINA RESULT:      -4.4     12.445     13.173
REMARK  1 active torsions:
REMARK  status: ('A' for Active; 'I' for Inactive)
REMARK    1  A    between atoms: C2_2  and  C4_4 
REMARK       I    between atoms: C2_2  and  N7_7 
ROOT
HETATM    1  C1  UNL     1     -38.449  14.824  -3.788  1.00 20.00     0.166 C 
HETATM    2  C2  UNL     1     -36.296  15.083  -3.496  1.00 20.00     0.249 C 
HETATM    3  N7  UNL     1     -37.390  14.321  -3.846  1.00 20.00    -0.199 NA
HETATM    4  O8  UNL     1     -36.287  16.251  -3.121  1.00 20.00    -0.271 OA
HETATM    5  S9  UNL     1     -39.904  15.471  -3.721  1.00 20.00    -0.055 SA
ENDROOT
BRANCH   2   6
HETATM    6  C4  UNL     1     -35.020  14.366  -3.602  1.00 20.00     0.084 A 
HETATM    7  C3  UNL     1     -34.915  13.174  -4.521  1.00 20.00     0.019 A 
HETATM    8  C5  UNL     1     -34.188  14.445  -4.860  1.00 20.00    -0.005 A 
HETATM    9  C6  UNL     1     -34.607  15.253  -6.040  1.00 20.00     0.011 C 
ENDBRANCH   2   6
TORSDOF 1
ENDMDL
MODEL 7
REMARK VINA RESULT:      -4.3      9.678     10.342
REMARK  1 active torsions:
REMARK  status: ('A' for Active; 'I' for Inactive)
REMARK    1  A    between atoms: C2_2  and  C4_4 
REMARK       I    between atoms: C2_2  and  N7_7 
ROOT
HETATM    1  C1  UNL     1     -42.134   2.880  -3.051  1.00 20.00     0.166 C 
HETATM    2  C2  UNL     1     -41.723   4.831  -2.148  1.00 20.00     0.249 C 
HETATM    3  N7  UNL     1     -41.480   3.481  -2.283  1.00 20.00    -0.199 NA
HETATM    4  O8  UNL     1     -42.558   5.504  -2.744  1.00 20.00    -0.271 OA
HETATM    5  S9  UNL     1     -43.003   2.032  -4.082  1.00 20.00    -0.055 SA
ENDROOT
BRANCH   2   6
HETATM    6  C4  UNL     1     -40.854   5.491  -1.167  1.00 20.00     0.084 A 
HETATM    7  C3  UNL     1     -41.168   6.899  -0.728  1.00 20.00     0.019 A 
HETATM    8  C5  UNL     1     -41.336   5.761   0.239  1.00 20.00    -0.005 A 
HETATM    9  C6  UNL     1     -42.697   5.369   0.700  1.00 20.00     0.011 C 
ENDBRANCH   2   6
TORSDOF 1
ENDMDL
MODEL 8
REMARK VINA RESULT:      -4.3     12.365     13.014
REMARK  1 active torsions:
REMARK  status: ('A' for Active; 'I' for Inactive)
REMARK    1  A    between atoms: C2_2  and  C4_4 
REMARK       I    between atoms: C2_2  and  N7_7 
ROOT
HETATM    1  C1  UNL     1     -37.630  15.084  -3.774  1.00 20.00     0.166 C 
HETATM    2  C2  UNL     1     -35.523  14.496  -3.699  1.00 20.00     0.249 C 
HETATM    3  N7  UNL     1     -36.560  15.341  -3.365  1.00 20.00    -0.199 NA
HETATM    4  O8  UNL     1     -35.577  13.482  -4.388  1.00 20.00    -0.271 OA
HETATM    5  S9  UNL     1     -39.096  14.768  -4.312  1.00 20.00    -0.055 SA
ENDROOT
BRANCH   2   6
HETATM    6  C4  UNL     1     -34.229  14.902  -3.140  1.00 20.00     0.084 A 
HETATM    7  C3  UNL     1     -32.963  14.280  -3.675  1.00 20.00     0.019 A 
HETATM    8  C5  UNL     1     -33.258  15.728  -3.949  1.00 20.00    -0.005 A 
HETATM    9  C6  UNL     1     -33.563  16.177  -5.337  1.00 20.00     0.011 C 
ENDBRANCH   2   6
TORSDOF 1
ENDMDL
MODEL 9
REMARK VINA RESULT:      -4.3     12.191     12.715
REMARK  1 active torsions:
REMARK  status: ('A' for Active; 'I' for Inactive)
REMARK    1  A    between atoms: C2_2  and  C4_4 
REMARK       I    between atoms: C2_2  and  N7_7 
ROOT
HETATM    1  C1  UNL     1     -34.283  16.952  -1.093  1.00 20.00     0.166 C 
HETATM    2  C2  UNL     1     -35.005  16.066  -2.960  1.00 20.00     0.249 C 
HETATM    3  N7  UNL     1     -34.823  16.037  -1.593  1.00 20.00    -0.199 NA
HETATM    4  O8  UNL     1     -34.664  16.948  -3.741  1.00 20.00    -0.271 OA
HETATM    5  S9  UNL     1     -33.553  18.174  -0.378  1.00 20.00    -0.055 SA
ENDROOT
BRANCH   2   6
HETATM    6  C4  UNL     1     -35.689  14.880  -3.488  1.00 20.00     0.084 A 
HETATM    7  C3  UNL     1     -35.572  14.550  -4.955  1.00 20.00     0.019 A 
HETATM    8  C5  UNL     1     -34.908  13.668  -3.935  1.00 20.00    -0.005 A 
HETATM    9  C6  UNL     1     -33.421  13.609  -3.856  1.00 20.00     0.011 C 
ENDBRANCH   2   6
TORSDOF 1
ENDMDL
