MODEL 1
REMARK VINA RESULT:      -4.9      0.000      0.000
REMARK  1 active torsions:
REMARK  status: ('A' for Active; 'I' for Inactive)
REMARK    1  A    between atoms: C4_4  and  C10_10 
ROOT
HETATM    1  C1  UNL     1     -33.500  15.348  -3.362  1.00 20.00     0.008 C 
HETATM    2  C2  UNL     1     -33.333  13.899  -3.822  1.00 20.00     0.035 C 
HETATM    3  C3  UNL     1     -36.025  15.242  -3.399  1.00 20.00     0.039 C 
HETATM    4  C4  UNL     1     -34.784  15.523  -2.538  1.00 20.00    -0.005 C 
HETATM    5  C5  UNL     1     -34.573  13.319  -4.417  1.00 20.00     0.151 A 
HETATM    6  C6  UNL     1     -35.910  13.965  -4.170  1.00 20.00     0.151 A 
HETATM    7  O11 UNL     1     -35.207  14.113  -5.420  1.00 20.00    -0.375 OA
ENDROOT
BRANCH   4   8
HETATM    8  C10 UNL     1     -34.857  16.927  -1.941  1.00 20.00    -0.048 C 
HETATM    9  C7  UNL     1     -33.735  17.801  -2.528  1.00 20.00     0.015 C 
HETATM   10  C8  UNL     1     -34.692  16.853  -0.413  1.00 20.00     0.015 C 
HETATM   11  C9  UNL     1     -36.219  17.563  -2.272  1.00 20.00     0.015 C 
ENDBRANCH   4   8
TORSDOF 1
ENDMDL
MODEL 2
REMARK VINA RESULT:      -4.6      1.123      1.768
REMARK  1 active torsions:
REMARK  status: ('A' for Active; 'I' for Inactive)
REMARK    1  A    between atoms: C4_4  and  C10_10 
ROOT
HETATM    1  C1  UNL     1     -35.961  15.555  -4.540  1.00 20.00     0.008 C 
HETATM    2  C2  UNL     1     -35.678  14.646  -5.737  1.00 20.00     0.035 C 
HETATM    3  C3  UNL     1     -34.009  14.675  -3.198  1.00 20.00     0.039 C 
HETATM    4  C4  UNL     1     -34.664  15.924  -3.806  1.00 20.00    -0.005 C 
HETATM    5  C5  UNL     1     -34.766  13.509  -5.414  1.00 20.00     0.151 A 
HETATM    6  C6  UNL     1     -33.911  13.547  -4.176  1.00 20.00     0.151 A 
HETATM    7  O11 UNL     1     -35.110  12.750  -4.254  1.00 20.00    -0.375 OA
ENDROOT
BRANCH   4   8
HETATM    8  C10 UNL     1     -34.934  16.965  -2.720  1.00 20.00    -0.048 C 
HETATM    9  C7  UNL     1     -34.066  18.211  -2.966  1.00 20.00     0.015 C 
HETATM   10  C8  UNL     1     -34.594  16.376  -1.340  1.00 20.00     0.015 C 
HETATM   11  C9  UNL     1     -36.418  17.369  -2.746  1.00 20.00     0.015 C 
ENDBRANCH   4   8
TORSDOF 1
ENDMDL
MODEL 3
REMARK VINA RESULT:      -4.5      2.077      4.281
REMARK  1 active torsions:
REMARK  status: ('A' for Active; 'I' for Inactive)
REMARK    1  A    between atoms: C4_4  and  C10_10 
ROOT
HETATM    1  C1  UNL     1     -34.842  16.075  -1.750  1.00 20.00     0.008 C 
HETATM    2  C2  UNL     1     -34.366  17.029  -0.652  1.00 20.00     0.035 C 
HETATM    3  C3  UNL     1     -33.826  17.449  -3.612  1.00 20.00     0.039 C 
HETATM    4  C4  UNL     1     -33.869  16.069  -2.938  1.00 20.00    -0.005 C 
HETATM    5  C5  UNL     1     -33.958  18.368  -1.167  1.00 20.00     0.151 A 
HETATM    6  C6  UNL     1     -33.652  18.562  -2.628  1.00 20.00     0.151 A 
HETATM    7  O11 UNL     1     -34.891  19.006  -2.041  1.00 20.00    -0.375 OA
ENDROOT
BRANCH   4   8
HETATM    8  C10 UNL     1     -34.258  14.993  -3.950  1.00 20.00    -0.048 C 
HETATM    9  C7  UNL     1     -33.388  13.742  -3.741  1.00 20.00     0.015 C 
HETATM   10  C8  UNL     1     -34.047  15.523  -5.379  1.00 20.00     0.015 C 
HETATM   11  C9  UNL     1     -35.739  14.617  -3.765  1.00 20.00     0.015 C 
ENDBRANCH   4   8
TORSDOF 1
ENDMDL
MODEL 4
REMARK VINA RESULT:      -4.3      1.381      1.808
REMARK  1 active torsions:
REMARK  status: ('A' for Active; 'I' for Inactive)
REMARK    1  A    between atoms: C4_4  and  C10_10 
ROOT
HETATM    1  C1  UNL     1     -33.715  17.440  -3.586  1.00 20.00     0.008 C 
HETATM    2  C2  UNL     1     -33.239  16.441  -4.642  1.00 20.00     0.035 C 
HETATM    3  C3  UNL     1     -34.905  15.680  -2.218  1.00 20.00     0.039 C 
HETATM    4  C4  UNL     1     -33.829  16.776  -2.206  1.00 20.00    -0.005 C 
HETATM    5  C5  UNL     1     -33.973  15.142  -4.602  1.00 20.00     0.151 A 
HETATM    6  C6  UNL     1     -34.764  14.752  -3.383  1.00 20.00     0.151 A 
HETATM    7  O11 UNL     1     -35.398  15.238  -4.583  1.00 20.00    -0.375 OA
ENDROOT
BRANCH   4   8
HETATM    8  C10 UNL     1     -34.139  17.815  -1.130  1.00 20.00    -0.048 C 
HETATM    9  C7  UNL     1     -32.832  18.454  -0.631  1.00 20.00     0.015 C 
HETATM   10  C8  UNL     1     -34.856  17.141   0.053  1.00 20.00     0.015 C 
HETATM   11  C9  UNL     1     -35.048  18.912  -1.713  1.00 20.00     0.015 C 
ENDBRANCH   4   8
TORSDOF 1
ENDMDL
MODEL 5
REMARK VINA RESULT:      -4.2     11.621     12.477
REMARK  1 active torsions:
REMARK  status: ('A' for Active; 'I' for Inactive)
REMARK    1  A    between atoms: C4_4  and  C10_10 
ROOT
HETATM    1  C1  UNL     1     -33.176   6.412   5.524  1.00 20.00     0.008 C 
HETATM    2  C2  UNL     1     -34.327   6.141   6.494  1.00 20.00     0.035 C 
HETATM    3  C3  UNL     1     -34.324   5.274   3.582  1.00 20.00     0.039 C 
HETATM    4  C4  UNL     1     -33.689   6.579   4.087  1.00 20.00    -0.005 C 
HETATM    5  C5  UNL     1     -35.271   5.090   6.013  1.00 20.00     0.151 A 
HETATM    6  C6  UNL     1     -35.294   4.692   4.562  1.00 20.00     0.151 A 
HETATM    7  O11 UNL     1     -34.668   3.873   5.570  1.00 20.00    -0.375 OA
ENDROOT
BRANCH   4   8
HETATM    8  C10 UNL     1     -32.560   7.016   3.156  1.00 20.00    -0.048 C 
HETATM    9  C7  UNL     1     -31.379   7.549   3.985  1.00 20.00     0.015 C 
HETATM   10  C8  UNL     1     -33.061   8.127   2.217  1.00 20.00     0.015 C 
HETATM   11  C9  UNL     1     -32.087   5.818   2.314  1.00 20.00     0.015 C 
ENDBRANCH   4   8
TORSDOF 1
ENDMDL
MODEL 6
REMARK VINA RESULT:      -4.2      2.395      3.466
REMARK  1 active torsions:
REMARK  status: ('A' for Active; 'I' for Inactive)
REMARK    1  A    between atoms: C4_4  and  C10_10 
ROOT
HETATM    1  C1  UNL     1     -34.441  15.041  -6.598  1.00 20.00     0.008 C 
HETATM    2  C2  UNL     1     -35.319  14.594  -7.768  1.00 20.00     0.035 C 
HETATM    3  C3  UNL     1     -36.406  15.446  -5.062  1.00 20.00     0.039 C 
HETATM    4  C4  UNL     1     -35.087  14.683  -5.252  1.00 20.00    -0.005 C 
HETATM    5  C5  UNL     1     -36.753  14.975  -7.612  1.00 20.00     0.151 A 
HETATM    6  C6  UNL     1     -37.297  15.357  -6.261  1.00 20.00     0.151 A 
HETATM    7  O11 UNL     1     -36.997  16.341  -7.272  1.00 20.00    -0.375 OA
ENDROOT
BRANCH   4   8
HETATM    8  C10 UNL     1     -34.130  14.978  -4.098  1.00 20.00    -0.048 C 
HETATM    9  C7  UNL     1     -33.338  13.709  -3.741  1.00 20.00     0.015 C 
HETATM   10  C8  UNL     1     -34.929  15.438  -2.866  1.00 20.00     0.015 C 
HETATM   11  C9  UNL     1     -33.148  16.089  -4.507  1.00 20.00     0.015 C 
ENDBRANCH   4   8
TORSDOF 1
ENDMDL
MODEL 7
REMARK VINA RESULT:      -4.2      2.089      4.170
REMARK  1 active torsions:
REMARK  status: ('A' for Active; 'I' for Inactive)
REMARK    1  A    between atoms: C4_4  and  C10_10 
ROOT
HETATM    1  C1  UNL     1     -33.622  17.028  -3.887  1.00 20.00     0.008 C 
HETATM    2  C2  UNL     1     -33.852  18.389  -3.229  1.00 20.00     0.035 C 
HETATM    3  C3  UNL     1     -34.767  15.751  -2.031  1.00 20.00     0.039 C 
HETATM    4  C4  UNL     1     -34.749  16.045  -3.539  1.00 20.00    -0.005 C 
HETATM    5  C5  UNL     1     -34.212  18.295  -1.783  1.00 20.00     0.151 A 
HETATM    6  C6  UNL     1     -34.703  16.996  -1.204  1.00 20.00     0.151 A 
HETATM    7  O11 UNL     1     -33.360  17.470  -0.986  1.00 20.00    -0.375 OA
ENDROOT
BRANCH   4   8
HETATM    8  C10 UNL     1     -34.602  14.749  -4.333  1.00 20.00    -0.048 C 
HETATM    9  C7  UNL     1     -33.422  13.932  -3.780  1.00 20.00     0.015 C 
HETATM   10  C8  UNL     1     -34.342  15.073  -5.814  1.00 20.00     0.015 C 
HETATM   11  C9  UNL     1     -35.891  13.918  -4.216  1.00 20.00     0.015 C 
ENDBRANCH   4   8
TORSDOF 1
ENDMDL
MODEL 8
REMARK VINA RESULT:      -4.1      2.729      4.081
REMARK  1 active torsions:
REMARK  status: ('A' for Active; 'I' for Inactive)
REMARK    1  A    between atoms: C4_4  and  C10_10 
ROOT
HETATM    1  C1  UNL     1     -33.722  15.844  -5.486  1.00 20.00     0.008 C 
HETATM    2  C2  UNL     1     -33.287  15.732  -4.023  1.00 20.00     0.035 C 
HETATM    3  C3  UNL     1     -35.456  14.017  -5.283  1.00 20.00     0.039 C 
HETATM    4  C4  UNL     1     -35.206  15.487  -5.652  1.00 20.00    -0.005 C 
HETATM    5  C5  UNL     1     -33.730  14.466  -3.369  1.00 20.00     0.151 A 
HETATM    6  C6  UNL     1     -34.833  13.641  -3.975  1.00 20.00     0.151 A 
HETATM    7  O11 UNL     1     -33.446  13.265  -4.089  1.00 20.00    -0.375 OA
ENDROOT
BRANCH   4   8
HETATM    8  C10 UNL     1     -35.673  15.764  -7.080  1.00 20.00    -0.048 C 
HETATM    9  C7  UNL     1     -34.789  16.852  -7.714  1.00 20.00     0.015 C 
HETATM   10  C8  UNL     1     -37.134  16.245  -7.065  1.00 20.00     0.015 C 
HETATM   11  C9  UNL     1     -35.572  14.478  -7.918  1.00 20.00     0.015 C 
ENDBRANCH   4   8
TORSDOF 1
ENDMDL
MODEL 9
REMARK VINA RESULT:      -4.1     11.360     13.363
REMARK  1 active torsions:
REMARK  status: ('A' for Active; 'I' for Inactive)
REMARK    1  A    between atoms: C4_4  and  C10_10 
ROOT
HETATM    1  C1  UNL     1     -41.664   4.777  -0.549  1.00 20.00     0.008 C 
HETATM    2  C2  UNL     1     -40.793   5.941  -0.075  1.00 20.00     0.035 C 
HETATM    3  C3  UNL     1     -42.413   5.973  -2.646  1.00 20.00     0.039 C 
HETATM    4  C4  UNL     1     -41.726   4.719  -2.082  1.00 20.00    -0.005 C 
HETATM    5  C5  UNL     1     -41.100   7.229  -0.764  1.00 20.00     0.151 A 
HETATM    6  C6  UNL     1     -41.868   7.236  -2.058  1.00 20.00     0.151 A 
HETATM    7  O11 UNL     1     -42.481   7.595  -0.803  1.00 20.00    -0.375 OA
ENDROOT
BRANCH   4   8
HETATM    8  C10 UNL     1     -42.454   3.459  -2.547  1.00 20.00    -0.048 C 
HETATM    9  C7  UNL     1     -43.417   3.808  -3.694  1.00 20.00     0.015 C 
HETATM   10  C8  UNL     1     -43.256   2.860  -1.378  1.00 20.00     0.015 C 
HETATM   11  C9  UNL     1     -41.432   2.421  -3.043  1.00 20.00     0.015 C 
ENDBRANCH   4   8
TORSDOF 1
ENDMDL
