MODEL 1
REMARK VINA RESULT:      -4.6      0.000      0.000
REMARK  2 active torsions:
REMARK  status: ('A' for Active; 'I' for Inactive)
REMARK    1  A    between atoms: C1_1  and  C5_5 
REMARK    2  A    between atoms: C4_4  and  C5_5 
ROOT
HETATM    1  C5  UNL     1     -34.533   5.629   3.804  1.00 20.00     0.101 C 
ENDROOT
BRANCH   1   2
HETATM    2  C1  UNL     1     -34.856   4.790   5.028  1.00 20.00     0.219 C 
HETATM    3  O6  UNL     1     -35.245   3.630   4.951  1.00 20.00    -0.280 OA
HETATM    4 CL7  UNL     1     -34.603   5.677   6.506  1.00 20.00    -0.044 Cl
ENDBRANCH   1   2
BRANCH   1   5
HETATM    5  C4  UNL     1     -33.283   6.429   3.935  1.00 20.00    -0.006 A 
HETATM    6  C2  UNL     1     -32.042   6.021   3.189  1.00 20.00     0.005 A 
HETATM    7  C3  UNL     1     -32.791   7.259   2.781  1.00 20.00     0.005 A 
ENDBRANCH   1   5
TORSDOF 2
ENDMDL
MODEL 2
REMARK VINA RESULT:      -4.4      2.361      3.567
REMARK  2 active torsions:
REMARK  status: ('A' for Active; 'I' for Inactive)
REMARK    1  A    between atoms: C1_1  and  C5_5 
REMARK    2  A    between atoms: C4_4  and  C5_5 
ROOT
HETATM    1  C5  UNL     1     -33.698   6.159   4.775  1.00 20.00     0.101 C 
ENDROOT
BRANCH   1   2
HETATM    2  C1  UNL     1     -33.367   6.139   3.293  1.00 20.00     0.219 C 
HETATM    3  O6  UNL     1     -33.926   5.389   2.499  1.00 20.00    -0.280 OA
HETATM    4 CL7  UNL     1     -32.125   7.292   2.890  1.00 20.00    -0.044 Cl
ENDBRANCH   1   2
BRANCH   1   5
HETATM    5  C4  UNL     1     -34.907   5.365   5.132  1.00 20.00    -0.006 A 
HETATM    6  C2  UNL     1     -34.787   3.895   5.428  1.00 20.00     0.005 A 
HETATM    7  C3  UNL     1     -35.094   4.862   6.537  1.00 20.00     0.005 A 
ENDBRANCH   1   5
TORSDOF 2
ENDMDL
MODEL 3
REMARK VINA RESULT:      -4.3      1.531      1.531
REMARK  2 active torsions:
REMARK  status: ('A' for Active; 'I' for Inactive)
REMARK    1  A    between atoms: C1_1  and  C5_5 
REMARK    2  A    between atoms: C4_4  and  C5_5 
ROOT
HETATM    1  C5  UNL     1     -34.277   6.171   4.229  1.00 20.00     0.101 C 
ENDROOT
BRANCH   1   2
HETATM    2  C1  UNL     1     -34.519   5.538   5.588  1.00 20.00     0.219 C 
HETATM    3  O6  UNL     1     -34.407   6.161   6.638  1.00 20.00    -0.280 OA
HETATM    4 CL7  UNL     1     -34.965   3.859   5.450  1.00 20.00    -0.044 Cl
ENDBRANCH   1   2
BRANCH   1   5
HETATM    5  C4  UNL     1     -32.866   6.596   4.006  1.00 20.00    -0.006 A 
HETATM    6  C2  UNL     1     -32.030   5.923   2.953  1.00 20.00     0.005 A 
HETATM    7  C3  UNL     1     -32.489   7.341   2.755  1.00 20.00     0.005 A 
ENDBRANCH   1   5
TORSDOF 2
ENDMDL
MODEL 4
REMARK VINA RESULT:      -4.3      3.249      4.070
REMARK  2 active torsions:
REMARK  status: ('A' for Active; 'I' for Inactive)
REMARK    1  A    between atoms: C1_1  and  C5_5 
REMARK    2  A    between atoms: C4_4  and  C5_5 
ROOT
HETATM    1  C5  UNL     1     -32.755   6.170   3.222  1.00 20.00     0.101 C 
ENDROOT
BRANCH   1   2
HETATM    2  C1  UNL     1     -31.884   7.414   3.186  1.00 20.00     0.219 C 
HETATM    3  O6  UNL     1     -31.143   7.730   4.111  1.00 20.00    -0.280 OA
HETATM    4 CL7  UNL     1     -32.077   8.297   1.697  1.00 20.00    -0.044 Cl
ENDBRANCH   1   2
BRANCH   1   5
HETATM    5  C4  UNL     1     -34.027   6.348   3.978  1.00 20.00    -0.006 A 
HETATM    6  C2  UNL     1     -35.149   5.360   3.814  1.00 20.00     0.005 A 
HETATM    7  C3  UNL     1     -34.376   5.413   5.103  1.00 20.00     0.005 A 
ENDBRANCH   1   5
TORSDOF 2
ENDMDL
MODEL 5
REMARK VINA RESULT:      -4.2      2.545      3.721
REMARK  2 active torsions:
REMARK  status: ('A' for Active; 'I' for Inactive)
REMARK    1  A    between atoms: C1_1  and  C5_5 
REMARK    2  A    between atoms: C4_4  and  C5_5 
ROOT
HETATM    1  C5  UNL     1     -33.694   6.235   4.947  1.00 20.00     0.101 C 
ENDROOT
BRANCH   1   2
HETATM    2  C1  UNL     1     -33.156   6.231   3.528  1.00 20.00     0.219 C 
HETATM    3  O6  UNL     1     -32.123   6.810   3.209  1.00 20.00    -0.280 OA
HETATM    4 CL7  UNL     1     -34.177   5.319   2.451  1.00 20.00    -0.044 Cl
ENDBRANCH   1   2
BRANCH   1   5
HETATM    5  C4  UNL     1     -34.870   5.342   5.148  1.00 20.00    -0.006 A 
HETATM    6  C2  UNL     1     -34.670   3.895   5.502  1.00 20.00     0.005 A 
HETATM    7  C3  UNL     1     -35.220   4.848   6.525  1.00 20.00     0.005 A 
ENDBRANCH   1   5
TORSDOF 2
ENDMDL
MODEL 6
REMARK VINA RESULT:      -4.1      1.336      1.531
REMARK  2 active torsions:
REMARK  status: ('A' for Active; 'I' for Inactive)
REMARK    1  A    between atoms: C1_1  and  C5_5 
REMARK    2  A    between atoms: C4_4  and  C5_5 
ROOT
HETATM    1  C5  UNL     1     -33.736   6.340   4.673  1.00 20.00     0.101 C 
ENDROOT
BRANCH   1   2
HETATM    2  C1  UNL     1     -34.865   5.345   4.471  1.00 20.00     0.219 C 
HETATM    3  O6  UNL     1     -35.660   5.426   3.541  1.00 20.00    -0.280 OA
HETATM    4 CL7  UNL     1     -34.872   4.114   5.704  1.00 20.00    -0.044 Cl
ENDBRANCH   1   2
BRANCH   1   5
HETATM    5  C4  UNL     1     -32.711   6.314   3.592  1.00 20.00    -0.006 A 
HETATM    6  C2  UNL     1     -32.655   7.420   2.574  1.00 20.00     0.005 A 
HETATM    7  C3  UNL     1     -31.570   7.295   3.607  1.00 20.00     0.005 A 
ENDBRANCH   1   5
TORSDOF 2
ENDMDL
MODEL 7
REMARK VINA RESULT:      -3.8     11.532     12.126
REMARK  2 active torsions:
REMARK  status: ('A' for Active; 'I' for Inactive)
REMARK    1  A    between atoms: C1_1  and  C5_5 
REMARK    2  A    between atoms: C4_4  and  C5_5 
ROOT
HETATM    1  C5  UNL     1     -35.118  14.972  -3.253  1.00 20.00     0.101 C 
ENDROOT
BRANCH   1   2
HETATM    2  C1  UNL     1     -34.497  13.688  -3.773  1.00 20.00     0.219 C 
HETATM    3  O6  UNL     1     -35.163  12.785  -4.270  1.00 20.00    -0.280 OA
HETATM    4 CL7  UNL     1     -32.767  13.677  -3.573  1.00 20.00    -0.044 Cl
ENDBRANCH   1   2
BRANCH   1   5
HETATM    5  C4  UNL     1     -34.183  15.810  -2.450  1.00 20.00    -0.006 A 
HETATM    6  C2  UNL     1     -34.363  17.302  -2.392  1.00 20.00     0.005 A 
HETATM    7  C3  UNL     1     -34.653  16.463  -1.179  1.00 20.00     0.005 A 
ENDBRANCH   1   5
TORSDOF 2
ENDMDL
MODEL 8
REMARK VINA RESULT:      -3.7     11.842     12.212
REMARK  2 active torsions:
REMARK  status: ('A' for Active; 'I' for Inactive)
REMARK    1  A    between atoms: C1_1  and  C5_5 
REMARK    2  A    between atoms: C4_4  and  C5_5 
ROOT
HETATM    1  C5  UNL     1     -34.116  14.508  -3.364  1.00 20.00     0.101 C 
ENDROOT
BRANCH   1   2
HETATM    2  C1  UNL     1     -35.159  13.660  -4.070  1.00 20.00     0.219 C 
HETATM    3  O6  UNL     1     -34.888  12.598  -4.620  1.00 20.00    -0.280 OA
HETATM    4 CL7  UNL     1     -36.743  14.382  -3.992  1.00 20.00    -0.044 Cl
ENDBRANCH   1   2
BRANCH   1   5
HETATM    5  C4  UNL     1     -34.613  15.850  -2.949  1.00 20.00    -0.006 A 
HETATM    6  C2  UNL     1     -34.740  16.194  -1.491  1.00 20.00     0.005 A 
HETATM    7  C3  UNL     1     -33.673  16.845  -2.325  1.00 20.00     0.005 A 
ENDBRANCH   1   5
TORSDOF 2
ENDMDL
MODEL 9
REMARK VINA RESULT:      -3.5      2.422      3.166
REMARK  2 active torsions:
REMARK  status: ('A' for Active; 'I' for Inactive)
REMARK    1  A    between atoms: C1_1  and  C5_5 
REMARK    2  A    between atoms: C4_4  and  C5_5 
ROOT
HETATM    1  C5  UNL     1     -32.105   7.281   3.146  1.00 20.00     0.101 C 
ENDROOT
BRANCH   1   2
HETATM    2  C1  UNL     1     -33.170   6.447   3.836  1.00 20.00     0.219 C 
HETATM    3  O6  UNL     1     -33.393   6.520   5.040  1.00 20.00    -0.280 OA
HETATM    4 CL7  UNL     1     -34.005   5.407   2.715  1.00 20.00    -0.044 Cl
ENDBRANCH   1   2
BRANCH   1   5
HETATM    5  C4  UNL     1     -32.601   8.024   1.954  1.00 20.00    -0.006 A 
HETATM    6  C2  UNL     1     -32.439   9.516   1.870  1.00 20.00     0.005 A 
HETATM    7  C3  UNL     1     -31.627   8.622   0.976  1.00 20.00     0.005 A 
ENDBRANCH   1   5
TORSDOF 2
ENDMDL
