MODEL 1
REMARK VINA RESULT:      -4.8      0.000      0.000
REMARK  2 active torsions:
REMARK  status: ('A' for Active; 'I' for Inactive)
REMARK    1  A    between atoms: C4_4  and  C11_11 
REMARK    2  A    between atoms: C10_10  and  C11_11 
ROOT
HETATM    1  C1  UNL     1     -34.266  14.441  -3.414  1.00 20.00     0.008 C 
HETATM    2  C2  UNL     1     -34.334  13.614  -4.700  1.00 20.00     0.035 C 
HETATM    3  C3  UNL     1     -33.312  16.225  -5.046  1.00 20.00     0.040 C 
HETATM    4  C4  UNL     1     -33.552  15.808  -3.580  1.00 20.00    -0.004 C 
HETATM    5  C5  UNL     1     -34.978  14.431  -5.771  1.00 20.00     0.151 A 
HETATM    6  C6  UNL     1     -34.452  15.826  -5.930  1.00 20.00     0.151 A 
HETATM    7  O12 UNL     1     -34.146  14.793  -6.876  1.00 20.00    -0.375 OA
ENDROOT
BRANCH   4   8
HETATM    8  C11 UNL     1     -34.316  16.897  -2.822  1.00 20.00    -0.044 C 
HETATM    9  C8  UNL     1     -34.158  18.235  -3.572  1.00 20.00     0.015 C 
HETATM   10  C9  UNL     1     -35.812  16.524  -2.782  1.00 20.00     0.015 C 
BRANCH   8  11
HETATM   11  C10 UNL     1     -33.737  17.002  -1.383  1.00 20.00     0.004 C 
HETATM   12  C7  UNL     1     -34.749  16.978  -0.244  1.00 20.00     0.006 C 
ENDBRANCH   8  11
ENDBRANCH   4   8
TORSDOF 2
ENDMDL
MODEL 2
REMARK VINA RESULT:      -4.7      1.823      2.571
REMARK  2 active torsions:
REMARK  status: ('A' for Active; 'I' for Inactive)
REMARK    1  A    between atoms: C4_4  and  C11_11 
REMARK    2  A    between atoms: C10_10  and  C11_11 
ROOT
HETATM    1  C1  UNL     1     -33.103  15.541  -3.991  1.00 20.00     0.008 C 
HETATM    2  C2  UNL     1     -33.158  14.049  -3.654  1.00 20.00     0.035 C 
HETATM    3  C3  UNL     1     -34.483  14.753  -6.047  1.00 20.00     0.040 C 
HETATM    4  C4  UNL     1     -33.684  15.895  -5.384  1.00 20.00    -0.004 C 
HETATM    5  C5  UNL     1     -34.567  13.572  -3.785  1.00 20.00     0.151 A 
HETATM    6  C6  UNL     1     -35.275  13.974  -5.045  1.00 20.00     0.151 A 
HETATM    7  O12 UNL     1     -34.820  12.631  -4.832  1.00 20.00    -0.375 OA
ENDROOT
BRANCH   4   8
HETATM    8  C11 UNL     1     -34.530  17.169  -5.294  1.00 20.00    -0.044 C 
HETATM    9  C8  UNL     1     -33.648  18.383  -5.650  1.00 20.00     0.015 C 
HETATM   10  C9  UNL     1     -35.683  17.078  -6.313  1.00 20.00     0.015 C 
BRANCH   8  11
HETATM   11  C10 UNL     1     -35.084  17.297  -3.847  1.00 20.00     0.004 C 
HETATM   12  C7  UNL     1     -36.592  17.148  -3.685  1.00 20.00     0.006 C 
ENDBRANCH   8  11
ENDBRANCH   4   8
TORSDOF 2
ENDMDL
MODEL 3
REMARK VINA RESULT:      -4.6      1.371      2.141
REMARK  2 active torsions:
REMARK  status: ('A' for Active; 'I' for Inactive)
REMARK    1  A    between atoms: C4_4  and  C11_11 
REMARK    2  A    between atoms: C10_10  and  C11_11 
ROOT
HETATM    1  C1  UNL     1     -35.278  15.984  -5.479  1.00 20.00     0.008 C 
HETATM    2  C2  UNL     1     -35.292  14.574  -6.075  1.00 20.00     0.035 C 
HETATM    3  C3  UNL     1     -35.738  14.666  -3.287  1.00 20.00     0.040 C 
HETATM    4  C4  UNL     1     -35.688  16.042  -3.985  1.00 20.00    -0.004 C 
HETATM    5  C5  UNL     1     -34.424  13.687  -5.246  1.00 20.00     0.151 A 
HETATM    6  C6  UNL     1     -34.645  13.762  -3.764  1.00 20.00     0.151 A 
HETATM    7  O12 UNL     1     -35.088  12.638  -4.536  1.00 20.00    -0.375 OA
ENDROOT
BRANCH   4   8
HETATM    8  C11 UNL     1     -34.772  17.005  -3.224  1.00 20.00    -0.044 C 
HETATM    9  C8  UNL     1     -33.561  17.352  -4.112  1.00 20.00     0.015 C 
HETATM   10  C9  UNL     1     -35.551  18.300  -2.917  1.00 20.00     0.015 C 
BRANCH   8  11
HETATM   11  C10 UNL     1     -34.310  16.317  -1.908  1.00 20.00     0.004 C 
HETATM   12  C7  UNL     1     -34.703  17.011  -0.609  1.00 20.00     0.006 C 
ENDBRANCH   8  11
ENDBRANCH   4   8
TORSDOF 2
ENDMDL
MODEL 4
REMARK VINA RESULT:      -4.5      2.238      4.284
REMARK  2 active torsions:
REMARK  status: ('A' for Active; 'I' for Inactive)
REMARK    1  A    between atoms: C4_4  and  C11_11 
REMARK    2  A    between atoms: C10_10  and  C11_11 
ROOT
HETATM    1  C1  UNL     1     -34.717  15.786  -1.981  1.00 20.00     0.008 C 
HETATM    2  C2  UNL     1     -34.685  16.783  -0.820  1.00 20.00     0.035 C 
HETATM    3  C3  UNL     1     -34.729  17.976  -3.380  1.00 20.00     0.040 C 
HETATM    4  C4  UNL     1     -34.910  16.444  -3.372  1.00 20.00    -0.004 C 
HETATM    5  C5  UNL     1     -33.627  17.803  -1.082  1.00 20.00     0.151 A 
HETATM    6  C6  UNL     1     -33.637  18.411  -2.454  1.00 20.00     0.151 A 
HETATM    7  O12 UNL     1     -34.081  19.141  -1.302  1.00 20.00    -0.375 OA
ENDROOT
BRANCH   4   8
HETATM    8  C11 UNL     1     -33.987  15.783  -4.400  1.00 20.00    -0.044 C 
HETATM    9  C8  UNL     1     -33.433  16.865  -5.348  1.00 20.00     0.015 C 
HETATM   10  C9  UNL     1     -32.808  15.119  -3.662  1.00 20.00     0.015 C 
BRANCH   8  11
HETATM   11  C10 UNL     1     -34.804  14.723  -5.193  1.00 20.00     0.004 C 
HETATM   12  C7  UNL     1     -34.622  13.272  -4.768  1.00 20.00     0.006 C 
ENDBRANCH   8  11
ENDBRANCH   4   8
TORSDOF 2
ENDMDL
MODEL 5
REMARK VINA RESULT:      -4.5      0.606      1.812
REMARK  2 active torsions:
REMARK  status: ('A' for Active; 'I' for Inactive)
REMARK    1  A    between atoms: C4_4  and  C11_11 
REMARK    2  A    between atoms: C10_10  and  C11_11 
ROOT
HETATM    1  C1  UNL     1     -34.476  14.254  -3.518  1.00 20.00     0.008 C 
HETATM    2  C2  UNL     1     -34.386  13.534  -4.866  1.00 20.00     0.035 C 
HETATM    3  C3  UNL     1     -33.423  16.190  -4.897  1.00 20.00     0.040 C 
HETATM    4  C4  UNL     1     -33.795  15.647  -3.501  1.00 20.00    -0.004 C 
HETATM    5  C5  UNL     1     -34.946  14.419  -5.930  1.00 20.00     0.151 A 
HETATM    6  C6  UNL     1     -34.453  15.836  -5.922  1.00 20.00     0.151 A 
HETATM    7  O12 UNL     1     -34.019  14.892  -6.910  1.00 20.00    -0.375 OA
ENDROOT
BRANCH   4   8
HETATM    8  C11 UNL     1     -34.668  16.651  -2.743  1.00 20.00    -0.044 C 
HETATM    9  C8  UNL     1     -34.342  16.566  -1.238  1.00 20.00     0.015 C 
HETATM   10  C9  UNL     1     -34.344  18.074  -3.240  1.00 20.00     0.015 C 
BRANCH   8  11
HETATM   11  C10 UNL     1     -36.162  16.306  -3.002  1.00 20.00     0.004 C 
HETATM   12  C7  UNL     1     -37.004  17.397  -3.654  1.00 20.00     0.006 C 
ENDBRANCH   8  11
ENDBRANCH   4   8
TORSDOF 2
ENDMDL
MODEL 6
REMARK VINA RESULT:      -4.4      1.784      3.263
REMARK  2 active torsions:
REMARK  status: ('A' for Active; 'I' for Inactive)
REMARK    1  A    between atoms: C4_4  and  C11_11 
REMARK    2  A    between atoms: C10_10  and  C11_11 
ROOT
HETATM    1  C1  UNL     1     -35.892  16.342  -5.282  1.00 20.00     0.008 C 
HETATM    2  C2  UNL     1     -35.842  17.764  -5.846  1.00 20.00     0.035 C 
HETATM    3  C3  UNL     1     -33.309  16.581  -5.441  1.00 20.00     0.040 C 
HETATM    4  C4  UNL     1     -34.512  15.639  -5.221  1.00 20.00    -0.004 C 
HETATM    5  C5  UNL     1     -34.866  18.568  -5.054  1.00 20.00     0.151 A 
HETATM    6  C6  UNL     1     -33.533  17.922  -4.817  1.00 20.00     0.151 A 
HETATM    7  O12 UNL     1     -33.693  19.000  -5.748  1.00 20.00    -0.375 OA
ENDROOT
BRANCH   4   8
HETATM    8  C11 UNL     1     -34.368  14.875  -3.901  1.00 20.00    -0.044 C 
HETATM    9  C8  UNL     1     -34.832  13.419  -4.111  1.00 20.00     0.015 C 
HETATM   10  C9  UNL     1     -32.884  14.867  -3.485  1.00 20.00     0.015 C 
BRANCH   8  11
HETATM   11  C10 UNL     1     -35.238  15.578  -2.821  1.00 20.00     0.004 C 
HETATM   12  C7  UNL     1     -34.486  16.221  -1.662  1.00 20.00     0.006 C 
ENDBRANCH   8  11
ENDBRANCH   4   8
TORSDOF 2
ENDMDL
MODEL 7
REMARK VINA RESULT:      -4.4      1.791      3.031
REMARK  2 active torsions:
REMARK  status: ('A' for Active; 'I' for Inactive)
REMARK    1  A    between atoms: C4_4  and  C11_11 
REMARK    2  A    between atoms: C10_10  and  C11_11 
ROOT
HETATM    1  C1  UNL     1     -34.337  14.873  -6.577  1.00 20.00     0.008 C 
HETATM    2  C2  UNL     1     -35.332  15.145  -7.707  1.00 20.00     0.035 C 
HETATM    3  C3  UNL     1     -35.912  16.494  -5.294  1.00 20.00     0.040 C 
HETATM    4  C4  UNL     1     -34.564  15.742  -5.313  1.00 20.00    -0.004 C 
HETATM    5  C5  UNL     1     -36.721  14.979  -7.184  1.00 20.00     0.151 A 
HETATM    6  C6  UNL     1     -37.013  15.673  -5.887  1.00 20.00     0.151 A 
HETATM    7  O12 UNL     1     -37.523  16.161  -7.135  1.00 20.00    -0.375 OA
ENDROOT
BRANCH   4   8
HETATM    8  C11 UNL     1     -34.398  14.891  -4.051  1.00 20.00    -0.044 C 
HETATM    9  C8  UNL     1     -34.808  13.439  -4.367  1.00 20.00     0.015 C 
HETATM   10  C9  UNL     1     -32.915  14.907  -3.628  1.00 20.00     0.015 C 
BRANCH   8  11
HETATM   11  C10 UNL     1     -35.296  15.484  -2.929  1.00 20.00     0.004 C 
HETATM   12  C7  UNL     1     -34.573  16.186  -1.785  1.00 20.00     0.006 C 
ENDBRANCH   8  11
ENDBRANCH   4   8
TORSDOF 2
ENDMDL
MODEL 8
REMARK VINA RESULT:      -4.4      2.020      4.096
REMARK  2 active torsions:
REMARK  status: ('A' for Active; 'I' for Inactive)
REMARK    1  A    between atoms: C4_4  and  C11_11 
REMARK    2  A    between atoms: C10_10  and  C11_11 
ROOT
HETATM    1  C1  UNL     1     -34.149  17.325  -4.971  1.00 20.00     0.008 C 
HETATM    2  C2  UNL     1     -33.879  18.166  -3.721  1.00 20.00     0.035 C 
HETATM    3  C3  UNL     1     -33.255  15.425  -3.439  1.00 20.00     0.040 C 
HETATM    4  C4  UNL     1     -33.649  15.861  -4.866  1.00 20.00    -0.004 C 
HETATM    5  C5  UNL     1     -34.473  17.480  -2.535  1.00 20.00     0.151 A 
HETATM    6  C6  UNL     1     -34.162  16.018  -2.407  1.00 20.00     0.151 A 
HETATM    7  O12 UNL     1     -33.548  16.997  -1.557  1.00 20.00    -0.375 OA
ENDROOT
BRANCH   4   8
HETATM    8  C11 UNL     1     -34.690  14.906  -5.458  1.00 20.00    -0.044 C 
HETATM    9  C8  UNL     1     -34.491  14.830  -6.985  1.00 20.00     0.015 C 
HETATM   10  C9  UNL     1     -34.478  13.500  -4.860  1.00 20.00     0.015 C 
BRANCH   8  11
HETATM   11  C10 UNL     1     -36.109  15.440  -5.114  1.00 20.00     0.004 C 
HETATM   12  C7  UNL     1     -36.949  14.576  -4.181  1.00 20.00     0.006 C 
ENDBRANCH   8  11
ENDBRANCH   4   8
TORSDOF 2
ENDMDL
MODEL 9
REMARK VINA RESULT:      -4.4      2.013      4.217
REMARK  2 active torsions:
REMARK  status: ('A' for Active; 'I' for Inactive)
REMARK    1  A    between atoms: C4_4  and  C11_11 
REMARK    2  A    between atoms: C10_10  and  C11_11 
ROOT
HETATM    1  C1  UNL     1     -34.586  15.877  -1.960  1.00 20.00     0.008 C 
HETATM    2  C2  UNL     1     -34.549  17.273  -1.336  1.00 20.00     0.035 C 
HETATM    3  C3  UNL     1     -35.173  17.245  -4.091  1.00 20.00     0.040 C 
HETATM    4  C4  UNL     1     -35.091  15.855  -3.426  1.00 20.00    -0.004 C 
HETATM    5  C5  UNL     1     -33.728  18.172  -2.200  1.00 20.00     0.151 A 
HETATM    6  C6  UNL     1     -34.044  18.130  -3.666  1.00 20.00     0.151 A 
HETATM    7  O12 UNL     1     -34.427  19.241  -2.843  1.00 20.00    -0.375 OA
ENDROOT
BRANCH   4   8
HETATM    8  C11 UNL     1     -34.234  14.901  -4.264  1.00 20.00    -0.044 C 
HETATM    9  C8  UNL     1     -32.809  14.859  -3.677  1.00 20.00     0.015 C 
HETATM   10  C9  UNL     1     -34.843  13.486  -4.193  1.00 20.00     0.015 C 
BRANCH   8  11
HETATM   11  C10 UNL     1     -34.209  15.415  -5.732  1.00 20.00     0.004 C 
HETATM   12  C7  UNL     1     -34.930  14.553  -6.762  1.00 20.00     0.006 C 
ENDBRANCH   8  11
ENDBRANCH   4   8
TORSDOF 2
ENDMDL
