MODEL 1
REMARK VINA RESULT:      -3.8      0.000      0.000
REMARK  1 active torsions:
REMARK  status: ('A' for Active; 'I' for Inactive)
REMARK    1  A    between atoms: C2_2  and  C6_6 
REMARK       I    between atoms: C2_2  and  N7_7 
ROOT
HETATM    1  C1  UNL     1     -34.478  16.633  -1.234  1.00 20.00     0.166 C 
HETATM    2  C2  UNL     1     -34.963  15.394  -2.981  1.00 20.00     0.252 C 
HETATM    3  N7  UNL     1     -34.057  15.981  -2.113  1.00 20.00    -0.199 NA
HETATM    4  O8  UNL     1     -36.189  15.494  -2.913  1.00 20.00    -0.270 OA
HETATM    5  S9  UNL     1     -35.010  17.527  -0.027  1.00 20.00    -0.055 SA
ENDROOT
BRANCH   2   6
HETATM    6  C6  UNL     1     -34.289  14.563  -4.094  1.00 20.00     0.032 C 
HETATM    7  C3  UNL     1     -32.925  14.058  -3.601  1.00 20.00     0.025 C 
HETATM    8  C4  UNL     1     -35.167  13.353  -4.451  1.00 20.00     0.025 C 
HETATM    9  C5  UNL     1     -34.110  15.435  -5.345  1.00 20.00     0.025 C 
ENDBRANCH   2   6
TORSDOF 1
ENDMDL
MODEL 2
REMARK VINA RESULT:      -3.8      0.020      1.441
REMARK  1 active torsions:
REMARK  status: ('A' for Active; 'I' for Inactive)
REMARK    1  A    between atoms: C2_2  and  C6_6 
REMARK       I    between atoms: C2_2  and  N7_7 
ROOT
HETATM    1  C1  UNL     1     -34.483  16.639  -1.237  1.00 20.00     0.166 C 
HETATM    2  C2  UNL     1     -34.973  15.394  -2.979  1.00 20.00     0.252 C 
HETATM    3  N7  UNL     1     -34.065  15.983  -2.115  1.00 20.00    -0.199 NA
HETATM    4  O8  UNL     1     -36.198  15.497  -2.910  1.00 20.00    -0.270 OA
HETATM    5  S9  UNL     1     -35.012  17.539  -0.033  1.00 20.00    -0.055 SA
ENDROOT
BRANCH   2   6
HETATM    6  C6  UNL     1     -34.302  14.557  -4.089  1.00 20.00     0.032 C 
HETATM    7  C3  UNL     1     -35.188  13.349  -4.425  1.00 20.00     0.025 C 
HETATM    8  C4  UNL     1     -34.123  15.410  -5.356  1.00 20.00     0.025 C 
HETATM    9  C5  UNL     1     -32.922  14.084  -3.610  1.00 20.00     0.025 C 
ENDBRANCH   2   6
TORSDOF 1
ENDMDL
MODEL 3
REMARK VINA RESULT:      -3.8      0.020      1.443
REMARK  1 active torsions:
REMARK  status: ('A' for Active; 'I' for Inactive)
REMARK    1  A    between atoms: C2_2  and  C6_6 
REMARK       I    between atoms: C2_2  and  N7_7 
ROOT
HETATM    1  C1  UNL     1     -34.485  16.635  -1.228  1.00 20.00     0.166 C 
HETATM    2  C2  UNL     1     -34.975  15.395  -2.973  1.00 20.00     0.252 C 
HETATM    3  N7  UNL     1     -34.067  15.979  -2.106  1.00 20.00    -0.199 NA
HETATM    4  O8  UNL     1     -36.201  15.501  -2.905  1.00 20.00    -0.270 OA
HETATM    5  S9  UNL     1     -35.013  17.533  -0.022  1.00 20.00    -0.055 SA
ENDROOT
BRANCH   2   6
HETATM    6  C6  UNL     1     -34.305  14.559  -4.084  1.00 20.00     0.032 C 
HETATM    7  C3  UNL     1     -34.093  15.435  -5.327  1.00 20.00     0.025 C 
HETATM    8  C4  UNL     1     -32.940  14.041  -3.602  1.00 20.00     0.025 C 
HETATM    9  C5  UNL     1     -35.198  13.359  -4.430  1.00 20.00     0.025 C 
ENDBRANCH   2   6
TORSDOF 1
ENDMDL
MODEL 4
REMARK VINA RESULT:      -3.7      1.251      1.903
REMARK  1 active torsions:
REMARK  status: ('A' for Active; 'I' for Inactive)
REMARK    1  A    between atoms: C2_2  and  C6_6 
REMARK       I    between atoms: C2_2  and  N7_7 
ROOT
HETATM    1  C1  UNL     1     -34.611  16.639  -1.061  1.00 20.00     0.166 C 
HETATM    2  C2  UNL     1     -34.185  16.012  -3.123  1.00 20.00     0.252 C 
HETATM    3  N7  UNL     1     -34.754  15.808  -1.877  1.00 20.00    -0.199 NA
HETATM    4  O8  UNL     1     -33.533  17.002  -3.460  1.00 20.00    -0.270 OA
HETATM    5  S9  UNL     1     -34.439  17.744   0.073  1.00 20.00    -0.055 SA
ENDROOT
BRANCH   2   6
HETATM    6  C6  UNL     1     -34.442  14.851  -4.107  1.00 20.00     0.032 C 
HETATM    7  C3  UNL     1     -35.895  14.373  -3.967  1.00 20.00     0.025 C 
HETATM    8  C4  UNL     1     -34.213  15.326  -5.552  1.00 20.00     0.025 C 
HETATM    9  C5  UNL     1     -33.474  13.699  -3.803  1.00 20.00     0.025 C 
ENDBRANCH   2   6
TORSDOF 1
ENDMDL
MODEL 5
REMARK VINA RESULT:      -3.7      1.260      1.260
REMARK  1 active torsions:
REMARK  status: ('A' for Active; 'I' for Inactive)
REMARK    1  A    between atoms: C2_2  and  C6_6 
REMARK       I    between atoms: C2_2  and  N7_7 
ROOT
HETATM    1  C1  UNL     1     -34.635  16.669  -1.045  1.00 20.00     0.166 C 
HETATM    2  C2  UNL     1     -34.190  16.037  -3.101  1.00 20.00     0.252 C 
HETATM    3  N7  UNL     1     -34.780  15.841  -1.864  1.00 20.00    -0.199 NA
HETATM    4  O8  UNL     1     -33.517  17.016  -3.427  1.00 20.00    -0.270 OA
HETATM    5  S9  UNL     1     -34.461  17.770   0.093  1.00 20.00    -0.055 SA
ENDROOT
BRANCH   2   6
HETATM    6  C6  UNL     1     -34.452  14.881  -4.091  1.00 20.00     0.032 C 
HETATM    7  C3  UNL     1     -33.492  13.721  -3.789  1.00 20.00     0.025 C 
HETATM    8  C4  UNL     1     -35.898  14.380  -3.944  1.00 20.00     0.025 C 
HETATM    9  C5  UNL     1     -34.242  15.381  -5.528  1.00 20.00     0.025 C 
ENDBRANCH   2   6
TORSDOF 1
ENDMDL
MODEL 6
REMARK VINA RESULT:      -3.7      1.259      1.766
REMARK  1 active torsions:
REMARK  status: ('A' for Active; 'I' for Inactive)
REMARK    1  A    between atoms: C2_2  and  C6_6 
REMARK       I    between atoms: C2_2  and  N7_7 
ROOT
HETATM    1  C1  UNL     1     -34.555  16.636  -1.129  1.00 20.00     0.166 C 
HETATM    2  C2  UNL     1     -34.215  16.014  -3.207  1.00 20.00     0.252 C 
HETATM    3  N7  UNL     1     -34.721  15.801  -1.936  1.00 20.00    -0.199 NA
HETATM    4  O8  UNL     1     -33.597  17.014  -3.576  1.00 20.00    -0.270 OA
HETATM    5  S9  UNL     1     -34.350  17.747  -0.005  1.00 20.00    -0.055 SA
ENDROOT
BRANCH   2   6
HETATM    6  C6  UNL     1     -34.497  14.846  -4.178  1.00 20.00     0.032 C 
HETATM    7  C3  UNL     1     -34.221  15.300  -5.618  1.00 20.00     0.025 C 
HETATM    8  C4  UNL     1     -33.583  13.655  -3.848  1.00 20.00     0.025 C 
HETATM    9  C5  UNL     1     -35.961  14.405  -4.034  1.00 20.00     0.025 C 
ENDBRANCH   2   6
TORSDOF 1
ENDMDL
MODEL 7
REMARK VINA RESULT:      -3.6     12.536     13.617
REMARK  1 active torsions:
REMARK  status: ('A' for Active; 'I' for Inactive)
REMARK    1  A    between atoms: C2_2  and  C6_6 
REMARK       I    between atoms: C2_2  and  N7_7 
ROOT
HETATM    1  C1  UNL     1     -42.029   3.022  -3.001  1.00 20.00     0.166 C 
HETATM    2  C2  UNL     1     -41.502   4.622  -1.592  1.00 20.00     0.252 C 
HETATM    3  N7  UNL     1     -42.393   3.985  -2.439  1.00 20.00    -0.199 NA
HETATM    4  O8  UNL     1     -40.344   4.266  -1.369  1.00 20.00    -0.270 OA
HETATM    5  S9  UNL     1     -41.571   1.712  -3.782  1.00 20.00    -0.055 SA
ENDROOT
BRANCH   2   6
HETATM    6  C6  UNL     1     -42.097   5.874  -0.912  1.00 20.00     0.032 C 
HETATM    7  C3  UNL     1     -41.040   6.988  -0.875  1.00 20.00     0.025 C 
HETATM    8  C4  UNL     1     -43.317   6.373  -1.703  1.00 20.00     0.025 C 
HETATM    9  C5  UNL     1     -42.541   5.519   0.515  1.00 20.00     0.025 C 
ENDBRANCH   2   6
TORSDOF 1
ENDMDL
MODEL 8
REMARK VINA RESULT:      -3.6     12.531     13.594
REMARK  1 active torsions:
REMARK  status: ('A' for Active; 'I' for Inactive)
REMARK    1  A    between atoms: C2_2  and  C6_6 
REMARK       I    between atoms: C2_2  and  N7_7 
ROOT
HETATM    1  C1  UNL     1     -41.638   2.761  -3.045  1.00 20.00     0.166 C 
HETATM    2  C2  UNL     1     -42.319   4.795  -2.571  1.00 20.00     0.252 C 
HETATM    3  N7  UNL     1     -41.527   3.685  -2.330  1.00 20.00    -0.199 NA
HETATM    4  O8  UNL     1     -43.141   4.905  -3.481  1.00 20.00    -0.270 OA
HETATM    5  S9  UNL     1     -41.760   1.487  -3.993  1.00 20.00    -0.055 SA
ENDROOT
BRANCH   2   6
HETATM    6  C6  UNL     1     -42.082   5.942  -1.565  1.00 20.00     0.032 C 
HETATM    7  C3  UNL     1     -43.272   6.029  -0.599  1.00 20.00     0.025 C 
HETATM    8  C4  UNL     1     -40.802   5.676  -0.756  1.00 20.00     0.025 C 
HETATM    9  C5  UNL     1     -41.922   7.265  -2.328  1.00 20.00     0.025 C 
ENDBRANCH   2   6
TORSDOF 1
ENDMDL
MODEL 9
REMARK VINA RESULT:      -3.6      2.873      3.425
REMARK  1 active torsions:
REMARK  status: ('A' for Active; 'I' for Inactive)
REMARK    1  A    between atoms: C2_2  and  C6_6 
REMARK       I    between atoms: C2_2  and  N7_7 
ROOT
HETATM    1  C1  UNL     1     -37.631  14.871  -3.866  1.00 20.00     0.166 C 
HETATM    2  C2  UNL     1     -35.540  15.280  -4.399  1.00 20.00     0.252 C 
HETATM    3  N7  UNL     1     -36.521  14.924  -3.489  1.00 20.00    -0.199 NA
HETATM    4  O8  UNL     1     -35.727  15.549  -5.587  1.00 20.00    -0.270 OA
HETATM    5  S9  UNL     1     -39.150  14.788  -4.339  1.00 20.00    -0.055 SA
ENDROOT
BRANCH   2   6
HETATM    6  C6  UNL     1     -34.123  15.314  -3.786  1.00 20.00     0.032 C 
HETATM    7  C3  UNL     1     -33.215  16.205  -4.645  1.00 20.00     0.025 C 
HETATM    8  C4  UNL     1     -34.181  15.891  -2.362  1.00 20.00     0.025 C 
HETATM    9  C5  UNL     1     -33.559  13.888  -3.722  1.00 20.00     0.025 C 
ENDBRANCH   2   6
TORSDOF 1
ENDMDL
