MODEL 1
REMARK VINA RESULT:      -4.2      0.000      0.000
REMARK  2 active torsions:
REMARK  status: ('A' for Active; 'I' for Inactive)
REMARK    1  A    between atoms: C3_3  and  C5_5 
REMARK    2  A    between atoms: C4_4  and  C8_8 
ROOT
HETATM    1  C1  UNL     1     -33.624  15.982  -5.034  1.00 20.00     0.023 A 
HETATM    2  C2  UNL     1     -33.594  17.026  -4.066  1.00 20.00     0.016 A 
HETATM    3  C3  UNL     1     -34.429  14.935  -4.641  1.00 20.00     0.043 A 
HETATM    4  C4  UNL     1     -34.378  16.739  -2.970  1.00 20.00    -0.013 A 
HETATM    5  S10 UNL     1     -35.144  15.214  -3.110  1.00 20.00    -0.091 SA
ENDROOT
BRANCH   4   6
HETATM    6  C8  UNL     1     -34.547  17.667  -1.763  1.00 20.00     0.026 A 
HETATM    7  C6  UNL     1     -33.431  17.747  -0.743  1.00 20.00     0.010 A 
HETATM    8  C7  UNL     1     -34.709  17.055  -0.388  1.00 20.00     0.010 A 
ENDBRANCH   4   6
BRANCH   3   9
HETATM    9  C5  UNL     1     -34.712  13.717  -5.329  1.00 20.00     0.277 C 
HETATM   10  O9  UNL     1     -34.825  12.605  -4.772  1.00 20.00    -0.301 OA
ENDBRANCH   3   9
TORSDOF 2
ENDMDL
MODEL 2
REMARK VINA RESULT:      -4.1      1.861      2.531
REMARK  2 active torsions:
REMARK  status: ('A' for Active; 'I' for Inactive)
REMARK    1  A    between atoms: C3_3  and  C5_5 
REMARK    2  A    between atoms: C4_4  and  C8_8 
ROOT
HETATM    1  C1  UNL     1     -34.797  13.350  -5.083  1.00 20.00     0.023 A 
HETATM    2  C2  UNL     1     -34.341  13.793  -3.808  1.00 20.00     0.016 A 
HETATM    3  C3  UNL     1     -34.948  14.394  -5.970  1.00 20.00     0.043 A 
HETATM    4  C4  UNL     1     -34.160  15.158  -3.769  1.00 20.00    -0.013 A 
HETATM    5  S10 UNL     1     -34.541  15.899  -5.265  1.00 20.00    -0.091 SA
ENDROOT
BRANCH   4   6
HETATM    6  C8  UNL     1     -33.679  15.929  -2.536  1.00 20.00     0.026 A 
HETATM    7  C6  UNL     1     -34.698  16.364  -1.505  1.00 20.00     0.010 A 
HETATM    8  C7  UNL     1     -34.060  17.387  -2.391  1.00 20.00     0.010 A 
ENDBRANCH   4   6
BRANCH   3   9
HETATM    9  C5  UNL     1     -35.381  14.357  -7.329  1.00 20.00     0.277 C 
HETATM   10  O9  UNL     1     -36.527  14.677  -7.710  1.00 20.00    -0.301 OA
ENDBRANCH   3   9
TORSDOF 2
ENDMDL
MODEL 3
REMARK VINA RESULT:      -4.0     12.542     14.079
REMARK  2 active torsions:
REMARK  status: ('A' for Active; 'I' for Inactive)
REMARK    1  A    between atoms: C3_3  and  C5_5 
REMARK    2  A    between atoms: C4_4  and  C8_8 
ROOT
HETATM    1  C1  UNL     1     -41.500   2.794  -2.973  1.00 20.00     0.023 A 
HETATM    2  C2  UNL     1     -41.152   3.743  -1.969  1.00 20.00     0.016 A 
HETATM    3  C3  UNL     1     -42.709   3.087  -3.565  1.00 20.00     0.043 A 
HETATM    4  C4  UNL     1     -42.107   4.726  -1.834  1.00 20.00    -0.013 A 
HETATM    5  S10 UNL     1     -43.417   4.502  -2.912  1.00 20.00    -0.091 SA
ENDROOT
BRANCH   4   6
HETATM    6  C8  UNL     1     -42.016   5.885  -0.836  1.00 20.00     0.026 A 
HETATM    7  C6  UNL     1     -41.196   7.102  -1.206  1.00 20.00     0.010 A 
HETATM    8  C7  UNL     1     -40.691   6.162  -0.158  1.00 20.00     0.010 A 
ENDBRANCH   4   6
BRANCH   3   9
HETATM    9  C5  UNL     1     -43.392   2.382  -4.601  1.00 20.00     0.277 C 
HETATM   10  O9  UNL     1     -42.866   2.034  -5.679  1.00 20.00    -0.301 OA
ENDBRANCH   3   9
TORSDOF 2
ENDMDL
MODEL 4
REMARK VINA RESULT:      -3.9      2.516      4.812
REMARK  2 active torsions:
REMARK  status: ('A' for Active; 'I' for Inactive)
REMARK    1  A    between atoms: C3_3  and  C5_5 
REMARK    2  A    between atoms: C4_4  and  C8_8 
ROOT
HETATM    1  C1  UNL     1     -34.432  14.664  -3.247  1.00 20.00     0.023 A 
HETATM    2  C2  UNL     1     -34.498  14.335  -4.631  1.00 20.00     0.016 A 
HETATM    3  C3  UNL     1     -34.079  15.980  -3.044  1.00 20.00     0.043 A 
HETATM    4  C4  UNL     1     -34.193  15.412  -5.434  1.00 20.00    -0.013 A 
HETATM    5  S10 UNL     1     -33.828  16.812  -4.519  1.00 20.00    -0.091 SA
ENDROOT
BRANCH   4   6
HETATM    6  C8  UNL     1     -34.177  15.369  -6.965  1.00 20.00     0.026 A 
HETATM    7  C6  UNL     1     -35.282  16.071  -7.725  1.00 20.00     0.010 A 
HETATM    8  C7  UNL     1     -35.248  14.576  -7.684  1.00 20.00     0.010 A 
ENDBRANCH   4   6
BRANCH   3   9
HETATM    9  C5  UNL     1     -33.909  16.681  -1.812  1.00 20.00     0.277 C 
HETATM   10  O9  UNL     1     -34.560  16.443  -0.773  1.00 20.00    -0.301 OA
ENDBRANCH   3   9
TORSDOF 2
ENDMDL
MODEL 5
REMARK VINA RESULT:      -3.9     11.447     12.171
REMARK  2 active torsions:
REMARK  status: ('A' for Active; 'I' for Inactive)
REMARK    1  A    between atoms: C3_3  and  C5_5 
REMARK    2  A    between atoms: C4_4  and  C8_8 
ROOT
HETATM    1  C1  UNL     1     -34.319   5.173   3.327  1.00 20.00     0.023 A 
HETATM    2  C2  UNL     1     -33.489   5.970   2.488  1.00 20.00     0.016 A 
HETATM    3  C3  UNL     1     -34.261   5.575   4.644  1.00 20.00     0.043 A 
HETATM    4  C4  UNL     1     -32.829   6.951   3.195  1.00 20.00    -0.013 A 
HETATM    5  S10 UNL     1     -33.210   6.908   4.863  1.00 20.00    -0.091 SA
ENDROOT
BRANCH   4   6
HETATM    6  C8  UNL     1     -31.865   7.963   2.569  1.00 20.00     0.026 A 
HETATM    7  C6  UNL     1     -32.432   9.222   1.947  1.00 20.00     0.010 A 
HETATM    8  C7  UNL     1     -31.875   8.149   1.066  1.00 20.00     0.010 A 
ENDBRANCH   4   6
BRANCH   3   9
HETATM    9  C5  UNL     1     -34.941   5.032   5.775  1.00 20.00     0.277 C 
HETATM   10  O9  UNL     1     -35.072   3.810   5.997  1.00 20.00    -0.301 OA
ENDBRANCH   3   9
TORSDOF 2
ENDMDL
MODEL 6
REMARK VINA RESULT:      -3.9      2.292      3.187
REMARK  2 active torsions:
REMARK  status: ('A' for Active; 'I' for Inactive)
REMARK    1  A    between atoms: C3_3  and  C5_5 
REMARK    2  A    between atoms: C4_4  and  C8_8 
ROOT
HETATM    1  C1  UNL     1     -34.481  16.142  -2.014  1.00 20.00     0.023 A 
HETATM    2  C2  UNL     1     -34.612  16.699  -0.710  1.00 20.00     0.016 A 
HETATM    3  C3  UNL     1     -33.980  17.053  -2.918  1.00 20.00     0.043 A 
HETATM    4  C4  UNL     1     -34.205  18.014  -0.665  1.00 20.00    -0.013 A 
HETATM    5  S10 UNL     1     -33.670  18.572  -2.192  1.00 20.00    -0.091 SA
ENDROOT
BRANCH   4   6
HETATM    6  C8  UNL     1     -34.228  18.881   0.597  1.00 20.00     0.026 A 
HETATM    7  C6  UNL     1     -33.051  18.817   1.547  1.00 20.00     0.010 A 
HETATM    8  C7  UNL     1     -34.356  18.205   1.945  1.00 20.00     0.010 A 
ENDBRANCH   4   6
BRANCH   3   9
HETATM    9  C5  UNL     1     -33.710  16.878  -4.308  1.00 20.00     0.277 C 
HETATM   10  O9  UNL     1     -32.725  16.256  -4.759  1.00 20.00    -0.301 OA
ENDBRANCH   3   9
TORSDOF 2
ENDMDL
MODEL 7
REMARK VINA RESULT:      -3.9      1.744      2.163
REMARK  2 active torsions:
REMARK  status: ('A' for Active; 'I' for Inactive)
REMARK    1  A    between atoms: C3_3  and  C5_5 
REMARK    2  A    between atoms: C4_4  and  C8_8 
ROOT
HETATM    1  C1  UNL     1     -35.550  14.669  -4.814  1.00 20.00     0.023 A 
HETATM    2  C2  UNL     1     -35.648  14.880  -3.409  1.00 20.00     0.016 A 
HETATM    3  C3  UNL     1     -34.546  15.422  -5.382  1.00 20.00     0.043 A 
HETATM    4  C4  UNL     1     -34.714  15.785  -2.956  1.00 20.00    -0.013 A 
HETATM    5  S10 UNL     1     -33.726  16.377  -4.222  1.00 20.00    -0.091 SA
ENDROOT
BRANCH   4   6
HETATM    6  C8  UNL     1     -34.572  16.218  -1.493  1.00 20.00     0.026 A 
HETATM    7  C6  UNL     1     -35.204  17.521  -1.054  1.00 20.00     0.010 A 
HETATM    8  C7  UNL     1     -33.716  17.423  -1.168  1.00 20.00     0.010 A 
ENDBRANCH   4   6
BRANCH   3   9
HETATM    9  C5  UNL     1     -34.140  15.487  -6.749  1.00 20.00     0.277 C 
HETATM   10  O9  UNL     1     -34.594  14.753  -7.652  1.00 20.00    -0.301 OA
ENDBRANCH   3   9
TORSDOF 2
ENDMDL
MODEL 8
REMARK VINA RESULT:      -3.9      1.189      1.592
REMARK  2 active torsions:
REMARK  status: ('A' for Active; 'I' for Inactive)
REMARK    1  A    between atoms: C3_3  and  C5_5 
REMARK    2  A    between atoms: C4_4  and  C8_8 
ROOT
HETATM    1  C1  UNL     1     -36.004  15.139  -3.634  1.00 20.00     0.023 A 
HETATM    2  C2  UNL     1     -35.868  16.146  -2.635  1.00 20.00     0.016 A 
HETATM    3  C3  UNL     1     -34.783  14.660  -4.055  1.00 20.00     0.043 A 
HETATM    4  C4  UNL     1     -34.548  16.398  -2.331  1.00 20.00    -0.013 A 
HETATM    5  S10 UNL     1     -33.480  15.424  -3.248  1.00 20.00    -0.091 SA
ENDROOT
BRANCH   4   6
HETATM    6  C8  UNL     1     -34.084  17.429  -1.298  1.00 20.00     0.026 A 
HETATM    7  C6  UNL     1     -34.593  17.316   0.124  1.00 20.00     0.010 A 
HETATM    8  C7  UNL     1     -35.089  18.422  -0.754  1.00 20.00     0.010 A 
ENDBRANCH   4   6
BRANCH   3   9
HETATM    9  C5  UNL     1     -34.504  13.658  -5.032  1.00 20.00     0.277 C 
HETATM   10  O9  UNL     1     -34.793  12.450  -4.902  1.00 20.00    -0.301 OA
ENDBRANCH   3   9
TORSDOF 2
ENDMDL
MODEL 9
REMARK VINA RESULT:      -3.8     12.092     14.192
REMARK  2 active torsions:
REMARK  status: ('A' for Active; 'I' for Inactive)
REMARK    1  A    between atoms: C3_3  and  C5_5 
REMARK    2  A    between atoms: C4_4  and  C8_8 
ROOT
HETATM    1  C1  UNL     1     -40.838   5.637  -0.911  1.00 20.00     0.023 A 
HETATM    2  C2  UNL     1     -40.850   4.254  -1.250  1.00 20.00     0.016 A 
HETATM    3  C3  UNL     1     -41.808   6.344  -1.588  1.00 20.00     0.043 A 
HETATM    4  C4  UNL     1     -41.829   3.956  -2.173  1.00 20.00    -0.013 A 
HETATM    5  S10 UNL     1     -42.726   5.341  -2.627  1.00 20.00    -0.091 SA
ENDROOT
BRANCH   4   6
HETATM    6  C8  UNL     1     -42.088   2.554  -2.732  1.00 20.00     0.026 A 
HETATM    7  C6  UNL     1     -41.268   2.078  -3.913  1.00 20.00     0.010 A 
HETATM    8  C7  UNL     1     -42.712   2.419  -4.105  1.00 20.00     0.010 A 
ENDBRANCH   4   6
BRANCH   3   9
HETATM    9  C5  UNL     1     -42.109   7.738  -1.522  1.00 20.00     0.277 C 
HETATM   10  O9  UNL     1     -43.001   8.230  -0.798  1.00 20.00    -0.301 OA
ENDBRANCH   3   9
TORSDOF 2
ENDMDL
