MODEL 1
REMARK VINA RESULT:      -5.0      0.000      0.000
REMARK  2 active torsions:
REMARK  status: ('A' for Active; 'I' for Inactive)
REMARK    1  A    between atoms: C4_4  and  C11_11 
REMARK    2  A    between atoms: C10_10  and  C11_11 
ROOT
HETATM    1  C1  UNL     1     -33.509  15.352  -3.380  1.00 20.00     0.008 C 
HETATM    2  C2  UNL     1     -33.333  13.900  -3.826  1.00 20.00     0.035 C 
HETATM    3  C3  UNL     1     -36.034  15.237  -3.434  1.00 20.00     0.040 C 
HETATM    4  C4  UNL     1     -34.800  15.529  -2.566  1.00 20.00    -0.004 C 
HETATM    5  C5  UNL     1     -34.568  13.310  -4.424  1.00 20.00     0.151 A 
HETATM    6  C6  UNL     1     -35.908  13.954  -4.194  1.00 20.00     0.151 A 
HETATM    7  O12 UNL     1     -35.197  14.093  -5.440  1.00 20.00    -0.375 OA
ENDROOT
BRANCH   4   8
HETATM    8  C11 UNL     1     -34.882  16.939  -1.983  1.00 20.00    -0.044 C 
HETATM    9  C8  UNL     1     -33.787  17.814  -2.626  1.00 20.00     0.015 C 
HETATM   10  C9  UNL     1     -36.261  17.542  -2.319  1.00 20.00     0.015 C 
BRANCH   8  11
HETATM   11  C10 UNL     1     -34.681  16.852  -0.443  1.00 20.00     0.004 C 
HETATM   12  C7  UNL     1     -33.951  18.020   0.209  1.00 20.00     0.006 C 
ENDBRANCH   8  11
ENDBRANCH   4   8
TORSDOF 2
ENDMDL
MODEL 2
REMARK VINA RESULT:      -4.9      0.458      1.421
REMARK  2 active torsions:
REMARK  status: ('A' for Active; 'I' for Inactive)
REMARK    1  A    between atoms: C4_4  and  C11_11 
REMARK    2  A    between atoms: C10_10  and  C11_11 
ROOT
HETATM    1  C1  UNL     1     -33.496  15.349  -3.353  1.00 20.00     0.008 C 
HETATM    2  C2  UNL     1     -33.329  13.899  -3.807  1.00 20.00     0.035 C 
HETATM    3  C3  UNL     1     -36.022  15.245  -3.385  1.00 20.00     0.040 C 
HETATM    4  C4  UNL     1     -34.779  15.528  -2.527  1.00 20.00    -0.004 C 
HETATM    5  C5  UNL     1     -34.572  13.317  -4.398  1.00 20.00     0.151 A 
HETATM    6  C6  UNL     1     -35.908  13.965  -4.152  1.00 20.00     0.151 A 
HETATM    7  O12 UNL     1     -35.208  14.107  -5.403  1.00 20.00    -0.375 OA
ENDROOT
BRANCH   4   8
HETATM    8  C11 UNL     1     -34.849  16.935  -1.936  1.00 20.00    -0.044 C 
HETATM    9  C8  UNL     1     -36.221  17.554  -2.274  1.00 20.00     0.015 C 
HETATM   10  C9  UNL     1     -34.711  16.843  -0.402  1.00 20.00     0.015 C 
BRANCH   8  11
HETATM   11  C10 UNL     1     -33.698  17.787  -2.540  1.00 20.00     0.004 C 
HETATM   12  C7  UNL     1     -33.291  19.028  -1.754  1.00 20.00     0.006 C 
ENDBRANCH   8  11
ENDBRANCH   4   8
TORSDOF 2
ENDMDL
MODEL 3
REMARK VINA RESULT:      -4.9      1.143      1.793
REMARK  2 active torsions:
REMARK  status: ('A' for Active; 'I' for Inactive)
REMARK    1  A    between atoms: C4_4  and  C11_11 
REMARK    2  A    between atoms: C10_10  and  C11_11 
ROOT
HETATM    1  C1  UNL     1     -35.873  15.598  -4.623  1.00 20.00     0.008 C 
HETATM    2  C2  UNL     1     -35.655  14.618  -5.776  1.00 20.00     0.035 C 
HETATM    3  C3  UNL     1     -33.900  14.735  -3.297  1.00 20.00     0.040 C 
HETATM    4  C4  UNL     1     -34.541  15.969  -3.951  1.00 20.00    -0.004 C 
HETATM    5  C5  UNL     1     -34.762  13.474  -5.421  1.00 20.00     0.151 A 
HETATM    6  C6  UNL     1     -33.866  13.554  -4.216  1.00 20.00     0.151 A 
HETATM    7  O12 UNL     1     -35.087  12.789  -4.211  1.00 20.00    -0.375 OA
ENDROOT
BRANCH   4   8
HETATM    8  C11 UNL     1     -34.747  17.074  -2.916  1.00 20.00    -0.044 C 
HETATM    9  C8  UNL     1     -34.153  18.389  -3.460  1.00 20.00     0.015 C 
HETATM   10  C9  UNL     1     -36.260  17.270  -2.686  1.00 20.00     0.015 C 
BRANCH   8  11
HETATM   11  C10 UNL     1     -34.040  16.656  -1.596  1.00 20.00     0.004 C 
HETATM   12  C7  UNL     1     -34.773  16.993  -0.302  1.00 20.00     0.006 C 
ENDBRANCH   8  11
ENDBRANCH   4   8
TORSDOF 2
ENDMDL
MODEL 4
REMARK VINA RESULT:      -4.8      2.111      4.633
REMARK  2 active torsions:
REMARK  status: ('A' for Active; 'I' for Inactive)
REMARK    1  A    between atoms: C4_4  and  C11_11 
REMARK    2  A    between atoms: C10_10  and  C11_11 
ROOT
HETATM    1  C1  UNL     1     -34.855  16.023  -1.760  1.00 20.00     0.008 C 
HETATM    2  C2  UNL     1     -34.427  16.959  -0.628  1.00 20.00     0.035 C 
HETATM    3  C3  UNL     1     -33.798  17.448  -3.561  1.00 20.00     0.040 C 
HETATM    4  C4  UNL     1     -33.844  16.054  -2.917  1.00 20.00    -0.004 C 
HETATM    5  C5  UNL     1     -34.020  18.315  -1.103  1.00 20.00     0.151 A 
HETATM    6  C6  UNL     1     -33.670  18.543  -2.549  1.00 20.00     0.151 A 
HETATM    7  O12 UNL     1     -34.933  18.959  -1.992  1.00 20.00    -0.375 OA
ENDROOT
BRANCH   4   8
HETATM    8  C11 UNL     1     -34.188  14.995  -3.962  1.00 20.00    -0.044 C 
HETATM    9  C8  UNL     1     -33.307  13.751  -3.727  1.00 20.00     0.015 C 
HETATM   10  C9  UNL     1     -35.668  14.592  -3.801  1.00 20.00     0.015 C 
BRANCH   8  11
HETATM   11  C10 UNL     1     -33.931  15.590  -5.376  1.00 20.00     0.004 C 
HETATM   12  C7  UNL     1     -34.564  14.847  -6.546  1.00 20.00     0.006 C 
ENDBRANCH   8  11
ENDBRANCH   4   8
TORSDOF 2
ENDMDL
MODEL 5
REMARK VINA RESULT:      -4.8      2.091      4.630
REMARK  2 active torsions:
REMARK  status: ('A' for Active; 'I' for Inactive)
REMARK    1  A    between atoms: C4_4  and  C11_11 
REMARK    2  A    between atoms: C10_10  and  C11_11 
ROOT
HETATM    1  C1  UNL     1     -34.784  16.186  -1.565  1.00 20.00     0.008 C 
HETATM    2  C2  UNL     1     -34.690  17.030  -0.293  1.00 20.00     0.035 C 
HETATM    3  C3  UNL     1     -33.759  17.974  -3.028  1.00 20.00     0.040 C 
HETATM    4  C4  UNL     1     -33.645  16.521  -2.540  1.00 20.00    -0.004 C 
HETATM    5  C5  UNL     1     -34.468  18.483  -0.563  1.00 20.00     0.151 A 
HETATM    6  C6  UNL     1     -33.969  18.941  -1.905  1.00 20.00     0.151 A 
HETATM    7  O12 UNL     1     -35.349  19.076  -1.517  1.00 20.00    -0.375 OA
ENDROOT
BRANCH   4   8
HETATM    8  C11 UNL     1     -33.647  15.559  -3.726  1.00 20.00    -0.044 C 
HETATM    9  C8  UNL     1     -33.396  16.356  -5.021  1.00 20.00     0.015 C 
HETATM   10  C9  UNL     1     -32.507  14.536  -3.543  1.00 20.00     0.015 C 
BRANCH   8  11
HETATM   11  C10 UNL     1     -35.025  14.841  -3.781  1.00 20.00     0.004 C 
HETATM   12  C7  UNL     1     -35.008  13.379  -4.210  1.00 20.00     0.006 C 
ENDBRANCH   8  11
ENDBRANCH   4   8
TORSDOF 2
ENDMDL
MODEL 6
REMARK VINA RESULT:      -4.7      1.257      2.528
REMARK  2 active torsions:
REMARK  status: ('A' for Active; 'I' for Inactive)
REMARK    1  A    between atoms: C4_4  and  C11_11 
REMARK    2  A    between atoms: C10_10  and  C11_11 
ROOT
HETATM    1  C1  UNL     1     -36.000  15.540  -4.558  1.00 20.00     0.008 C 
HETATM    2  C2  UNL     1     -35.717  14.627  -5.752  1.00 20.00     0.035 C 
HETATM    3  C3  UNL     1     -34.011  14.706  -3.238  1.00 20.00     0.040 C 
HETATM    4  C4  UNL     1     -34.698  15.939  -3.845  1.00 20.00    -0.004 C 
HETATM    5  C5  UNL     1     -34.778  13.510  -5.434  1.00 20.00     0.151 A 
HETATM    6  C6  UNL     1     -33.906  13.573  -4.210  1.00 20.00     0.151 A 
HETATM    7  O12 UNL     1     -35.090  12.753  -4.264  1.00 20.00    -0.375 OA
ENDROOT
BRANCH   4   8
HETATM    8  C11 UNL     1     -34.973  16.982  -2.764  1.00 20.00    -0.044 C 
HETATM    9  C8  UNL     1     -36.473  17.339  -2.778  1.00 20.00     0.015 C 
HETATM   10  C9  UNL     1     -34.618  16.383  -1.387  1.00 20.00     0.015 C 
BRANCH   8  11
HETATM   11  C10 UNL     1     -34.107  18.241  -3.055  1.00 20.00     0.004 C 
HETATM   12  C7  UNL     1     -33.638  18.420  -4.494  1.00 20.00     0.006 C 
ENDBRANCH   8  11
ENDBRANCH   4   8
TORSDOF 2
ENDMDL
MODEL 7
REMARK VINA RESULT:      -4.7     11.301     12.247
REMARK  2 active torsions:
REMARK  status: ('A' for Active; 'I' for Inactive)
REMARK    1  A    between atoms: C4_4  and  C11_11 
REMARK    2  A    between atoms: C10_10  and  C11_11 
ROOT
HETATM    1  C1  UNL     1     -33.160   6.436   5.501  1.00 20.00     0.008 C 
HETATM    2  C2  UNL     1     -34.315   6.166   6.467  1.00 20.00     0.035 C 
HETATM    3  C3  UNL     1     -34.303   5.297   3.555  1.00 20.00     0.040 C 
HETATM    4  C4  UNL     1     -33.669   6.602   4.061  1.00 20.00    -0.004 C 
HETATM    5  C5  UNL     1     -35.259   5.115   5.983  1.00 20.00     0.151 A 
HETATM    6  C6  UNL     1     -35.277   4.718   4.532  1.00 20.00     0.151 A 
HETATM    7  O12 UNL     1     -34.656   3.898   5.542  1.00 20.00    -0.375 OA
ENDROOT
BRANCH   4   8
HETATM    8  C11 UNL     1     -32.536   7.038   3.135  1.00 20.00    -0.044 C 
HETATM    9  C8  UNL     1     -31.358   7.552   3.988  1.00 20.00     0.015 C 
HETATM   10  C9  UNL     1     -32.061   5.821   2.315  1.00 20.00     0.015 C 
BRANCH   8  11
HETATM   11  C10 UNL     1     -33.064   8.160   2.196  1.00 20.00     0.004 C 
HETATM   12  C7  UNL     1     -32.048   8.775   1.241  1.00 20.00     0.006 C 
ENDBRANCH   8  11
ENDBRANCH   4   8
TORSDOF 2
ENDMDL
MODEL 8
REMARK VINA RESULT:      -4.6      2.272      3.369
REMARK  2 active torsions:
REMARK  status: ('A' for Active; 'I' for Inactive)
REMARK    1  A    between atoms: C4_4  and  C11_11 
REMARK    2  A    between atoms: C10_10  and  C11_11 
ROOT
HETATM    1  C1  UNL     1     -34.408  15.044  -6.545  1.00 20.00     0.008 C 
HETATM    2  C2  UNL     1     -35.266  14.605  -7.732  1.00 20.00     0.035 C 
HETATM    3  C3  UNL     1     -36.399  15.433  -5.036  1.00 20.00     0.040 C 
HETATM    4  C4  UNL     1     -35.075  14.672  -5.211  1.00 20.00    -0.004 C 
HETATM    5  C5  UNL     1     -36.704  14.984  -7.595  1.00 20.00     0.151 A 
HETATM    6  C6  UNL     1     -37.270  15.353  -6.251  1.00 20.00     0.151 A 
HETATM    7  O12 UNL     1     -36.955  16.346  -7.247  1.00 20.00    -0.375 OA
ENDROOT
BRANCH   4   8
HETATM    8  C11 UNL     1     -34.138  14.958  -4.040  1.00 20.00    -0.044 C 
HETATM    9  C8  UNL     1     -33.328  13.685  -3.722  1.00 20.00     0.015 C 
HETATM   10  C9  UNL     1     -33.161  16.082  -4.442  1.00 20.00     0.015 C 
BRANCH   8  11
HETATM   11  C10 UNL     1     -34.991  15.386  -2.812  1.00 20.00     0.004 C 
HETATM   12  C7  UNL     1     -34.339  16.368  -1.846  1.00 20.00     0.006 C 
ENDBRANCH   8  11
ENDBRANCH   4   8
TORSDOF 2
ENDMDL
MODEL 9
REMARK VINA RESULT:      -4.5      1.371      1.889
REMARK  2 active torsions:
REMARK  status: ('A' for Active; 'I' for Inactive)
REMARK    1  A    between atoms: C4_4  and  C11_11 
REMARK    2  A    between atoms: C10_10  and  C11_11 
ROOT
HETATM    1  C1  UNL     1     -33.798  17.574  -3.646  1.00 20.00     0.008 C 
HETATM    2  C2  UNL     1     -33.295  16.662  -4.766  1.00 20.00     0.035 C 
HETATM    3  C3  UNL     1     -34.781  15.668  -2.309  1.00 20.00     0.040 C 
HETATM    4  C4  UNL     1     -33.795  16.846  -2.293  1.00 20.00    -0.004 C 
HETATM    5  C5  UNL     1     -33.923  15.307  -4.753  1.00 20.00     0.151 A 
HETATM    6  C6  UNL     1     -34.622  14.804  -3.520  1.00 20.00     0.151 A 
HETATM    7  O12 UNL     1     -35.348  15.287  -4.667  1.00 20.00    -0.375 OA
ENDROOT
BRANCH   4   8
HETATM    8  C11 UNL     1     -34.134  17.810  -1.159  1.00 20.00    -0.044 C 
HETATM    9  C8  UNL     1     -32.832  18.445  -0.632  1.00 20.00     0.015 C 
HETATM   10  C9  UNL     1     -35.045  18.928  -1.707  1.00 20.00     0.015 C 
BRANCH   8  11
HETATM   11  C10 UNL     1     -34.855  17.019  -0.031  1.00 20.00     0.004 C 
HETATM   12  C7  UNL     1     -35.232  17.811   1.215  1.00 20.00     0.006 C 
ENDBRANCH   8  11
ENDBRANCH   4   8
TORSDOF 2
ENDMDL
