MODEL 1
REMARK VINA RESULT:      -4.6      0.000      0.000
REMARK  0 active torsions:
REMARK  status: ('A' for Active; 'I' for Inactive)
ROOT
HETATM    1  C1  UNL     1     -41.550   3.588  -2.147  1.00 20.00     0.030 A 
HETATM    2  C2  UNL     1     -42.374   3.061  -3.119  1.00 20.00     0.141 A 
HETATM    3  C3  UNL     1     -41.668   4.940  -1.843  1.00 20.00    -0.030 A 
HETATM    4  C4  UNL     1     -42.633   5.677  -2.527  1.00 20.00     0.063 A 
HETATM    5  C5  UNL     1     -40.820   5.548  -0.759  1.00 20.00     0.041 C 
HETATM    6  C6  UNL     1     -42.815   7.150  -2.287  1.00 20.00     0.062 C 
HETATM    7  C7  UNL     1     -40.810   7.076  -0.788  1.00 20.00     0.005 C 
HETATM    8  C8  UNL     1     -42.224   7.619  -0.959  1.00 20.00     0.006 C 
HETATM    9  N9  UNL     1     -43.289   3.797  -3.779  1.00 20.00    -0.162 NA
HETATM   10  N10 UNL     1     -43.417   5.119  -3.480  1.00 20.00    -0.155 NA
ENDROOT
TORSDOF 0
ENDMDL
MODEL 2
REMARK VINA RESULT:      -4.5     10.317     11.134
REMARK  0 active torsions:
REMARK  status: ('A' for Active; 'I' for Inactive)
ROOT
HETATM    1  C1  UNL     1     -33.753   5.529   2.619  1.00 20.00     0.030 A 
HETATM    2  C2  UNL     1     -32.809   6.451   2.215  1.00 20.00     0.141 A 
HETATM    3  C3  UNL     1     -34.063   5.449   3.972  1.00 20.00    -0.030 A 
HETATM    4  C4  UNL     1     -33.413   6.327   4.838  1.00 20.00     0.063 A 
HETATM    5  C5  UNL     1     -35.117   4.490   4.451  1.00 20.00     0.041 C 
HETATM    6  C6  UNL     1     -33.660   6.296   6.321  1.00 20.00     0.062 C 
HETATM    7  C7  UNL     1     -35.089   4.270   5.963  1.00 20.00     0.005 C 
HETATM    8  C8  UNL     1     -34.968   5.601   6.696  1.00 20.00     0.006 C 
HETATM    9  N9  UNL     1     -32.182   7.278   3.074  1.00 20.00    -0.162 NA
HETATM   10  N10 UNL     1     -32.487   7.212   4.399  1.00 20.00    -0.155 NA
ENDROOT
TORSDOF 0
ENDMDL
MODEL 3
REMARK VINA RESULT:      -4.5      9.877     11.025
REMARK  0 active torsions:
REMARK  status: ('A' for Active; 'I' for Inactive)
ROOT
HETATM    1  C1  UNL     1     -32.503   7.226   4.298  1.00 20.00     0.030 A 
HETATM    2  C2  UNL     1     -32.277   7.198   2.937  1.00 20.00     0.141 A 
HETATM    3  C3  UNL     1     -33.439   6.347   4.831  1.00 20.00    -0.030 A 
HETATM    4  C4  UNL     1     -34.077   5.471   3.955  1.00 20.00     0.063 A 
HETATM    5  C5  UNL     1     -33.685   6.313   6.315  1.00 20.00     0.041 C 
HETATM    6  C6  UNL     1     -35.125   4.504   4.433  1.00 20.00     0.062 C 
HETATM    7  C7  UNL     1     -34.965   5.568   6.695  1.00 20.00     0.005 C 
HETATM    8  C8  UNL     1     -35.062   4.249   5.938  1.00 20.00     0.006 C 
HETATM    9  N9  UNL     1     -32.918   6.352   2.108  1.00 20.00    -0.162 NA
HETATM   10  N10 UNL     1     -33.829   5.482   2.624  1.00 20.00    -0.155 NA
ENDROOT
TORSDOF 0
ENDMDL
MODEL 4
REMARK VINA RESULT:      -4.5     11.812     12.869
REMARK  0 active torsions:
REMARK  status: ('A' for Active; 'I' for Inactive)
ROOT
HETATM    1  C1  UNL     1     -33.769  15.096  -4.058  1.00 20.00     0.030 A 
HETATM    2  C2  UNL     1     -33.914  13.844  -3.497  1.00 20.00     0.141 A 
HETATM    3  C3  UNL     1     -34.290  15.315  -5.329  1.00 20.00    -0.030 A 
HETATM    4  C4  UNL     1     -34.950  14.257  -5.950  1.00 20.00     0.063 A 
HETATM    5  C5  UNL     1     -34.193  16.677  -5.961  1.00 20.00     0.041 C 
HETATM    6  C6  UNL     1     -35.521  14.390  -7.335  1.00 20.00     0.062 C 
HETATM    7  C7  UNL     1     -34.483  16.666  -7.462  1.00 20.00     0.005 C 
HETATM    8  C8  UNL     1     -35.730  15.842  -7.760  1.00 20.00     0.006 C 
HETATM    9  N9  UNL     1     -34.544  12.832  -4.124  1.00 20.00    -0.162 NA
HETATM   10  N10 UNL     1     -35.065  13.042  -5.364  1.00 20.00    -0.155 NA
ENDROOT
TORSDOF 0
ENDMDL
MODEL 5
REMARK VINA RESULT:      -4.4     10.987     12.164
REMARK  0 active torsions:
REMARK  status: ('A' for Active; 'I' for Inactive)
ROOT
HETATM    1  C1  UNL     1     -37.491  16.548  -3.192  1.00 20.00     0.030 A 
HETATM    2  C2  UNL     1     -38.458  15.639  -3.569  1.00 20.00     0.141 A 
HETATM    3  C3  UNL     1     -36.166  16.125  -3.154  1.00 20.00    -0.030 A 
HETATM    4  C4  UNL     1     -35.895  14.809  -3.524  1.00 20.00     0.063 A 
HETATM    5  C5  UNL     1     -35.074  17.094  -2.791  1.00 20.00     0.041 C 
HETATM    6  C6  UNL     1     -34.498  14.254  -3.488  1.00 20.00     0.062 C 
HETATM    7  C7  UNL     1     -33.750  16.409  -2.453  1.00 20.00     0.005 C 
HETATM    8  C8  UNL     1     -33.422  15.338  -3.486  1.00 20.00     0.006 C 
HETATM    9  N9  UNL     1     -38.173  14.367  -3.908  1.00 20.00    -0.162 NA
HETATM   10  N10 UNL     1     -36.878  13.949  -3.883  1.00 20.00    -0.155 NA
ENDROOT
TORSDOF 0
ENDMDL
MODEL 6
REMARK VINA RESULT:      -4.3      1.145      3.012
REMARK  0 active torsions:
REMARK  status: ('A' for Active; 'I' for Inactive)
ROOT
HETATM    1  C1  UNL     1     -42.315   8.130  -2.311  1.00 20.00     0.030 A 
HETATM    2  C2  UNL     1     -43.060   8.199  -3.471  1.00 20.00     0.141 A 
HETATM    3  C3  UNL     1     -41.925   6.876  -1.850  1.00 20.00    -0.030 A 
HETATM    4  C4  UNL     1     -42.295   5.765  -2.606  1.00 20.00     0.063 A 
HETATM    5  C5  UNL     1     -41.076   6.756  -0.615  1.00 20.00     0.041 C 
HETATM    6  C6  UNL     1     -41.945   4.368  -2.173  1.00 20.00     0.062 C 
HETATM    7  C7  UNL     1     -41.033   5.336  -0.050  1.00 20.00     0.005 C 
HETATM    8  C8  UNL     1     -40.799   4.323  -1.164  1.00 20.00     0.006 C 
HETATM    9  N9  UNL     1     -43.417   7.109  -4.175  1.00 20.00    -0.162 NA
HETATM   10  N10 UNL     1     -43.032   5.880  -3.736  1.00 20.00    -0.155 NA
ENDROOT
TORSDOF 0
ENDMDL
MODEL 7
REMARK VINA RESULT:      -4.3     12.615     13.955
REMARK  0 active torsions:
REMARK  status: ('A' for Active; 'I' for Inactive)
ROOT
HETATM    1  C1  UNL     1     -34.832  16.381  -6.900  1.00 20.00     0.030 A 
HETATM    2  C2  UNL     1     -34.307  17.657  -6.867  1.00 20.00     0.141 A 
HETATM    3  C3  UNL     1     -34.507  15.506  -5.869  1.00 20.00    -0.030 A 
HETATM    4  C4  UNL     1     -33.685  15.983  -4.850  1.00 20.00     0.063 A 
HETATM    5  C5  UNL     1     -35.091  14.120  -5.842  1.00 20.00     0.041 C 
HETATM    6  C6  UNL     1     -33.255  15.102  -3.709  1.00 20.00     0.062 C 
HETATM    7  C7  UNL     1     -34.375  13.185  -4.867  1.00 20.00     0.005 C 
HETATM    8  C8  UNL     1     -34.148  13.877  -3.528  1.00 20.00     0.006 C 
HETATM    9  N9  UNL     1     -33.502  18.090  -5.878  1.00 20.00    -0.162 NA
HETATM   10  N10 UNL     1     -33.187  17.242  -4.861  1.00 20.00    -0.155 NA
ENDROOT
TORSDOF 0
ENDMDL
MODEL 8
REMARK VINA RESULT:      -4.3     11.601     12.863
REMARK  0 active torsions:
REMARK  status: ('A' for Active; 'I' for Inactive)
ROOT
HETATM    1  C1  UNL     1     -34.734  14.817  -5.908  1.00 20.00     0.030 A 
HETATM    2  C2  UNL     1     -34.771  13.446  -5.759  1.00 20.00     0.141 A 
HETATM    3  C3  UNL     1     -34.578  15.601  -4.770  1.00 20.00    -0.030 A 
HETATM    4  C4  UNL     1     -34.446  14.948  -3.546  1.00 20.00     0.063 A 
HETATM    5  C5  UNL     1     -34.489  17.098  -4.890  1.00 20.00     0.041 C 
HETATM    6  C6  UNL     1     -34.303  15.711  -2.258  1.00 20.00     0.062 C 
HETATM    7  C7  UNL     1     -34.675  17.821  -3.556  1.00 20.00     0.005 C 
HETATM    8  C8  UNL     1     -33.847  17.154  -2.464  1.00 20.00     0.006 C 
HETATM    9  N9  UNL     1     -34.656  12.838  -4.563  1.00 20.00    -0.162 NA
HETATM   10  N10 UNL     1     -34.495  13.598  -3.446  1.00 20.00    -0.155 NA
ENDROOT
TORSDOF 0
ENDMDL
MODEL 9
REMARK VINA RESULT:      -4.3     11.891     13.172
REMARK  0 active torsions:
REMARK  status: ('A' for Active; 'I' for Inactive)
ROOT
HETATM    1  C1  UNL     1     -34.407  16.588  -6.824  1.00 20.00     0.030 A 
HETATM    2  C2  UNL     1     -35.162  16.114  -7.876  1.00 20.00     0.141 A 
HETATM    3  C3  UNL     1     -34.148  15.732  -5.758  1.00 20.00    -0.030 A 
HETATM    4  C4  UNL     1     -34.653  14.435  -5.832  1.00 20.00     0.063 A 
HETATM    5  C5  UNL     1     -33.292  16.191  -4.610  1.00 20.00     0.041 C 
HETATM    6  C6  UNL     1     -34.450  13.447  -4.717  1.00 20.00     0.062 C 
HETATM    7  C7  UNL     1     -33.395  15.286  -3.383  1.00 20.00     0.005 C 
HETATM    8  C8  UNL     1     -33.296  13.820  -3.788  1.00 20.00     0.006 C 
HETATM    9  N9  UNL     1     -35.652  14.860  -7.918  1.00 20.00    -0.162 NA
HETATM   10  N10 UNL     1     -35.396  14.014  -6.883  1.00 20.00    -0.155 NA
ENDROOT
TORSDOF 0
ENDMDL
