MODEL 1
REMARK VINA RESULT:      -4.4      0.000      0.000
REMARK  0 active torsions:
REMARK  status: ('A' for Active; 'I' for Inactive)
ROOT
HETATM    1  C1  UNL     1     -35.043  13.338  -4.332  1.00 20.00    -0.026 C 
HETATM    2  C2  UNL     1     -33.493  17.429  -4.554  1.00 20.00    -0.027 C 
HETATM    3  C3  UNL     1     -36.069  14.114  -3.970  1.00 20.00    -0.001 C 
HETATM    4  C4  UNL     1     -33.136  16.139  -4.640  1.00 20.00     0.005 C 
HETATM    5  C5  UNL     1     -34.208  17.981  -3.355  1.00 20.00     0.057 C 
HETATM    6  C6  UNL     1     -33.626  13.708  -4.025  1.00 20.00     0.066 C 
HETATM    7  C7  UNL     1     -35.877  15.402  -3.230  1.00 20.00     0.300 C 
HETATM    8  C8  UNL     1     -34.330  16.973  -2.198  1.00 20.00     0.277 C 
HETATM    9  C9  UNL     1     -33.432  15.159  -3.526  1.00 20.00     0.249 C 
HETATM   10  N10 UNL     1     -34.539  15.583  -2.639  1.00 20.00     0.100 N 
ENDROOT
TORSDOF 0
ENDMDL
MODEL 2
REMARK VINA RESULT:      -4.4     11.529     13.696
REMARK  0 active torsions:
REMARK  status: ('A' for Active; 'I' for Inactive)
ROOT
HETATM    1  C1  UNL     1     -41.172   7.350  -0.797  1.00 20.00    -0.026 C 
HETATM    2  C2  UNL     1     -43.417   3.642  -0.175  1.00 20.00    -0.027 C 
HETATM    3  C3  UNL     1     -41.947   7.233  -1.880  1.00 20.00    -0.001 C 
HETATM    4  C4  UNL     1     -42.426   4.394   0.325  1.00 20.00     0.005 C 
HETATM    5  C5  UNL     1     -43.416   3.164  -1.598  1.00 20.00     0.057 C 
HETATM    6  C6  UNL     1     -40.622   6.155  -0.086  1.00 20.00     0.066 C 
HETATM    7  C7  UNL     1     -42.314   5.901  -2.461  1.00 20.00     0.300 C 
HETATM    8  C8  UNL     1     -42.108   3.478  -2.348  1.00 20.00     0.277 C 
HETATM    9  C9  UNL     1     -41.240   4.806  -0.519  1.00 20.00     0.249 C 
HETATM   10  N10 UNL     1     -41.505   4.769  -1.975  1.00 20.00     0.100 N 
ENDROOT
TORSDOF 0
ENDMDL
MODEL 3
REMARK VINA RESULT:      -4.3      1.848      3.670
REMARK  0 active torsions:
REMARK  status: ('A' for Active; 'I' for Inactive)
ROOT
HETATM    1  C1  UNL     1     -32.956  15.039  -3.642  1.00 20.00    -0.026 C 
HETATM    2  C2  UNL     1     -37.154  14.927  -4.888  1.00 20.00    -0.027 C 
HETATM    3  C3  UNL     1     -33.076  16.026  -4.537  1.00 20.00    -0.001 C 
HETATM    4  C4  UNL     1     -36.231  14.278  -4.163  1.00 20.00     0.005 C 
HETATM    5  C5  UNL     1     -36.944  15.256  -6.338  1.00 20.00     0.057 C 
HETATM    6  C6  UNL     1     -33.761  13.782  -3.741  1.00 20.00     0.066 C 
HETATM    7  C7  UNL     1     -34.015  15.941  -5.701  1.00 20.00     0.300 C 
HETATM    8  C8  UNL     1     -35.663  14.634  -6.926  1.00 20.00     0.277 C 
HETATM    9  C9  UNL     1     -34.916  13.835  -4.767  1.00 20.00     0.249 C 
HETATM   10  N10 UNL     1     -34.535  14.590  -5.980  1.00 20.00     0.100 N 
ENDROOT
TORSDOF 0
ENDMDL
MODEL 4
REMARK VINA RESULT:      -4.3      2.064      3.261
REMARK  0 active torsions:
REMARK  status: ('A' for Active; 'I' for Inactive)
ROOT
HETATM    1  C1  UNL     1     -32.970  14.689  -3.653  1.00 20.00    -0.026 C 
HETATM    2  C2  UNL     1     -34.790  15.199  -7.604  1.00 20.00    -0.027 C 
HETATM    3  C3  UNL     1     -33.795  13.646  -3.788  1.00 20.00    -0.001 C 
HETATM    4  C4  UNL     1     -33.996  15.794  -6.703  1.00 20.00     0.005 C 
HETATM    5  C5  UNL     1     -36.168  14.713  -7.256  1.00 20.00     0.057 C 
HETATM    6  C6  UNL     1     -33.273  16.021  -4.263  1.00 20.00     0.066 C 
HETATM    7  C7  UNL     1     -35.081  13.737  -4.551  1.00 20.00     0.300 C 
HETATM    8  C8  UNL     1     -36.618  15.117  -5.840  1.00 20.00     0.277 C 
HETATM    9  C9  UNL     1     -34.443  16.015  -5.275  1.00 20.00     0.249 C 
HETATM   10  N10 UNL     1     -35.531  15.109  -4.846  1.00 20.00     0.100 N 
ENDROOT
TORSDOF 0
ENDMDL
MODEL 5
REMARK VINA RESULT:      -4.3      0.694      3.681
REMARK  0 active torsions:
REMARK  status: ('A' for Active; 'I' for Inactive)
ROOT
HETATM    1  C1  UNL     1     -34.244  18.013  -3.447  1.00 20.00    -0.026 C 
HETATM    2  C2  UNL     1     -35.856  14.010  -4.197  1.00 20.00    -0.027 C 
HETATM    3  C3  UNL     1     -33.551  17.555  -4.494  1.00 20.00    -0.001 C 
HETATM    4  C4  UNL     1     -35.899  15.042  -3.342  1.00 20.00     0.005 C 
HETATM    5  C5  UNL     1     -34.566  13.341  -4.575  1.00 20.00     0.057 C 
HETATM    6  C6  UNL     1     -34.743  17.103  -2.370  1.00 20.00     0.066 C 
HETATM    7  C7  UNL     1     -33.220  16.103  -4.661  1.00 20.00     0.300 C 
HETATM    8  C8  UNL     1     -33.356  13.844  -3.766  1.00 20.00     0.277 C 
HETATM    9  C9  UNL     1     -34.645  15.596  -2.703  1.00 20.00     0.249 C 
HETATM   10  N10 UNL     1     -33.407  15.282  -3.452  1.00 20.00     0.100 N 
ENDROOT
TORSDOF 0
ENDMDL
MODEL 6
REMARK VINA RESULT:      -4.3      0.888      2.394
REMARK  0 active torsions:
REMARK  status: ('A' for Active; 'I' for Inactive)
ROOT
HETATM    1  C1  UNL     1     -34.855  13.375  -4.111  1.00 20.00    -0.026 C 
HETATM    2  C2  UNL     1     -34.800  16.783  -1.360  1.00 20.00    -0.027 C 
HETATM    3  C3  UNL     1     -33.560  13.667  -3.953  1.00 20.00    -0.001 C 
HETATM    4  C4  UNL     1     -35.614  15.994  -2.076  1.00 20.00     0.005 C 
HETATM    5  C5  UNL     1     -33.659  17.531  -1.988  1.00 20.00     0.057 C 
HETATM    6  C6  UNL     1     -35.913  14.431  -4.075  1.00 20.00     0.066 C 
HETATM    7  C7  UNL     1     -33.077  15.069  -3.735  1.00 20.00     0.300 C 
HETATM    8  C8  UNL     1     -33.633  17.429  -3.524  1.00 20.00     0.277 C 
HETATM    9  C9  UNL     1     -35.432  15.810  -3.567  1.00 20.00     0.249 C 
HETATM   10  N10 UNL     1     -34.065  16.119  -4.041  1.00 20.00     0.100 N 
ENDROOT
TORSDOF 0
ENDMDL
MODEL 7
REMARK VINA RESULT:      -4.2      1.504      3.246
REMARK  0 active torsions:
REMARK  status: ('A' for Active; 'I' for Inactive)
ROOT
HETATM    1  C1  UNL     1     -35.070  16.643  -1.973  1.00 20.00    -0.026 C 
HETATM    2  C2  UNL     1     -34.536  13.286  -4.734  1.00 20.00    -0.027 C 
HETATM    3  C3  UNL     1     -36.082  16.748  -2.840  1.00 20.00    -0.001 C 
HETATM    4  C4  UNL     1     -33.961  13.938  -3.714  1.00 20.00     0.005 C 
HETATM    5  C5  UNL     1     -34.964  13.987  -5.991  1.00 20.00     0.057 C 
HETATM    6  C6  UNL     1     -33.734  16.104  -2.377  1.00 20.00     0.066 C 
HETATM    7  C7  UNL     1     -35.950  16.341  -4.276  1.00 20.00     0.300 C 
HETATM    8  C8  UNL     1     -34.527  15.463  -6.045  1.00 20.00     0.277 C 
HETATM    9  C9  UNL     1     -33.707  15.429  -3.768  1.00 20.00     0.249 C 
HETATM   10  N10 UNL     1     -34.565  16.143  -4.739  1.00 20.00     0.100 N 
ENDROOT
TORSDOF 0
ENDMDL
MODEL 8
REMARK VINA RESULT:      -4.2      2.082      3.264
REMARK  0 active torsions:
REMARK  status: ('A' for Active; 'I' for Inactive)
ROOT
HETATM    1  C1  UNL     1     -34.729  15.481  -7.679  1.00 20.00    -0.026 C 
HETATM    2  C2  UNL     1     -33.937  13.924  -3.662  1.00 20.00    -0.027 C 
HETATM    3  C3  UNL     1     -34.377  16.551  -6.959  1.00 20.00    -0.001 C 
HETATM    4  C4  UNL     1     -34.403  13.585  -4.872  1.00 20.00     0.005 C 
HETATM    5  C5  UNL     1     -34.501  15.077  -2.883  1.00 20.00     0.057 C 
HETATM    6  C6  UNL     1     -35.466  14.329  -7.073  1.00 20.00     0.066 C 
HETATM    7  C7  UNL     1     -34.702  16.677  -5.501  1.00 20.00     0.300 C 
HETATM    8  C8  UNL     1     -35.751  15.700  -3.534  1.00 20.00     0.277 C 
HETATM    9  C9  UNL     1     -35.534  14.347  -5.529  1.00 20.00     0.249 C 
HETATM   10  N10 UNL     1     -35.708  15.720  -5.006  1.00 20.00     0.100 N 
ENDROOT
TORSDOF 0
ENDMDL
MODEL 9
REMARK VINA RESULT:      -4.1      2.153      3.376
REMARK  0 active torsions:
REMARK  status: ('A' for Active; 'I' for Inactive)
ROOT
HETATM    1  C1  UNL     1     -36.351  14.895  -7.228  1.00 20.00    -0.026 C 
HETATM    2  C2  UNL     1     -34.144  13.820  -3.602  1.00 20.00    -0.027 C 
HETATM    3  C3  UNL     1     -35.063  14.993  -7.570  1.00 20.00    -0.001 C 
HETATM    4  C4  UNL     1     -35.373  14.065  -4.077  1.00 20.00     0.005 C 
HETATM    5  C5  UNL     1     -33.019  14.804  -3.751  1.00 20.00     0.057 C 
HETATM    6  C6  UNL     1     -36.828  15.201  -5.844  1.00 20.00     0.066 C 
HETATM    7  C7  UNL     1     -34.007  15.420  -6.596  1.00 20.00     0.300 C 
HETATM    8  C8  UNL     1     -33.464  16.155  -4.340  1.00 20.00     0.277 C 
HETATM    9  C9  UNL     1     -35.703  15.356  -4.795  1.00 20.00     0.249 C 
HETATM   10  N10 UNL     1     -34.519  16.041  -5.361  1.00 20.00     0.100 N 
ENDROOT
TORSDOF 0
ENDMDL
