MODEL 1
REMARK VINA RESULT:      -4.2      0.000      0.000
REMARK  0 active torsions:
REMARK  status: ('A' for Active; 'I' for Inactive)
ROOT
HETATM    1  C1  UNL     1     -33.003  14.821  -3.540  1.00 20.00    -0.027 C 
HETATM    2  C2  UNL     1     -35.083  16.724  -7.706  1.00 20.00    -0.027 C 
HETATM    3  C3  UNL     1     -33.617  13.661  -3.795  1.00 20.00    -0.001 C 
HETATM    4  C4  UNL     1     -35.676  15.544  -7.918  1.00 20.00    -0.001 C 
HETATM    5  C5  UNL     1     -33.189  16.017  -4.420  1.00 20.00     0.063 C 
HETATM    6  C6  UNL     1     -34.229  16.969  -6.501  1.00 20.00     0.063 C 
HETATM    7  C7  UNL     1     -34.520  13.478  -4.978  1.00 20.00     0.300 C 
HETATM    8  C8  UNL     1     -35.516  14.389  -6.975  1.00 20.00     0.300 C 
HETATM    9  C9  UNL     1     -34.369  15.881  -5.411  1.00 20.00     0.230 C 
HETATM   10  N10 UNL     1     -34.413  14.532  -6.006  1.00 20.00     0.100 N 
ENDROOT
TORSDOF 0
ENDMDL
MODEL 2
REMARK VINA RESULT:      -4.2     12.303     14.269
REMARK  0 active torsions:
REMARK  status: ('A' for Active; 'I' for Inactive)
ROOT
HETATM    1  C1  UNL     1     -32.550   6.435   2.172  1.00 20.00    -0.027 C 
HETATM    2  C2  UNL     1     -35.303   4.489   5.905  1.00 20.00    -0.027 C 
HETATM    3  C3  UNL     1     -32.076   7.344   3.030  1.00 20.00    -0.001 C 
HETATM    4  C4  UNL     1     -34.800   5.418   6.726  1.00 20.00    -0.001 C 
HETATM    5  C5  UNL     1     -33.564   5.416   2.589  1.00 20.00     0.063 C 
HETATM    6  C6  UNL     1     -34.940   4.444   4.454  1.00 20.00     0.063 C 
HETATM    7  C7  UNL     1     -32.517   7.396   4.462  1.00 20.00     0.300 C 
HETATM    8  C8  UNL     1     -33.836   6.464   6.252  1.00 20.00     0.300 C 
HETATM    9  C9  UNL     1     -34.224   5.720   3.954  1.00 20.00     0.230 C 
HETATM   10  N10 UNL     1     -33.230   6.193   4.934  1.00 20.00     0.100 N 
ENDROOT
TORSDOF 0
ENDMDL
MODEL 3
REMARK VINA RESULT:      -4.2      1.948      3.354
REMARK  0 active torsions:
REMARK  status: ('A' for Active; 'I' for Inactive)
ROOT
HETATM    1  C1  UNL     1     -34.112  17.305  -1.728  1.00 20.00    -0.027 C 
HETATM    2  C2  UNL     1     -34.832  13.718  -5.180  1.00 20.00    -0.027 C 
HETATM    3  C3  UNL     1     -33.790  18.151  -2.712  1.00 20.00    -0.001 C 
HETATM    4  C4  UNL     1     -34.503  14.601  -6.129  1.00 20.00    -0.001 C 
HETATM    5  C5  UNL     1     -34.452  15.874  -2.004  1.00 20.00     0.063 C 
HETATM    6  C6  UNL     1     -34.810  14.080  -3.728  1.00 20.00     0.063 C 
HETATM    7  C7  UNL     1     -33.758  17.728  -4.150  1.00 20.00     0.300 C 
HETATM    8  C8  UNL     1     -34.103  16.010  -5.805  1.00 20.00     0.300 C 
HETATM    9  C9  UNL     1     -34.081  15.412  -3.433  1.00 20.00     0.230 C 
HETATM   10  N10 UNL     1     -34.425  16.441  -4.431  1.00 20.00     0.100 N 
ENDROOT
TORSDOF 0
ENDMDL
MODEL 4
REMARK VINA RESULT:      -4.2      1.097      3.871
REMARK  0 active torsions:
REMARK  status: ('A' for Active; 'I' for Inactive)
ROOT
HETATM    1  C1  UNL     1     -34.415  17.743  -7.070  1.00 20.00    -0.027 C 
HETATM    2  C2  UNL     1     -34.458  13.275  -4.758  1.00 20.00    -0.027 C 
HETATM    3  C3  UNL     1     -33.767  18.252  -6.017  1.00 20.00    -0.001 C 
HETATM    4  C4  UNL     1     -33.810  13.831  -3.728  1.00 20.00    -0.001 C 
HETATM    5  C5  UNL     1     -34.851  16.312  -7.105  1.00 20.00     0.063 C 
HETATM    6  C6  UNL     1     -34.874  14.079  -5.950  1.00 20.00     0.063 C 
HETATM    7  C7  UNL     1     -33.429  17.427  -4.812  1.00 20.00     0.300 C 
HETATM    8  C8  UNL     1     -33.449  15.286  -3.703  1.00 20.00     0.300 C 
HETATM    9  C9  UNL     1     -34.782  15.608  -5.730  1.00 20.00     0.230 C 
HETATM   10  N10 UNL     1     -33.548  15.969  -5.008  1.00 20.00     0.100 N 
ENDROOT
TORSDOF 0
ENDMDL
MODEL 5
REMARK VINA RESULT:      -4.2      1.977      3.952
REMARK  0 active torsions:
REMARK  status: ('A' for Active; 'I' for Inactive)
ROOT
HETATM    1  C1  UNL     1     -34.835  13.709  -5.240  1.00 20.00    -0.027 C 
HETATM    2  C2  UNL     1     -34.056  17.240  -1.744  1.00 20.00    -0.027 C 
HETATM    3  C3  UNL     1     -34.516  14.605  -6.180  1.00 20.00    -0.001 C 
HETATM    4  C4  UNL     1     -33.745  18.101  -2.720  1.00 20.00    -0.001 C 
HETATM    5  C5  UNL     1     -34.868  14.072  -3.789  1.00 20.00     0.063 C 
HETATM    6  C6  UNL     1     -34.480  15.836  -2.041  1.00 20.00     0.063 C 
HETATM    7  C7  UNL     1     -34.162  16.023  -5.843  1.00 20.00     0.300 C 
HETATM    8  C8  UNL     1     -33.788  17.716  -4.168  1.00 20.00     0.300 C 
HETATM    9  C9  UNL     1     -34.829  15.596  -3.529  1.00 20.00     0.230 C 
HETATM   10  N10 UNL     1     -33.861  16.263  -4.418  1.00 20.00     0.100 N 
ENDROOT
TORSDOF 0
ENDMDL
MODEL 6
REMARK VINA RESULT:      -4.2      1.104      2.440
REMARK  0 active torsions:
REMARK  status: ('A' for Active; 'I' for Inactive)
ROOT
HETATM    1  C1  UNL     1     -34.559  13.257  -4.757  1.00 20.00    -0.027 C 
HETATM    2  C2  UNL     1     -34.604  17.655  -7.198  1.00 20.00    -0.027 C 
HETATM    3  C3  UNL     1     -33.822  13.827  -3.798  1.00 20.00    -0.001 C 
HETATM    4  C4  UNL     1     -33.866  18.180  -6.214  1.00 20.00    -0.001 C 
HETATM    5  C5  UNL     1     -34.984  14.017  -5.975  1.00 20.00     0.063 C 
HETATM    6  C6  UNL     1     -35.006  16.213  -7.196  1.00 20.00     0.063 C 
HETATM    7  C7  UNL     1     -33.383  15.259  -3.872  1.00 20.00     0.300 C 
HETATM    8  C8  UNL     1     -33.404  17.366  -5.041  1.00 20.00     0.300 C 
HETATM    9  C9  UNL     1     -34.237  15.357  -6.162  1.00 20.00     0.230 C 
HETATM   10  N10 UNL     1     -34.092  16.071  -4.880  1.00 20.00     0.100 N 
ENDROOT
TORSDOF 0
ENDMDL
MODEL 7
REMARK VINA RESULT:      -4.2      0.994      3.442
REMARK  0 active torsions:
REMARK  status: ('A' for Active; 'I' for Inactive)
ROOT
HETATM    1  C1  UNL     1     -33.827  18.203  -6.130  1.00 20.00    -0.027 C 
HETATM    2  C2  UNL     1     -34.039  13.854  -3.612  1.00 20.00    -0.027 C 
HETATM    3  C3  UNL     1     -34.434  17.606  -7.161  1.00 20.00    -0.001 C 
HETATM    4  C4  UNL     1     -34.644  13.301  -4.669  1.00 20.00    -0.001 C 
HETATM    5  C5  UNL     1     -33.478  17.452  -4.883  1.00 20.00     0.063 C 
HETATM    6  C6  UNL     1     -33.582  15.279  -3.625  1.00 20.00     0.063 C 
HETATM    7  C7  UNL     1     -34.814  16.156  -7.133  1.00 20.00     0.300 C 
HETATM    8  C8  UNL     1     -34.917  14.072  -5.926  1.00 20.00     0.300 C 
HETATM    9  C9  UNL     1     -33.581  15.917  -5.034  1.00 20.00     0.230 C 
HETATM   10  N10 UNL     1     -34.785  15.535  -5.794  1.00 20.00     0.100 N 
ENDROOT
TORSDOF 0
ENDMDL
MODEL 8
REMARK VINA RESULT:      -4.1      1.083      2.043
REMARK  0 active torsions:
REMARK  status: ('A' for Active; 'I' for Inactive)
ROOT
HETATM    1  C1  UNL     1     -34.372  13.654  -3.633  1.00 20.00    -0.027 C 
HETATM    2  C2  UNL     1     -33.673  18.287  -5.463  1.00 20.00    -0.027 C 
HETATM    3  C3  UNL     1     -34.777  13.263  -4.847  1.00 20.00    -0.001 C 
HETATM    4  C4  UNL     1     -34.085  17.849  -6.658  1.00 20.00    -0.001 C 
HETATM    5  C5  UNL     1     -33.987  15.072  -3.354  1.00 20.00     0.063 C 
HETATM    6  C6  UNL     1     -33.639  17.388  -4.267  1.00 20.00     0.063 C 
HETATM    7  C7  UNL     1     -34.862  14.213  -6.004  1.00 20.00     0.300 C 
HETATM    8  C8  UNL     1     -34.527  16.433  -6.881  1.00 20.00     0.300 C 
HETATM    9  C9  UNL     1     -34.408  16.061  -4.466  1.00 20.00     0.230 C 
HETATM   10  N10 UNL     1     -34.157  15.495  -5.804  1.00 20.00     0.100 N 
ENDROOT
TORSDOF 0
ENDMDL
MODEL 9
REMARK VINA RESULT:      -4.1      1.562      3.493
REMARK  0 active torsions:
REMARK  status: ('A' for Active; 'I' for Inactive)
ROOT
HETATM    1  C1  UNL     1     -34.494  15.200  -7.188  1.00 20.00    -0.027 C 
HETATM    2  C2  UNL     1     -33.879  17.199  -2.613  1.00 20.00    -0.027 C 
HETATM    3  C3  UNL     1     -35.042  14.123  -6.615  1.00 20.00    -0.001 C 
HETATM    4  C4  UNL     1     -34.433  16.101  -2.087  1.00 20.00    -0.001 C 
HETATM    5  C5  UNL     1     -33.972  16.341  -6.373  1.00 20.00     0.063 C 
HETATM    6  C6  UNL     1     -33.663  17.340  -4.087  1.00 20.00     0.063 C 
HETATM    7  C7  UNL     1     -35.178  13.992  -5.128  1.00 20.00     0.300 C 
HETATM    8  C8  UNL     1     -34.884  14.949  -2.935  1.00 20.00     0.300 C 
HETATM    9  C9  UNL     1     -33.829  16.015  -4.868  1.00 20.00     0.230 C 
HETATM   10  N10 UNL     1     -34.988  15.248  -4.377  1.00 20.00     0.100 N 
ENDROOT
TORSDOF 0
ENDMDL
