MODEL 1
REMARK VINA RESULT:      -4.5      0.000      0.000
REMARK  0 active torsions:
REMARK  status: ('A' for Active; 'I' for Inactive)
ROOT
HETATM    1  C1  UNL     1     -34.310  13.785  -4.343  1.00 20.00     0.066 C 
HETATM    2  C2  UNL     1     -35.082  17.157  -1.693  1.00 20.00     0.032 C 
HETATM    3  C3  UNL     1     -34.891  15.749  -2.219  1.00 20.00     0.039 C 
HETATM    4  C4  UNL     1     -34.137  16.031  -5.410  1.00 20.00     0.051 C 
HETATM    5  C5  UNL     1     -34.720  17.990  -2.907  1.00 20.00     0.273 C 
HETATM    6  C6  UNL     1     -33.546  17.354  -4.951  1.00 20.00     0.274 C 
HETATM    7  C7  UNL     1     -33.589  15.058  -4.379  1.00 20.00     0.128 C 
HETATM    8  C8  UNL     1     -33.633  15.868  -3.082  1.00 20.00     0.240 C 
HETATM    9  N9  UNL     1     -34.881  12.775  -4.315  1.00 20.00    -0.197 NA
HETATM   10  N10 UNL     1     -33.555  17.300  -3.482  1.00 20.00     0.094 N 
ENDROOT
TORSDOF 0
ENDMDL
MODEL 2
REMARK VINA RESULT:      -4.3      2.109      2.985
REMARK  0 active torsions:
REMARK  status: ('A' for Active; 'I' for Inactive)
ROOT
HETATM    1  C1  UNL     1     -37.425  14.875  -4.218  1.00 20.00     0.066 C 
HETATM    2  C2  UNL     1     -33.262  13.692  -3.716  1.00 20.00     0.032 C 
HETATM    3  C3  UNL     1     -34.762  13.641  -3.922  1.00 20.00     0.039 C 
HETATM    4  C4  UNL     1     -35.815  16.758  -3.950  1.00 20.00     0.051 C 
HETATM    5  C5  UNL     1     -33.000  15.185  -3.732  1.00 20.00     0.273 C 
HETATM    6  C6  UNL     1     -34.421  17.017  -4.498  1.00 20.00     0.274 C 
HETATM    7  C7  UNL     1     -36.281  15.582  -4.793  1.00 20.00     0.128 C 
HETATM    8  C8  UNL     1     -35.010  14.746  -4.950  1.00 20.00     0.240 C 
HETATM    9  N9  UNL     1     -38.334  14.314  -3.763  1.00 20.00    -0.197 NA
HETATM   10  N10 UNL     1     -33.867  15.691  -4.807  1.00 20.00     0.094 N 
ENDROOT
TORSDOF 0
ENDMDL
MODEL 3
REMARK VINA RESULT:      -4.2      1.105      2.571
REMARK  0 active torsions:
REMARK  status: ('A' for Active; 'I' for Inactive)
ROOT
HETATM    1  C1  UNL     1     -34.908  13.740  -4.172  1.00 20.00     0.066 C 
HETATM    2  C2  UNL     1     -34.211  17.342  -6.524  1.00 20.00     0.032 C 
HETATM    3  C3  UNL     1     -34.667  15.960  -6.100  1.00 20.00     0.039 C 
HETATM    4  C4  UNL     1     -33.678  15.557  -2.988  1.00 20.00     0.051 C 
HETATM    5  C5  UNL     1     -33.612  17.875  -5.238  1.00 20.00     0.273 C 
HETATM    6  C6  UNL     1     -33.847  17.066  -2.946  1.00 20.00     0.274 C 
HETATM    7  C7  UNL     1     -34.971  15.106  -3.649  1.00 20.00     0.128 C 
HETATM    8  C8  UNL     1     -35.222  16.193  -4.694  1.00 20.00     0.240 C 
HETATM    9  N9  UNL     1     -34.859  12.658  -4.587  1.00 20.00    -0.197 NA
HETATM   10  N10 UNL     1     -34.541  17.420  -4.193  1.00 20.00     0.094 N 
ENDROOT
TORSDOF 0
ENDMDL
MODEL 4
REMARK VINA RESULT:      -4.2      1.707      2.201
REMARK  0 active torsions:
REMARK  status: ('A' for Active; 'I' for Inactive)
ROOT
HETATM    1  C1  UNL     1     -35.262  13.733  -4.542  1.00 20.00     0.066 C 
HETATM    2  C2  UNL     1     -33.989  16.822  -1.744  1.00 20.00     0.032 C 
HETATM    3  C3  UNL     1     -33.972  15.673  -2.732  1.00 20.00     0.039 C 
HETATM    4  C4  UNL     1     -37.099  15.131  -3.600  1.00 20.00     0.051 C 
HETATM    5  C5  UNL     1     -35.456  17.204  -1.743  1.00 20.00     0.273 C 
HETATM    6  C6  UNL     1     -37.229  16.618  -3.317  1.00 20.00     0.274 C 
HETATM    7  C7  UNL     1     -35.843  15.073  -4.455  1.00 20.00     0.128 C 
HETATM    8  C8  UNL     1     -34.944  16.134  -3.819  1.00 20.00     0.240 C 
HETATM    9  N9  UNL     1     -34.801  12.670  -4.611  1.00 20.00    -0.197 NA
HETATM   10  N10 UNL     1     -35.853  17.110  -3.156  1.00 20.00     0.094 N 
ENDROOT
TORSDOF 0
ENDMDL
MODEL 5
REMARK VINA RESULT:      -4.2      1.809      1.882
REMARK  0 active torsions:
REMARK  status: ('A' for Active; 'I' for Inactive)
ROOT
HETATM    1  C1  UNL     1     -36.995  14.546  -4.078  1.00 20.00     0.066 C 
HETATM    2  C2  UNL     1     -33.986  16.809  -1.886  1.00 20.00     0.032 C 
HETATM    3  C3  UNL     1     -35.112  15.853  -2.221  1.00 20.00     0.039 C 
HETATM    4  C4  UNL     1     -35.599  16.074  -5.468  1.00 20.00     0.051 C 
HETATM    5  C5  UNL     1     -33.588  17.309  -3.261  1.00 20.00     0.273 C 
HETATM    6  C6  UNL     1     -34.117  16.410  -5.469  1.00 20.00     0.274 C 
HETATM    7  C7  UNL     1     -35.651  14.846  -4.573  1.00 20.00     0.128 C 
HETATM    8  C8  UNL     1     -34.615  15.163  -3.493  1.00 20.00     0.240 C 
HETATM    9  N9  UNL     1     -38.061  14.308  -3.687  1.00 20.00    -0.197 NA
HETATM   10  N10 UNL     1     -33.645  16.109  -4.109  1.00 20.00     0.094 N 
ENDROOT
TORSDOF 0
ENDMDL
MODEL 6
REMARK VINA RESULT:      -4.1      1.788      2.892
REMARK  0 active torsions:
REMARK  status: ('A' for Active; 'I' for Inactive)
ROOT
HETATM    1  C1  UNL     1     -36.857  14.742  -3.570  1.00 20.00     0.066 C 
HETATM    2  C2  UNL     1     -34.474  17.440  -6.025  1.00 20.00     0.032 C 
HETATM    3  C3  UNL     1     -35.644  16.782  -5.322  1.00 20.00     0.039 C 
HETATM    4  C4  UNL     1     -34.409  14.270  -3.592  1.00 20.00     0.051 C 
HETATM    5  C5  UNL     1     -33.303  16.649  -5.479  1.00 20.00     0.273 C 
HETATM    6  C6  UNL     1     -33.181  15.163  -3.545  1.00 20.00     0.274 C 
HETATM    7  C7  UNL     1     -35.524  15.234  -3.219  1.00 20.00     0.128 C 
HETATM    8  C8  UNL     1     -35.105  16.531  -3.912  1.00 20.00     0.240 C 
HETATM    9  N9  UNL     1     -37.914  14.352  -3.847  1.00 20.00    -0.197 NA
HETATM   10  N10 UNL     1     -33.624  16.469  -4.055  1.00 20.00     0.094 N 
ENDROOT
TORSDOF 0
ENDMDL
MODEL 7
REMARK VINA RESULT:      -4.0      1.213      3.921
REMARK  0 active torsions:
REMARK  status: ('A' for Active; 'I' for Inactive)
ROOT
HETATM    1  C1  UNL     1     -33.770  17.251  -2.695  1.00 20.00     0.066 C 
HETATM    2  C2  UNL     1     -34.116  15.761  -6.775  1.00 20.00     0.032 C 
HETATM    3  C3  UNL     1     -33.736  16.600  -5.572  1.00 20.00     0.039 C 
HETATM    4  C4  UNL     1     -35.116  15.168  -2.951  1.00 20.00     0.051 C 
HETATM    5  C5  UNL     1     -34.866  14.615  -6.125  1.00 20.00     0.273 C 
HETATM    6  C6  UNL     1     -34.935  13.913  -3.787  1.00 20.00     0.274 C 
HETATM    7  C7  UNL     1     -33.756  15.837  -3.072  1.00 20.00     0.128 C 
HETATM    8  C8  UNL     1     -33.361  15.553  -4.522  1.00 20.00     0.240 C 
HETATM    9  N9  UNL     1     -33.780  18.372  -2.395  1.00 20.00    -0.197 NA
HETATM   10  N10 UNL     1     -34.083  14.312  -4.917  1.00 20.00     0.094 N 
ENDROOT
TORSDOF 0
ENDMDL
MODEL 8
REMARK VINA RESULT:      -4.0      2.412      3.119
REMARK  0 active torsions:
REMARK  status: ('A' for Active; 'I' for Inactive)
ROOT
HETATM    1  C1  UNL     1     -34.901  13.527  -5.253  1.00 20.00     0.066 C 
HETATM    2  C2  UNL     1     -33.544  17.661  -5.488  1.00 20.00     0.032 C 
HETATM    3  C3  UNL     1     -33.614  16.181  -5.173  1.00 20.00     0.039 C 
HETATM    4  C4  UNL     1     -36.406  15.066  -6.510  1.00 20.00     0.051 C 
HETATM    5  C5  UNL     1     -34.769  17.847  -6.361  1.00 20.00     0.273 C 
HETATM    6  C6  UNL     1     -36.148  16.187  -7.503  1.00 20.00     0.274 C 
HETATM    7  C7  UNL     1     -35.048  14.389  -6.426  1.00 20.00     0.128 C 
HETATM    8  C8  UNL     1     -34.072  15.565  -6.496  1.00 20.00     0.240 C 
HETATM    9  N9  UNL     1     -34.786  12.843  -4.323  1.00 20.00    -0.197 NA
HETATM   10  N10 UNL     1     -34.783  16.655  -7.221  1.00 20.00     0.094 N 
ENDROOT
TORSDOF 0
ENDMDL
MODEL 9
REMARK VINA RESULT:      -4.0      1.846      3.671
REMARK  0 active torsions:
REMARK  status: ('A' for Active; 'I' for Inactive)
ROOT
HETATM    1  C1  UNL     1     -35.057  16.368  -1.924  1.00 20.00     0.066 C 
HETATM    2  C2  UNL     1     -34.423  13.197  -4.845  1.00 20.00     0.032 C 
HETATM    3  C3  UNL     1     -34.518  13.958  -3.538  1.00 20.00     0.039 C 
HETATM    4  C4  UNL     1     -35.511  17.003  -4.292  1.00 20.00     0.051 C 
HETATM    5  C5  UNL     1     -34.943  14.221  -5.835  1.00 20.00     0.273 C 
HETATM    6  C6  UNL     1     -36.189  16.285  -5.446  1.00 20.00     0.274 C 
HETATM    7  C7  UNL     1     -35.894  16.138  -3.103  1.00 20.00     0.128 C 
HETATM    8  C8  UNL     1     -35.837  14.721  -3.675  1.00 20.00     0.240 C 
HETATM    9  N9  UNL     1     -34.394  16.551  -0.990  1.00 20.00    -0.197 NA
HETATM   10  N10 UNL     1     -36.075  14.851  -5.139  1.00 20.00     0.094 N 
ENDROOT
TORSDOF 0
ENDMDL
