MODEL 1
REMARK VINA RESULT:      -5.0      0.000      0.000
REMARK  0 active torsions:
REMARK  status: ('A' for Active; 'I' for Inactive)
ROOT
HETATM    1  C1  UNL     1     -34.524  13.911  -4.539  1.00 20.00     0.101 C 
HETATM    2  C2  UNL     1     -33.699  16.087  -5.558  1.00 20.00     0.042 A 
HETATM    3  C3  UNL     1     -33.453  17.348  -5.060  1.00 20.00     0.092 A 
HETATM    4  C4  UNL     1     -34.158  15.287  -4.482  1.00 20.00     0.068 A 
HETATM    5  C5  UNL     1     -34.180  16.079  -3.351  1.00 20.00     0.032 A 
HETATM    6  C6  UNL     1     -34.544  15.761  -1.940  1.00 20.00     0.059 C 
HETATM    7  C7  UNL     1     -34.814  17.025  -1.118  1.00 20.00     0.008 C 
HETATM    8  C8  UNL     1     -33.725  18.070  -1.358  1.00 20.00     0.021 C 
HETATM    9  C9  UNL     1     -33.677  18.472  -2.832  1.00 20.00     0.128 C 
HETATM   10  N10 UNL     1     -34.822  12.790  -4.587  1.00 20.00    -0.191 NA
HETATM   11  N11 UNL     1     -33.746  17.329  -3.724  1.00 20.00    -0.359 N 
ENDROOT
TORSDOF 0
ENDMDL
MODEL 2
REMARK VINA RESULT:      -4.7      2.019      2.450
REMARK  0 active torsions:
REMARK  status: ('A' for Active; 'I' for Inactive)
ROOT
HETATM    1  C1  UNL     1     -35.396  13.616  -4.264  1.00 20.00     0.101 C 
HETATM    2  C2  UNL     1     -37.391  15.188  -4.286  1.00 20.00     0.042 A 
HETATM    3  C3  UNL     1     -37.689  16.370  -3.645  1.00 20.00     0.092 A 
HETATM    4  C4  UNL     1     -36.105  14.780  -3.852  1.00 20.00     0.068 A 
HETATM    5  C5  UNL     1     -35.647  15.726  -2.955  1.00 20.00     0.032 A 
HETATM    6  C6  UNL     1     -34.358  15.827  -2.212  1.00 20.00     0.059 C 
HETATM    7  C7  UNL     1     -34.448  16.804  -1.037  1.00 20.00     0.008 C 
HETATM    8  C8  UNL     1     -35.132  18.103  -1.462  1.00 20.00     0.021 C 
HETATM    9  C9  UNL     1     -36.554  17.829  -1.953  1.00 20.00     0.128 C 
HETATM   10  N10 UNL     1     -34.819  12.666  -4.600  1.00 20.00    -0.191 NA
HETATM   11  N11 UNL     1     -36.625  16.685  -2.844  1.00 20.00    -0.359 N 
ENDROOT
TORSDOF 0
ENDMDL
MODEL 3
REMARK VINA RESULT:      -4.5      1.492      3.805
REMARK  0 active torsions:
REMARK  status: ('A' for Active; 'I' for Inactive)
ROOT
HETATM    1  C1  UNL     1     -34.434  16.683  -1.637  1.00 20.00     0.101 C 
HETATM    2  C2  UNL     1     -33.718  17.811  -3.798  1.00 20.00     0.042 A 
HETATM    3  C3  UNL     1     -33.671  17.417  -5.117  1.00 20.00     0.092 A 
HETATM    4  C4  UNL     1     -34.214  16.717  -3.044  1.00 20.00     0.068 A 
HETATM    5  C5  UNL     1     -34.457  15.680  -3.923  1.00 20.00     0.032 A 
HETATM    6  C6  UNL     1     -35.007  14.313  -3.695  1.00 20.00     0.059 C 
HETATM    7  C7  UNL     1     -34.722  13.376  -4.872  1.00 20.00     0.008 C 
HETATM    8  C8  UNL     1     -35.040  14.062  -6.201  1.00 20.00     0.021 C 
HETATM    9  C9  UNL     1     -34.182  15.314  -6.380  1.00 20.00     0.128 C 
HETATM   10  N10 UNL     1     -34.613  16.655  -0.490  1.00 20.00    -0.191 NA
HETATM   11  N11 UNL     1     -34.122  16.127  -5.179  1.00 20.00    -0.359 N 
ENDROOT
TORSDOF 0
ENDMDL
MODEL 4
REMARK VINA RESULT:      -4.5     12.133     13.501
REMARK  0 active torsions:
REMARK  status: ('A' for Active; 'I' for Inactive)
ROOT
HETATM    1  C1  UNL     1     -41.545   3.134  -2.702  1.00 20.00     0.101 C 
HETATM    2  C2  UNL     1     -40.573   4.535  -0.818  1.00 20.00     0.042 A 
HETATM    3  C3  UNL     1     -40.752   5.834  -0.397  1.00 20.00     0.092 A 
HETATM    4  C4  UNL     1     -41.406   4.335  -1.948  1.00 20.00     0.068 A 
HETATM    5  C5  UNL     1     -42.074   5.519  -2.190  1.00 20.00     0.032 A 
HETATM    6  C6  UNL     1     -43.090   5.877  -3.222  1.00 20.00     0.059 C 
HETATM    7  C7  UNL     1     -43.248   7.393  -3.370  1.00 20.00     0.008 C 
HETATM    8  C8  UNL     1     -43.353   8.064  -2.000  1.00 20.00     0.021 C 
HETATM    9  C9  UNL     1     -42.094   7.803  -1.174  1.00 20.00     0.128 C 
HETATM   10  N10 UNL     1     -41.659   2.155  -3.315  1.00 20.00    -0.191 NA
HETATM   11  N11 UNL     1     -41.663   6.418  -1.234  1.00 20.00    -0.359 N 
ENDROOT
TORSDOF 0
ENDMDL
MODEL 5
REMARK VINA RESULT:      -4.4      1.768      4.165
REMARK  0 active torsions:
REMARK  status: ('A' for Active; 'I' for Inactive)
ROOT
HETATM    1  C1  UNL     1     -34.502  15.859  -2.194  1.00 20.00     0.101 C 
HETATM    2  C2  UNL     1     -34.369  13.725  -3.567  1.00 20.00     0.042 A 
HETATM    3  C3  UNL     1     -34.418  13.447  -4.915  1.00 20.00     0.092 A 
HETATM    4  C4  UNL     1     -34.505  15.129  -3.417  1.00 20.00     0.068 A 
HETATM    5  C5  UNL     1     -34.633  15.673  -4.679  1.00 20.00     0.032 A 
HETATM    6  C6  UNL     1     -34.775  17.090  -5.125  1.00 20.00     0.059 C 
HETATM    7  C7  UNL     1     -35.291  17.191  -6.563  1.00 20.00     0.008 C 
HETATM    8  C8  UNL     1     -34.539  16.225  -7.478  1.00 20.00     0.021 C 
HETATM    9  C9  UNL     1     -34.729  14.782  -7.013  1.00 20.00     0.128 C 
HETATM   10  N10 UNL     1     -34.500  16.453  -1.197  1.00 20.00    -0.191 NA
HETATM   11  N11 UNL     1     -34.576  14.634  -5.577  1.00 20.00    -0.359 N 
ENDROOT
TORSDOF 0
ENDMDL
MODEL 6
REMARK VINA RESULT:      -4.4      2.443      4.194
REMARK  0 active torsions:
REMARK  status: ('A' for Active; 'I' for Inactive)
ROOT
HETATM    1  C1  UNL     1     -34.099  17.887  -6.943  1.00 20.00     0.101 C 
HETATM    2  C2  UNL     1     -35.177  15.706  -7.674  1.00 20.00     0.042 A 
HETATM    3  C3  UNL     1     -35.296  14.456  -7.107  1.00 20.00     0.092 A 
HETATM    4  C4  UNL     1     -34.449  16.517  -6.768  1.00 20.00     0.068 A 
HETATM    5  C5  UNL     1     -34.140  15.742  -5.668  1.00 20.00     0.032 A 
HETATM    6  C6  UNL     1     -33.420  16.076  -4.405  1.00 20.00     0.059 C 
HETATM    7  C7  UNL     1     -32.957  14.821  -3.660  1.00 20.00     0.008 C 
HETATM    8  C8  UNL     1     -34.079  13.786  -3.590  1.00 20.00     0.021 C 
HETATM    9  C9  UNL     1     -34.511  13.363  -4.994  1.00 20.00     0.128 C 
HETATM   10  N10 UNL     1     -33.815  19.004  -7.085  1.00 20.00    -0.191 NA
HETATM   11  N11 UNL     1     -34.666  14.492  -5.894  1.00 20.00    -0.359 N 
ENDROOT
TORSDOF 0
ENDMDL
MODEL 7
REMARK VINA RESULT:      -4.3      1.755      2.481
REMARK  0 active torsions:
REMARK  status: ('A' for Active; 'I' for Inactive)
ROOT
HETATM    1  C1  UNL     1     -34.675  13.642  -5.068  1.00 20.00     0.101 C 
HETATM    2  C2  UNL     1     -34.739  14.956  -7.241  1.00 20.00     0.042 A 
HETATM    3  C3  UNL     1     -34.546  16.281  -7.568  1.00 20.00     0.092 A 
HETATM    4  C4  UNL     1     -34.573  14.836  -5.838  1.00 20.00     0.068 A 
HETATM    5  C5  UNL     1     -34.283  16.092  -5.342  1.00 20.00     0.032 A 
HETATM    6  C6  UNL     1     -33.985  16.552  -3.955  1.00 20.00     0.059 C 
HETATM    7  C7  UNL     1     -34.127  18.070  -3.811  1.00 20.00     0.008 C 
HETATM    8  C8  UNL     1     -33.435  18.791  -4.968  1.00 20.00     0.021 C 
HETATM    9  C9  UNL     1     -34.057  18.388  -6.304  1.00 20.00     0.128 C 
HETATM   10  N10 UNL     1     -34.757  12.669  -4.440  1.00 20.00    -0.191 NA
HETATM   11  N11 UNL     1     -34.270  16.956  -6.411  1.00 20.00    -0.359 N 
ENDROOT
TORSDOF 0
ENDMDL
MODEL 8
REMARK VINA RESULT:      -4.3      2.270      3.273
REMARK  0 active torsions:
REMARK  status: ('A' for Active; 'I' for Inactive)
ROOT
HETATM    1  C1  UNL     1     -37.604  14.512  -3.987  1.00 20.00     0.101 C 
HETATM    2  C2  UNL     1     -35.262  13.541  -4.146  1.00 20.00     0.042 A 
HETATM    3  C3  UNL     1     -34.021  14.070  -4.425  1.00 20.00     0.092 A 
HETATM    4  C4  UNL     1     -36.201  14.601  -4.214  1.00 20.00     0.068 A 
HETATM    5  C5  UNL     1     -35.509  15.753  -4.534  1.00 20.00     0.032 A 
HETATM    6  C6  UNL     1     -35.975  17.159  -4.706  1.00 20.00     0.059 C 
HETATM    7  C7  UNL     1     -34.948  18.017  -5.450  1.00 20.00     0.008 C 
HETATM    8  C8  UNL     1     -33.544  17.792  -4.889  1.00 20.00     0.021 C 
HETATM    9  C9  UNL     1     -33.130  16.329  -5.041  1.00 20.00     0.128 C 
HETATM   10  N10 UNL     1     -38.748  14.438  -3.802  1.00 20.00    -0.191 NA
HETATM   11  N11 UNL     1     -34.184  15.408  -4.657  1.00 20.00    -0.359 N 
ENDROOT
TORSDOF 0
ENDMDL
MODEL 9
REMARK VINA RESULT:      -4.3      2.556      3.507
REMARK  0 active torsions:
REMARK  status: ('A' for Active; 'I' for Inactive)
ROOT
HETATM    1  C1  UNL     1     -38.330  14.817  -4.094  1.00 20.00     0.101 C 
HETATM    2  C2  UNL     1     -37.218  16.849  -3.051  1.00 20.00     0.042 A 
HETATM    3  C3  UNL     1     -35.916  17.182  -2.748  1.00 20.00     0.092 A 
HETATM    4  C4  UNL     1     -37.204  15.553  -3.625  1.00 20.00     0.068 A 
HETATM    5  C5  UNL     1     -35.892  15.125  -3.658  1.00 20.00     0.032 A 
HETATM    6  C6  UNL     1     -35.287  13.864  -4.177  1.00 20.00     0.059 C 
HETATM    7  C7  UNL     1     -33.869  13.646  -3.642  1.00 20.00     0.008 C 
HETATM    8  C8  UNL     1     -33.046  14.930  -3.745  1.00 20.00     0.021 C 
HETATM    9  C9  UNL     1     -33.688  16.049  -2.926  1.00 20.00     0.128 C 
HETATM   10  N10 UNL     1     -39.248  14.218  -4.476  1.00 20.00    -0.191 NA
HETATM   11  N11 UNL     1     -35.124  16.131  -3.122  1.00 20.00    -0.359 N 
ENDROOT
TORSDOF 0
ENDMDL
