MODEL 1
REMARK VINA RESULT:      -4.7      0.000      0.000
REMARK  1 active torsions:
REMARK  status: ('A' for Active; 'I' for Inactive)
REMARK    1  A    between atoms: C3_3  and  C5_5 
ROOT
HETATM    1  C1  UNL     1     -34.025  15.910  -6.145  1.00 20.00     0.034 A 
HETATM    2  C2  UNL     1     -33.671  17.089  -5.525  1.00 20.00     0.092 A 
HETATM    3  C3  UNL     1     -34.486  15.023  -5.141  1.00 20.00     0.025 A 
HETATM    4  C4  UNL     1     -34.402  15.682  -3.931  1.00 20.00     0.024 A 
HETATM    5  C6  UNL     1     -34.721  15.230  -2.545  1.00 20.00     0.058 C 
HETATM    6  C7  UNL     1     -34.865  16.405  -1.577  1.00 20.00     0.008 C 
HETATM    7  C8  UNL     1     -33.720  17.402  -1.758  1.00 20.00     0.021 C 
HETATM    8  C9  UNL     1     -33.714  17.964  -3.178  1.00 20.00     0.128 C 
HETATM    9  N10 UNL     1     -33.902  16.936  -4.186  1.00 20.00    -0.359 N 
ENDROOT
BRANCH   3  10
HETATM   10  C5  UNL     1     -34.953  13.678  -5.317  1.00 20.00     0.272 C 
HETATM   11  O11 UNL     1     -34.463  12.691  -4.738  1.00 20.00    -0.301 OA
ENDBRANCH   3  10
TORSDOF 1
ENDMDL
MODEL 2
REMARK VINA RESULT:      -4.5      1.082      1.238
REMARK  1 active torsions:
REMARK  status: ('A' for Active; 'I' for Inactive)
REMARK    1  A    between atoms: C3_3  and  C5_5 
ROOT
HETATM    1  C1  UNL     1     -33.676  15.967  -5.111  1.00 20.00     0.034 A 
HETATM    2  C2  UNL     1     -33.461  17.303  -4.850  1.00 20.00     0.092 A 
HETATM    3  C3  UNL     1     -34.078  15.356  -3.897  1.00 20.00     0.025 A 
HETATM    4  C4  UNL     1     -34.100  16.336  -2.924  1.00 20.00     0.024 A 
HETATM    5  C6  UNL     1     -34.417  16.263  -1.468  1.00 20.00     0.058 C 
HETATM    6  C7  UNL     1     -34.709  17.642  -0.874  1.00 20.00     0.008 C 
HETATM    7  C8  UNL     1     -33.664  18.661  -1.328  1.00 20.00     0.021 C 
HETATM    8  C9  UNL     1     -33.668  18.797  -2.850  1.00 20.00     0.128 C 
HETATM    9  N10 UNL     1     -33.719  17.512  -3.524  1.00 20.00    -0.359 N 
ENDROOT
BRANCH   3  10
HETATM   10  C5  UNL     1     -34.404  13.975  -3.684  1.00 20.00     0.272 C 
HETATM   11  O11 UNL     1     -33.755  13.027  -4.164  1.00 20.00    -0.301 OA
ENDBRANCH   3  10
TORSDOF 1
ENDMDL
MODEL 3
REMARK VINA RESULT:      -4.5      2.103      2.416
REMARK  1 active torsions:
REMARK  status: ('A' for Active; 'I' for Inactive)
REMARK    1  A    between atoms: C3_3  and  C5_5 
ROOT
HETATM    1  C1  UNL     1     -36.875  14.853  -4.404  1.00 20.00     0.034 A 
HETATM    2  C2  UNL     1     -37.435  16.024  -3.943  1.00 20.00     0.092 A 
HETATM    3  C3  UNL     1     -35.651  14.666  -3.715  1.00 20.00     0.025 A 
HETATM    4  C4  UNL     1     -35.494  15.729  -2.848  1.00 20.00     0.024 A 
HETATM    5  C6  UNL     1     -34.389  16.066  -1.903  1.00 20.00     0.058 C 
HETATM    6  C7  UNL     1     -34.820  17.102  -0.863  1.00 20.00     0.008 C 
HETATM    7  C8  UNL     1     -35.573  18.256  -1.526  1.00 20.00     0.021 C 
HETATM    8  C9  UNL     1     -36.830  17.748  -2.228  1.00 20.00     0.128 C 
HETATM    9  N10 UNL     1     -36.588  16.545  -3.003  1.00 20.00    -0.359 N 
ENDROOT
BRANCH   3  10
HETATM   10  C5  UNL     1     -34.721  13.584  -3.871  1.00 20.00     0.272 C 
HETATM   11  O11 UNL     1     -34.915  12.604  -4.613  1.00 20.00    -0.301 OA
ENDBRANCH   3  10
TORSDOF 1
ENDMDL
MODEL 4
REMARK VINA RESULT:      -4.3      1.148      3.042
REMARK  1 active torsions:
REMARK  status: ('A' for Active; 'I' for Inactive)
REMARK    1  A    between atoms: C3_3  and  C5_5 
ROOT
HETATM    1  C1  UNL     1     -34.056  15.406  -2.943  1.00 20.00     0.034 A 
HETATM    2  C2  UNL     1     -33.645  16.661  -3.337  1.00 20.00     0.092 A 
HETATM    3  C3  UNL     1     -34.674  14.791  -4.060  1.00 20.00     0.025 A 
HETATM    4  C4  UNL     1     -34.625  15.686  -5.110  1.00 20.00     0.024 A 
HETATM    5  C6  UNL     1     -35.144  15.587  -6.506  1.00 20.00     0.058 C 
HETATM    6  C7  UNL     1     -34.515  16.633  -7.427  1.00 20.00     0.008 C 
HETATM    7  C8  UNL     1     -34.509  18.010  -6.762  1.00 20.00     0.021 C 
HETATM    8  C9  UNL     1     -33.699  17.980  -5.467  1.00 20.00     0.128 C 
HETATM    9  N10 UNL     1     -33.998  16.818  -4.650  1.00 20.00    -0.359 N 
ENDROOT
BRANCH   3  10
HETATM   10  C5  UNL     1     -35.259  13.482  -4.119  1.00 20.00     0.272 C 
HETATM   11  O11 UNL     1     -34.808  12.551  -4.811  1.00 20.00    -0.301 OA
ENDBRANCH   3  10
TORSDOF 1
ENDMDL
MODEL 5
REMARK VINA RESULT:      -4.3      2.118      4.206
REMARK  1 active torsions:
REMARK  status: ('A' for Active; 'I' for Inactive)
REMARK    1  A    between atoms: C3_3  and  C5_5 
ROOT
HETATM    1  C1  UNL     1     -34.292  13.713  -3.627  1.00 20.00     0.034 A 
HETATM    2  C2  UNL     1     -34.744  13.239  -4.840  1.00 20.00     0.092 A 
HETATM    3  C3  UNL     1     -34.055  15.103  -3.775  1.00 20.00     0.025 A 
HETATM    4  C4  UNL     1     -34.369  15.444  -5.076  1.00 20.00     0.024 A 
HETATM    5  C6  UNL     1     -34.286  16.750  -5.793  1.00 20.00     0.058 C 
HETATM    6  C7  UNL     1     -35.111  16.750  -7.081  1.00 20.00     0.008 C 
HETATM    7  C8  UNL     1     -34.861  15.475  -7.886  1.00 20.00     0.021 C 
HETATM    8  C9  UNL     1     -35.257  14.240  -7.078  1.00 20.00     0.128 C 
HETATM    9  N10 UNL     1     -34.784  14.296  -5.707  1.00 20.00    -0.359 N 
ENDROOT
BRANCH   3  10
HETATM   10  C5  UNL     1     -33.571  16.014  -2.778  1.00 20.00     0.272 C 
HETATM   11  O11 UNL     1     -34.193  16.299  -1.738  1.00 20.00    -0.301 OA
ENDBRANCH   3  10
TORSDOF 1
ENDMDL
MODEL 6
REMARK VINA RESULT:      -4.3      2.071      3.717
REMARK  1 active torsions:
REMARK  status: ('A' for Active; 'I' for Inactive)
REMARK    1  A    between atoms: C3_3  and  C5_5 
ROOT
HETATM    1  C1  UNL     1     -33.857  17.847  -3.186  1.00 20.00     0.034 A 
HETATM    2  C2  UNL     1     -33.720  17.626  -4.539  1.00 20.00     0.092 A 
HETATM    3  C3  UNL     1     -34.307  16.637  -2.601  1.00 20.00     0.025 A 
HETATM    4  C4  UNL     1     -34.432  15.706  -3.612  1.00 20.00     0.024 A 
HETATM    5  C6  UNL     1     -34.891  14.286  -3.584  1.00 20.00     0.058 C 
HETATM    6  C7  UNL     1     -34.484  13.527  -4.848  1.00 20.00     0.008 C 
HETATM    7  C8  UNL     1     -34.788  14.353  -6.099  1.00 20.00     0.021 C 
HETATM    8  C9  UNL     1     -34.015  15.670  -6.076  1.00 20.00     0.128 C 
HETATM    9  N10 UNL     1     -34.072  16.327  -4.783  1.00 20.00    -0.359 N 
ENDROOT
BRANCH   3  10
HETATM   10  C5  UNL     1     -34.594  16.395  -1.216  1.00 20.00     0.272 C 
HETATM   11  O11 UNL     1     -34.247  17.154  -0.292  1.00 20.00    -0.301 OA
ENDBRANCH   3  10
TORSDOF 1
ENDMDL
MODEL 7
REMARK VINA RESULT:      -4.2      1.444      2.019
REMARK  1 active torsions:
REMARK  status: ('A' for Active; 'I' for Inactive)
REMARK    1  A    between atoms: C3_3  and  C5_5 
ROOT
HETATM    1  C1  UNL     1     -34.649  14.762  -6.676  1.00 20.00     0.034 A 
HETATM    2  C2  UNL     1     -34.561  16.066  -7.114  1.00 20.00     0.092 A 
HETATM    3  C3  UNL     1     -34.343  14.758  -5.292  1.00 20.00     0.025 A 
HETATM    4  C4  UNL     1     -34.076  16.060  -4.919  1.00 20.00     0.024 A 
HETATM    5  C6  UNL     1     -33.673  16.639  -3.604  1.00 20.00     0.058 C 
HETATM    6  C7  UNL     1     -33.881  18.153  -3.556  1.00 20.00     0.008 C 
HETATM    7  C8  UNL     1     -33.344  18.816  -4.824  1.00 20.00     0.021 C 
HETATM    8  C9  UNL     1     -34.068  18.284  -6.060  1.00 20.00     0.128 C 
HETATM    9  N10 UNL     1     -34.212  16.840  -6.042  1.00 20.00    -0.359 N 
ENDROOT
BRANCH   3  10
HETATM   10  C5  UNL     1     -34.303  13.624  -4.414  1.00 20.00     0.272 C 
HETATM   11  O11 UNL     1     -34.793  12.513  -4.692  1.00 20.00    -0.301 OA
ENDBRANCH   3  10
TORSDOF 1
ENDMDL
MODEL 8
REMARK VINA RESULT:      -4.2      2.735      3.710
REMARK  1 active torsions:
REMARK  status: ('A' for Active; 'I' for Inactive)
REMARK    1  A    between atoms: C3_3  and  C5_5 
ROOT
HETATM    1  C1  UNL     1     -35.205  15.671  -7.649  1.00 20.00     0.034 A 
HETATM    2  C2  UNL     1     -35.275  14.429  -7.057  1.00 20.00     0.092 A 
HETATM    3  C3  UNL     1     -34.488  16.521  -6.770  1.00 20.00     0.025 A 
HETATM    4  C4  UNL     1     -34.137  15.775  -5.662  1.00 20.00     0.024 A 
HETATM    5  C6  UNL     1     -33.406  16.154  -4.417  1.00 20.00     0.058 C 
HETATM    6  C7  UNL     1     -32.893  14.930  -3.658  1.00 20.00     0.008 C 
HETATM    7  C8  UNL     1     -33.981  13.861  -3.551  1.00 20.00     0.021 C 
HETATM    8  C9  UNL     1     -34.422  13.399  -4.939  1.00 20.00     0.128 C 
HETATM    9  N10 UNL     1     -34.627  14.506  -5.855  1.00 20.00    -0.359 N 
ENDROOT
BRANCH   3  10
HETATM   10  C5  UNL     1     -34.173  17.907  -6.963  1.00 20.00     0.272 C 
HETATM   11  O11 UNL     1     -34.758  18.839  -6.382  1.00 20.00    -0.301 OA
ENDBRANCH   3  10
TORSDOF 1
ENDMDL
MODEL 9
REMARK VINA RESULT:      -4.1      2.276      3.154
REMARK  1 active torsions:
REMARK  status: ('A' for Active; 'I' for Inactive)
REMARK    1  A    between atoms: C3_3  and  C5_5 
ROOT
HETATM    1  C1  UNL     1     -34.026  17.525  -6.265  1.00 20.00     0.034 A 
HETATM    2  C2  UNL     1     -33.399  17.196  -5.082  1.00 20.00     0.092 A 
HETATM    3  C3  UNL     1     -34.712  16.370  -6.718  1.00 20.00     0.025 A 
HETATM    4  C4  UNL     1     -34.487  15.364  -5.799  1.00 20.00     0.024 A 
HETATM    5  C6  UNL     1     -34.934  13.940  -5.778  1.00 20.00     0.058 C 
HETATM    6  C7  UNL     1     -34.797  13.317  -4.388  1.00 20.00     0.008 C 
HETATM    7  C8  UNL     1     -33.436  13.649  -3.776  1.00 20.00     0.021 C 
HETATM    8  C9  UNL     1     -33.264  15.160  -3.630  1.00 20.00     0.128 C 
HETATM    9  N10 UNL     1     -33.685  15.886  -4.814  1.00 20.00    -0.359 N 
ENDROOT
BRANCH   3  10
HETATM   10  C5  UNL     1     -35.498  16.238  -7.911  1.00 20.00     0.272 C 
HETATM   11  O11 UNL     1     -36.740  16.160  -7.918  1.00 20.00    -0.301 OA
ENDBRANCH   3  10
TORSDOF 1
ENDMDL
