MODEL 1
REMARK VINA RESULT:      -5.2      0.000      0.000
REMARK  0 active torsions:
REMARK  status: ('A' for Active; 'I' for Inactive)
ROOT
HETATM    1  C1  UNL     1     -33.726   6.588   5.884  1.00 20.00     0.027 A 
HETATM    2  C2  UNL     1     -34.534   5.759   6.648  1.00 20.00     0.116 A 
HETATM    3  C3  UNL     1     -35.175   4.484   4.828  1.00 20.00     0.123 A 
HETATM    4  C4  UNL     1     -33.659   6.308   4.533  1.00 20.00    -0.045 A 
HETATM    5  C5  UNL     1     -34.389   5.247   3.996  1.00 20.00    -0.034 A 
HETATM    6  C6  UNL     1     -34.212   5.150   2.518  1.00 20.00     0.041 C 
HETATM    7  C7  UNL     1     -32.926   5.970   2.329  1.00 20.00     0.014 C 
HETATM    8  C8  UNL     1     -32.920   7.037   3.446  1.00 20.00     0.015 C 
HETATM    9  C9  UNL     1     -31.512   7.482   3.809  1.00 20.00     0.015 C 
HETATM   10  N10 UNL     1     -35.257   4.716   6.158  1.00 20.00    -0.273 NA
ENDROOT
TORSDOF 0
ENDMDL
MODEL 2
REMARK VINA RESULT:      -4.8      1.822      4.005
REMARK  0 active torsions:
REMARK  status: ('A' for Active; 'I' for Inactive)
ROOT
HETATM    1  C1  UNL     1     -33.550   5.657   3.003  1.00 20.00     0.027 A 
HETATM    2  C2  UNL     1     -32.509   6.432   2.511  1.00 20.00     0.116 A 
HETATM    3  C3  UNL     1     -32.210   7.544   4.517  1.00 20.00     0.123 A 
HETATM    4  C4  UNL     1     -33.896   5.860   4.325  1.00 20.00    -0.045 A 
HETATM    5  C5  UNL     1     -33.222   6.811   5.093  1.00 20.00    -0.034 A 
HETATM    6  C6  UNL     1     -33.783   6.902   6.472  1.00 20.00     0.041 C 
HETATM    7  C7  UNL     1     -34.535   5.565   6.564  1.00 20.00     0.014 C 
HETATM    8  C8  UNL     1     -34.993   5.221   5.130  1.00 20.00     0.015 C 
HETATM    9  C9  UNL     1     -35.158   3.724   4.922  1.00 20.00     0.015 C 
HETATM   10  N10 UNL     1     -31.830   7.366   3.231  1.00 20.00    -0.273 NA
ENDROOT
TORSDOF 0
ENDMDL
MODEL 3
REMARK VINA RESULT:      -4.6     12.129     13.373
REMARK  0 active torsions:
REMARK  status: ('A' for Active; 'I' for Inactive)
ROOT
HETATM    1  C1  UNL     1     -34.432  14.663  -6.099  1.00 20.00     0.027 A 
HETATM    2  C2  UNL     1     -34.855  13.392  -5.737  1.00 20.00     0.116 A 
HETATM    3  C3  UNL     1     -34.495  13.768  -3.484  1.00 20.00     0.123 A 
HETATM    4  C4  UNL     1     -34.042  15.498  -5.070  1.00 20.00    -0.045 A 
HETATM    5  C5  UNL     1     -34.072  15.050  -3.749  1.00 20.00    -0.034 A 
HETATM    6  C6  UNL     1     -33.567  16.089  -2.805  1.00 20.00     0.041 C 
HETATM    7  C7  UNL     1     -33.695  17.351  -3.673  1.00 20.00     0.014 C 
HETATM    8  C8  UNL     1     -33.498  16.897  -5.136  1.00 20.00     0.015 C 
HETATM    9  C9  UNL     1     -34.200  17.817  -6.123  1.00 20.00     0.015 C 
HETATM   10  N10 UNL     1     -34.899  12.923  -4.460  1.00 20.00    -0.273 NA
ENDROOT
TORSDOF 0
ENDMDL
MODEL 4
REMARK VINA RESULT:      -4.5     12.630     13.852
REMARK  0 active torsions:
REMARK  status: ('A' for Active; 'I' for Inactive)
ROOT
HETATM    1  C1  UNL     1     -33.923  16.682  -5.823  1.00 20.00     0.027 A 
HETATM    2  C2  UNL     1     -34.452  16.731  -7.105  1.00 20.00     0.116 A 
HETATM    3  C3  UNL     1     -35.119  14.518  -7.060  1.00 20.00     0.123 A 
HETATM    4  C4  UNL     1     -34.030  15.475  -5.160  1.00 20.00    -0.045 A 
HETATM    5  C5  UNL     1     -34.633  14.380  -5.780  1.00 20.00    -0.034 A 
HETATM    6  C6  UNL     1     -34.601  13.169  -4.910  1.00 20.00     0.041 C 
HETATM    7  C7  UNL     1     -34.345  13.809  -3.536  1.00 20.00     0.014 C 
HETATM    8  C8  UNL     1     -33.524  15.090  -3.798  1.00 20.00     0.015 C 
HETATM    9  C9  UNL     1     -33.728  16.137  -2.714  1.00 20.00     0.015 C 
HETATM   10  N10 UNL     1     -35.047  15.685  -7.739  1.00 20.00    -0.273 NA
ENDROOT
TORSDOF 0
ENDMDL
MODEL 5
REMARK VINA RESULT:      -4.4     12.511     13.551
REMARK  0 active torsions:
REMARK  status: ('A' for Active; 'I' for Inactive)
ROOT
HETATM    1  C1  UNL     1     -34.287  15.307  -3.799  1.00 20.00     0.027 A 
HETATM    2  C2  UNL     1     -34.304  13.991  -3.357  1.00 20.00     0.116 A 
HETATM    3  C3  UNL     1     -34.807  13.152  -5.452  1.00 20.00     0.123 A 
HETATM    4  C4  UNL     1     -34.535  15.507  -5.144  1.00 20.00    -0.045 A 
HETATM    5  C5  UNL     1     -34.798  14.422  -5.982  1.00 20.00    -0.034 A 
HETATM    6  C6  UNL     1     -35.085  14.863  -7.377  1.00 20.00     0.041 C 
HETATM    7  C7  UNL     1     -34.487  16.279  -7.360  1.00 20.00     0.014 C 
HETATM    8  C8  UNL     1     -34.630  16.795  -5.911  1.00 20.00     0.015 C 
HETATM    9  C9  UNL     1     -33.575  17.834  -5.563  1.00 20.00     0.015 C 
HETATM   10  N10 UNL     1     -34.555  12.911  -4.146  1.00 20.00    -0.273 NA
ENDROOT
TORSDOF 0
ENDMDL
MODEL 6
REMARK VINA RESULT:      -4.4     11.486     12.354
REMARK  0 active torsions:
REMARK  status: ('A' for Active; 'I' for Inactive)
ROOT
HETATM    1  C1  UNL     1     -33.493  14.365  -3.232  1.00 20.00     0.027 A 
HETATM    2  C2  UNL     1     -33.575  13.286  -4.100  1.00 20.00     0.116 A 
HETATM    3  C3  UNL     1     -35.818  13.640  -4.540  1.00 20.00     0.123 A 
HETATM    4  C4  UNL     1     -34.650  15.097  -3.048  1.00 20.00    -0.045 A 
HETATM    5  C5  UNL     1     -35.826  14.734  -3.706  1.00 20.00    -0.034 A 
HETATM    6  C6  UNL     1     -36.963  15.624  -3.332  1.00 20.00     0.041 C 
HETATM    7  C7  UNL     1     -36.204  16.832  -2.757  1.00 20.00     0.014 C 
HETATM    8  C8  UNL     1     -34.896  16.277  -2.151  1.00 20.00     0.015 C 
HETATM    9  C9  UNL     1     -33.786  17.316  -2.131  1.00 20.00     0.015 C 
HETATM   10  N10 UNL     1     -34.703  12.905  -4.759  1.00 20.00    -0.273 NA
ENDROOT
TORSDOF 0
ENDMDL
MODEL 7
REMARK VINA RESULT:      -4.4      1.609      3.262
REMARK  0 active torsions:
REMARK  status: ('A' for Active; 'I' for Inactive)
ROOT
HETATM    1  C1  UNL     1     -32.649   6.964   4.141  1.00 20.00     0.027 A 
HETATM    2  C2  UNL     1     -32.651   6.782   2.765  1.00 20.00     0.116 A 
HETATM    3  C3  UNL     1     -34.241   5.106   2.853  1.00 20.00     0.123 A 
HETATM    4  C4  UNL     1     -33.510   6.165   4.867  1.00 20.00    -0.045 A 
HETATM    5  C5  UNL     1     -34.315   5.225   4.222  1.00 20.00    -0.034 A 
HETATM    6  C6  UNL     1     -35.129   4.439   5.193  1.00 20.00     0.041 C 
HETATM    7  C7  UNL     1     -35.064   5.353   6.428  1.00 20.00     0.014 C 
HETATM    8  C8  UNL     1     -33.708   6.089   6.355  1.00 20.00     0.015 C 
HETATM    9  C9  UNL     1     -33.742   7.430   7.072  1.00 20.00     0.015 C 
HETATM   10  N10 UNL     1     -33.422   5.878   2.103  1.00 20.00    -0.273 NA
ENDROOT
TORSDOF 0
ENDMDL
MODEL 8
REMARK VINA RESULT:      -4.3      9.471     10.999
REMARK  0 active torsions:
REMARK  status: ('A' for Active; 'I' for Inactive)
ROOT
HETATM    1  C1  UNL     1     -43.126   5.740  -3.267  1.00 20.00     0.027 A 
HETATM    2  C2  UNL     1     -43.338   7.100  -3.446  1.00 20.00     0.116 A 
HETATM    3  C3  UNL     1     -41.894   7.686  -1.738  1.00 20.00     0.123 A 
HETATM    4  C4  UNL     1     -42.238   5.382  -2.271  1.00 20.00    -0.045 A 
HETATM    5  C5  UNL     1     -41.614   6.361  -1.497  1.00 20.00    -0.034 A 
HETATM    6  C6  UNL     1     -40.735   5.759  -0.453  1.00 20.00     0.041 C 
HETATM    7  C7  UNL     1     -40.547   4.342  -1.019  1.00 20.00     0.014 C 
HETATM    8  C8  UNL     1     -41.835   4.011  -1.805  1.00 20.00     0.015 C 
HETATM    9  C9  UNL     1     -41.589   2.999  -2.913  1.00 20.00     0.015 C 
HETATM   10  N10 UNL     1     -42.746   8.080  -2.712  1.00 20.00    -0.273 NA
ENDROOT
TORSDOF 0
ENDMDL
MODEL 9
REMARK VINA RESULT:      -4.2     11.868     12.803
REMARK  0 active torsions:
REMARK  status: ('A' for Active; 'I' for Inactive)
ROOT
HETATM    1  C1  UNL     1     -37.022  14.761  -3.828  1.00 20.00     0.027 A 
HETATM    2  C2  UNL     1     -37.896  15.808  -3.576  1.00 20.00     0.116 A 
HETATM    3  C3  UNL     1     -36.239  17.152  -2.683  1.00 20.00     0.123 A 
HETATM    4  C4  UNL     1     -35.700  14.967  -3.487  1.00 20.00    -0.045 A 
HETATM    5  C5  UNL     1     -35.300  16.172  -2.908  1.00 20.00    -0.034 A 
HETATM    6  C6  UNL     1     -33.846  16.167  -2.576  1.00 20.00     0.041 C 
HETATM    7  C7  UNL     1     -33.353  15.012  -3.463  1.00 20.00     0.014 C 
HETATM    8  C8  UNL     1     -34.533  14.024  -3.590  1.00 20.00     0.015 C 
HETATM    9  C9  UNL     1     -34.469  13.214  -4.875  1.00 20.00     0.015 C 
HETATM   10  N10 UNL     1     -37.541  16.996  -3.015  1.00 20.00    -0.273 NA
ENDROOT
TORSDOF 0
ENDMDL
