MODEL 1
REMARK VINA RESULT:      -4.6      0.000      0.000
REMARK  2 active torsions:
REMARK  status: ('A' for Active; 'I' for Inactive)
REMARK    1  A    between atoms: C1_1  and  C8_8 
REMARK    2  A    between atoms: C5_5  and  C8_8 
ROOT
HETATM    1  C2  UNL     1     -35.274   4.263   5.197  1.00 20.00     0.003 C 
HETATM    2  C3  UNL     1     -34.657   4.778   3.881  1.00 20.00     0.007 C 
HETATM    3  C4  UNL     1     -34.626   4.812   6.472  1.00 20.00     0.034 C 
HETATM    4  C5  UNL     1     -33.440   5.701   4.066  1.00 20.00     0.023 C 
HETATM    5  C6  UNL     1     -34.405   6.285   6.352  1.00 20.00     0.151 A 
HETATM    6  C7  UNL     1     -33.774   6.764   5.076  1.00 20.00     0.155 A 
HETATM    7  O10 UNL     1     -33.036   6.701   6.302  1.00 20.00    -0.375 OA
ENDROOT
BRANCH   4   8
HETATM    8  C8  UNL     1     -33.008   6.316   2.739  1.00 20.00     0.076 C 
BRANCH   8   9
HETATM    9  C1  UNL     1     -32.138   7.529   2.927  1.00 20.00     0.231 C 
HETATM   10  O9  UNL     1     -32.100   8.496   2.173  1.00 20.00    -0.307 OA
ENDBRANCH   8   9
ENDBRANCH   4   8
TORSDOF 2
ENDMDL
MODEL 2
REMARK VINA RESULT:      -4.5      1.418      2.099
REMARK  2 active torsions:
REMARK  status: ('A' for Active; 'I' for Inactive)
REMARK    1  A    between atoms: C1_1  and  C8_8 
REMARK    2  A    between atoms: C5_5  and  C8_8 
ROOT
HETATM    1  C2  UNL     1     -34.126   6.383   6.583  1.00 20.00     0.003 C 
HETATM    2  C3  UNL     1     -33.514   6.686   5.201  1.00 20.00     0.007 C 
HETATM    3  C4  UNL     1     -35.147   5.241   6.602  1.00 20.00     0.034 C 
HETATM    4  C5  UNL     1     -34.088   5.839   4.051  1.00 20.00     0.023 C 
HETATM    5  C6  UNL     1     -34.644   4.079   5.809  1.00 20.00     0.151 A 
HETATM    6  C7  UNL     1     -34.081   4.389   4.452  1.00 20.00     0.155 A 
HETATM    7  O10 UNL     1     -35.371   3.789   4.611  1.00 20.00    -0.375 OA
ENDROOT
BRANCH   4   8
HETATM    8  C8  UNL     1     -33.306   6.060   2.760  1.00 20.00     0.076 C 
BRANCH   8   9
HETATM    9  C1  UNL     1     -32.262   7.133   2.901  1.00 20.00     0.231 C 
HETATM   10  O9  UNL     1     -32.048   8.023   2.086  1.00 20.00    -0.307 OA
ENDBRANCH   8   9
ENDBRANCH   4   8
TORSDOF 2
ENDMDL
MODEL 3
REMARK VINA RESULT:      -4.4     11.468     12.610
REMARK  2 active torsions:
REMARK  status: ('A' for Active; 'I' for Inactive)
REMARK    1  A    between atoms: C1_1  and  C8_8 
REMARK    2  A    between atoms: C5_5  and  C8_8 
ROOT
HETATM    1  C2  UNL     1     -33.178  15.324  -3.498  1.00 20.00     0.003 C 
HETATM    2  C3  UNL     1     -34.582  15.955  -3.408  1.00 20.00     0.007 C 
HETATM    3  C4  UNL     1     -33.165  13.804  -3.691  1.00 20.00     0.034 C 
HETATM    4  C5  UNL     1     -35.740  14.941  -3.450  1.00 20.00     0.023 C 
HETATM    5  C6  UNL     1     -34.162  13.400  -4.728  1.00 20.00     0.151 A 
HETATM    6  C7  UNL     1     -35.533  14.001  -4.605  1.00 20.00     0.155 A 
HETATM    7  O10 UNL     1     -35.275  12.638  -4.249  1.00 20.00    -0.375 OA
ENDROOT
BRANCH   4   8
HETATM    8  C8  UNL     1     -37.088  15.649  -3.548  1.00 20.00     0.076 C 
BRANCH   8   9
HETATM    9  C1  UNL     1     -38.082  14.873  -4.367  1.00 20.00     0.231 C 
HETATM   10  O9  UNL     1     -38.972  14.163  -3.913  1.00 20.00    -0.307 OA
ENDBRANCH   8   9
ENDBRANCH   4   8
TORSDOF 2
ENDMDL
MODEL 4
REMARK VINA RESULT:      -4.4     11.552     13.231
REMARK  2 active torsions:
REMARK  status: ('A' for Active; 'I' for Inactive)
REMARK    1  A    between atoms: C1_1  and  C8_8 
REMARK    2  A    between atoms: C5_5  and  C8_8 
ROOT
HETATM    1  C2  UNL     1     -34.436  17.350  -2.068  1.00 20.00     0.003 C 
HETATM    2  C3  UNL     1     -34.189  15.837  -2.238  1.00 20.00     0.007 C 
HETATM    3  C4  UNL     1     -33.848  18.229  -3.175  1.00 20.00     0.034 C 
HETATM    4  C5  UNL     1     -33.324  15.466  -3.456  1.00 20.00     0.023 C 
HETATM    5  C6  UNL     1     -34.132  17.638  -4.518  1.00 20.00     0.151 A 
HETATM    6  C7  UNL     1     -33.855  16.171  -4.674  1.00 20.00     0.155 A 
HETATM    7  O10 UNL     1     -32.989  17.163  -5.237  1.00 20.00    -0.375 OA
ENDROOT
BRANCH   4   8
HETATM    8  C8  UNL     1     -33.283  13.956  -3.664  1.00 20.00     0.076 C 
BRANCH   8   9
HETATM    9  C1  UNL     1     -34.311  13.488  -4.657  1.00 20.00     0.231 C 
HETATM   10  O9  UNL     1     -35.117  12.584  -4.469  1.00 20.00    -0.307 OA
ENDBRANCH   8   9
ENDBRANCH   4   8
TORSDOF 2
ENDMDL
MODEL 5
REMARK VINA RESULT:      -4.3     11.482     12.683
REMARK  2 active torsions:
REMARK  status: ('A' for Active; 'I' for Inactive)
REMARK    1  A    between atoms: C1_1  and  C8_8 
REMARK    2  A    between atoms: C5_5  and  C8_8 
ROOT
HETATM    1  C2  UNL     1     -35.393  15.415  -5.905  1.00 20.00     0.003 C 
HETATM    2  C3  UNL     1     -34.927  16.263  -4.703  1.00 20.00     0.007 C 
HETATM    3  C4  UNL     1     -34.817  13.996  -5.955  1.00 20.00     0.034 C 
HETATM    4  C5  UNL     1     -33.899  15.567  -3.794  1.00 20.00     0.023 C 
HETATM    5  C6  UNL     1     -34.879  13.359  -4.605  1.00 20.00     0.151 A 
HETATM    6  C7  UNL     1     -34.393  14.188  -3.452  1.00 20.00     0.155 A 
HETATM    7  O10 UNL     1     -33.615  13.108  -3.982  1.00 20.00    -0.375 OA
ENDROOT
BRANCH   4   8
HETATM    8  C8  UNL     1     -33.634  16.387  -2.535  1.00 20.00     0.076 C 
BRANCH   8   9
HETATM    9  C1  UNL     1     -34.743  16.262  -1.527  1.00 20.00     0.231 C 
HETATM   10  O9  UNL     1     -34.679  16.623  -0.357  1.00 20.00    -0.307 OA
ENDBRANCH   8   9
ENDBRANCH   4   8
TORSDOF 2
ENDMDL
MODEL 6
REMARK VINA RESULT:      -4.3     11.685     12.293
REMARK  2 active torsions:
REMARK  status: ('A' for Active; 'I' for Inactive)
REMARK    1  A    between atoms: C1_1  and  C8_8 
REMARK    2  A    between atoms: C5_5  and  C8_8 
ROOT
HETATM    1  C2  UNL     1     -33.814  13.700  -4.330  1.00 20.00     0.003 C 
HETATM    2  C3  UNL     1     -33.424  14.901  -3.445  1.00 20.00     0.007 C 
HETATM    3  C4  UNL     1     -35.296  13.315  -4.280  1.00 20.00     0.034 C 
HETATM    4  C5  UNL     1     -34.576  15.466  -2.595  1.00 20.00     0.023 C 
HETATM    5  C6  UNL     1     -36.156  14.534  -4.365  1.00 20.00     0.151 A 
HETATM    6  C7  UNL     1     -35.779  15.681  -3.472  1.00 20.00     0.155 A 
HETATM    7  O10 UNL     1     -36.906  14.844  -3.186  1.00 20.00    -0.375 OA
ENDROOT
BRANCH   4   8
HETATM    8  C8  UNL     1     -34.163  16.758  -1.897  1.00 20.00     0.076 C 
BRANCH   8   9
HETATM    9  C1  UNL     1     -34.762  16.882  -0.523  1.00 20.00     0.231 C 
HETATM   10  O9  UNL     1     -34.304  17.562   0.389  1.00 20.00    -0.307 OA
ENDBRANCH   8   9
ENDBRANCH   4   8
TORSDOF 2
ENDMDL
MODEL 7
REMARK VINA RESULT:      -4.0     11.440     13.451
REMARK  2 active torsions:
REMARK  status: ('A' for Active; 'I' for Inactive)
REMARK    1  A    between atoms: C1_1  and  C8_8 
REMARK    2  A    between atoms: C5_5  and  C8_8 
ROOT
HETATM    1  C2  UNL     1     -33.531  15.959  -4.254  1.00 20.00     0.003 C 
HETATM    2  C3  UNL     1     -34.043  15.821  -5.702  1.00 20.00     0.007 C 
HETATM    3  C4  UNL     1     -34.035  14.885  -3.285  1.00 20.00     0.034 C 
HETATM    4  C5  UNL     1     -35.040  14.668  -5.917  1.00 20.00     0.023 C 
HETATM    5  C6  UNL     1     -33.948  13.532  -3.914  1.00 20.00     0.151 A 
HETATM    6  C7  UNL     1     -34.480  13.410  -5.312  1.00 20.00     0.155 A 
HETATM    7  O10 UNL     1     -35.201  12.896  -4.186  1.00 20.00    -0.375 OA
ENDROOT
BRANCH   4   8
HETATM    8  C8  UNL     1     -35.351  14.478  -7.399  1.00 20.00     0.076 C 
BRANCH   8   9
HETATM    9  C1  UNL     1     -36.757  14.886  -7.744  1.00 20.00     0.231 C 
HETATM   10  O9  UNL     1     -37.618  15.212  -6.935  1.00 20.00    -0.307 OA
ENDBRANCH   8   9
ENDBRANCH   4   8
TORSDOF 2
ENDMDL
MODEL 8
REMARK VINA RESULT:      -4.0     11.653     12.876
REMARK  2 active torsions:
REMARK  status: ('A' for Active; 'I' for Inactive)
REMARK    1  A    between atoms: C1_1  and  C8_8 
REMARK    2  A    between atoms: C5_5  and  C8_8 
ROOT
HETATM    1  C2  UNL     1     -33.488  13.538  -3.773  1.00 20.00     0.003 C 
HETATM    2  C3  UNL     1     -34.879  13.639  -4.430  1.00 20.00     0.007 C 
HETATM    3  C4  UNL     1     -32.747  14.871  -3.622  1.00 20.00     0.034 C 
HETATM    4  C5  UNL     1     -35.262  15.055  -4.896  1.00 20.00     0.023 C 
HETATM    5  C6  UNL     1     -33.671  15.926  -3.106  1.00 20.00     0.151 A 
HETATM    6  C7  UNL     1     -35.008  16.030  -3.779  1.00 20.00     0.155 A 
HETATM    7  O10 UNL     1     -33.969  16.985  -4.021  1.00 20.00    -0.375 OA
ENDROOT
BRANCH   4   8
HETATM    8  C8  UNL     1     -36.715  15.109  -5.358  1.00 20.00     0.076 C 
BRANCH   8   9
HETATM    9  C1  UNL     1     -37.680  15.148  -4.205  1.00 20.00     0.231 C 
HETATM   10  O9  UNL     1     -38.248  14.174  -3.725  1.00 20.00    -0.307 OA
ENDBRANCH   8   9
ENDBRANCH   4   8
TORSDOF 2
ENDMDL
MODEL 9
REMARK VINA RESULT:      -4.0     11.978     13.661
REMARK  2 active torsions:
REMARK  status: ('A' for Active; 'I' for Inactive)
REMARK    1  A    between atoms: C1_1  and  C8_8 
REMARK    2  A    between atoms: C5_5  and  C8_8 
ROOT
HETATM    1  C2  UNL     1     -33.906  13.638  -3.773  1.00 20.00     0.003 C 
HETATM    2  C3  UNL     1     -34.692  13.641  -5.099  1.00 20.00     0.007 C 
HETATM    3  C4  UNL     1     -32.895  14.779  -3.619  1.00 20.00     0.034 C 
HETATM    4  C5  UNL     1     -34.275  14.747  -6.085  1.00 20.00     0.023 C 
HETATM    5  C6  UNL     1     -33.499  16.075  -4.052  1.00 20.00     0.151 A 
HETATM    6  C7  UNL     1     -34.234  16.065  -5.361  1.00 20.00     0.155 A 
HETATM    7  O10 UNL     1     -32.935  16.655  -5.232  1.00 20.00    -0.375 OA
ENDROOT
BRANCH   4   8
HETATM    8  C8  UNL     1     -35.218  14.803  -7.282  1.00 20.00     0.076 C 
BRANCH   8   9
HETATM    9  C1  UNL     1     -36.479  15.565  -6.981  1.00 20.00     0.231 C 
HETATM   10  O9  UNL     1     -37.598  15.072  -6.889  1.00 20.00    -0.307 OA
ENDBRANCH   8   9
ENDBRANCH   4   8
TORSDOF 2
ENDMDL
