MODEL 1
REMARK VINA RESULT:      -5.3      0.000      0.000
REMARK  1 active torsions:
REMARK  status: ('A' for Active; 'I' for Inactive)
REMARK    1  A    between atoms: C1_1  and  C5_5 
ROOT
HETATM    1  C2  UNL     1     -34.428  14.890  -6.067  1.00 20.00     0.022 C 
HETATM    2  C3  UNL     1     -33.825  16.305  -6.124  1.00 20.00     0.011 C 
HETATM    3  C4  UNL     1     -35.766  16.351  -4.716  1.00 20.00     0.031 C 
HETATM    4  C5  UNL     1     -35.061  14.963  -4.675  1.00 20.00     0.057 C 
HETATM    5  C6  UNL     1     -34.272  16.826  -4.741  1.00 20.00    -0.035 C 
HETATM    6  C7  UNL     1     -34.021  15.645  -3.687  1.00 20.00    -0.023 C 
HETATM    7  C8  UNL     1     -33.921  18.252  -4.429  1.00 20.00     0.016 C 
HETATM    8  C9  UNL     1     -32.605  15.046  -3.647  1.00 20.00     0.017 C 
HETATM    9  C10 UNL     1     -34.453  15.875  -2.226  1.00 20.00     0.017 C 
ENDROOT
BRANCH   4  10
HETATM   10  C1  UNL     1     -35.819  13.785  -4.231  1.00 20.00     0.182 C 
HETATM   11  O11 UNL     1     -37.001  14.016  -3.851  1.00 20.00    -0.647 OA
HETATM   12  O12 UNL     1     -35.186  12.694  -4.289  1.00 20.00    -0.647 OA
ENDBRANCH   4  10
TORSDOF 1
ENDMDL
MODEL 2
REMARK VINA RESULT:      -5.3      1.165      2.694
REMARK  1 active torsions:
REMARK  status: ('A' for Active; 'I' for Inactive)
REMARK    1  A    between atoms: C1_1  and  C5_5 
ROOT
HETATM    1  C2  UNL     1     -34.767  15.483  -2.725  1.00 20.00     0.022 C 
HETATM    2  C3  UNL     1     -34.651  16.967  -3.116  1.00 20.00     0.011 C 
HETATM    3  C4  UNL     1     -32.915  15.738  -4.226  1.00 20.00     0.031 C 
HETATM    4  C5  UNL     1     -34.181  14.860  -3.994  1.00 20.00     0.057 C 
HETATM    5  C6  UNL     1     -34.022  16.809  -4.518  1.00 20.00    -0.035 C 
HETATM    6  C7  UNL     1     -34.796  15.612  -5.251  1.00 20.00    -0.023 C 
HETATM    7  C8  UNL     1     -33.679  18.084  -5.233  1.00 20.00     0.016 C 
HETATM    8  C9  UNL     1     -36.328  15.719  -5.315  1.00 20.00     0.017 C 
HETATM    9  C10 UNL     1     -34.316  15.192  -6.653  1.00 20.00     0.017 C 
ENDROOT
BRANCH   4  10
HETATM   10  C1  UNL     1     -34.054  13.396  -4.014  1.00 20.00     0.182 C 
HETATM   11  O11 UNL     1     -35.114  12.767  -4.288  1.00 20.00    -0.647 OA
HETATM   12  O12 UNL     1     -32.897  12.961  -3.755  1.00 20.00    -0.647 OA
ENDBRANCH   4  10
TORSDOF 1
ENDMDL
MODEL 3
REMARK VINA RESULT:      -5.0      1.284      2.094
REMARK  1 active torsions:
REMARK  status: ('A' for Active; 'I' for Inactive)
REMARK    1  A    between atoms: C1_1  and  C5_5 
ROOT
HETATM    1  C2  UNL     1     -32.936  15.731  -4.429  1.00 20.00     0.022 C 
HETATM    2  C3  UNL     1     -33.602  17.091  -4.702  1.00 20.00     0.011 C 
HETATM    3  C4  UNL     1     -34.932  15.366  -5.707  1.00 20.00     0.031 C 
HETATM    4  C5  UNL     1     -34.189  14.852  -4.438  1.00 20.00     0.057 C 
HETATM    5  C6  UNL     1     -35.074  16.636  -4.799  1.00 20.00    -0.035 C 
HETATM    6  C7  UNL     1     -35.325  15.591  -3.609  1.00 20.00    -0.023 C 
HETATM    7  C8  UNL     1     -36.073  17.706  -5.136  1.00 20.00     0.016 C 
HETATM    8  C9  UNL     1     -34.958  16.059  -2.192  1.00 20.00     0.017 C 
HETATM    9  C10 UNL     1     -36.708  14.919  -3.517  1.00 20.00     0.017 C 
ENDROOT
BRANCH   4  10
HETATM   10  C1  UNL     1     -33.985  13.407  -4.261  1.00 20.00     0.182 C 
HETATM   11  O11 UNL     1     -34.811  12.668  -4.865  1.00 20.00    -0.647 OA
HETATM   12  O12 UNL     1     -33.005  13.097  -3.527  1.00 20.00    -0.647 OA
ENDBRANCH   4  10
TORSDOF 1
ENDMDL
MODEL 4
REMARK VINA RESULT:      -4.9      1.472      2.645
REMARK  1 active torsions:
REMARK  status: ('A' for Active; 'I' for Inactive)
REMARK    1  A    between atoms: C1_1  and  C5_5 
ROOT
HETATM    1  C2  UNL     1     -36.511  14.506  -3.822  1.00 20.00     0.022 C 
HETATM    2  C3  UNL     1     -36.854  15.974  -3.509  1.00 20.00     0.011 C 
HETATM    3  C4  UNL     1     -34.647  15.507  -2.694  1.00 20.00     0.031 C 
HETATM    4  C5  UNL     1     -34.991  14.643  -3.944  1.00 20.00     0.057 C 
HETATM    5  C6  UNL     1     -35.433  16.575  -3.531  1.00 20.00    -0.035 C 
HETATM    6  C7  UNL     1     -34.672  15.946  -4.794  1.00 20.00    -0.023 C 
HETATM    7  C8  UNL     1     -35.329  18.035  -3.192  1.00 20.00     0.016 C 
HETATM    8  C9  UNL     1     -35.374  16.076  -6.156  1.00 20.00     0.017 C 
HETATM    9  C10 UNL     1     -33.195  16.326  -5.012  1.00 20.00     0.017 C 
ENDROOT
BRANCH   4  10
HETATM   10  C1  UNL     1     -34.234  13.409  -4.195  1.00 20.00     0.182 C 
HETATM   11  O11 UNL     1     -33.121  13.330  -3.604  1.00 20.00    -0.647 OA
HETATM   12  O12 UNL     1     -34.801  12.588  -4.970  1.00 20.00    -0.647 OA
ENDBRANCH   4  10
TORSDOF 1
ENDMDL
MODEL 5
REMARK VINA RESULT:      -4.9      1.240      2.316
REMARK  1 active torsions:
REMARK  status: ('A' for Active; 'I' for Inactive)
REMARK    1  A    between atoms: C1_1  and  C5_5 
ROOT
HETATM    1  C2  UNL     1     -36.103  15.988  -4.681  1.00 20.00     0.022 C 
HETATM    2  C3  UNL     1     -35.781  16.985  -3.553  1.00 20.00     0.011 C 
HETATM    3  C4  UNL     1     -35.155  14.782  -2.838  1.00 20.00     0.031 C 
HETATM    4  C5  UNL     1     -35.026  14.942  -4.382  1.00 20.00     0.057 C 
HETATM    5  C6  UNL     1     -34.596  16.247  -2.895  1.00 20.00    -0.035 C 
HETATM    6  C7  UNL     1     -33.663  15.700  -4.078  1.00 20.00    -0.023 C 
HETATM    7  C8  UNL     1     -34.020  16.890  -1.666  1.00 20.00     0.016 C 
HETATM    8  C9  UNL     1     -33.194  16.730  -5.118  1.00 20.00     0.017 C 
HETATM    9  C10 UNL     1     -32.433  14.854  -3.697  1.00 20.00     0.017 C 
ENDROOT
BRANCH   4  10
HETATM   10  C1  UNL     1     -35.016  13.742  -5.230  1.00 20.00     0.182 C 
HETATM   11  O11 UNL     1     -34.928  12.645  -4.610  1.00 20.00    -0.647 OA
HETATM   12  O12 UNL     1     -35.097  13.968  -6.469  1.00 20.00    -0.647 OA
ENDBRANCH   4  10
TORSDOF 1
ENDMDL
MODEL 6
REMARK VINA RESULT:      -4.7      1.282      1.688
REMARK  1 active torsions:
REMARK  status: ('A' for Active; 'I' for Inactive)
REMARK    1  A    between atoms: C1_1  and  C5_5 
ROOT
HETATM    1  C2  UNL     1     -34.392  14.832  -6.500  1.00 20.00     0.022 C 
HETATM    2  C3  UNL     1     -35.084  16.171  -6.811  1.00 20.00     0.011 C 
HETATM    3  C4  UNL     1     -36.402  14.978  -5.200  1.00 20.00     0.031 C 
HETATM    4  C5  UNL     1     -34.887  14.642  -5.064  1.00 20.00     0.057 C 
HETATM    5  C6  UNL     1     -35.802  16.403  -5.465  1.00 20.00    -0.035 C 
HETATM    6  C7  UNL     1     -34.761  16.031  -4.303  1.00 20.00    -0.023 C 
HETATM    7  C8  UNL     1     -36.674  17.623  -5.384  1.00 20.00     0.016 C 
HETATM    8  C9  UNL     1     -33.393  16.730  -4.355  1.00 20.00     0.017 C 
HETATM    9  C10 UNL     1     -35.249  16.105  -2.844  1.00 20.00     0.017 C 
ENDROOT
BRANCH   4  10
HETATM   10  C1  UNL     1     -34.484  13.403  -4.384  1.00 20.00     0.182 C 
HETATM   11  O11 UNL     1     -35.393  12.534  -4.264  1.00 20.00    -0.647 OA
HETATM   12  O12 UNL     1     -33.279  13.372  -4.010  1.00 20.00    -0.647 OA
ENDBRANCH   4  10
TORSDOF 1
ENDMDL
MODEL 7
REMARK VINA RESULT:      -4.7      1.953      3.129
REMARK  1 active torsions:
REMARK  status: ('A' for Active; 'I' for Inactive)
REMARK    1  A    between atoms: C1_1  and  C5_5 
ROOT
HETATM    1  C2  UNL     1     -34.315  13.472  -4.879  1.00 20.00     0.022 C 
HETATM    2  C3  UNL     1     -34.207  13.777  -3.374  1.00 20.00     0.011 C 
HETATM    3  C4  UNL     1     -33.648  15.759  -4.605  1.00 20.00     0.031 C 
HETATM    4  C5  UNL     1     -34.672  14.875  -5.376  1.00 20.00     0.057 C 
HETATM    5  C6  UNL     1     -34.532  15.287  -3.399  1.00 20.00    -0.035 C 
HETATM    6  C7  UNL     1     -35.767  15.488  -4.402  1.00 20.00    -0.023 C 
HETATM    7  C8  UNL     1     -34.461  15.998  -2.078  1.00 20.00     0.016 C 
HETATM    8  C9  UNL     1     -37.017  14.633  -4.135  1.00 20.00     0.017 C 
HETATM    9  C10 UNL     1     -36.254  16.925  -4.670  1.00 20.00     0.017 C 
ENDROOT
BRANCH   4  10
HETATM   10  C1  UNL     1     -34.818  15.045  -6.829  1.00 20.00     0.182 C 
HETATM   11  O11 UNL     1     -35.515  14.165  -7.407  1.00 20.00    -0.647 OA
HETATM   12  O12 UNL     1     -34.224  16.052  -7.307  1.00 20.00    -0.647 OA
ENDBRANCH   4  10
TORSDOF 1
ENDMDL
MODEL 8
REMARK VINA RESULT:      -4.6      1.302      2.623
REMARK  1 active torsions:
REMARK  status: ('A' for Active; 'I' for Inactive)
REMARK    1  A    between atoms: C1_1  and  C5_5 
ROOT
HETATM    1  C2  UNL     1     -35.704  16.902  -4.765  1.00 20.00     0.022 C 
HETATM    2  C3  UNL     1     -34.200  16.956  -4.445  1.00 20.00     0.011 C 
HETATM    3  C4  UNL     1     -35.200  15.200  -3.153  1.00 20.00     0.031 C 
HETATM    4  C5  UNL     1     -35.944  15.412  -4.505  1.00 20.00     0.057 C 
HETATM    5  C6  UNL     1     -33.966  15.475  -4.080  1.00 20.00    -0.035 C 
HETATM    6  C7  UNL     1     -34.753  14.591  -5.162  1.00 20.00    -0.023 C 
HETATM    7  C8  UNL     1     -32.579  15.119  -3.627  1.00 20.00     0.016 C 
HETATM    8  C9  UNL     1     -34.445  14.876  -6.641  1.00 20.00     0.017 C 
HETATM    9  C10 UNL     1     -34.746  13.060  -4.988  1.00 20.00     0.017 C 
ENDROOT
BRANCH   4  10
HETATM   10  C1  UNL     1     -37.324  14.930  -4.649  1.00 20.00     0.182 C 
HETATM   11  O11 UNL     1     -37.777  14.287  -3.660  1.00 20.00    -0.647 OA
HETATM   12  O12 UNL     1     -37.877  15.223  -5.746  1.00 20.00    -0.647 OA
ENDBRANCH   4  10
TORSDOF 1
ENDMDL
MODEL 9
REMARK VINA RESULT:      -4.6      1.528      2.039
REMARK  1 active torsions:
REMARK  status: ('A' for Active; 'I' for Inactive)
REMARK    1  A    between atoms: C1_1  and  C5_5 
ROOT
HETATM    1  C2  UNL     1     -36.338  14.798  -5.921  1.00 20.00     0.022 C 
HETATM    2  C3  UNL     1     -34.915  15.216  -6.333  1.00 20.00     0.011 C 
HETATM    3  C4  UNL     1     -35.786  16.848  -4.806  1.00 20.00     0.031 C 
HETATM    4  C5  UNL     1     -36.372  15.431  -4.528  1.00 20.00     0.057 C 
HETATM    5  C6  UNL     1     -34.501  15.987  -5.062  1.00 20.00    -0.035 C 
HETATM    6  C7  UNL     1     -34.992  15.124  -3.804  1.00 20.00    -0.023 C 
HETATM    7  C8  UNL     1     -33.146  16.635  -5.096  1.00 20.00     0.016 C 
HETATM    8  C9  UNL     1     -34.543  13.654  -3.759  1.00 20.00     0.017 C 
HETATM    9  C10 UNL     1     -34.768  15.706  -2.395  1.00 20.00     0.017 C 
ENDROOT
BRANCH   4  10
HETATM   10  C1  UNL     1     -37.629  15.309  -3.777  1.00 20.00     0.182 C 
HETATM   11  O11 UNL     1     -38.113  14.143  -3.722  1.00 20.00    -0.647 OA
HETATM   12  O12 UNL     1     -38.060  16.389  -3.284  1.00 20.00    -0.647 OA
ENDBRANCH   4  10
TORSDOF 1
ENDMDL
