MODEL 1
REMARK VINA RESULT:      -5.0      0.000      0.000
REMARK  0 active torsions:
REMARK  status: ('A' for Active; 'I' for Inactive)
ROOT
HETATM    1  C1  UNL     1     -34.481  13.987  -4.021  1.00 20.00     0.147 C 
HETATM    2  C2  UNL     1     -33.063  14.477  -3.799  1.00 20.00     0.085 C 
HETATM    3  C3  UNL     1     -33.577  16.182  -5.552  1.00 20.00     0.008 C 
HETATM    4  C4  UNL     1     -35.001  15.606  -5.730  1.00 20.00     0.030 C 
HETATM    5  C5  UNL     1     -33.308  15.990  -4.035  1.00 20.00     0.002 C 
HETATM    6  C6  UNL     1     -35.365  15.192  -4.299  1.00 20.00     0.086 C 
HETATM    7  C7  UNL     1     -34.704  16.253  -3.396  1.00 20.00    -0.019 C 
HETATM    8  C8  UNL     1     -34.760  15.965  -1.881  1.00 20.00     0.017 C 
HETATM    9  C9  UNL     1     -35.206  17.697  -3.592  1.00 20.00     0.017 C 
HETATM   10  O10 UNL     1     -34.818  12.813  -4.006  1.00 20.00    -0.296 OA
HETATM   11 BR11 UNL     1     -37.202  14.830  -4.016  1.00 20.00    -0.076 Br
ENDROOT
TORSDOF 0
ENDMDL
MODEL 2
REMARK VINA RESULT:      -4.9      1.763      2.421
REMARK  0 active torsions:
REMARK  status: ('A' for Active; 'I' for Inactive)
ROOT
HETATM    1  C1  UNL     1     -34.630  14.567  -5.705  1.00 20.00     0.147 C 
HETATM    2  C2  UNL     1     -34.457  13.300  -4.887  1.00 20.00     0.085 C 
HETATM    3  C3  UNL     1     -32.801  14.612  -3.553  1.00 20.00     0.008 C 
HETATM    4  C4  UNL     1     -33.022  15.853  -4.450  1.00 20.00     0.030 C 
HETATM    5  C5  UNL     1     -34.208  13.958  -3.504  1.00 20.00     0.002 C 
HETATM    6  C6  UNL     1     -34.520  15.759  -4.768  1.00 20.00     0.086 C 
HETATM    7  C7  UNL     1     -35.164  15.187  -3.490  1.00 20.00    -0.019 C 
HETATM    8  C8  UNL     1     -36.658  14.815  -3.607  1.00 20.00     0.017 C 
HETATM    9  C9  UNL     1     -35.022  16.060  -2.227  1.00 20.00     0.017 C 
HETATM   10  O10 UNL     1     -34.795  14.591  -6.914  1.00 20.00    -0.296 OA
HETATM   11 BR11 UNL     1     -35.279  17.332  -5.499  1.00 20.00    -0.076 Br
ENDROOT
TORSDOF 0
ENDMDL
MODEL 3
REMARK VINA RESULT:      -4.9      2.064      3.076
REMARK  0 active torsions:
REMARK  status: ('A' for Active; 'I' for Inactive)
ROOT
HETATM    1  C1  UNL     1     -33.709  15.790  -4.990  1.00 20.00     0.147 C 
HETATM    2  C2  UNL     1     -34.261  15.278  -6.307  1.00 20.00     0.085 C 
HETATM    3  C3  UNL     1     -34.837  13.201  -5.043  1.00 20.00     0.008 C 
HETATM    4  C4  UNL     1     -34.233  13.791  -3.747  1.00 20.00     0.030 C 
HETATM    5  C5  UNL     1     -35.443  14.445  -5.746  1.00 20.00     0.002 C 
HETATM    6  C6  UNL     1     -34.596  15.276  -3.868  1.00 20.00     0.086 C 
HETATM    7  C7  UNL     1     -35.976  15.295  -4.555  1.00 20.00    -0.019 C 
HETATM    8  C8  UNL     1     -36.496  16.688  -4.967  1.00 20.00     0.017 C 
HETATM    9  C9  UNL     1     -37.116  14.610  -3.775  1.00 20.00     0.017 C 
HETATM   10  O10 UNL     1     -32.701  16.470  -4.880  1.00 20.00    -0.296 OA
HETATM   11 BR11 UNL     1     -34.405  16.276  -2.271  1.00 20.00    -0.076 Br
ENDROOT
TORSDOF 0
ENDMDL
MODEL 4
REMARK VINA RESULT:      -4.9      1.625      1.950
REMARK  0 active torsions:
REMARK  status: ('A' for Active; 'I' for Inactive)
ROOT
HETATM    1  C1  UNL     1     -36.377  14.407  -4.143  1.00 20.00     0.147 C 
HETATM    2  C2  UNL     1     -35.245  13.401  -4.239  1.00 20.00     0.085 C 
HETATM    3  C3  UNL     1     -34.621  14.585  -6.348  1.00 20.00     0.008 C 
HETATM    4  C4  UNL     1     -35.813  15.558  -6.186  1.00 20.00     0.030 C 
HETATM    5  C5  UNL     1     -34.178  14.323  -4.884  1.00 20.00     0.002 C 
HETATM    6  C6  UNL     1     -35.873  15.743  -4.664  1.00 20.00     0.086 C 
HETATM    7  C7  UNL     1     -34.404  15.703  -4.198  1.00 20.00    -0.019 C 
HETATM    8  C8  UNL     1     -34.191  15.682  -2.670  1.00 20.00     0.017 C 
HETATM    9  C9  UNL     1     -33.500  16.821  -4.756  1.00 20.00     0.017 C 
HETATM   10  O10 UNL     1     -37.501  14.148  -3.742  1.00 20.00    -0.296 OA
HETATM   11 BR11 UNL     1     -36.933  17.200  -4.080  1.00 20.00    -0.076 Br
ENDROOT
TORSDOF 0
ENDMDL
MODEL 5
REMARK VINA RESULT:      -4.8      2.229      2.977
REMARK  0 active torsions:
REMARK  status: ('A' for Active; 'I' for Inactive)
ROOT
HETATM    1  C1  UNL     1     -36.003  15.982  -4.638  1.00 20.00     0.147 C 
HETATM    2  C2  UNL     1     -36.446  14.793  -3.807  1.00 20.00     0.085 C 
HETATM    3  C3  UNL     1     -34.805  13.477  -5.156  1.00 20.00     0.008 C 
HETATM    4  C4  UNL     1     -34.426  14.736  -5.970  1.00 20.00     0.030 C 
HETATM    5  C5  UNL     1     -35.088  14.047  -3.739  1.00 20.00     0.002 C 
HETATM    6  C6  UNL     1     -34.514  15.844  -4.913  1.00 20.00     0.086 C 
HETATM    7  C7  UNL     1     -34.035  15.186  -3.604  1.00 20.00    -0.019 C 
HETATM    8  C8  UNL     1     -34.202  16.040  -2.330  1.00 20.00     0.017 C 
HETATM    9  C9  UNL     1     -32.579  14.678  -3.610  1.00 20.00     0.017 C 
HETATM   10  O10 UNL     1     -36.747  16.867  -5.031  1.00 20.00    -0.296 OA
HETATM   11 BR11 UNL     1     -33.710  17.485  -5.409  1.00 20.00    -0.076 Br
ENDROOT
TORSDOF 0
ENDMDL
MODEL 6
REMARK VINA RESULT:      -4.6      1.563      2.525
REMARK  0 active torsions:
REMARK  status: ('A' for Active; 'I' for Inactive)
ROOT
HETATM    1  C1  UNL     1     -34.638  14.064  -4.063  1.00 20.00     0.147 C 
HETATM    2  C2  UNL     1     -34.897  13.859  -5.544  1.00 20.00     0.085 C 
HETATM    3  C3  UNL     1     -37.058  15.045  -5.139  1.00 20.00     0.008 C 
HETATM    4  C4  UNL     1     -36.725  15.194  -3.636  1.00 20.00     0.030 C 
HETATM    5  C5  UNL     1     -35.670  15.174  -5.822  1.00 20.00     0.002 C 
HETATM    6  C6  UNL     1     -35.207  15.415  -3.662  1.00 20.00     0.086 C 
HETATM    7  C7  UNL     1     -34.945  16.234  -4.941  1.00 20.00    -0.019 C 
HETATM    8  C8  UNL     1     -33.460  16.438  -5.308  1.00 20.00     0.017 C 
HETATM    9  C9  UNL     1     -35.607  17.626  -4.986  1.00 20.00     0.017 C 
HETATM   10  O10 UNL     1     -34.092  13.249  -3.337  1.00 20.00    -0.296 OA
HETATM   11 BR11 UNL     1     -34.469  16.065  -2.044  1.00 20.00    -0.076 Br
ENDROOT
TORSDOF 0
ENDMDL
MODEL 7
REMARK VINA RESULT:      -4.5      2.239      3.238
REMARK  0 active torsions:
REMARK  status: ('A' for Active; 'I' for Inactive)
ROOT
HETATM    1  C1  UNL     1     -33.869  16.908  -4.127  1.00 20.00     0.147 C 
HETATM    2  C2  UNL     1     -33.952  16.691  -2.627  1.00 20.00     0.085 C 
HETATM    3  C3  UNL     1     -36.287  15.914  -3.058  1.00 20.00     0.008 C 
HETATM    4  C4  UNL     1     -36.125  16.184  -4.572  1.00 20.00     0.030 C 
HETATM    5  C5  UNL     1     -34.871  15.441  -2.632  1.00 20.00     0.002 C 
HETATM    6  C6  UNL     1     -34.658  15.806  -4.814  1.00 20.00     0.086 C 
HETATM    7  C7  UNL     1     -34.390  14.620  -3.865  1.00 20.00    -0.019 C 
HETATM    8  C8  UNL     1     -32.919  14.161  -3.773  1.00 20.00     0.017 C 
HETATM    9  C9  UNL     1     -35.234  13.357  -4.127  1.00 20.00     0.017 C 
HETATM   10  O10 UNL     1     -33.287  17.840  -4.659  1.00 20.00    -0.296 OA
HETATM   11 BR11 UNL     1     -34.179  15.592  -6.633  1.00 20.00    -0.076 Br
ENDROOT
TORSDOF 0
ENDMDL
MODEL 8
REMARK VINA RESULT:      -4.5      1.817      3.144
REMARK  0 active torsions:
REMARK  status: ('A' for Active; 'I' for Inactive)
ROOT
HETATM    1  C1  UNL     1     -35.502  16.971  -4.554  1.00 20.00     0.147 C 
HETATM    2  C2  UNL     1     -34.051  17.326  -4.818  1.00 20.00     0.085 C 
HETATM    3  C3  UNL     1     -33.575  16.195  -2.641  1.00 20.00     0.008 C 
HETATM    4  C4  UNL     1     -35.078  15.892  -2.441  1.00 20.00     0.030 C 
HETATM    5  C5  UNL     1     -33.394  16.075  -4.179  1.00 20.00     0.002 C 
HETATM    6  C6  UNL     1     -35.546  15.613  -3.874  1.00 20.00     0.086 C 
HETATM    7  C7  UNL     1     -34.355  14.908  -4.553  1.00 20.00    -0.019 C 
HETATM    8  C8  UNL     1     -34.494  14.679  -6.073  1.00 20.00     0.017 C 
HETATM    9  C9  UNL     1     -33.945  13.555  -3.937  1.00 20.00     0.017 C 
HETATM   10  O10 UNL     1     -36.450  17.692  -4.825  1.00 20.00    -0.296 OA
HETATM   11 BR11 UNL     1     -37.243  14.783  -4.012  1.00 20.00    -0.076 Br
ENDROOT
TORSDOF 0
ENDMDL
MODEL 9
REMARK VINA RESULT:      -4.5      1.975      3.178
REMARK  0 active torsions:
REMARK  status: ('A' for Active; 'I' for Inactive)
ROOT
HETATM    1  C1  UNL     1     -33.694  14.833  -4.014  1.00 20.00     0.147 C 
HETATM    2  C2  UNL     1     -34.525  13.565  -3.966  1.00 20.00     0.085 C 
HETATM    3  C3  UNL     1     -36.428  15.059  -3.343  1.00 20.00     0.008 C 
HETATM    4  C4  UNL     1     -35.505  16.299  -3.394  1.00 20.00     0.030 C 
HETATM    5  C5  UNL     1     -35.866  14.155  -4.474  1.00 20.00     0.002 C 
HETATM    6  C6  UNL     1     -34.565  15.955  -4.556  1.00 20.00     0.086 C 
HETATM    7  C7  UNL     1     -35.441  15.183  -5.563  1.00 20.00    -0.019 C 
HETATM    8  C8  UNL     1     -34.688  14.553  -6.754  1.00 20.00     0.017 C 
HETATM    9  C9  UNL     1     -36.625  15.974  -6.156  1.00 20.00     0.017 C 
HETATM   10  O10 UNL     1     -32.533  14.914  -3.643  1.00 20.00    -0.296 OA
HETATM   11 BR11 UNL     1     -33.550  17.410  -5.219  1.00 20.00    -0.076 Br
ENDROOT
TORSDOF 0
ENDMDL
