MODEL 1
REMARK VINA RESULT:      -3.5      0.000      0.000
REMARK  1 active torsions:
REMARK  status: ('A' for Active; 'I' for Inactive)
REMARK    1  A    between atoms: C4_4  and  C6_6 
ROOT
HETATM    1  C1  UNL     1     -36.891  15.021  -3.420  1.00 20.00     0.280 C 
HETATM    2  C2  UNL     1     -36.257  14.446  -4.681  1.00 20.00     0.104 C 
HETATM    3  C3  UNL     1     -33.898  15.031  -3.425  1.00 20.00     0.109 C 
HETATM    4  C4  UNL     1     -34.795  15.542  -2.293  1.00 20.00     0.229 C 
HETATM    5  N7  UNL     1     -36.073  16.063  -2.798  1.00 20.00     0.089 N 
HETATM    6  S8  UNL     1     -34.667  13.650  -4.322  1.00 20.00    -0.165 SA
HETATM    7  H21 UNL     1     -35.894  16.802  -3.477  1.00 20.00     0.316 HD
ENDROOT
BRANCH   4   8
HETATM    8  C6  UNL     1     -34.082  16.668  -1.540  1.00 20.00     0.032 C 
HETATM    9  C5  UNL     1     -34.792  17.018  -0.275  1.00 20.00     0.007 C 
ENDBRANCH   4   8
TORSDOF 1
ENDMDL
MODEL 2
REMARK VINA RESULT:      -3.4      1.374      1.411
REMARK  1 active torsions:
REMARK  status: ('A' for Active; 'I' for Inactive)
REMARK    1  A    between atoms: C4_4  and  C6_6 
ROOT
HETATM    1  C1  UNL     1     -35.947  14.703  -3.861  1.00 20.00     0.280 C 
HETATM    2  C2  UNL     1     -35.420  15.431  -5.091  1.00 20.00     0.104 C 
HETATM    3  C3  UNL     1     -33.871  16.780  -3.283  1.00 20.00     0.109 C 
HETATM    4  C4  UNL     1     -34.570  15.897  -2.245  1.00 20.00     0.229 C 
HETATM    5  N7  UNL     1     -35.934  15.537  -2.658  1.00 20.00     0.089 N 
HETATM    6  S8  UNL     1     -33.688  15.928  -4.877  1.00 20.00    -0.165 SA
HETATM    7  H21 UNL     1     -36.472  16.385  -2.829  1.00 20.00     0.316 HD
ENDROOT
BRANCH   4   8
HETATM    8  C6  UNL     1     -34.655  16.642  -0.909  1.00 20.00     0.032 C 
HETATM    9  C5  UNL     1     -33.607  17.699  -0.804  1.00 20.00     0.007 C 
ENDBRANCH   4   8
TORSDOF 1
ENDMDL
MODEL 3
REMARK VINA RESULT:      -3.4      1.943      2.142
REMARK  1 active torsions:
REMARK  status: ('A' for Active; 'I' for Inactive)
REMARK    1  A    between atoms: C4_4  and  C6_6 
ROOT
HETATM    1  C1  UNL     1     -34.327  13.450  -4.452  1.00 20.00     0.280 C 
HETATM    2  C2  UNL     1     -35.064  13.945  -5.690  1.00 20.00     0.104 C 
HETATM    3  C3  UNL     1     -34.296  16.421  -4.816  1.00 20.00     0.109 C 
HETATM    4  C4  UNL     1     -33.636  15.651  -3.668  1.00 20.00     0.229 C 
HETATM    5  N7  UNL     1     -34.360  14.412  -3.349  1.00 20.00     0.089 N 
HETATM    6  S8  UNL     1     -34.309  15.454  -6.354  1.00 20.00    -0.165 SA
HETATM    7  H21 UNL     1     -35.329  14.634  -3.123  1.00 20.00     0.316 HD
ENDROOT
BRANCH   4   8
HETATM    8  C6  UNL     1     -33.607  16.526  -2.412  1.00 20.00     0.032 C 
HETATM    9  C5  UNL     1     -34.766  16.239  -1.516  1.00 20.00     0.007 C 
ENDBRANCH   4   8
TORSDOF 1
ENDMDL
MODEL 4
REMARK VINA RESULT:      -3.4      1.250      1.279
REMARK  1 active torsions:
REMARK  status: ('A' for Active; 'I' for Inactive)
REMARK    1  A    between atoms: C4_4  and  C6_6 
ROOT
HETATM    1  C1  UNL     1     -35.970  15.708  -5.236  1.00 20.00     0.280 C 
HETATM    2  C2  UNL     1     -35.259  14.553  -5.931  1.00 20.00     0.104 C 
HETATM    3  C3  UNL     1     -33.810  14.417  -3.615  1.00 20.00     0.109 C 
HETATM    4  C4  UNL     1     -34.687  15.592  -3.169  1.00 20.00     0.229 C 
HETATM    5  N7  UNL     1     -35.103  16.429  -4.303  1.00 20.00     0.089 N 
HETATM    6  S8  UNL     1     -34.700  13.304  -4.741  1.00 20.00    -0.165 SA
HETATM    7  H21 UNL     1     -34.278  16.764  -4.799  1.00 20.00     0.316 HD
ENDROOT
BRANCH   4   8
HETATM    8  C6  UNL     1     -33.908  16.470  -2.185  1.00 20.00     0.032 C 
HETATM    9  C5  UNL     1     -34.620  16.595  -0.879  1.00 20.00     0.007 C 
ENDBRANCH   4   8
TORSDOF 1
ENDMDL
MODEL 5
REMARK VINA RESULT:      -3.4      2.630      3.874
REMARK  1 active torsions:
REMARK  status: ('A' for Active; 'I' for Inactive)
REMARK    1  A    between atoms: C4_4  and  C6_6 
ROOT
HETATM    1  C1  UNL     1     -33.327  17.103  -5.262  1.00 20.00     0.280 C 
HETATM    2  C2  UNL     1     -34.229  17.959  -4.381  1.00 20.00     0.104 C 
HETATM    3  C3  UNL     1     -34.198  15.785  -2.720  1.00 20.00     0.109 C 
HETATM    4  C4  UNL     1     -33.291  15.164  -3.788  1.00 20.00     0.229 C 
HETATM    5  N7  UNL     1     -33.599  15.671  -5.132  1.00 20.00     0.089 N 
HETATM    6  S8  UNL     1     -33.987  17.586  -2.622  1.00 20.00    -0.165 SA
HETATM    7  H21 UNL     1     -34.580  15.493  -5.346  1.00 20.00     0.316 HD
ENDROOT
BRANCH   4   8
HETATM    8  C6  UNL     1     -33.472  13.644  -3.795  1.00 20.00     0.032 C 
HETATM    9  C5  UNL     1     -34.725  13.244  -4.502  1.00 20.00     0.007 C 
ENDBRANCH   4   8
TORSDOF 1
ENDMDL
MODEL 6
REMARK VINA RESULT:      -3.4     11.750     12.048
REMARK  1 active torsions:
REMARK  status: ('A' for Active; 'I' for Inactive)
REMARK    1  A    between atoms: C4_4  and  C6_6 
ROOT
HETATM    1  C1  UNL     1     -35.466   5.059   4.156  1.00 20.00     0.280 C 
HETATM    2  C2  UNL     1     -35.090   4.835   5.615  1.00 20.00     0.104 C 
HETATM    3  C3  UNL     1     -32.945   6.424   5.016  1.00 20.00     0.109 C 
HETATM    4  C4  UNL     1     -33.561   6.477   3.614  1.00 20.00     0.229 C 
HETATM    5  N7  UNL     1     -34.299   5.248   3.292  1.00 20.00     0.089 N 
HETATM    6  S8  UNL     1     -34.217   6.269   6.304  1.00 20.00    -0.165 SA
HETATM    7  H21 UNL     1     -33.678   4.444   3.382  1.00 20.00     0.316 HD
ENDROOT
BRANCH   4   8
HETATM    8  C6  UNL     1     -32.452   6.657   2.573  1.00 20.00     0.032 C 
HETATM    9  C5  UNL     1     -32.143   8.099   2.346  1.00 20.00     0.007 C 
ENDBRANCH   4   8
TORSDOF 1
ENDMDL
MODEL 7
REMARK VINA RESULT:      -3.3      1.841      2.370
REMARK  1 active torsions:
REMARK  status: ('A' for Active; 'I' for Inactive)
REMARK    1  A    between atoms: C4_4  and  C6_6 
ROOT
HETATM    1  C1  UNL     1     -33.710  17.695  -4.444  1.00 20.00     0.280 C 
HETATM    2  C2  UNL     1     -33.266  16.448  -5.199  1.00 20.00     0.104 C 
HETATM    3  C3  UNL     1     -34.345  15.115  -3.068  1.00 20.00     0.109 C 
HETATM    4  C4  UNL     1     -34.676  16.516  -2.545  1.00 20.00     0.229 C 
HETATM    5  N7  UNL     1     -33.696  17.515  -2.992  1.00 20.00     0.089 N 
HETATM    6  S8  UNL     1     -34.377  15.050  -4.883  1.00 20.00    -0.165 SA
HETATM    7  H21 UNL     1     -32.763  17.232  -2.696  1.00 20.00     0.316 HD
ENDROOT
BRANCH   4   8
HETATM    8  C6  UNL     1     -34.684  16.504  -1.013  1.00 20.00     0.032 C 
HETATM    9  C5  UNL     1     -33.936  17.668  -0.452  1.00 20.00     0.007 C 
ENDBRANCH   4   8
TORSDOF 1
ENDMDL
MODEL 8
REMARK VINA RESULT:      -3.3      2.451      4.499
REMARK  1 active torsions:
REMARK  status: ('A' for Active; 'I' for Inactive)
REMARK    1  A    between atoms: C4_4  and  C6_6 
ROOT
HETATM    1  C1  UNL     1     -33.115  15.378  -3.727  1.00 20.00     0.280 C 
HETATM    2  C2  UNL     1     -34.237  16.035  -2.933  1.00 20.00     0.104 C 
HETATM    3  C3  UNL     1     -35.733  15.535  -5.168  1.00 20.00     0.109 C 
HETATM    4  C4  UNL     1     -34.440  14.926  -5.720  1.00 20.00     0.229 C 
HETATM    5  N7  UNL     1     -33.245  15.581  -5.171  1.00 20.00     0.089 N 
HETATM    6  S8  UNL     1     -35.854  15.338  -3.367  1.00 20.00    -0.165 SA
HETATM    7  H21 UNL     1     -33.285  16.581  -5.368  1.00 20.00     0.316 HD
ENDROOT
BRANCH   4   8
HETATM    8  C6  UNL     1     -34.411  15.075  -7.244  1.00 20.00     0.032 C 
HETATM    9  C5  UNL     1     -35.647  14.523  -7.872  1.00 20.00     0.007 C 
ENDBRANCH   4   8
TORSDOF 1
ENDMDL
MODEL 9
REMARK VINA RESULT:      -3.2     12.279     13.626
REMARK  1 active torsions:
REMARK  status: ('A' for Active; 'I' for Inactive)
REMARK    1  A    between atoms: C4_4  and  C6_6 
ROOT
HETATM    1  C1  UNL     1     -40.855   4.679  -0.838  1.00 20.00     0.280 C 
HETATM    2  C2  UNL     1     -41.153   6.107  -1.277  1.00 20.00     0.104 C 
HETATM    3  C3  UNL     1     -42.964   4.918  -2.948  1.00 20.00     0.109 C 
HETATM    4  C4  UNL     1     -42.467   3.612  -2.320  1.00 20.00     0.229 C 
HETATM    5  N7  UNL     1     -41.060   3.701  -1.908  1.00 20.00     0.089 N 
HETATM    6  S8  UNL     1     -42.887   6.302  -1.773  1.00 20.00    -0.165 SA
HETATM    7  H21 UNL     1     -40.486   3.955  -2.711  1.00 20.00     0.316 HD
ENDROOT
BRANCH   4   8
HETATM    8  C6  UNL     1     -42.599   2.472  -3.334  1.00 20.00     0.032 C 
HETATM    9  C5  UNL     1     -41.264   1.941  -3.737  1.00 20.00     0.007 C 
ENDBRANCH   4   8
TORSDOF 1
ENDMDL
