MODEL 1
REMARK VINA RESULT:      -4.4      0.000      0.000
REMARK  1 active torsions:
REMARK  status: ('A' for Active; 'I' for Inactive)
REMARK    1  A    between atoms: C3_3  and  O10_10 
ROOT
HETATM    1  C1  UNL     1     -36.183  14.455  -5.050  1.00 20.00     0.041 C 
HETATM    2  C2  UNL     1     -33.892  15.362  -5.182  1.00 20.00     0.020 C 
HETATM    3  C3  UNL     1     -35.239  13.638  -4.167  1.00 20.00     0.126 C 
HETATM    4  C4  UNL     1     -35.267  15.367  -5.900  1.00 20.00    -0.045 C 
HETATM    5  C5  UNL     1     -34.090  14.612  -3.846  1.00 20.00    -0.021 C 
HETATM    6  C6  UNL     1     -35.845  16.786  -5.989  1.00 20.00     0.015 C 
HETATM    7  C7  UNL     1     -35.122  14.813  -7.327  1.00 20.00     0.015 C 
HETATM    8  C8  UNL     1     -32.795  13.908  -3.418  1.00 20.00     0.017 C 
HETATM    9  C9  UNL     1     -34.499  15.590  -2.728  1.00 20.00     0.017 C 
ENDROOT
BRANCH   3  10
HETATM   10  O10 UNL     1     -34.792  12.513  -4.918  1.00 20.00    -0.395 OA
HETATM   11  H28 UNL     1     -34.769  12.783  -5.852  1.00 20.00     0.210 HD
ENDBRANCH   3  10
TORSDOF 1
ENDMDL
MODEL 2
REMARK VINA RESULT:      -4.4      1.405      3.441
REMARK  1 active torsions:
REMARK  status: ('A' for Active; 'I' for Inactive)
REMARK    1  A    between atoms: C3_3  and  O10_10 
ROOT
HETATM    1  C1  UNL     1     -34.748  13.815  -3.712  1.00 20.00     0.041 C 
HETATM    2  C2  UNL     1     -35.044  16.071  -4.667  1.00 20.00     0.020 C 
HETATM    3  C3  UNL     1     -36.000  13.858  -4.588  1.00 20.00     0.126 C 
HETATM    4  C4  UNL     1     -34.309  15.290  -3.547  1.00 20.00    -0.045 C 
HETATM    5  C5  UNL     1     -35.733  15.019  -5.565  1.00 20.00    -0.021 C 
HETATM    6  C6  UNL     1     -32.786  15.421  -3.680  1.00 20.00     0.015 C 
HETATM    7  C7  UNL     1     -34.722  15.829  -2.166  1.00 20.00     0.015 C 
HETATM    8  C8  UNL     1     -37.011  15.592  -6.194  1.00 20.00     0.017 C 
HETATM    9  C9  UNL     1     -34.794  14.573  -6.701  1.00 20.00     0.017 C 
ENDROOT
BRANCH   3  10
HETATM   10  O10 UNL     1     -37.121  14.112  -3.748  1.00 20.00    -0.395 OA
HETATM   11  H28 UNL     1     -36.773  14.376  -2.879  1.00 20.00     0.210 HD
ENDBRANCH   3  10
TORSDOF 1
ENDMDL
MODEL 3
REMARK VINA RESULT:      -4.3      1.846      2.691
REMARK  1 active torsions:
REMARK  status: ('A' for Active; 'I' for Inactive)
REMARK    1  A    between atoms: C3_3  and  O10_10 
ROOT
HETATM    1  C1  UNL     1     -34.112  14.323  -4.002  1.00 20.00     0.041 C 
HETATM    2  C2  UNL     1     -35.383  16.436  -4.108  1.00 20.00     0.020 C 
HETATM    3  C3  UNL     1     -33.219  15.498  -3.602  1.00 20.00     0.126 C 
HETATM    4  C4  UNL     1     -35.395  14.960  -4.586  1.00 20.00    -0.045 C 
HETATM    5  C5  UNL     1     -34.210  16.571  -3.112  1.00 20.00    -0.021 C 
HETATM    6  C6  UNL     1     -36.645  14.221  -4.087  1.00 20.00     0.015 C 
HETATM    7  C7  UNL     1     -35.380  14.901  -6.123  1.00 20.00     0.015 C 
HETATM    8  C8  UNL     1     -33.632  17.993  -3.140  1.00 20.00     0.017 C 
HETATM    9  C9  UNL     1     -34.676  16.269  -1.675  1.00 20.00     0.017 C 
ENDROOT
BRANCH   3  10
HETATM   10  O10 UNL     1     -32.500  15.921  -4.756  1.00 20.00    -0.395 OA
HETATM   11  H28 UNL     1     -31.741  15.321  -4.856  1.00 20.00     0.210 HD
ENDBRANCH   3  10
TORSDOF 1
ENDMDL
MODEL 4
REMARK VINA RESULT:      -4.3      1.721      3.368
REMARK  1 active torsions:
REMARK  status: ('A' for Active; 'I' for Inactive)
REMARK    1  A    between atoms: C3_3  and  O10_10 
ROOT
HETATM    1  C1  UNL     1     -33.848  16.834  -3.877  1.00 20.00     0.041 C 
HETATM    2  C2  UNL     1     -35.446  15.038  -3.321  1.00 20.00     0.020 C 
HETATM    3  C3  UNL     1     -33.433  15.528  -4.555  1.00 20.00     0.126 C 
HETATM    4  C4  UNL     1     -34.963  16.444  -2.878  1.00 20.00    -0.045 C 
HETATM    5  C5  UNL     1     -34.745  14.728  -4.662  1.00 20.00    -0.021 C 
HETATM    6  C6  UNL     1     -36.108  17.465  -2.915  1.00 20.00     0.015 C 
HETATM    7  C7  UNL     1     -34.412  16.388  -1.443  1.00 20.00     0.015 C 
HETATM    8  C8  UNL     1     -34.527  13.218  -4.828  1.00 20.00     0.017 C 
HETATM    9  C9  UNL     1     -35.593  15.226  -5.848  1.00 20.00     0.017 C 
ENDROOT
BRANCH   3  10
HETATM   10  O10 UNL     1     -32.478  14.880  -3.721  1.00 20.00    -0.395 OA
HETATM   11  H28 UNL     1     -32.643  15.179  -2.810  1.00 20.00     0.210 HD
ENDBRANCH   3  10
TORSDOF 1
ENDMDL
MODEL 5
REMARK VINA RESULT:      -4.2      1.912      3.228
REMARK  1 active torsions:
REMARK  status: ('A' for Active; 'I' for Inactive)
REMARK    1  A    between atoms: C3_3  and  O10_10 
ROOT
HETATM    1  C1  UNL     1     -34.781  16.985  -4.620  1.00 20.00     0.041 C 
HETATM    2  C2  UNL     1     -34.451  15.570  -2.626  1.00 20.00     0.020 C 
HETATM    3  C3  UNL     1     -33.998  15.725  -4.990  1.00 20.00     0.126 C 
HETATM    4  C4  UNL     1     -34.820  17.008  -3.074  1.00 20.00    -0.045 C 
HETATM    5  C5  UNL     1     -34.395  14.706  -3.906  1.00 20.00    -0.021 C 
HETATM    6  C6  UNL     1     -36.213  17.410  -2.571  1.00 20.00     0.015 C 
HETATM    7  C7  UNL     1     -33.796  18.015  -2.520  1.00 20.00     0.015 C 
HETATM    8  C8  UNL     1     -33.386  13.560  -3.747  1.00 20.00     0.017 C 
HETATM    9  C9  UNL     1     -35.776  14.094  -4.211  1.00 20.00     0.017 C 
ENDROOT
BRANCH   3  10
HETATM   10  O10 UNL     1     -32.609  16.038  -4.947  1.00 20.00    -0.395 OA
HETATM   11  H28 UNL     1     -32.536  17.006  -4.882  1.00 20.00     0.210 HD
ENDBRANCH   3  10
TORSDOF 1
ENDMDL
MODEL 6
REMARK VINA RESULT:      -4.2      1.935      3.007
REMARK  1 active torsions:
REMARK  status: ('A' for Active; 'I' for Inactive)
REMARK    1  A    between atoms: C3_3  and  O10_10 
ROOT
HETATM    1  C1  UNL     1     -34.290  15.044  -3.233  1.00 20.00     0.041 C 
HETATM    2  C2  UNL     1     -35.171  15.796  -5.412  1.00 20.00     0.020 C 
HETATM    3  C3  UNL     1     -33.415  16.162  -3.800  1.00 20.00     0.126 C 
HETATM    4  C4  UNL     1     -35.233  14.632  -4.388  1.00 20.00    -0.045 C 
HETATM    5  C5  UNL     1     -34.355  16.928  -4.750  1.00 20.00    -0.021 C 
HETATM    6  C6  UNL     1     -36.662  14.417  -3.873  1.00 20.00     0.015 C 
HETATM    7  C7  UNL     1     -34.753  13.325  -5.042  1.00 20.00     0.015 C 
HETATM    8  C8  UNL     1     -33.612  17.755  -5.808  1.00 20.00     0.017 C 
HETATM    9  C9  UNL     1     -35.278  17.875  -3.959  1.00 20.00     0.017 C 
ENDROOT
BRANCH   3  10
HETATM   10  O10 UNL     1     -32.325  15.563  -4.495  1.00 20.00    -0.395 OA
HETATM   11  H28 UNL     1     -32.692  15.134  -5.287  1.00 20.00     0.210 HD
ENDBRANCH   3  10
TORSDOF 1
ENDMDL
MODEL 7
REMARK VINA RESULT:      -4.1      1.270      2.911
REMARK  1 active torsions:
REMARK  status: ('A' for Active; 'I' for Inactive)
REMARK    1  A    between atoms: C3_3  and  O10_10 
ROOT
HETATM    1  C1  UNL     1     -34.303  14.309  -5.596  1.00 20.00     0.041 C 
HETATM    2  C2  UNL     1     -35.317  15.816  -3.925  1.00 20.00     0.020 C 
HETATM    3  C3  UNL     1     -35.666  13.773  -5.159  1.00 20.00     0.126 C 
HETATM    4  C4  UNL     1     -33.971  15.450  -4.605  1.00 20.00    -0.045 C 
HETATM    5  C5  UNL     1     -36.418  15.023  -4.663  1.00 20.00    -0.021 C 
HETATM    6  C6  UNL     1     -33.373  16.655  -5.344  1.00 20.00     0.015 C 
HETATM    7  C7  UNL     1     -32.956  14.976  -3.551  1.00 20.00     0.015 C 
HETATM    8  C8  UNL     1     -37.583  14.698  -3.718  1.00 20.00     0.017 C 
HETATM    9  C9  UNL     1     -36.972  15.834  -5.849  1.00 20.00     0.017 C 
ENDROOT
BRANCH   3  10
HETATM   10  O10 UNL     1     -35.457  12.825  -4.117  1.00 20.00    -0.395 OA
HETATM   11  H28 UNL     1     -35.645  11.946  -4.488  1.00 20.00     0.210 HD
ENDBRANCH   3  10
TORSDOF 1
ENDMDL
MODEL 8
REMARK VINA RESULT:      -4.1      2.170      3.451
REMARK  1 active torsions:
REMARK  status: ('A' for Active; 'I' for Inactive)
REMARK    1  A    between atoms: C3_3  and  O10_10 
ROOT
HETATM    1  C1  UNL     1     -33.298  16.075  -4.280  1.00 20.00     0.041 C 
HETATM    2  C2  UNL     1     -35.445  15.140  -3.503  1.00 20.00     0.020 C 
HETATM    3  C3  UNL     1     -34.232  17.199  -3.830  1.00 20.00     0.126 C 
HETATM    4  C4  UNL     1     -34.177  14.803  -4.330  1.00 20.00    -0.045 C 
HETATM    5  C5  UNL     1     -35.193  16.512  -2.840  1.00 20.00    -0.021 C 
HETATM    6  C6  UNL     1     -33.428  13.601  -3.739  1.00 20.00     0.015 C 
HETATM    7  C7  UNL     1     -34.563  14.466  -5.780  1.00 20.00     0.015 C 
HETATM    8  C8  UNL     1     -36.511  17.273  -2.643  1.00 20.00     0.017 C 
HETATM    9  C9  UNL     1     -34.527  16.338  -1.463  1.00 20.00     0.017 C 
ENDROOT
BRANCH   3  10
HETATM   10  O10 UNL     1     -34.912  17.697  -4.977  1.00 20.00    -0.395 OA
HETATM   11  H28 UNL     1     -34.481  18.533  -5.225  1.00 20.00     0.210 HD
ENDBRANCH   3  10
TORSDOF 1
ENDMDL
MODEL 9
REMARK VINA RESULT:      -4.1     11.296     12.693
REMARK  1 active torsions:
REMARK  status: ('A' for Active; 'I' for Inactive)
REMARK    1  A    between atoms: C3_3  and  O10_10 
ROOT
HETATM    1  C1  UNL     1     -41.124   6.374  -0.973  1.00 20.00     0.041 C 
HETATM    2  C2  UNL     1     -43.385   5.632  -1.626  1.00 20.00     0.020 C 
HETATM    3  C3  UNL     1     -41.481   5.071  -0.257  1.00 20.00     0.126 C 
HETATM    4  C4  UNL     1     -42.442   6.863  -1.619  1.00 20.00    -0.045 C 
HETATM    5  C5  UNL     1     -42.542   4.422  -1.166  1.00 20.00    -0.021 C 
HETATM    6  C6  UNL     1     -42.190   7.382  -3.041  1.00 20.00     0.015 C 
HETATM    7  C7  UNL     1     -43.063   8.002  -0.791  1.00 20.00     0.015 C 
HETATM    8  C8  UNL     1     -43.417   3.390  -0.442  1.00 20.00     0.017 C 
HETATM    9  C9  UNL     1     -41.879   3.730  -2.372  1.00 20.00     0.017 C 
ENDROOT
BRANCH   3  10
HETATM   10  O10 UNL     1     -42.004   5.399   1.026  1.00 20.00    -0.395 OA
HETATM   11  H28 UNL     1     -42.970   5.303   0.974  1.00 20.00     0.210 HD
ENDBRANCH   3  10
TORSDOF 1
ENDMDL
