MODEL 1
REMARK VINA RESULT:      -4.9      0.000      0.000
REMARK  3 active torsions:
REMARK  status: ('A' for Active; 'I' for Inactive)
REMARK    1  A    between atoms: C1_1  and  C6_6 
REMARK    2  A    between atoms: C1_1  and  O8_8 
REMARK    3  A    between atoms: C4_4  and  C6_6 
ROOT
HETATM    1  C6  UNL     1     -32.909   6.132   3.019  1.00 20.00     0.115 C 
ENDROOT
BRANCH   1   2
HETATM    2  C1  UNL     1     -32.109   7.411   2.845  1.00 20.00     0.139 C 
HETATM    3  O7  UNL     1     -32.152   8.139   1.865  1.00 20.00    -0.650 OA
BRANCH   2   4
HETATM    4  O8  UNL     1     -31.328   7.650   3.930  1.00 20.00    -0.776 OA
HETATM    5  H18 UNL     1     -30.663   8.349   3.754  1.00 20.00     0.167 HD
ENDBRANCH   2   4
ENDBRANCH   1   2
BRANCH   1   6
HETATM    6  C4  UNL     1     -34.014   6.264   4.009  1.00 20.00    -0.001 A 
HETATM    7  C2  UNL     1     -35.272   5.451   3.852  1.00 20.00     0.010 A 
HETATM    8  C3  UNL     1     -34.309   5.140   4.967  1.00 20.00    -0.014 A 
HETATM    9  C5  UNL     1     -34.677   5.439   6.380  1.00 20.00     0.010 C 
ENDBRANCH   1   6
TORSDOF 3
ENDMDL
MODEL 2
REMARK VINA RESULT:      -4.8      2.745      4.209
REMARK  3 active torsions:
REMARK  status: ('A' for Active; 'I' for Inactive)
REMARK    1  A    between atoms: C1_1  and  C6_6 
REMARK    2  A    between atoms: C1_1  and  O8_8 
REMARK    3  A    between atoms: C4_4  and  C6_6 
ROOT
HETATM    1  C6  UNL     1     -34.675   5.663   3.895  1.00 20.00     0.115 C 
ENDROOT
BRANCH   1   2
HETATM    2  C1  UNL     1     -34.923   4.976   5.226  1.00 20.00     0.139 C 
HETATM    3  O7  UNL     1     -34.761   5.489   6.323  1.00 20.00    -0.650 OA
BRANCH   2   4
HETATM    4  O8  UNL     1     -35.353   3.701   5.046  1.00 20.00    -0.776 OA
HETATM    5  H18 UNL     1     -35.118   3.125   5.804  1.00 20.00     0.167 HD
ENDBRANCH   2   4
ENDBRANCH   1   2
BRANCH   1   6
HETATM    6  C4  UNL     1     -33.395   6.423   3.859  1.00 20.00    -0.001 A 
HETATM    7  C2  UNL     1     -32.136   5.759   3.364  1.00 20.00     0.010 A 
HETATM    8  C3  UNL     1     -32.795   6.833   2.539  1.00 20.00    -0.014 A 
HETATM    9  C5  UNL     1     -32.151   8.168   2.394  1.00 20.00     0.010 C 
ENDBRANCH   1   6
TORSDOF 3
ENDMDL
MODEL 3
REMARK VINA RESULT:      -4.5     10.580     11.396
REMARK  3 active torsions:
REMARK  status: ('A' for Active; 'I' for Inactive)
REMARK    1  A    between atoms: C1_1  and  C6_6 
REMARK    2  A    between atoms: C1_1  and  O8_8 
REMARK    3  A    between atoms: C4_4  and  C6_6 
ROOT
HETATM    1  C6  UNL     1     -35.099  14.817  -3.433  1.00 20.00     0.115 C 
ENDROOT
BRANCH   1   2
HETATM    2  C1  UNL     1     -34.443  13.496  -3.794  1.00 20.00     0.139 C 
HETATM    3  O7  UNL     1     -33.242  13.275  -3.760  1.00 20.00    -0.650 OA
BRANCH   2   4
HETATM    4  O8  UNL     1     -35.369  12.576  -4.165  1.00 20.00    -0.776 OA
HETATM    5  H18 UNL     1     -35.247  12.288  -5.095  1.00 20.00     0.167 HD
ENDBRANCH   2   4
ENDBRANCH   1   2
BRANCH   1   6
HETATM    6  C4  UNL     1     -34.326  15.597  -2.427  1.00 20.00    -0.001 A 
HETATM    7  C2  UNL     1     -33.887  17.005  -2.736  1.00 20.00     0.010 A 
HETATM    8  C3  UNL     1     -34.967  16.760  -1.716  1.00 20.00    -0.014 A 
HETATM    9  C5  UNL     1     -34.698  16.992  -0.269  1.00 20.00     0.010 C 
ENDBRANCH   1   6
TORSDOF 3
ENDMDL
MODEL 4
REMARK VINA RESULT:      -4.2     10.917     11.564
REMARK  3 active torsions:
REMARK  status: ('A' for Active; 'I' for Inactive)
REMARK    1  A    between atoms: C1_1  and  C6_6 
REMARK    2  A    between atoms: C1_1  and  O8_8 
REMARK    3  A    between atoms: C4_4  and  C6_6 
ROOT
HETATM    1  C6  UNL     1     -33.750  14.152  -3.581  1.00 20.00     0.115 C 
ENDROOT
BRANCH   1   2
HETATM    2  C1  UNL     1     -34.648  13.560  -4.652  1.00 20.00     0.139 C 
HETATM    3  O7  UNL     1     -34.715  13.951  -5.808  1.00 20.00    -0.650 OA
BRANCH   2   4
HETATM    4  O8  UNL     1     -35.379  12.527  -4.161  1.00 20.00    -0.776 OA
HETATM    5  H18 UNL     1     -36.124  12.839  -3.604  1.00 20.00     0.167 HD
ENDBRANCH   2   4
ENDBRANCH   1   2
BRANCH   1   6
HETATM    6  C4  UNL     1     -34.089  15.563  -3.249  1.00 20.00    -0.001 A 
HETATM    7  C2  UNL     1     -35.513  15.947  -2.945  1.00 20.00     0.010 A 
HETATM    8  C3  UNL     1     -34.486  15.935  -1.844  1.00 20.00    -0.014 A 
HETATM    9  C5  UNL     1     -34.012  17.216  -1.248  1.00 20.00     0.010 C 
ENDBRANCH   1   6
TORSDOF 3
ENDMDL
MODEL 5
REMARK VINA RESULT:      -3.8      1.439      1.654
REMARK  3 active torsions:
REMARK  status: ('A' for Active; 'I' for Inactive)
REMARK    1  A    between atoms: C1_1  and  C6_6 
REMARK    2  A    between atoms: C1_1  and  O8_8 
REMARK    3  A    between atoms: C4_4  and  C6_6 
ROOT
HETATM    1  C6  UNL     1     -32.169   7.176   2.675  1.00 20.00     0.115 C 
ENDROOT
BRANCH   1   2
HETATM    2  C1  UNL     1     -32.182   8.479   1.895  1.00 20.00     0.139 C 
HETATM    3  O7  UNL     1     -32.822   9.474   2.200  1.00 20.00    -0.650 OA
BRANCH   2   4
HETATM    4  O8  UNL     1     -31.383   8.402   0.801  1.00 20.00    -0.776 OA
HETATM    5  H18 UNL     1     -31.610   7.633   0.236  1.00 20.00     0.167 HD
ENDBRANCH   2   4
ENDBRANCH   1   2
BRANCH   1   6
HETATM    6  C4  UNL     1     -33.413   6.955   3.463  1.00 20.00    -0.001 A 
HETATM    7  C2  UNL     1     -34.193   5.676   3.301  1.00 20.00     0.010 A 
HETATM    8  C3  UNL     1     -33.434   5.938   4.575  1.00 20.00    -0.014 A 
HETATM    9  C5  UNL     1     -34.168   6.228   5.838  1.00 20.00     0.010 C 
ENDBRANCH   1   6
TORSDOF 3
ENDMDL
MODEL 6
REMARK VINA RESULT:      -3.7     11.273     13.086
REMARK  3 active torsions:
REMARK  status: ('A' for Active; 'I' for Inactive)
REMARK    1  A    between atoms: C1_1  and  C6_6 
REMARK    2  A    between atoms: C1_1  and  O8_8 
REMARK    3  A    between atoms: C4_4  and  C6_6 
ROOT
HETATM    1  C6  UNL     1     -35.092  14.755  -4.742  1.00 20.00     0.115 C 
ENDROOT
BRANCH   1   2
HETATM    2  C1  UNL     1     -34.478  13.484  -4.182  1.00 20.00     0.139 C 
HETATM    3  O7  UNL     1     -33.307  13.351  -3.861  1.00 20.00    -0.650 OA
BRANCH   2   4
HETATM    4  O8  UNL     1     -35.405  12.497  -4.080  1.00 20.00    -0.776 OA
HETATM    5  H18 UNL     1     -36.312  12.856  -3.982  1.00 20.00     0.167 HD
ENDBRANCH   2   4
ENDBRANCH   1   2
BRANCH   1   6
HETATM    6  C4  UNL     1     -34.099  15.633  -5.420  1.00 20.00    -0.001 A 
HETATM    7  C2  UNL     1     -34.182  15.861  -6.907  1.00 20.00     0.010 A 
HETATM    8  C3  UNL     1     -34.518  16.977  -5.954  1.00 20.00    -0.014 A 
HETATM    9  C5  UNL     1     -33.609  18.150  -5.824  1.00 20.00     0.010 C 
ENDBRANCH   1   6
TORSDOF 3
ENDMDL
MODEL 7
REMARK VINA RESULT:      -3.7     11.458     11.921
REMARK  3 active torsions:
REMARK  status: ('A' for Active; 'I' for Inactive)
REMARK    1  A    between atoms: C1_1  and  C6_6 
REMARK    2  A    between atoms: C1_1  and  O8_8 
REMARK    3  A    between atoms: C4_4  and  C6_6 
ROOT
HETATM    1  C6  UNL     1     -35.974  15.783  -3.577  1.00 20.00     0.115 C 
ENDROOT
BRANCH   1   2
HETATM    2  C1  UNL     1     -36.614  14.439  -3.876  1.00 20.00     0.139 C 
HETATM    3  O7  UNL     1     -37.807  14.193  -3.785  1.00 20.00    -0.650 OA
BRANCH   2   4
HETATM    4  O8  UNL     1     -35.683  13.530  -4.263  1.00 20.00    -0.776 OA
HETATM    5  H18 UNL     1     -35.396  12.961  -3.517  1.00 20.00     0.167 HD
ENDBRANCH   2   4
ENDBRANCH   1   2
BRANCH   1   6
HETATM    6  C4  UNL     1     -35.094  15.756  -2.376  1.00 20.00    -0.001 A 
HETATM    7  C2  UNL     1     -33.715  16.360  -2.435  1.00 20.00     0.010 A 
HETATM    8  C3  UNL     1     -34.796  17.029  -1.628  1.00 20.00    -0.014 A 
HETATM    9  C5  UNL     1     -34.731  17.024  -0.139  1.00 20.00     0.010 C 
ENDBRANCH   1   6
TORSDOF 3
ENDMDL
MODEL 8
REMARK VINA RESULT:      -3.6     10.998     12.639
REMARK  3 active torsions:
REMARK  status: ('A' for Active; 'I' for Inactive)
REMARK    1  A    between atoms: C1_1  and  C6_6 
REMARK    2  A    between atoms: C1_1  and  O8_8 
REMARK    3  A    between atoms: C4_4  and  C6_6 
ROOT
HETATM    1  C6  UNL     1     -34.745  13.350  -4.996  1.00 20.00     0.115 C 
ENDROOT
BRANCH   1   2
HETATM    2  C1  UNL     1     -33.901  13.788  -3.812  1.00 20.00     0.139 C 
HETATM    3  O7  UNL     1     -34.210  14.656  -3.011  1.00 20.00    -0.650 OA
BRANCH   2   4
HETATM    4  O8  UNL     1     -32.741  13.084  -3.752  1.00 20.00    -0.776 OA
HETATM    5  H18 UNL     1     -31.957  13.662  -3.864  1.00 20.00     0.167 HD
ENDBRANCH   2   4
ENDBRANCH   1   2
BRANCH   1   6
HETATM    6  C4  UNL     1     -35.284  14.494  -5.783  1.00 20.00    -0.001 A 
HETATM    7  C2  UNL     1     -34.394  15.235  -6.746  1.00 20.00     0.010 A 
HETATM    8  C3  UNL     1     -35.499  14.356  -7.268  1.00 20.00    -0.014 A 
HETATM    9  C5  UNL     1     -36.700  14.962  -7.908  1.00 20.00     0.010 C 
ENDBRANCH   1   6
TORSDOF 3
ENDMDL
MODEL 9
REMARK VINA RESULT:      -3.6     11.738     12.616
REMARK  3 active torsions:
REMARK  status: ('A' for Active; 'I' for Inactive)
REMARK    1  A    between atoms: C1_1  and  C6_6 
REMARK    2  A    between atoms: C1_1  and  O8_8 
REMARK    3  A    between atoms: C4_4  and  C6_6 
ROOT
HETATM    1  C6  UNL     1     -33.691  17.597  -3.801  1.00 20.00     0.115 C 
ENDROOT
BRANCH   1   2
HETATM    2  C1  UNL     1     -33.640  16.627  -4.968  1.00 20.00     0.139 C 
HETATM    3  O7  UNL     1     -34.522  16.484  -5.802  1.00 20.00    -0.650 OA
BRANCH   2   4
HETATM    4  O8  UNL     1     -32.477  15.927  -4.973  1.00 20.00    -0.776 OA
HETATM    5  H18 UNL     1     -32.131  15.788  -4.066  1.00 20.00     0.167 HD
ENDBRANCH   2   4
ENDBRANCH   1   2
BRANCH   1   6
HETATM    6  C4  UNL     1     -34.638  17.175  -2.732  1.00 20.00    -0.001 A 
HETATM    7  C2  UNL     1     -34.722  15.727  -2.325  1.00 20.00     0.010 A 
HETATM    8  C3  UNL     1     -34.116  16.738  -1.388  1.00 20.00    -0.014 A 
HETATM    9  C5  UNL     1     -34.834  17.132  -0.144  1.00 20.00     0.010 C 
ENDBRANCH   1   6
TORSDOF 3
ENDMDL
