MODEL 1
REMARK VINA RESULT:      -3.8      0.000      0.000
REMARK  1 active torsions:
REMARK  status: ('A' for Active; 'I' for Inactive)
REMARK    1  A    between atoms: C8_8  and  N10_10 
ROOT
HETATM    1  C1  UNL     1     -35.173  17.413   0.947  1.00 20.00     0.013 C 
HETATM    2  C2  UNL     1     -34.652  17.402  -0.134  1.00 20.00    -0.087 C 
HETATM    3  C8  UNL     1     -34.012  17.393  -1.452  1.00 20.00     0.365 C 
ENDROOT
BRANCH   3   4
HETATM    4  N10 UNL     1     -34.268  16.131  -2.141  1.00 20.00     0.102 N 
HETATM    5  C5  UNL     1     -35.567  16.162  -2.825  1.00 20.00     0.303 C 
HETATM    6  C3  UNL     1     -35.835  14.839  -3.550  1.00 20.00     0.302 C 
HETATM    7  N9  UNL     1     -34.759  14.538  -4.504  1.00 20.00     0.087 N 
HETATM    8  C4  UNL     1     -33.462  14.507  -3.820  1.00 20.00     0.302 C 
HETATM    9  C7  UNL     1     -35.015  13.274  -5.191  1.00 20.00     0.310 C 
HETATM   10  C6  UNL     1     -33.193  15.831  -3.097  1.00 20.00     0.303 C 
ENDBRANCH   3   4
TORSDOF 1
ENDMDL
MODEL 2
REMARK VINA RESULT:      -3.8      1.435      2.161
REMARK  1 active torsions:
REMARK  status: ('A' for Active; 'I' for Inactive)
REMARK    1  A    between atoms: C8_8  and  N10_10 
ROOT
HETATM    1  C1  UNL     1     -33.371  18.293  -0.402  1.00 20.00     0.013 C 
HETATM    2  C2  UNL     1     -33.995  17.379  -0.865  1.00 20.00    -0.087 C 
HETATM    3  C8  UNL     1     -34.761  16.262  -1.425  1.00 20.00     0.365 C 
ENDROOT
BRANCH   3   4
HETATM    4  N10 UNL     1     -34.757  16.314  -2.885  1.00 20.00     0.102 N 
HETATM    5  C5  UNL     1     -33.409  16.067  -3.413  1.00 20.00     0.303 C 
HETATM    6  C3  UNL     1     -33.403  16.120  -4.944  1.00 20.00     0.302 C 
HETATM    7  N9  UNL     1     -34.358  15.154  -5.503  1.00 20.00     0.087 N 
HETATM    8  C4  UNL     1     -35.705  15.401  -4.976  1.00 20.00     0.302 C 
HETATM    9  C7  UNL     1     -34.355  15.209  -6.964  1.00 20.00     0.310 C 
HETATM   10  C6  UNL     1     -35.710  15.347  -3.444  1.00 20.00     0.303 C 
ENDBRANCH   3   4
TORSDOF 1
ENDMDL
MODEL 3
REMARK VINA RESULT:      -3.7      1.666      1.931
REMARK  1 active torsions:
REMARK  status: ('A' for Active; 'I' for Inactive)
REMARK    1  A    between atoms: C8_8  and  N10_10 
ROOT
HETATM    1  C1  UNL     1     -32.871  18.592  -0.313  1.00 20.00     0.013 C 
HETATM    2  C2  UNL     1     -33.554  17.696  -0.727  1.00 20.00    -0.087 C 
HETATM    3  C8  UNL     1     -34.392  16.604  -1.228  1.00 20.00     0.365 C 
ENDROOT
BRANCH   3   4
HETATM    4  N10 UNL     1     -33.994  16.226  -2.581  1.00 20.00     0.102 N 
HETATM    5  C5  UNL     1     -34.817  15.116  -3.078  1.00 20.00     0.303 C 
HETATM    6  C3  UNL     1     -34.401  14.720  -4.498  1.00 20.00     0.302 C 
HETATM    7  N9  UNL     1     -34.487  15.870  -5.408  1.00 20.00     0.087 N 
HETATM    8  C4  UNL     1     -33.664  16.978  -4.911  1.00 20.00     0.302 C 
HETATM    9  C7  UNL     1     -34.085  15.491  -6.761  1.00 20.00     0.310 C 
HETATM   10  C6  UNL     1     -34.081  17.375  -3.491  1.00 20.00     0.303 C 
ENDBRANCH   3   4
TORSDOF 1
ENDMDL
MODEL 4
REMARK VINA RESULT:      -3.7      1.573      4.888
REMARK  1 active torsions:
REMARK  status: ('A' for Active; 'I' for Inactive)
REMARK    1  A    between atoms: C8_8  and  N10_10 
ROOT
HETATM    1  C1  UNL     1     -35.168  14.763  -7.883  1.00 20.00     0.013 C 
HETATM    2  C2  UNL     1     -34.888  14.445  -6.761  1.00 20.00    -0.087 C 
HETATM    3  C8  UNL     1     -34.545  14.051  -5.392  1.00 20.00     0.365 C 
ENDROOT
BRANCH   3   4
HETATM    4  N10 UNL     1     -34.650  15.192  -4.485  1.00 20.00     0.102 N 
HETATM    5  C5  UNL     1     -34.651  14.748  -3.085  1.00 20.00     0.303 C 
HETATM    6  C3  UNL     1     -34.760  15.943  -2.133  1.00 20.00     0.302 C 
HETATM    7  N9  UNL     1     -33.669  16.899  -2.367  1.00 20.00     0.087 N 
HETATM    8  C4  UNL     1     -33.668  17.342  -3.766  1.00 20.00     0.302 C 
HETATM    9  C7  UNL     1     -33.776  18.040  -1.461  1.00 20.00     0.310 C 
HETATM   10  C6  UNL     1     -33.558  16.146  -4.718  1.00 20.00     0.303 C 
ENDBRANCH   3   4
TORSDOF 1
ENDMDL
MODEL 5
REMARK VINA RESULT:      -3.6     11.079     11.629
REMARK  1 active torsions:
REMARK  status: ('A' for Active; 'I' for Inactive)
REMARK    1  A    between atoms: C8_8  and  N10_10 
ROOT
HETATM    1  C1  UNL     1     -32.515   9.876   1.479  1.00 20.00     0.013 C 
HETATM    2  C2  UNL     1     -32.316   8.752   1.849  1.00 20.00    -0.087 C 
HETATM    3  C8  UNL     1     -32.066   7.380   2.299  1.00 20.00     0.365 C 
ENDROOT
BRANCH   3   4
HETATM    4  N10 UNL     1     -33.114   6.939   3.215  1.00 20.00     0.102 N 
HETATM    5  C5  UNL     1     -33.627   5.619   2.826  1.00 20.00     0.303 C 
HETATM    6  C3  UNL     1     -34.726   5.154   3.788  1.00 20.00     0.302 C 
HETATM    7  N9  UNL     1     -34.232   5.126   5.171  1.00 20.00     0.087 N 
HETATM    8  C4  UNL     1     -33.720   6.445   5.560  1.00 20.00     0.302 C 
HETATM    9  C7  UNL     1     -35.282   4.686   6.087  1.00 20.00     0.310 C 
HETATM   10  C6  UNL     1     -32.620   6.909   4.598  1.00 20.00     0.303 C 
ENDBRANCH   3   4
TORSDOF 1
ENDMDL
MODEL 6
REMARK VINA RESULT:      -3.6      2.537      3.063
REMARK  1 active torsions:
REMARK  status: ('A' for Active; 'I' for Inactive)
REMARK    1  A    between atoms: C8_8  and  N10_10 
ROOT
HETATM    1  C1  UNL     1     -34.783  17.094  -0.391  1.00 20.00     0.013 C 
HETATM    2  C2  UNL     1     -34.636  16.416  -1.370  1.00 20.00    -0.087 C 
HETATM    3  C8  UNL     1     -34.458  15.583  -2.562  1.00 20.00     0.365 C 
ENDROOT
BRANCH   3   4
HETATM    4  N10 UNL     1     -34.670  16.366  -3.776  1.00 20.00     0.102 N 
HETATM    5  C5  UNL     1     -33.392  16.680  -4.427  1.00 20.00     0.303 C 
HETATM    6  C3  UNL     1     -33.614  17.501  -5.702  1.00 20.00     0.302 C 
HETATM    7  N9  UNL     1     -34.503  16.792  -6.631  1.00 20.00     0.087 N 
HETATM    8  C4  UNL     1     -35.781  16.479  -5.981  1.00 20.00     0.302 C 
HETATM    9  C7  UNL     1     -34.717  17.578  -7.844  1.00 20.00     0.310 C 
HETATM   10  C6  UNL     1     -35.558  15.657  -4.706  1.00 20.00     0.303 C 
ENDBRANCH   3   4
TORSDOF 1
ENDMDL
MODEL 7
REMARK VINA RESULT:      -3.5      2.111      3.021
REMARK  1 active torsions:
REMARK  status: ('A' for Active; 'I' for Inactive)
REMARK    1  A    between atoms: C8_8  and  N10_10 
ROOT
HETATM    1  C1  UNL     1     -34.747  16.278  -1.620  1.00 20.00     0.013 C 
HETATM    2  C2  UNL     1     -33.999  16.063  -2.535  1.00 20.00    -0.087 C 
HETATM    3  C8  UNL     1     -33.083  15.800  -3.646  1.00 20.00     0.365 C 
ENDROOT
BRANCH   3   4
HETATM    4  N10 UNL     1     -33.821  15.629  -4.895  1.00 20.00     0.102 N 
HETATM    5  C5  UNL     1     -34.456  14.306  -4.951  1.00 20.00     0.303 C 
HETATM    6  C3  UNL     1     -35.232  14.126  -6.259  1.00 20.00     0.302 C 
HETATM    7  N9  UNL     1     -36.237  15.185  -6.420  1.00 20.00     0.087 N 
HETATM    8  C4  UNL     1     -35.603  16.507  -6.365  1.00 20.00     0.302 C 
HETATM    9  C7  UNL     1     -36.974  15.014  -7.670  1.00 20.00     0.310 C 
HETATM   10  C6  UNL     1     -34.828  16.687  -5.055  1.00 20.00     0.303 C 
ENDBRANCH   3   4
TORSDOF 1
ENDMDL
MODEL 8
REMARK VINA RESULT:      -3.5      1.931      4.734
REMARK  1 active torsions:
REMARK  status: ('A' for Active; 'I' for Inactive)
REMARK    1  A    between atoms: C8_8  and  N10_10 
ROOT
HETATM    1  C1  UNL     1     -34.664  14.945  -7.020  1.00 20.00     0.013 C 
HETATM    2  C2  UNL     1     -34.150  15.800  -6.354  1.00 20.00    -0.087 C 
HETATM    3  C8  UNL     1     -33.519  16.846  -5.546  1.00 20.00     0.365 C 
ENDROOT
BRANCH   3   4
HETATM    4  N10 UNL     1     -34.165  16.950  -4.240  1.00 20.00     0.102 N 
HETATM    5  C5  UNL     1     -33.896  15.756  -3.427  1.00 20.00     0.303 C 
HETATM    6  C3  UNL     1     -34.571  15.864  -2.056  1.00 20.00     0.302 C 
HETATM    7  N9  UNL     1     -34.132  17.075  -1.351  1.00 20.00     0.087 N 
HETATM    8  C4  UNL     1     -34.402  18.267  -2.163  1.00 20.00     0.302 C 
HETATM    9  C7  UNL     1     -34.781  17.178  -0.046  1.00 20.00     0.310 C 
HETATM   10  C6  UNL     1     -33.725  18.160  -3.533  1.00 20.00     0.303 C 
ENDBRANCH   3   4
TORSDOF 1
ENDMDL
MODEL 9
REMARK VINA RESULT:      -3.5      2.198      4.831
REMARK  1 active torsions:
REMARK  status: ('A' for Active; 'I' for Inactive)
REMARK    1  A    between atoms: C8_8  and  N10_10 
ROOT
HETATM    1  C1  UNL     1     -34.646  17.361  -7.658  1.00 20.00     0.013 C 
HETATM    2  C2  UNL     1     -34.549  16.263  -7.182  1.00 20.00    -0.087 C 
HETATM    3  C8  UNL     1     -34.429  14.921  -6.608  1.00 20.00     0.365 C 
ENDROOT
BRANCH   3   4
HETATM    4  N10 UNL     1     -34.461  14.980  -5.148  1.00 20.00     0.102 N 
HETATM    5  C5  UNL     1     -33.351  15.792  -4.633  1.00 20.00     0.303 C 
HETATM    6  C3  UNL     1     -33.385  15.855  -3.103  1.00 20.00     0.302 C 
HETATM    7  N9  UNL     1     -34.671  16.384  -2.630  1.00 20.00     0.087 N 
HETATM    8  C4  UNL     1     -35.779  15.573  -3.144  1.00 20.00     0.302 C 
HETATM    9  C7  UNL     1     -34.703  16.440  -1.170  1.00 20.00     0.310 C 
HETATM   10  C6  UNL     1     -35.746  15.510  -4.675  1.00 20.00     0.303 C 
ENDBRANCH   3   4
TORSDOF 1
ENDMDL
