MODEL 1
REMARK VINA RESULT:      -5.2      0.000      0.000
REMARK  0 active torsions:
REMARK  status: ('A' for Active; 'I' for Inactive)
ROOT
HETATM    1  C1  UNL     1     -32.713   7.005   3.236  1.00 20.00     0.124 C 
HETATM    2  C2  UNL     1     -33.590   6.559   5.421  1.00 20.00     0.021 C 
HETATM    3  C3  UNL     1     -33.575   6.284   4.106  1.00 20.00     0.145 C 
HETATM    4  C4  UNL     1     -34.433   5.791   6.391  1.00 20.00     0.033 C 
HETATM    5  C5  UNL     1     -35.003   4.533   5.746  1.00 20.00     0.031 C 
HETATM    6  C6  UNL     1     -35.443   4.839   4.320  1.00 20.00     0.176 C 
HETATM    7  N7  UNL     1     -32.009   7.594   2.527  1.00 20.00    -0.189 NA
HETATM    8  O8  UNL     1     -34.356   5.310   3.514  1.00 20.00    -0.341 OA
ENDROOT
TORSDOF 0
ENDMDL
MODEL 2
REMARK VINA RESULT:      -4.0     11.806     12.350
REMARK  0 active torsions:
REMARK  status: ('A' for Active; 'I' for Inactive)
ROOT
HETATM    1  C1  UNL     1     -37.113  14.541  -3.771  1.00 20.00     0.124 C 
HETATM    2  C2  UNL     1     -35.239  15.718  -2.850  1.00 20.00     0.021 C 
HETATM    3  C3  UNL     1     -35.711  14.716  -3.611  1.00 20.00     0.145 C 
HETATM    4  C4  UNL     1     -33.775  15.985  -2.695  1.00 20.00     0.033 C 
HETATM    5  C5  UNL     1     -32.962  15.190  -3.710  1.00 20.00     0.031 C 
HETATM    6  C6  UNL     1     -33.542  13.789  -3.852  1.00 20.00     0.176 C 
HETATM    7  N7  UNL     1     -38.256  14.398  -3.900  1.00 20.00    -0.189 NA
HETATM    8  O8  UNL     1     -34.908  13.817  -4.284  1.00 20.00    -0.341 OA
ENDROOT
TORSDOF 0
ENDMDL
MODEL 3
REMARK VINA RESULT:      -4.0     11.902     12.662
REMARK  0 active torsions:
REMARK  status: ('A' for Active; 'I' for Inactive)
ROOT
HETATM    1  C1  UNL     1     -37.060  14.515  -3.901  1.00 20.00     0.124 C 
HETATM    2  C2  UNL     1     -34.844  13.604  -3.850  1.00 20.00     0.021 C 
HETATM    3  C3  UNL     1     -35.649  14.675  -3.955  1.00 20.00     0.145 C 
HETATM    4  C4  UNL     1     -33.352  13.721  -3.840  1.00 20.00     0.033 C 
HETATM    5  C5  UNL     1     -32.916  15.172  -3.673  1.00 20.00     0.031 C 
HETATM    6  C6  UNL     1     -33.817  16.079  -4.499  1.00 20.00     0.176 C 
HETATM    7  N7  UNL     1     -38.211  14.384  -3.857  1.00 20.00    -0.189 NA
HETATM    8  O8  UNL     1     -35.192  15.969  -4.108  1.00 20.00    -0.341 OA
ENDROOT
TORSDOF 0
ENDMDL
MODEL 4
REMARK VINA RESULT:      -3.9     11.755     12.280
REMARK  0 active torsions:
REMARK  status: ('A' for Active; 'I' for Inactive)
ROOT
HETATM    1  C1  UNL     1     -34.816  13.605  -4.170  1.00 20.00     0.124 C 
HETATM    2  C2  UNL     1     -33.696  15.400  -3.043  1.00 20.00     0.021 C 
HETATM    3  C3  UNL     1     -34.845  14.812  -3.419  1.00 20.00     0.145 C 
HETATM    4  C4  UNL     1     -33.667  16.638  -2.203  1.00 20.00     0.033 C 
HETATM    5  C5  UNL     1     -35.044  16.938  -1.621  1.00 20.00     0.031 C 
HETATM    6  C6  UNL     1     -36.116  16.667  -2.668  1.00 20.00     0.176 C 
HETATM    7  N7  UNL     1     -34.792  12.620  -4.781  1.00 20.00    -0.189 NA
HETATM    8  O8  UNL     1     -36.098  15.305  -3.113  1.00 20.00    -0.341 OA
ENDROOT
TORSDOF 0
ENDMDL
MODEL 5
REMARK VINA RESULT:      -3.8      9.335     10.372
REMARK  0 active torsions:
REMARK  status: ('A' for Active; 'I' for Inactive)
ROOT
HETATM    1  C1  UNL     1     -41.756   3.259  -2.679  1.00 20.00     0.124 C 
HETATM    2  C2  UNL     1     -40.821   4.695  -1.003  1.00 20.00     0.021 C 
HETATM    3  C3  UNL     1     -41.587   4.545  -2.097  1.00 20.00     0.145 C 
HETATM    4  C4  UNL     1     -40.657   6.014  -0.315  1.00 20.00     0.033 C 
HETATM    5  C5  UNL     1     -41.669   7.031  -0.829  1.00 20.00     0.031 C 
HETATM    6  C6  UNL     1     -41.817   6.893  -2.338  1.00 20.00     0.176 C 
HETATM    7  N7  UNL     1     -41.892   2.210  -3.154  1.00 20.00    -0.189 NA
HETATM    8  O8  UNL     1     -42.258   5.582  -2.715  1.00 20.00    -0.341 OA
ENDROOT
TORSDOF 0
ENDMDL
MODEL 6
REMARK VINA RESULT:      -3.8     12.098     13.072
REMARK  0 active torsions:
REMARK  status: ('A' for Active; 'I' for Inactive)
ROOT
HETATM    1  C1  UNL     1     -34.626  13.721  -4.371  1.00 20.00     0.124 C 
HETATM    2  C2  UNL     1     -34.172  15.424  -2.747  1.00 20.00     0.021 C 
HETATM    3  C3  UNL     1     -34.281  15.059  -4.035  1.00 20.00     0.145 C 
HETATM    4  C4  UNL     1     -33.870  16.831  -2.336  1.00 20.00     0.033 C 
HETATM    5  C5  UNL     1     -34.000  17.787  -3.517  1.00 20.00     0.031 C 
HETATM    6  C6  UNL     1     -33.419  17.142  -4.768  1.00 20.00     0.176 C 
HETATM    7  N7  UNL     1     -34.907  12.630  -4.643  1.00 20.00    -0.189 NA
HETATM    8  O8  UNL     1     -34.086  15.918  -5.099  1.00 20.00    -0.341 OA
ENDROOT
TORSDOF 0
ENDMDL
MODEL 7
REMARK VINA RESULT:      -3.7     11.781     12.606
REMARK  0 active torsions:
REMARK  status: ('A' for Active; 'I' for Inactive)
ROOT
HETATM    1  C1  UNL     1     -34.721  15.907  -2.089  1.00 20.00     0.124 C 
HETATM    2  C2  UNL     1     -34.411  13.991  -3.495  1.00 20.00     0.021 C 
HETATM    3  C3  UNL     1     -34.882  15.239  -3.334  1.00 20.00     0.145 C 
HETATM    4  C4  UNL     1     -34.501  13.262  -4.799  1.00 20.00     0.033 C 
HETATM    5  C5  UNL     1     -34.906  14.205  -5.927  1.00 20.00     0.031 C 
HETATM    6  C6  UNL     1     -35.980  15.165  -5.434  1.00 20.00     0.176 C 
HETATM    7  N7  UNL     1     -34.589  16.452  -1.074  1.00 20.00    -0.189 NA
HETATM    8  O8  UNL     1     -35.527  15.952  -4.325  1.00 20.00    -0.341 OA
ENDROOT
TORSDOF 0
ENDMDL
MODEL 8
REMARK VINA RESULT:      -3.5     11.817     12.868
REMARK  0 active torsions:
REMARK  status: ('A' for Active; 'I' for Inactive)
ROOT
HETATM    1  C1  UNL     1     -35.445  13.561  -4.336  1.00 20.00     0.124 C 
HETATM    2  C2  UNL     1     -36.180  15.842  -4.385  1.00 20.00     0.021 C 
HETATM    3  C3  UNL     1     -36.453  14.546  -4.153  1.00 20.00     0.145 C 
HETATM    4  C4  UNL     1     -37.185  16.926  -4.153  1.00 20.00     0.033 C 
HETATM    5  C5  UNL     1     -38.386  16.403  -3.373  1.00 20.00     0.031 C 
HETATM    6  C6  UNL     1     -38.760  15.015  -3.873  1.00 20.00     0.176 C 
HETATM    7  N7  UNL     1     -34.622  12.758  -4.485  1.00 20.00    -0.189 NA
HETATM    8  O8  UNL     1     -37.682  14.083  -3.725  1.00 20.00    -0.341 OA
ENDROOT
TORSDOF 0
ENDMDL
MODEL 9
REMARK VINA RESULT:      -3.5     12.155     13.027
REMARK  0 active torsions:
REMARK  status: ('A' for Active; 'I' for Inactive)
ROOT
HETATM    1  C1  UNL     1     -33.680  17.354  -4.680  1.00 20.00     0.124 C 
HETATM    2  C2  UNL     1     -33.137  15.139  -3.943  1.00 20.00     0.021 C 
HETATM    3  C3  UNL     1     -34.047  16.006  -4.418  1.00 20.00     0.145 C 
HETATM    4  C4  UNL     1     -33.453  13.696  -3.704  1.00 20.00     0.033 C 
HETATM    5  C5  UNL     1     -34.790  13.316  -4.331  1.00 20.00     0.031 C 
HETATM    6  C6  UNL     1     -35.798  14.436  -4.111  1.00 20.00     0.176 C 
HETATM    7  N7  UNL     1     -33.380  18.453  -4.894  1.00 20.00    -0.189 NA
HETATM    8  O8  UNL     1     -35.359  15.672  -4.690  1.00 20.00    -0.341 OA
ENDROOT
TORSDOF 0
ENDMDL
