MODEL 1
REMARK VINA RESULT:      -5.7      0.000      0.000
REMARK  3 active torsions:
REMARK  status: ('A' for Active; 'I' for Inactive)
REMARK    1  A    between atoms: C1_1  and  C4_4 
REMARK    2  A    between atoms: C2_2  and  C9_9 
REMARK    3  A    between atoms: C9_9  and  N10_10 
ROOT
HETATM    1  C5  UNL     1     -34.479   4.674   6.304  1.00 20.00     0.032 C 
HETATM    2  C6  UNL     1     -35.117   4.111   5.041  1.00 20.00     0.032 C 
HETATM    3  C7  UNL     1     -34.230   6.145   6.004  1.00 20.00     0.273 C 
HETATM    4  C8  UNL     1     -35.203   5.284   4.077  1.00 20.00     0.273 C 
HETATM    5  N10 UNL     1     -34.222   6.275   4.541  1.00 20.00     0.099 N 
ENDROOT
BRANCH   5   6
HETATM    6  C9  UNL     1     -32.885   5.954   4.010  1.00 20.00     0.366 C 
BRANCH   6   7
HETATM    7  C2  UNL     1     -32.463   6.949   3.019  1.00 20.00    -0.072 C 
HETATM    8  C1  UNL     1     -32.121   7.765   2.207  1.00 20.00    -0.078 C 
BRANCH   8   9
HETATM    9  C4  UNL     1     -31.724   8.733   1.246  1.00 20.00     0.054 C 
HETATM   10  C3  UNL     1     -32.424   9.853   1.043  1.00 20.00     0.020 C 
ENDBRANCH   8   9
ENDBRANCH   6   7
ENDBRANCH   5   6
TORSDOF 3
ENDMDL
MODEL 2
REMARK VINA RESULT:      -4.4     11.224     11.911
REMARK  3 active torsions:
REMARK  status: ('A' for Active; 'I' for Inactive)
REMARK    1  A    between atoms: C1_1  and  C4_4 
REMARK    2  A    between atoms: C2_2  and  C9_9 
REMARK    3  A    between atoms: C9_9  and  N10_10 
ROOT
HETATM    1  C5  UNL     1     -35.097  14.184  -5.969  1.00 20.00     0.032 C 
HETATM    2  C6  UNL     1     -36.234  14.964  -5.324  1.00 20.00     0.032 C 
HETATM    3  C7  UNL     1     -34.438  13.421  -4.830  1.00 20.00     0.273 C 
HETATM    4  C8  UNL     1     -36.173  14.612  -3.845  1.00 20.00     0.273 C 
HETATM    5  N10 UNL     1     -34.813  14.117  -3.593  1.00 20.00     0.099 N 
ENDROOT
BRANCH   5   6
HETATM    6  C9  UNL     1     -33.898  15.246  -3.347  1.00 20.00     0.366 C 
BRANCH   6   7
HETATM    7  C2  UNL     1     -34.259  15.955  -2.115  1.00 20.00    -0.072 C 
HETATM    8  C1  UNL     1     -34.559  16.534  -1.106  1.00 20.00    -0.078 C 
BRANCH   8   9
HETATM    9  C4  UNL     1     -34.920  17.214   0.087  1.00 20.00     0.054 C 
HETATM   10  C3  UNL     1     -34.147  18.167   0.617  1.00 20.00     0.020 C 
ENDBRANCH   8   9
ENDBRANCH   6   7
ENDBRANCH   5   6
TORSDOF 3
ENDMDL
MODEL 3
REMARK VINA RESULT:      -4.3     10.866     11.976
REMARK  3 active torsions:
REMARK  status: ('A' for Active; 'I' for Inactive)
REMARK    1  A    between atoms: C1_1  and  C4_4 
REMARK    2  A    between atoms: C2_2  and  C9_9 
REMARK    3  A    between atoms: C9_9  and  N10_10 
ROOT
HETATM    1  C5  UNL     1     -34.863  13.606  -3.936  1.00 20.00     0.032 C 
HETATM    2  C6  UNL     1     -33.371  13.816  -3.719  1.00 20.00     0.032 C 
HETATM    3  C7  UNL     1     -35.451  15.005  -4.051  1.00 20.00     0.273 C 
HETATM    4  C8  UNL     1     -33.174  15.325  -3.720  1.00 20.00     0.273 C 
HETATM    5  N10 UNL     1     -34.486  15.914  -3.421  1.00 20.00     0.099 N 
ENDROOT
BRANCH   5   6
HETATM    6  C9  UNL     1     -34.704  15.958  -1.964  1.00 20.00     0.366 C 
BRANCH   6   7
HETATM    7  C2  UNL     1     -33.981  17.081  -1.359  1.00 20.00    -0.072 C 
HETATM    8  C1  UNL     1     -33.392  18.002  -0.862  1.00 20.00    -0.078 C 
BRANCH   8   9
HETATM    9  C4  UNL     1     -32.702  19.093  -0.270  1.00 20.00     0.054 C 
HETATM   10  C3  UNL     1     -31.751  18.910   0.652  1.00 20.00     0.020 C 
ENDBRANCH   8   9
ENDBRANCH   6   7
ENDBRANCH   5   6
TORSDOF 3
ENDMDL
MODEL 4
REMARK VINA RESULT:      -4.2     11.333     12.273
REMARK  3 active torsions:
REMARK  status: ('A' for Active; 'I' for Inactive)
REMARK    1  A    between atoms: C1_1  and  C4_4 
REMARK    2  A    between atoms: C2_2  and  C9_9 
REMARK    3  A    between atoms: C9_9  and  N10_10 
ROOT
HETATM    1  C5  UNL     1     -34.022  15.811  -5.833  1.00 20.00     0.032 C 
HETATM    2  C6  UNL     1     -34.661  14.438  -5.988  1.00 20.00     0.032 C 
HETATM    3  C7  UNL     1     -33.275  15.758  -4.508  1.00 20.00     0.273 C 
HETATM    4  C8  UNL     1     -34.250  13.662  -4.745  1.00 20.00     0.273 C 
HETATM    5  N10 UNL     1     -33.877  14.663  -3.737  1.00 20.00     0.099 N 
ENDROOT
BRANCH   5   6
HETATM    6  C9  UNL     1     -35.076  15.140  -3.025  1.00 20.00     0.366 C 
BRANCH   6   7
HETATM    7  C2  UNL     1     -34.713  16.069  -1.950  1.00 20.00    -0.072 C 
HETATM    8  C1  UNL     1     -34.412  16.830  -1.071  1.00 20.00    -0.078 C 
BRANCH   8   9
HETATM    9  C4  UNL     1     -34.048  17.732  -0.036  1.00 20.00     0.054 C 
HETATM   10  C3  UNL     1     -32.968  18.513  -0.128  1.00 20.00     0.020 C 
ENDBRANCH   8   9
ENDBRANCH   6   7
ENDBRANCH   5   6
TORSDOF 3
ENDMDL
MODEL 5
REMARK VINA RESULT:      -4.0     11.720     12.778
REMARK  3 active torsions:
REMARK  status: ('A' for Active; 'I' for Inactive)
REMARK    1  A    between atoms: C1_1  and  C4_4 
REMARK    2  A    between atoms: C2_2  and  C9_9 
REMARK    3  A    between atoms: C9_9  and  N10_10 
ROOT
HETATM    1  C5  UNL     1     -35.740  14.645  -5.665  1.00 20.00     0.032 C 
HETATM    2  C6  UNL     1     -34.442  14.833  -6.438  1.00 20.00     0.032 C 
HETATM    3  C7  UNL     1     -35.854  15.870  -4.770  1.00 20.00     0.273 C 
HETATM    4  C8  UNL     1     -33.873  16.157  -5.950  1.00 20.00     0.273 C 
HETATM    5  N10 UNL     1     -34.499  16.422  -4.648  1.00 20.00     0.099 N 
ENDROOT
BRANCH   5   6
HETATM    6  C9  UNL     1     -33.761  15.726  -3.578  1.00 20.00     0.366 C 
BRANCH   6   7
HETATM    7  C2  UNL     1     -34.148  16.235  -2.258  1.00 20.00    -0.072 C 
HETATM    8  C1  UNL     1     -34.468  16.652  -1.178  1.00 20.00    -0.078 C 
BRANCH   8   9
HETATM    9  C4  UNL     1     -34.855  17.146   0.096  1.00 20.00     0.054 C 
HETATM   10  C3  UNL     1     -34.174  18.116   0.713  1.00 20.00     0.020 C 
ENDBRANCH   8   9
ENDBRANCH   6   7
ENDBRANCH   5   6
TORSDOF 3
ENDMDL
MODEL 6
REMARK VINA RESULT:      -3.9     10.941     12.359
REMARK  3 active torsions:
REMARK  status: ('A' for Active; 'I' for Inactive)
REMARK    1  A    between atoms: C1_1  and  C4_4 
REMARK    2  A    between atoms: C2_2  and  C9_9 
REMARK    3  A    between atoms: C9_9  and  N10_10 
ROOT
HETATM    1  C5  UNL     1     -32.298  18.828   0.166  1.00 20.00     0.032 C 
HETATM    2  C6  UNL     1     -33.123  19.093   1.418  1.00 20.00     0.032 C 
HETATM    3  C7  UNL     1     -33.306  18.765  -0.972  1.00 20.00     0.273 C 
HETATM    4  C8  UNL     1     -34.565  19.168   0.940  1.00 20.00     0.273 C 
HETATM    5  N10 UNL     1     -34.608  18.477  -0.356  1.00 20.00     0.099 N 
ENDROOT
BRANCH   5   6
HETATM    6  C9  UNL     1     -34.765  17.025  -0.154  1.00 20.00     0.366 C 
BRANCH   6   7
HETATM    7  C2  UNL     1     -34.658  16.304  -1.426  1.00 20.00    -0.072 C 
HETATM    8  C1  UNL     1     -34.568  15.710  -2.466  1.00 20.00    -0.078 C 
BRANCH   8   9
HETATM    9  C4  UNL     1     -34.457  15.003  -3.693  1.00 20.00     0.054 C 
HETATM   10  C3  UNL     1     -34.125  13.709  -3.733  1.00 20.00     0.020 C 
ENDBRANCH   8   9
ENDBRANCH   6   7
ENDBRANCH   5   6
TORSDOF 3
ENDMDL
MODEL 7
REMARK VINA RESULT:      -3.8      9.772     11.455
REMARK  3 active torsions:
REMARK  status: ('A' for Active; 'I' for Inactive)
REMARK    1  A    between atoms: C1_1  and  C4_4 
REMARK    2  A    between atoms: C2_2  and  C9_9 
REMARK    3  A    between atoms: C9_9  and  N10_10 
ROOT
HETATM    1  C5  UNL     1     -41.842   7.213  -2.536  1.00 20.00     0.032 C 
HETATM    2  C6  UNL     1     -41.476   7.393  -1.070  1.00 20.00     0.032 C 
HETATM    3  C7  UNL     1     -42.693   5.954  -2.585  1.00 20.00     0.273 C 
HETATM    4  C8  UNL     1     -42.135   6.228  -0.346  1.00 20.00     0.273 C 
HETATM    5  N10 UNL     1     -42.387   5.198  -1.363  1.00 20.00     0.099 N 
ENDROOT
BRANCH   5   6
HETATM    6  C9  UNL     1     -41.181   4.374  -1.563  1.00 20.00     0.366 C 
BRANCH   6   7
HETATM    7  C2  UNL     1     -41.433   3.304  -2.533  1.00 20.00    -0.072 C 
HETATM    8  C1  UNL     1     -41.636   2.425  -3.327  1.00 20.00    -0.078 C 
BRANCH   8   9
HETATM    9  C4  UNL     1     -41.867   1.384  -4.264  1.00 20.00     0.054 C 
HETATM   10  C3  UNL     1     -41.593   0.107  -3.982  1.00 20.00     0.020 C 
ENDBRANCH   8   9
ENDBRANCH   6   7
ENDBRANCH   5   6
TORSDOF 3
ENDMDL
MODEL 8
REMARK VINA RESULT:      -3.7     11.638     13.078
REMARK  3 active torsions:
REMARK  status: ('A' for Active; 'I' for Inactive)
REMARK    1  A    between atoms: C1_1  and  C4_4 
REMARK    2  A    between atoms: C2_2  and  C9_9 
REMARK    3  A    between atoms: C9_9  and  N10_10 
ROOT
HETATM    1  C5  UNL     1     -33.710  17.360  -1.308  1.00 20.00     0.032 C 
HETATM    2  C6  UNL     1     -34.690  16.219  -1.547  1.00 20.00     0.032 C 
HETATM    3  C7  UNL     1     -33.827  18.252  -2.535  1.00 20.00     0.273 C 
HETATM    4  C8  UNL     1     -35.323  16.511  -2.899  1.00 20.00     0.273 C 
HETATM    5  N10 UNL     1     -34.405  17.420  -3.599  1.00 20.00     0.099 N 
ENDROOT
BRANCH   5   6
HETATM    6  C9  UNL     1     -33.345  16.652  -4.276  1.00 20.00     0.366 C 
BRANCH   6   7
HETATM    7  C2  UNL     1     -33.874  15.953  -5.451  1.00 20.00    -0.072 C 
HETATM    8  C1  UNL     1     -34.311  15.382  -6.414  1.00 20.00    -0.078 C 
BRANCH   8   9
HETATM    9  C4  UNL     1     -34.835  14.711  -7.550  1.00 20.00     0.054 C 
HETATM   10  C3  UNL     1     -36.126  14.793  -7.885  1.00 20.00     0.020 C 
ENDBRANCH   8   9
ENDBRANCH   6   7
ENDBRANCH   5   6
TORSDOF 3
ENDMDL
MODEL 9
REMARK VINA RESULT:      -3.6      9.888     10.758
REMARK  3 active torsions:
REMARK  status: ('A' for Active; 'I' for Inactive)
REMARK    1  A    between atoms: C1_1  and  C4_4 
REMARK    2  A    between atoms: C2_2  and  C9_9 
REMARK    3  A    between atoms: C9_9  and  N10_10 
ROOT
HETATM    1  C5  UNL     1     -40.782   5.963  -0.351  1.00 20.00     0.032 C 
HETATM    2  C6  UNL     1     -42.055   5.355   0.223  1.00 20.00     0.032 C 
HETATM    3  C7  UNL     1     -41.198   7.321  -0.895  1.00 20.00     0.273 C 
HETATM    4  C8  UNL     1     -43.140   6.394  -0.019  1.00 20.00     0.273 C 
HETATM    5  N10 UNL     1     -42.651   7.260  -1.100  1.00 20.00     0.099 N 
ENDROOT
BRANCH   5   6
HETATM    6  C9  UNL     1     -42.954   6.658  -2.411  1.00 20.00     0.366 C 
BRANCH   6   7
HETATM    7  C2  UNL     1     -42.582   7.563  -3.502  1.00 20.00    -0.072 C 
HETATM    8  C1  UNL     1     -42.273   8.303  -4.396  1.00 20.00    -0.078 C 
BRANCH   8   9
HETATM    9  C4  UNL     1     -41.900   9.176  -5.453  1.00 20.00     0.054 C 
HETATM   10  C3  UNL     1     -41.981  10.504  -5.332  1.00 20.00     0.020 C 
ENDBRANCH   8   9
ENDBRANCH   6   7
ENDBRANCH   5   6
TORSDOF 3
ENDMDL
