MODEL 1
REMARK VINA RESULT:      -4.7      0.000      0.000
REMARK  0 active torsions:
REMARK  status: ('A' for Active; 'I' for Inactive)
ROOT
HETATM    1  C1  UNL     1     -33.542  17.086  -4.575  1.00 20.00     0.011 A 
HETATM    2  C2  UNL     1     -33.737  15.804  -5.087  1.00 20.00     0.024 A 
HETATM    3  C3  UNL     1     -34.482  15.050  -2.917  1.00 20.00     0.031 A 
HETATM    4  C4  UNL     1     -33.806  17.359  -3.226  1.00 20.00    -0.024 A 
HETATM    5  C5  UNL     1     -34.298  16.336  -2.396  1.00 20.00    -0.047 A 
HETATM    6  C6  UNL     1     -34.204  14.786  -4.258  1.00 20.00     0.034 A 
HETATM    7  C7  UNL     1     -34.565  16.606  -0.938  1.00 20.00     0.069 C 
HETATM    8  C8  UNL     1     -33.627  18.759  -2.692  1.00 20.00     0.308 C 
HETATM    9  C9  UNL     1     -34.673  18.100  -0.626  1.00 20.00     0.274 C 
HETATM   10  N10 UNL     1     -33.553  18.824  -1.227  1.00 20.00     0.087 N 
HETATM   11 CL11 UNL     1     -34.439  13.203  -4.891  1.00 20.00    -0.084 Cl
HETATM   12  H21 UNL     1     -32.676  18.407  -0.916  1.00 20.00     0.316 HD
ENDROOT
TORSDOF 0
ENDMDL
MODEL 2
REMARK VINA RESULT:      -4.6      3.521      4.517
REMARK  0 active torsions:
REMARK  status: ('A' for Active; 'I' for Inactive)
ROOT
HETATM    1  C1  UNL     1     -35.353  14.794  -6.925  1.00 20.00     0.011 A 
HETATM    2  C2  UNL     1     -35.261  16.031  -7.560  1.00 20.00     0.024 A 
HETATM    3  C3  UNL     1     -33.790  16.821  -5.814  1.00 20.00     0.031 A 
HETATM    4  C4  UNL     1     -34.671  14.562  -5.722  1.00 20.00    -0.024 A 
HETATM    5  C5  UNL     1     -33.869  15.578  -5.174  1.00 20.00    -0.047 A 
HETATM    6  C6  UNL     1     -34.482  17.044  -7.005  1.00 20.00     0.034 A 
HETATM    7  C7  UNL     1     -33.148  15.355  -3.869  1.00 20.00     0.069 C 
HETATM    8  C8  UNL     1     -34.748  13.207  -5.062  1.00 20.00     0.308 C 
HETATM    9  C9  UNL     1     -33.035  13.872  -3.506  1.00 20.00     0.274 C 
HETATM   10  N10 UNL     1     -34.333  13.215  -3.654  1.00 20.00     0.087 N 
HETATM   11 CL11 UNL     1     -34.374  18.572  -7.789  1.00 20.00    -0.084 Cl
HETATM   12  H21 UNL     1     -35.030  13.716  -3.101  1.00 20.00     0.316 HD
ENDROOT
TORSDOF 0
ENDMDL
MODEL 3
REMARK VINA RESULT:      -4.6      2.920      4.133
REMARK  0 active torsions:
REMARK  status: ('A' for Active; 'I' for Inactive)
ROOT
HETATM    1  C1  UNL     1     -33.715  17.631  -3.990  1.00 20.00     0.011 A 
HETATM    2  C2  UNL     1     -33.758  18.043  -2.659  1.00 20.00     0.024 A 
HETATM    3  C3  UNL     1     -34.521  15.848  -2.001  1.00 20.00     0.031 A 
HETATM    4  C4  UNL     1     -34.084  16.324  -4.340  1.00 20.00    -0.024 A 
HETATM    5  C5  UNL     1     -34.472  15.422  -3.334  1.00 20.00    -0.047 A 
HETATM    6  C6  UNL     1     -34.162  17.153  -1.665  1.00 20.00     0.034 A 
HETATM    7  C7  UNL     1     -34.896  14.021  -3.695  1.00 20.00     0.069 C 
HETATM    8  C8  UNL     1     -33.999  15.878  -5.779  1.00 20.00     0.308 C 
HETATM    9  C9  UNL     1     -34.438  13.611  -5.097  1.00 20.00     0.274 C 
HETATM   10  N10 UNL     1     -34.767  14.660  -6.062  1.00 20.00     0.087 N 
HETATM   11 CL11 UNL     1     -34.219  17.667  -0.024  1.00 20.00    -0.084 Cl
HETATM   12  H21 UNL     1     -35.764  14.870  -6.006  1.00 20.00     0.316 HD
ENDROOT
TORSDOF 0
ENDMDL
MODEL 4
REMARK VINA RESULT:      -4.5      3.069      4.709
REMARK  0 active torsions:
REMARK  status: ('A' for Active; 'I' for Inactive)
ROOT
HETATM    1  C1  UNL     1     -34.777  15.556  -2.264  1.00 20.00     0.011 A 
HETATM    2  C2  UNL     1     -34.327  16.815  -1.870  1.00 20.00     0.024 A 
HETATM    3  C3  UNL     1     -33.758  17.329  -4.161  1.00 20.00     0.031 A 
HETATM    4  C4  UNL     1     -34.712  15.168  -3.609  1.00 20.00    -0.024 A 
HETATM    5  C5  UNL     1     -34.216  16.070  -4.566  1.00 20.00    -0.047 A 
HETATM    6  C6  UNL     1     -33.816  17.701  -2.818  1.00 20.00     0.034 A 
HETATM    7  C7  UNL     1     -34.117  15.661  -6.014  1.00 20.00     0.069 C 
HETATM    8  C8  UNL     1     -35.236  13.816  -4.029  1.00 20.00     0.308 C 
HETATM    9  C9  UNL     1     -34.980  14.440  -6.341  1.00 20.00     0.274 C 
HETATM   10  N10 UNL     1     -34.761  13.387  -5.350  1.00 20.00     0.087 N 
HETATM   11 CL11 UNL     1     -33.257  19.253  -2.328  1.00 20.00    -0.084 Cl
HETATM   12  H21 UNL     1     -33.763  13.176  -5.296  1.00 20.00     0.316 HD
ENDROOT
TORSDOF 0
ENDMDL
MODEL 5
REMARK VINA RESULT:      -4.5      2.791      4.069
REMARK  0 active torsions:
REMARK  status: ('A' for Active; 'I' for Inactive)
ROOT
HETATM    1  C1  UNL     1     -33.622  18.590  -2.491  1.00 20.00     0.011 A 
HETATM    2  C2  UNL     1     -33.903  18.736  -1.133  1.00 20.00     0.024 A 
HETATM    3  C3  UNL     1     -34.614  16.430  -1.031  1.00 20.00     0.031 A 
HETATM    4  C4  UNL     1     -33.844  17.364  -3.134  1.00 20.00    -0.024 A 
HETATM    5  C5  UNL     1     -34.327  16.272  -2.392  1.00 20.00    -0.047 A 
HETATM    6  C6  UNL     1     -34.400  17.657  -0.404  1.00 20.00     0.034 A 
HETATM    7  C7  UNL     1     -34.594  14.953  -3.072  1.00 20.00     0.069 C 
HETATM    8  C8  UNL     1     -33.503  17.208  -4.595  1.00 20.00     0.308 C 
HETATM    9  C9  UNL     1     -33.894  14.838  -4.428  1.00 20.00     0.274 C 
HETATM   10  N10 UNL     1     -34.134  16.041  -5.224  1.00 20.00     0.087 N 
HETATM   11 CL11 UNL     1     -34.750  17.841   1.271  1.00 20.00    -0.084 Cl
HETATM   12  H21 UNL     1     -35.139  16.202  -5.298  1.00 20.00     0.316 HD
ENDROOT
TORSDOF 0
ENDMDL
MODEL 6
REMARK VINA RESULT:      -4.4      3.181      4.507
REMARK  0 active torsions:
REMARK  status: ('A' for Active; 'I' for Inactive)
ROOT
HETATM    1  C1  UNL     1     -36.296  16.561  -2.796  1.00 20.00     0.011 A 
HETATM    2  C2  UNL     1     -35.636  17.577  -2.108  1.00 20.00     0.024 A 
HETATM    3  C3  UNL     1     -33.535  16.428  -2.421  1.00 20.00     0.031 A 
HETATM    4  C4  UNL     1     -35.582  15.462  -3.295  1.00 20.00    -0.024 A 
HETATM    5  C5  UNL     1     -34.188  15.407  -3.122  1.00 20.00    -0.047 A 
HETATM    6  C6  UNL     1     -34.257  17.510  -1.919  1.00 20.00     0.034 A 
HETATM    7  C7  UNL     1     -33.407  14.222  -3.631  1.00 20.00     0.069 C 
HETATM    8  C8  UNL     1     -36.301  14.386  -4.070  1.00 20.00     0.308 C 
HETATM    9  C9  UNL     1     -34.184  13.408  -4.669  1.00 20.00     0.274 C 
HETATM   10  N10 UNL     1     -35.538  13.137  -4.188  1.00 20.00     0.087 N 
HETATM   11 CL11 UNL     1     -33.445  18.764  -1.064  1.00 20.00    -0.084 Cl
HETATM   12  H21 UNL     1     -35.488  12.687  -3.274  1.00 20.00     0.316 HD
ENDROOT
TORSDOF 0
ENDMDL
MODEL 7
REMARK VINA RESULT:      -4.4      3.119      4.371
REMARK  0 active torsions:
REMARK  status: ('A' for Active; 'I' for Inactive)
ROOT
HETATM    1  C1  UNL     1     -33.617  17.161  -3.974  1.00 20.00     0.011 A 
HETATM    2  C2  UNL     1     -33.595  18.115  -4.990  1.00 20.00     0.024 A 
HETATM    3  C3  UNL     1     -34.323  16.445  -6.577  1.00 20.00     0.031 A 
HETATM    4  C4  UNL     1     -33.983  15.836  -4.253  1.00 20.00    -0.024 A 
HETATM    5  C5  UNL     1     -34.357  15.482  -5.561  1.00 20.00    -0.047 A 
HETATM    6  C6  UNL     1     -33.946  17.757  -6.291  1.00 20.00     0.034 A 
HETATM    7  C7  UNL     1     -34.730  14.058  -5.883  1.00 20.00     0.069 C 
HETATM    8  C8  UNL     1     -34.038  14.820  -3.138  1.00 20.00     0.308 C 
HETATM    9  C9  UNL     1     -35.073  13.242  -4.634  1.00 20.00     0.274 C 
HETATM   10  N10 UNL     1     -34.045  13.430  -3.611  1.00 20.00     0.087 N 
HETATM   11 CL11 UNL     1     -33.913  18.936  -7.544  1.00 20.00    -0.084 Cl
HETATM   12  H21 UNL     1     -33.131  13.205  -4.004  1.00 20.00     0.316 HD
ENDROOT
TORSDOF 0
ENDMDL
MODEL 8
REMARK VINA RESULT:      -4.3      3.314      4.394
REMARK  0 active torsions:
REMARK  status: ('A' for Active; 'I' for Inactive)
ROOT
HETATM    1  C1  UNL     1     -37.051  14.523  -4.112  1.00 20.00     0.011 A 
HETATM    2  C2  UNL     1     -37.864  15.596  -3.754  1.00 20.00     0.024 A 
HETATM    3  C3  UNL     1     -35.938  16.772  -2.893  1.00 20.00     0.031 A 
HETATM    4  C4  UNL     1     -35.673  14.560  -3.854  1.00 20.00    -0.024 A 
HETATM    5  C5  UNL     1     -35.112  15.702  -3.257  1.00 20.00    -0.047 A 
HETATM    6  C6  UNL     1     -37.309  16.719  -3.143  1.00 20.00     0.034 A 
HETATM    7  C7  UNL     1     -33.637  15.750  -2.951  1.00 20.00     0.069 C 
HETATM    8  C8  UNL     1     -34.796  13.408  -4.279  1.00 20.00     0.308 C 
HETATM    9  C9  UNL     1     -32.840  14.699  -3.728  1.00 20.00     0.274 C 
HETATM   10  N10 UNL     1     -33.486  13.391  -3.617  1.00 20.00     0.087 N 
HETATM   11 CL11 UNL     1     -38.317  18.041  -2.698  1.00 20.00    -0.084 Cl
HETATM   12  H21 UNL     1     -33.611  13.159  -2.631  1.00 20.00     0.316 HD
ENDROOT
TORSDOF 0
ENDMDL
MODEL 9
REMARK VINA RESULT:      -4.3     12.923     14.098
REMARK  0 active torsions:
REMARK  status: ('A' for Active; 'I' for Inactive)
ROOT
HETATM    1  C1  UNL     1     -43.327   5.146  -3.271  1.00 20.00     0.011 A 
HETATM    2  C2  UNL     1     -43.268   3.781  -3.549  1.00 20.00     0.024 A 
HETATM    3  C3  UNL     1     -41.441   3.540  -1.987  1.00 20.00     0.031 A 
HETATM    4  C4  UNL     1     -42.436   5.722  -2.354  1.00 20.00    -0.024 A 
HETATM    5  C5  UNL     1     -41.499   4.908  -1.695  1.00 20.00    -0.047 A 
HETATM    6  C6  UNL     1     -42.325   2.979  -2.909  1.00 20.00     0.034 A 
HETATM    7  C7  UNL     1     -40.518   5.514  -0.725  1.00 20.00     0.069 C 
HETATM    8  C8  UNL     1     -42.533   7.194  -2.034  1.00 20.00     0.308 C 
HETATM    9  C9  UNL     1     -40.945   6.904  -0.246  1.00 20.00     0.274 C 
HETATM   10  N10 UNL     1     -41.331   7.734  -1.387  1.00 20.00     0.087 N 
HETATM   11 CL11 UNL     1     -42.252   1.295  -3.258  1.00 20.00    -0.084 Cl
HETATM   12  H21 UNL     1     -40.566   7.755  -2.063  1.00 20.00     0.316 HD
ENDROOT
TORSDOF 0
ENDMDL
