MODEL 1
REMARK VINA RESULT:      -4.8      0.000      0.000
REMARK  2 active torsions:
REMARK  status: ('A' for Active; 'I' for Inactive)
REMARK    1  A    between atoms: C2_2  and  C3_3 
REMARK    2  A    between atoms: C3_3  and  O10_10 
ROOT
HETATM    1  C1  UNL     1     -33.423   6.210   4.177  1.00 20.00    -0.067 C 
HETATM    2  C2  UNL     1     -34.176   5.824   5.213  1.00 20.00     0.014 C 
HETATM    3  C4  UNL     1     -32.423   7.329   4.220  1.00 20.00     0.035 C 
HETATM    4  C5  UNL     1     -33.461   5.581   2.813  1.00 20.00     0.035 C 
HETATM    5  C6  UNL     1     -32.089   7.548   2.749  1.00 20.00     0.005 C 
HETATM    6  C7  UNL     1     -32.227   6.162   2.133  1.00 20.00     0.005 C 
HETATM    7  C8  UNL     1     -34.102   6.484   6.557  1.00 20.00     0.056 C 
ENDROOT
BRANCH   2   8
HETATM    8  C3  UNL     1     -35.116   4.694   4.991  1.00 20.00     0.171 C 
HETATM    9  O9  UNL     1     -34.977   3.560   5.426  1.00 20.00    -0.646 OA
BRANCH   8  10
HETATM   10  O10 UNL     1     -36.166   5.085   4.232  1.00 20.00    -0.773 OA
HETATM   11  H22 UNL     1     -36.598   5.892   4.589  1.00 20.00     0.167 HD
ENDBRANCH   8  10
ENDBRANCH   2   8
TORSDOF 2
ENDMDL
MODEL 2
REMARK VINA RESULT:      -4.8     11.324     12.352
REMARK  2 active torsions:
REMARK  status: ('A' for Active; 'I' for Inactive)
REMARK    1  A    between atoms: C2_2  and  C3_3 
REMARK    2  A    between atoms: C3_3  and  O10_10 
ROOT
HETATM    1  C1  UNL     1     -34.663  15.391  -3.056  1.00 20.00    -0.067 C 
HETATM    2  C2  UNL     1     -34.048  14.396  -3.704  1.00 20.00     0.014 C 
HETATM    3  C4  UNL     1     -34.000  16.293  -2.053  1.00 20.00     0.035 C 
HETATM    4  C5  UNL     1     -36.108  15.761  -3.233  1.00 20.00     0.035 C 
HETATM    5  C6  UNL     1     -35.179  17.015  -1.410  1.00 20.00     0.005 C 
HETATM    6  C7  UNL     1     -36.204  17.111  -2.532  1.00 20.00     0.005 C 
HETATM    7  C8  UNL     1     -32.601  14.064  -3.493  1.00 20.00     0.056 C 
ENDROOT
BRANCH   2   8
HETATM    8  C3  UNL     1     -34.859  13.602  -4.664  1.00 20.00     0.171 C 
HETATM    9  O9  UNL     1     -35.032  13.876  -5.842  1.00 20.00    -0.646 OA
BRANCH   8  10
HETATM   10  O10 UNL     1     -35.393  12.516  -4.059  1.00 20.00    -0.773 OA
HETATM   11  H22 UNL     1     -35.164  12.476  -3.105  1.00 20.00     0.167 HD
ENDBRANCH   8  10
ENDBRANCH   2   8
TORSDOF 2
ENDMDL
MODEL 3
REMARK VINA RESULT:      -4.7     11.660     13.094
REMARK  2 active torsions:
REMARK  status: ('A' for Active; 'I' for Inactive)
REMARK    1  A    between atoms: C2_2  and  C3_3 
REMARK    2  A    between atoms: C3_3  and  O10_10 
ROOT
HETATM    1  C1  UNL     1     -34.689  15.521  -5.053  1.00 20.00    -0.067 C 
HETATM    2  C2  UNL     1     -34.515  14.904  -3.879  1.00 20.00     0.014 C 
HETATM    3  C4  UNL     1     -35.093  16.960  -5.208  1.00 20.00     0.035 C 
HETATM    4  C5  UNL     1     -34.505  14.871  -6.395  1.00 20.00     0.035 C 
HETATM    5  C6  UNL     1     -35.445  17.060  -6.688  1.00 20.00     0.005 C 
HETATM    6  C7  UNL     1     -34.512  16.057  -7.353  1.00 20.00     0.005 C 
HETATM    7  C8  UNL     1     -34.711  15.596  -2.564  1.00 20.00     0.056 C 
ENDROOT
BRANCH   2   8
HETATM    8  C3  UNL     1     -34.114  13.473  -3.913  1.00 20.00     0.171 C 
HETATM    9  O9  UNL     1     -32.971  13.054  -3.804  1.00 20.00    -0.646 OA
BRANCH   8  10
HETATM   10  O10 UNL     1     -35.194  12.675  -4.083  1.00 20.00    -0.773 OA
HETATM   11  H22 UNL     1     -36.024  13.115  -3.800  1.00 20.00     0.167 HD
ENDBRANCH   8  10
ENDBRANCH   2   8
TORSDOF 2
ENDMDL
MODEL 4
REMARK VINA RESULT:      -4.7     11.415     12.788
REMARK  2 active torsions:
REMARK  status: ('A' for Active; 'I' for Inactive)
REMARK    1  A    between atoms: C2_2  and  C3_3 
REMARK    2  A    between atoms: C3_3  and  O10_10 
ROOT
HETATM    1  C1  UNL     1     -34.536  15.738  -3.947  1.00 20.00    -0.067 C 
HETATM    2  C2  UNL     1     -34.415  14.721  -4.807  1.00 20.00     0.014 C 
HETATM    3  C4  UNL     1     -34.800  17.163  -4.343  1.00 20.00     0.035 C 
HETATM    4  C5  UNL     1     -34.427  15.611  -2.454  1.00 20.00     0.035 C 
HETATM    5  C6  UNL     1     -34.537  17.932  -3.053  1.00 20.00     0.005 C 
HETATM    6  C7  UNL     1     -34.944  16.956  -1.957  1.00 20.00     0.005 C 
HETATM    7  C8  UNL     1     -34.532  14.899  -6.292  1.00 20.00     0.056 C 
ENDROOT
BRANCH   2   8
HETATM    8  C3  UNL     1     -34.154  13.373  -4.239  1.00 20.00     0.171 C 
HETATM    9  O9  UNL     1     -33.063  12.954  -3.881  1.00 20.00    -0.646 OA
BRANCH   8  10
HETATM   10  O10 UNL     1     -35.298  12.654  -4.163  1.00 20.00    -0.773 OA
HETATM   11  H22 UNL     1     -35.233  11.806  -4.655  1.00 20.00     0.167 HD
ENDBRANCH   8  10
ENDBRANCH   2   8
TORSDOF 2
ENDMDL
MODEL 5
REMARK VINA RESULT:      -4.7     11.594     12.896
REMARK  2 active torsions:
REMARK  status: ('A' for Active; 'I' for Inactive)
REMARK    1  A    between atoms: C2_2  and  C3_3 
REMARK    2  A    between atoms: C3_3  and  O10_10 
ROOT
HETATM    1  C1  UNL     1     -34.284  15.756  -4.095  1.00 20.00    -0.067 C 
HETATM    2  C2  UNL     1     -34.344  14.773  -5.000  1.00 20.00     0.014 C 
HETATM    3  C4  UNL     1     -34.261  17.220  -4.427  1.00 20.00     0.035 C 
HETATM    4  C5  UNL     1     -34.232  15.545  -2.608  1.00 20.00     0.035 C 
HETATM    5  C6  UNL     1     -33.881  17.868  -3.101  1.00 20.00     0.005 C 
HETATM    6  C7  UNL     1     -34.490  16.942  -2.055  1.00 20.00     0.005 C 
HETATM    7  C8  UNL     1     -34.394  15.033  -6.475  1.00 20.00     0.056 C 
ENDROOT
BRANCH   2   8
HETATM    8  C3  UNL     1     -34.358  13.376  -4.491  1.00 20.00     0.171 C 
HETATM    9  O9  UNL     1     -35.356  12.689  -4.332  1.00 20.00    -0.646 OA
BRANCH   8  10
HETATM   10  O10 UNL     1     -33.102  12.951  -4.222  1.00 20.00    -0.773 OA
HETATM   11  H22 UNL     1     -32.422  13.533  -4.624  1.00 20.00     0.167 HD
ENDBRANCH   8  10
ENDBRANCH   2   8
TORSDOF 2
ENDMDL
MODEL 6
REMARK VINA RESULT:      -4.7     11.504     13.151
REMARK  2 active torsions:
REMARK  status: ('A' for Active; 'I' for Inactive)
REMARK    1  A    between atoms: C2_2  and  C3_3 
REMARK    2  A    between atoms: C3_3  and  O10_10 
ROOT
HETATM    1  C1  UNL     1     -34.184  15.682  -4.806  1.00 20.00    -0.067 C 
HETATM    2  C2  UNL     1     -34.463  14.478  -5.317  1.00 20.00     0.014 C 
HETATM    3  C4  UNL     1     -34.354  16.981  -5.540  1.00 20.00     0.035 C 
HETATM    4  C5  UNL     1     -33.658  15.919  -3.418  1.00 20.00     0.035 C 
HETATM    5  C6  UNL     1     -33.619  17.978  -4.651  1.00 20.00     0.005 C 
HETATM    6  C7  UNL     1     -33.815  17.425  -3.245  1.00 20.00     0.005 C 
HETATM    7  C8  UNL     1     -34.987  14.293  -6.710  1.00 20.00     0.056 C 
ENDROOT
BRANCH   2   8
HETATM    8  C3  UNL     1     -34.234  13.296  -4.446  1.00 20.00     0.171 C 
HETATM    9  O9  UNL     1     -33.145  12.905  -4.053  1.00 20.00    -0.646 OA
BRANCH   8  10
HETATM   10  O10 UNL     1     -35.406  12.695  -4.134  1.00 20.00    -0.773 OA
HETATM   11  H22 UNL     1     -36.092  13.344  -3.865  1.00 20.00     0.167 HD
ENDBRANCH   8  10
ENDBRANCH   2   8
TORSDOF 2
ENDMDL
MODEL 7
REMARK VINA RESULT:      -4.6     11.625     12.625
REMARK  2 active torsions:
REMARK  status: ('A' for Active; 'I' for Inactive)
REMARK    1  A    between atoms: C2_2  and  C3_3 
REMARK    2  A    between atoms: C3_3  and  O10_10 
ROOT
HETATM    1  C1  UNL     1     -34.596  15.838  -3.376  1.00 20.00    -0.067 C 
HETATM    2  C2  UNL     1     -34.897  15.043  -4.408  1.00 20.00     0.014 C 
HETATM    3  C4  UNL     1     -33.729  17.062  -3.467  1.00 20.00     0.035 C 
HETATM    4  C5  UNL     1     -35.080  15.631  -1.969  1.00 20.00     0.035 C 
HETATM    5  C6  UNL     1     -33.460  17.401  -2.005  1.00 20.00     0.005 C 
HETATM    6  C7  UNL     1     -34.724  16.947  -1.287  1.00 20.00     0.005 C 
HETATM    7  C8  UNL     1     -34.389  15.292  -5.797  1.00 20.00     0.056 C 
ENDROOT
BRANCH   2   8
HETATM    8  C3  UNL     1     -35.772  13.873  -4.136  1.00 20.00     0.171 C 
HETATM    9  O9  UNL     1     -36.983  13.914  -3.975  1.00 20.00    -0.646 OA
BRANCH   8  10
HETATM   10  O10 UNL     1     -35.046  12.732  -4.089  1.00 20.00    -0.773 OA
HETATM   11  H22 UNL     1     -35.073  12.315  -3.201  1.00 20.00     0.167 HD
ENDBRANCH   8  10
ENDBRANCH   2   8
TORSDOF 2
ENDMDL
MODEL 8
REMARK VINA RESULT:      -4.5     11.590     12.990
REMARK  2 active torsions:
REMARK  status: ('A' for Active; 'I' for Inactive)
REMARK    1  A    between atoms: C2_2  and  C3_3 
REMARK    2  A    between atoms: C3_3  and  O10_10 
ROOT
HETATM    1  C1  UNL     1     -35.021  15.089  -4.760  1.00 20.00    -0.067 C 
HETATM    2  C2  UNL     1     -34.249  15.065  -3.669  1.00 20.00     0.014 C 
HETATM    3  C4  UNL     1     -36.303  15.863  -4.882  1.00 20.00     0.035 C 
HETATM    4  C5  UNL     1     -34.724  14.347  -6.033  1.00 20.00     0.035 C 
HETATM    5  C6  UNL     1     -36.918  15.311  -6.162  1.00 20.00     0.005 C 
HETATM    6  C7  UNL     1     -35.713  14.954  -7.022  1.00 20.00     0.005 C 
HETATM    7  C8  UNL     1     -34.588  15.823  -2.421  1.00 20.00     0.056 C 
ENDROOT
BRANCH   2   8
HETATM    8  C3  UNL     1     -33.013  14.242  -3.725  1.00 20.00     0.171 C 
HETATM    9  O9  UNL     1     -32.956  13.033  -3.552  1.00 20.00    -0.646 OA
BRANCH   8  10
HETATM   10  O10 UNL     1     -31.935  15.013  -3.999  1.00 20.00    -0.773 OA
HETATM   11  H22 UNL     1     -31.745  15.052  -4.961  1.00 20.00     0.167 HD
ENDBRANCH   8  10
ENDBRANCH   2   8
TORSDOF 2
ENDMDL
MODEL 9
REMARK VINA RESULT:      -4.5     12.340     13.485
REMARK  2 active torsions:
REMARK  status: ('A' for Active; 'I' for Inactive)
REMARK    1  A    between atoms: C2_2  and  C3_3 
REMARK    2  A    between atoms: C3_3  and  O10_10 
ROOT
HETATM    1  C1  UNL     1     -34.071  16.853  -2.069  1.00 20.00    -0.067 C 
HETATM    2  C2  UNL     1     -34.139  16.123  -3.186  1.00 20.00     0.014 C 
HETATM    3  C4  UNL     1     -34.718  16.481  -0.765  1.00 20.00     0.035 C 
HETATM    4  C5  UNL     1     -33.335  18.157  -1.945  1.00 20.00     0.035 C 
HETATM    5  C6  UNL     1     -34.601  17.761   0.055  1.00 20.00     0.005 C 
HETATM    6  C7  UNL     1     -33.307  18.394  -0.439  1.00 20.00     0.005 C 
HETATM    7  C8  UNL     1     -34.888  14.826  -3.260  1.00 20.00     0.056 C 
ENDROOT
BRANCH   2   8
HETATM    8  C3  UNL     1     -33.437  16.644  -4.388  1.00 20.00     0.171 C 
HETATM    9  O9  UNL     1     -33.736  17.659  -5.000  1.00 20.00    -0.646 OA
BRANCH   8  10
HETATM   10  O10 UNL     1     -32.402  15.840  -4.726  1.00 20.00    -0.773 OA
HETATM   11  H22 UNL     1     -32.536  14.919  -4.415  1.00 20.00     0.167 HD
ENDBRANCH   8  10
ENDBRANCH   2   8
TORSDOF 2
ENDMDL
