MODEL 1
REMARK VINA RESULT:      -4.0      0.000      0.000
REMARK  1 active torsions:
REMARK  status: ('A' for Active; 'I' for Inactive)
REMARK    1  A    between atoms: C6_6  and  N8_8 
ROOT
HETATM    1  C1  UNL     1     -36.390  14.054  -4.136  1.00 20.00     0.137 A 
HETATM    2  C2  UNL     1     -36.099  15.221  -3.471  1.00 20.00     0.113 A 
HETATM    3  C3  UNL     1     -34.318  13.937  -3.662  1.00 20.00     0.203 A 
HETATM    4  N7  UNL     1     -35.277  13.259  -4.252  1.00 20.00    -0.231 NA
HETATM    5  N8  UNL     1     -34.768  15.133  -3.173  1.00 20.00    -0.327 N 
HETATM    6 CL9  UNL     1     -32.698  13.461  -3.482  1.00 20.00    -0.043 Cl
ENDROOT
BRANCH   5   7
HETATM    7  C6  UNL     1     -33.995  16.155  -2.456  1.00 20.00     0.083 C 
HETATM    8  C4  UNL     1     -34.608  16.487  -1.095  1.00 20.00     0.032 C 
HETATM    9  C5  UNL     1     -33.786  17.412  -3.303  1.00 20.00     0.032 C 
ENDBRANCH   5   7
TORSDOF 1
ENDMDL
MODEL 2
REMARK VINA RESULT:      -3.8      1.744      2.442
REMARK  1 active torsions:
REMARK  status: ('A' for Active; 'I' for Inactive)
REMARK    1  A    between atoms: C6_6  and  N8_8 
ROOT
HETATM    1  C1  UNL     1     -33.951  13.244  -4.351  1.00 20.00     0.137 A 
HETATM    2  C2  UNL     1     -33.558  14.437  -3.794  1.00 20.00     0.113 A 
HETATM    3  C3  UNL     1     -35.753  14.283  -3.902  1.00 20.00     0.203 A 
HETATM    4  N7  UNL     1     -35.319  13.154  -4.415  1.00 20.00    -0.231 NA
HETATM    5  N8  UNL     1     -34.723  15.093  -3.511  1.00 20.00    -0.327 N 
HETATM    6 CL9  UNL     1     -37.372  14.758  -3.714  1.00 20.00    -0.043 Cl
ENDROOT
BRANCH   5   7
HETATM    7  C6  UNL     1     -34.814  16.425  -2.900  1.00 20.00     0.083 C 
HETATM    8  C4  UNL     1     -33.827  17.412  -3.527  1.00 20.00     0.032 C 
HETATM    9  C5  UNL     1     -34.664  16.368  -1.379  1.00 20.00     0.032 C 
ENDBRANCH   5   7
TORSDOF 1
ENDMDL
MODEL 3
REMARK VINA RESULT:      -3.7      2.003      3.697
REMARK  1 active torsions:
REMARK  status: ('A' for Active; 'I' for Inactive)
REMARK    1  A    between atoms: C6_6  and  N8_8 
ROOT
HETATM    1  C1  UNL     1     -33.590  17.765  -4.474  1.00 20.00     0.137 A 
HETATM    2  C2  UNL     1     -33.788  16.440  -4.781  1.00 20.00     0.113 A 
HETATM    3  C3  UNL     1     -34.148  16.834  -2.643  1.00 20.00     0.203 A 
HETATM    4  N7  UNL     1     -33.817  18.004  -3.141  1.00 20.00    -0.231 NA
HETATM    5  N8  UNL     1     -34.144  15.855  -3.598  1.00 20.00    -0.327 N 
HETATM    6 CL9  UNL     1     -34.543  16.491  -1.028  1.00 20.00    -0.043 Cl
ENDROOT
BRANCH   5   7
HETATM    7  C6  UNL     1     -34.459  14.431  -3.423  1.00 20.00     0.083 C 
HETATM    8  C4  UNL     1     -33.264  13.536  -3.756  1.00 20.00     0.032 C 
HETATM    9  C5  UNL     1     -35.707  14.020  -4.206  1.00 20.00     0.032 C 
ENDBRANCH   5   7
TORSDOF 1
ENDMDL
MODEL 4
REMARK VINA RESULT:      -3.6      2.141      2.770
REMARK  1 active torsions:
REMARK  status: ('A' for Active; 'I' for Inactive)
REMARK    1  A    between atoms: C6_6  and  N8_8 
ROOT
HETATM    1  C1  UNL     1     -34.431  13.156  -4.836  1.00 20.00     0.137 A 
HETATM    2  C2  UNL     1     -34.638  14.268  -5.617  1.00 20.00     0.113 A 
HETATM    3  C3  UNL     1     -34.488  14.799  -3.483  1.00 20.00     0.203 A 
HETATM    4  N7  UNL     1     -34.338  13.494  -3.508  1.00 20.00    -0.231 NA
HETATM    5  N8  UNL     1     -34.673  15.314  -4.737  1.00 20.00    -0.327 N 
HETATM    6 CL9  UNL     1     -34.472  15.798  -2.111  1.00 20.00    -0.043 Cl
ENDROOT
BRANCH   5   7
HETATM    7  C6  UNL     1     -34.875  16.720  -5.107  1.00 20.00     0.083 C 
HETATM    8  C4  UNL     1     -35.856  16.871  -6.271  1.00 20.00     0.032 C 
HETATM    9  C5  UNL     1     -33.552  17.434  -5.388  1.00 20.00     0.032 C 
ENDBRANCH   5   7
TORSDOF 1
ENDMDL
MODEL 5
REMARK VINA RESULT:      -3.6      1.468      1.633
REMARK  1 active torsions:
REMARK  status: ('A' for Active; 'I' for Inactive)
REMARK    1  A    between atoms: C6_6  and  N8_8 
ROOT
HETATM    1  C1  UNL     1     -37.888  15.511  -3.591  1.00 20.00     0.137 A 
HETATM    2  C2  UNL     1     -36.867  16.272  -3.073  1.00 20.00     0.113 A 
HETATM    3  C3  UNL     1     -36.125  14.342  -3.835  1.00 20.00     0.203 A 
HETATM    4  N7  UNL     1     -37.420  14.311  -4.065  1.00 20.00    -0.231 NA
HETATM    5  N8  UNL     1     -35.744  15.510  -3.236  1.00 20.00    -0.327 N 
HETATM    6 CL9  UNL     1     -34.998  13.127  -4.203  1.00 20.00    -0.043 Cl
ENDROOT
BRANCH   5   7
HETATM    7  C6  UNL     1     -34.390  15.906  -2.828  1.00 20.00     0.083 C 
HETATM    8  C4  UNL     1     -34.377  16.561  -1.445  1.00 20.00     0.032 C 
HETATM    9  C5  UNL     1     -33.712  16.790  -3.877  1.00 20.00     0.032 C 
ENDBRANCH   5   7
TORSDOF 1
ENDMDL
MODEL 6
REMARK VINA RESULT:      -3.6     11.346     13.019
REMARK  1 active torsions:
REMARK  status: ('A' for Active; 'I' for Inactive)
REMARK    1  A    between atoms: C6_6  and  N8_8 
ROOT
HETATM    1  C1  UNL     1     -40.561   5.902  -0.563  1.00 20.00     0.137 A 
HETATM    2  C2  UNL     1     -40.936   4.610  -0.845  1.00 20.00     0.113 A 
HETATM    3  C3  UNL     1     -41.877   6.042  -2.231  1.00 20.00     0.203 A 
HETATM    4  N7  UNL     1     -41.150   6.788  -1.429  1.00 20.00    -0.231 NA
HETATM    5  N8  UNL     1     -41.780   4.715  -1.915  1.00 20.00    -0.327 N 
HETATM    6 CL9  UNL     1     -42.847   6.577  -3.517  1.00 20.00    -0.043 Cl
ENDROOT
BRANCH   5   7
HETATM    7  C6  UNL     1     -42.444   3.586  -2.579  1.00 20.00     0.083 C 
HETATM    8  C4  UNL     1     -43.417   2.864  -1.645  1.00 20.00     0.032 C 
HETATM    9  C5  UNL     1     -41.438   2.617  -3.203  1.00 20.00     0.032 C 
ENDBRANCH   5   7
TORSDOF 1
ENDMDL
MODEL 7
REMARK VINA RESULT:      -3.5      2.537      3.371
REMARK  1 active torsions:
REMARK  status: ('A' for Active; 'I' for Inactive)
REMARK    1  A    between atoms: C6_6  and  N8_8 
ROOT
HETATM    1  C1  UNL     1     -37.849  14.934  -4.675  1.00 20.00     0.137 A 
HETATM    2  C2  UNL     1     -37.113  15.284  -5.781  1.00 20.00     0.113 A 
HETATM    3  C3  UNL     1     -35.895  14.164  -4.325  1.00 20.00     0.203 A 
HETATM    4  N7  UNL     1     -37.086  14.237  -3.772  1.00 20.00    -0.231 NA
HETATM    5  N8  UNL     1     -35.863  14.785  -5.543  1.00 20.00    -0.327 N 
HETATM    6 CL9  UNL     1     -34.517  13.417  -3.676  1.00 20.00    -0.043 Cl
ENDROOT
BRANCH   5   7
HETATM    7  C6  UNL     1     -34.717  14.912  -6.453  1.00 20.00     0.083 C 
HETATM    8  C4  UNL     1     -33.944  16.212  -6.222  1.00 20.00     0.032 C 
HETATM    9  C5  UNL     1     -35.129  14.754  -7.917  1.00 20.00     0.032 C 
ENDBRANCH   5   7
TORSDOF 1
ENDMDL
MODEL 8
REMARK VINA RESULT:      -3.5      2.706      3.859
REMARK  1 active torsions:
REMARK  status: ('A' for Active; 'I' for Inactive)
REMARK    1  A    between atoms: C6_6  and  N8_8 
ROOT
HETATM    1  C1  UNL     1     -33.646  17.545  -5.302  1.00 20.00     0.137 A 
HETATM    2  C2  UNL     1     -33.637  16.477  -4.437  1.00 20.00     0.113 A 
HETATM    3  C3  UNL     1     -34.249  15.866  -6.464  1.00 20.00     0.203 A 
HETATM    4  N7  UNL     1     -34.028  17.158  -6.562  1.00 20.00    -0.231 NA
HETATM    5  N8  UNL     1     -34.026  15.408  -5.194  1.00 20.00    -0.327 N 
HETATM    6 CL9  UNL     1     -34.755  14.823  -7.704  1.00 20.00    -0.043 Cl
ENDROOT
BRANCH   5   7
HETATM    7  C6  UNL     1     -34.168  14.032  -4.701  1.00 20.00     0.083 C 
HETATM    8  C4  UNL     1     -35.587  13.745  -4.207  1.00 20.00     0.032 C 
HETATM    9  C5  UNL     1     -33.122  13.695  -3.638  1.00 20.00     0.032 C 
ENDBRANCH   5   7
TORSDOF 1
ENDMDL
MODEL 9
REMARK VINA RESULT:      -3.5      2.408      2.863
REMARK  1 active torsions:
REMARK  status: ('A' for Active; 'I' for Inactive)
REMARK    1  A    between atoms: C6_6  and  N8_8 
ROOT
HETATM    1  C1  UNL     1     -34.425  13.399  -3.778  1.00 20.00     0.137 A 
HETATM    2  C2  UNL     1     -34.428  14.769  -3.673  1.00 20.00     0.113 A 
HETATM    3  C3  UNL     1     -34.947  14.117  -5.713  1.00 20.00     0.203 A 
HETATM    4  N7  UNL     1     -34.748  12.999  -5.050  1.00 20.00    -0.231 NA
HETATM    5  N8  UNL     1     -34.764  15.216  -4.920  1.00 20.00    -0.327 N 
HETATM    6 CL9  UNL     1     -35.375  14.267  -7.349  1.00 20.00    -0.043 Cl
ENDROOT
BRANCH   5   7
HETATM    7  C6  UNL     1     -34.895  16.628  -5.303  1.00 20.00     0.083 C 
HETATM    8  C4  UNL     1     -33.537  17.328  -5.382  1.00 20.00     0.032 C 
HETATM    9  C5  UNL     1     -35.865  17.380  -4.390  1.00 20.00     0.032 C 
ENDBRANCH   5   7
TORSDOF 1
ENDMDL
