MODEL 1
REMARK VINA RESULT:      -5.5      0.000      0.000
REMARK  1 active torsions:
REMARK  status: ('A' for Active; 'I' for Inactive)
REMARK    1  A    between atoms: C5_5  and  O7_7 
ROOT
HETATM    1  C1  UNL     1     -34.404   5.293   3.487  1.00 20.00     0.037 C 
HETATM    2  C2  UNL     1     -33.292   6.608   5.339  1.00 20.00     0.037 C 
HETATM    3  C3  UNL     1     -35.412   4.734   4.486  1.00 20.00     0.081 C 
HETATM    4  C4  UNL     1     -34.298   6.052   6.341  1.00 20.00     0.081 C 
HETATM    5  C5  UNL     1     -33.875   6.658   3.926  1.00 20.00     0.118 C 
HETATM    6  C6  UNL     1     -34.840   4.705   5.894  1.00 20.00     0.243 C 
HETATM    7  F8  UNL     1     -35.798   4.293   6.762  1.00 20.00    -0.206 F 
HETATM    8  F9  UNL     1     -33.846   3.781   5.952  1.00 20.00    -0.206 F 
ENDROOT
BRANCH   5   9
HETATM    9  O7  UNL     1     -32.869   7.071   3.007  1.00 20.00    -0.396 OA
HETATM   10  H19 UNL     1     -32.650   7.990   3.230  1.00 20.00     0.210 HD
ENDBRANCH   5   9
TORSDOF 1
ENDMDL
MODEL 2
REMARK VINA RESULT:      -4.9      2.672      3.691
REMARK  1 active torsions:
REMARK  status: ('A' for Active; 'I' for Inactive)
REMARK    1  A    between atoms: C5_5  and  O7_7 
ROOT
HETATM    1  C1  UNL     1     -33.986   5.794   6.100  1.00 20.00     0.037 C 
HETATM    2  C2  UNL     1     -34.940   4.544   4.121  1.00 20.00     0.037 C 
HETATM    3  C3  UNL     1     -33.532   6.919   5.175  1.00 20.00     0.081 C 
HETATM    4  C4  UNL     1     -34.488   5.665   3.191  1.00 20.00     0.081 C 
HETATM    5  C5  UNL     1     -35.201   5.058   5.537  1.00 20.00     0.118 C 
HETATM    6  C6  UNL     1     -33.294   6.412   3.762  1.00 20.00     0.243 C 
HETATM    7  F8  UNL     1     -32.986   7.457   2.954  1.00 20.00    -0.206 F 
HETATM    8  F9  UNL     1     -32.211   5.592   3.759  1.00 20.00    -0.206 F 
ENDROOT
BRANCH   5   9
HETATM    9  O7  UNL     1     -35.505   3.963   6.395  1.00 20.00    -0.396 OA
HETATM   10  H19 UNL     1     -36.197   3.447   5.951  1.00 20.00     0.210 HD
ENDBRANCH   5   9
TORSDOF 1
ENDMDL
MODEL 3
REMARK VINA RESULT:      -4.7      2.795      3.447
REMARK  1 active torsions:
REMARK  status: ('A' for Active; 'I' for Inactive)
REMARK    1  A    between atoms: C5_5  and  O7_7 
ROOT
HETATM    1  C1  UNL     1     -35.223   4.608   4.277  1.00 20.00     0.037 C 
HETATM    2  C2  UNL     1     -34.264   5.919   6.215  1.00 20.00     0.037 C 
HETATM    3  C3  UNL     1     -34.213   5.256   3.335  1.00 20.00     0.081 C 
HETATM    4  C4  UNL     1     -33.252   6.570   5.277  1.00 20.00     0.081 C 
HETATM    5  C5  UNL     1     -34.694   4.542   5.709  1.00 20.00     0.118 C 
HETATM    6  C6  UNL     1     -33.768   6.616   3.849  1.00 20.00     0.243 C 
HETATM    7  F8  UNL     1     -32.803   7.112   3.035  1.00 20.00    -0.206 F 
HETATM    8  F9  UNL     1     -34.813   7.482   3.779  1.00 20.00    -0.206 F 
ENDROOT
BRANCH   5   9
HETATM    9  O7  UNL     1     -35.721   4.023   6.548  1.00 20.00    -0.396 OA
HETATM   10  H19 UNL     1     -35.624   3.058   6.541  1.00 20.00     0.210 HD
ENDBRANCH   5   9
TORSDOF 1
ENDMDL
MODEL 4
REMARK VINA RESULT:      -4.7     12.369     13.237
REMARK  1 active torsions:
REMARK  status: ('A' for Active; 'I' for Inactive)
REMARK    1  A    between atoms: C5_5  and  O7_7 
ROOT
HETATM    1  C1  UNL     1     -35.846  14.807  -3.618  1.00 20.00     0.037 C 
HETATM    2  C2  UNL     1     -33.485  13.906  -3.683  1.00 20.00     0.037 C 
HETATM    3  C3  UNL     1     -35.305  16.234  -3.636  1.00 20.00     0.081 C 
HETATM    4  C4  UNL     1     -32.939  15.330  -3.700  1.00 20.00     0.081 C 
HETATM    5  C5  UNL     1     -34.884  13.832  -4.296  1.00 20.00     0.118 C 
HETATM    6  C6  UNL     1     -33.906  16.303  -3.047  1.00 20.00     0.243 C 
HETATM    7  F8  UNL     1     -33.427  17.566  -3.169  1.00 20.00    -0.206 F 
HETATM    8  F9  UNL     1     -33.969  16.043  -1.715  1.00 20.00    -0.206 F 
ENDROOT
BRANCH   5   9
HETATM    9  O7  UNL     1     -35.401  12.513  -4.153  1.00 20.00    -0.396 OA
HETATM   10  H19 UNL     1     -35.458  12.339  -3.200  1.00 20.00     0.210 HD
ENDBRANCH   5   9
TORSDOF 1
ENDMDL
MODEL 5
REMARK VINA RESULT:      -4.5     13.231     14.196
REMARK  1 active torsions:
REMARK  status: ('A' for Active; 'I' for Inactive)
REMARK    1  A    between atoms: C5_5  and  O7_7 
ROOT
HETATM    1  C1  UNL     1     -35.089  14.294  -5.756  1.00 20.00     0.037 C 
HETATM    2  C2  UNL     1     -34.095  14.449  -3.437  1.00 20.00     0.037 C 
HETATM    3  C3  UNL     1     -34.225  15.467  -6.208  1.00 20.00     0.081 C 
HETATM    4  C4  UNL     1     -33.229  15.623  -3.883  1.00 20.00     0.081 C 
HETATM    5  C5  UNL     1     -34.438  13.526  -4.607  1.00 20.00     0.118 C 
HETATM    6  C6  UNL     1     -33.865  16.373  -5.042  1.00 20.00     0.243 C 
HETATM    7  F8  UNL     1     -33.021  17.345  -5.468  1.00 20.00    -0.206 F 
HETATM    8  F9  UNL     1     -34.987  17.003  -4.604  1.00 20.00    -0.206 F 
ENDROOT
BRANCH   5   9
HETATM    9  O7  UNL     1     -35.340  12.514  -4.169  1.00 20.00    -0.396 OA
HETATM   10  H19 UNL     1     -35.317  12.523  -3.199  1.00 20.00     0.210 HD
ENDBRANCH   5   9
TORSDOF 1
ENDMDL
MODEL 6
REMARK VINA RESULT:      -4.5      1.952      2.717
REMARK  1 active torsions:
REMARK  status: ('A' for Active; 'I' for Inactive)
REMARK    1  A    between atoms: C5_5  and  O7_7 
ROOT
HETATM    1  C1  UNL     1     -34.753   5.575   6.736  1.00 20.00     0.037 C 
HETATM    2  C2  UNL     1     -33.690   6.782   4.785  1.00 20.00     0.037 C 
HETATM    3  C3  UNL     1     -34.886   4.314   5.888  1.00 20.00     0.081 C 
HETATM    4  C4  UNL     1     -33.821   5.524   3.933  1.00 20.00     0.081 C 
HETATM    5  C5  UNL     1     -33.585   6.445   6.273  1.00 20.00     0.118 C 
HETATM    6  C6  UNL     1     -34.968   4.648   4.408  1.00 20.00     0.243 C 
HETATM    7  F8  UNL     1     -34.988   3.499   3.686  1.00 20.00    -0.206 F 
HETATM    8  F9  UNL     1     -36.145   5.280   4.157  1.00 20.00    -0.206 F 
ENDROOT
BRANCH   5   9
HETATM    9  O7  UNL     1     -33.583   7.646   7.037  1.00 20.00    -0.396 OA
HETATM   10  H19 UNL     1     -34.128   8.285   6.550  1.00 20.00     0.210 HD
ENDBRANCH   5   9
TORSDOF 1
ENDMDL
MODEL 7
REMARK VINA RESULT:      -4.4     13.186     14.007
REMARK  1 active torsions:
REMARK  status: ('A' for Active; 'I' for Inactive)
REMARK    1  A    between atoms: C5_5  and  O7_7 
ROOT
HETATM    1  C1  UNL     1     -33.477  13.949  -3.885  1.00 20.00     0.037 C 
HETATM    2  C2  UNL     1     -35.634  14.887  -4.812  1.00 20.00     0.037 C 
HETATM    3  C3  UNL     1     -32.958  15.364  -3.652  1.00 20.00     0.081 C 
HETATM    4  C4  UNL     1     -35.120  16.304  -4.581  1.00 20.00     0.081 C 
HETATM    5  C5  UNL     1     -35.004  13.894  -3.835  1.00 20.00     0.118 C 
HETATM    6  C6  UNL     1     -33.601  16.355  -4.608  1.00 20.00     0.243 C 
HETATM    7  F8  UNL     1     -33.186  17.610  -4.305  1.00 20.00    -0.206 F 
HETATM    8  F9  UNL     1     -33.168  16.101  -5.871  1.00 20.00    -0.206 F 
ENDROOT
BRANCH   5   9
HETATM    9  O7  UNL     1     -35.421  12.572  -4.161  1.00 20.00    -0.396 OA
HETATM   10  H19 UNL     1     -35.095  11.996  -3.451  1.00 20.00     0.210 HD
ENDBRANCH   5   9
TORSDOF 1
ENDMDL
MODEL 8
REMARK VINA RESULT:      -4.3      9.173     10.026
REMARK  1 active torsions:
REMARK  status: ('A' for Active; 'I' for Inactive)
REMARK    1  A    between atoms: C5_5  and  O7_7 
ROOT
HETATM    1  C1  UNL     1     -42.550   6.806  -1.957  1.00 20.00     0.037 C 
HETATM    2  C2  UNL     1     -41.921   4.360  -1.841  1.00 20.00     0.037 C 
HETATM    3  C3  UNL     1     -41.397   7.151  -1.019  1.00 20.00     0.081 C 
HETATM    4  C4  UNL     1     -40.766   4.699  -0.903  1.00 20.00     0.081 C 
HETATM    5  C5  UNL     1     -42.265   5.536  -2.757  1.00 20.00     0.118 C 
HETATM    6  C6  UNL     1     -41.040   5.975  -0.125  1.00 20.00     0.243 C 
HETATM    7  F8  UNL     1     -39.952   6.290   0.623  1.00 20.00    -0.206 F 
HETATM    8  F9  UNL     1     -42.056   5.756   0.750  1.00 20.00    -0.206 F 
ENDROOT
BRANCH   5   9
HETATM    9  O7  UNL     1     -43.417   5.218  -3.530  1.00 20.00    -0.396 OA
HETATM   10  H19 UNL     1     -43.729   6.051  -3.918  1.00 20.00     0.210 HD
ENDBRANCH   5   9
TORSDOF 1
ENDMDL
MODEL 9
REMARK VINA RESULT:      -4.2     12.910     13.746
REMARK  1 active torsions:
REMARK  status: ('A' for Active; 'I' for Inactive)
REMARK    1  A    between atoms: C5_5  and  O7_7 
ROOT
HETATM    1  C1  UNL     1     -33.618  15.981  -5.046  1.00 20.00     0.037 C 
HETATM    2  C2  UNL     1     -33.764  13.680  -4.010  1.00 20.00     0.037 C 
HETATM    3  C3  UNL     1     -35.138  16.028  -5.165  1.00 20.00     0.081 C 
HETATM    4  C4  UNL     1     -35.284  13.721  -4.126  1.00 20.00     0.081 C 
HETATM    5  C5  UNL     1     -33.170  15.085  -3.893  1.00 20.00     0.118 C 
HETATM    6  C6  UNL     1     -35.730  14.631  -5.259  1.00 20.00     0.243 C 
HETATM    7  F8  UNL     1     -37.084  14.714  -5.266  1.00 20.00    -0.206 F 
HETATM    8  F9  UNL     1     -35.373  14.075  -6.446  1.00 20.00    -0.206 F 
ENDROOT
BRANCH   5   9
HETATM    9  O7  UNL     1     -31.749  15.006  -3.905  1.00 20.00    -0.396 OA
HETATM   10  H19 UNL     1     -31.422  15.832  -3.515  1.00 20.00     0.210 HD
ENDBRANCH   5   9
TORSDOF 1
ENDMDL
