MODEL 1
REMARK VINA RESULT:      -5.2      0.000      0.000
REMARK  3 active torsions:
REMARK  status: ('A' for Active; 'I' for Inactive)
REMARK    1  A    between atoms: C1_1  and  C3_3 
REMARK    2  A    between atoms: C2_2  and  C5_5 
REMARK    3  A    between atoms: C4_4  and  C7_7 
ROOT
HETATM    1  C1  UNL     1     -32.897   5.753   3.702  1.00 20.00     0.000 C 
HETATM    2  C2  UNL     1     -32.081   6.759   3.352  1.00 20.00    -0.000 C 
ENDROOT
BRANCH   1   3
HETATM    3  C3  UNL     1     -34.304   5.724   3.369  1.00 20.00     0.003 C 
HETATM    4  C4  UNL     1     -35.238   5.266   4.211  1.00 20.00     0.041 C 
BRANCH   4   5
HETATM    5  C7  UNL     1     -34.823   4.768   5.537  1.00 20.00     0.258 C 
HETATM    6  O9  UNL     1     -34.820   5.489   6.528  1.00 20.00    -0.302 OA
ENDBRANCH   4   5
ENDBRANCH   1   3
BRANCH   2   7
HETATM    7  C5  UNL     1     -32.531   7.914   2.606  1.00 20.00    -0.004 C 
HETATM    8  C6  UNL     1     -31.863   8.415   1.556  1.00 20.00    -0.031 C 
HETATM    9  C8  UNL     1     -32.317   9.605   0.777  1.00 20.00     0.036 C 
ENDBRANCH   2   7
TORSDOF 3
ENDMDL
MODEL 2
REMARK VINA RESULT:      -5.0      2.353      5.079
REMARK  3 active torsions:
REMARK  status: ('A' for Active; 'I' for Inactive)
REMARK    1  A    between atoms: C1_1  and  C3_3 
REMARK    2  A    between atoms: C2_2  and  C5_5 
REMARK    3  A    between atoms: C4_4  and  C7_7 
ROOT
HETATM    1  C1  UNL     1     -33.245   5.843   2.550  1.00 20.00     0.000 C 
HETATM    2  C2  UNL     1     -34.418   5.367   2.993  1.00 20.00    -0.000 C 
ENDROOT
BRANCH   1   3
HETATM    3  C3  UNL     1     -32.288   6.508   3.408  1.00 20.00     0.003 C 
HETATM    4  C4  UNL     1     -31.736   7.687   3.097  1.00 20.00     0.041 C 
BRANCH   4   5
HETATM    5  C7  UNL     1     -32.113   8.341   1.829  1.00 20.00     0.258 C 
HETATM    6  O9  UNL     1     -32.473   9.512   1.786  1.00 20.00    -0.302 OA
ENDBRANCH   4   5
ENDBRANCH   1   3
BRANCH   2   7
HETATM    7  C5  UNL     1     -34.841   5.472   4.373  1.00 20.00    -0.004 C 
HETATM    8  C6  UNL     1     -34.800   4.444   5.233  1.00 20.00    -0.031 C 
HETATM    9  C8  UNL     1     -35.232   4.540   6.659  1.00 20.00     0.036 C 
ENDBRANCH   2   7
TORSDOF 3
ENDMDL
MODEL 3
REMARK VINA RESULT:      -4.9      1.647      2.668
REMARK  3 active torsions:
REMARK  status: ('A' for Active; 'I' for Inactive)
REMARK    1  A    between atoms: C1_1  and  C3_3 
REMARK    2  A    between atoms: C2_2  and  C5_5 
REMARK    3  A    between atoms: C4_4  and  C7_7 
ROOT
HETATM    1  C1  UNL     1     -35.559   4.802   4.392  1.00 20.00     0.000 C 
HETATM    2  C2  UNL     1     -35.080   5.549   3.387  1.00 20.00    -0.000 C 
ENDROOT
BRANCH   1   3
HETATM    3  C3  UNL     1     -34.709   4.106   5.334  1.00 20.00     0.003 C 
HETATM    4  C4  UNL     1     -34.176   4.704   6.406  1.00 20.00     0.041 C 
BRANCH   4   5
HETATM    5  C7  UNL     1     -34.463   6.132   6.645  1.00 20.00     0.258 C 
HETATM    6  O9  UNL     1     -33.572   6.971   6.700  1.00 20.00    -0.302 OA
ENDBRANCH   4   5
ENDBRANCH   1   3
BRANCH   2   7
HETATM    7  C5  UNL     1     -33.666   5.733   3.146  1.00 20.00    -0.004 C 
HETATM    8  C6  UNL     1     -33.038   6.904   3.324  1.00 20.00    -0.031 C 
HETATM    9  C8  UNL     1     -31.578   7.106   3.080  1.00 20.00     0.036 C 
ENDBRANCH   2   7
TORSDOF 3
ENDMDL
MODEL 4
REMARK VINA RESULT:      -4.6     10.624     11.577
REMARK  3 active torsions:
REMARK  status: ('A' for Active; 'I' for Inactive)
REMARK    1  A    between atoms: C1_1  and  C3_3 
REMARK    2  A    between atoms: C2_2  and  C5_5 
REMARK    3  A    between atoms: C4_4  and  C7_7 
ROOT
HETATM    1  C1  UNL     1     -34.705  15.851  -2.090  1.00 20.00     0.000 C 
HETATM    2  C2  UNL     1     -34.623  16.798  -1.144  1.00 20.00    -0.000 C 
ENDROOT
BRANCH   1   3
HETATM    3  C3  UNL     1     -33.654  15.604  -3.054  1.00 20.00     0.003 C 
HETATM    4  C4  UNL     1     -33.688  14.579  -3.914  1.00 20.00     0.041 C 
BRANCH   4   5
HETATM    5  C7  UNL     1     -34.841  13.659  -3.885  1.00 20.00     0.258 C 
HETATM    6  O9  UNL     1     -34.864  12.628  -4.548  1.00 20.00    -0.302 OA
ENDBRANCH   4   5
ENDBRANCH   1   3
BRANCH   2   7
HETATM    7  C5  UNL     1     -33.474  17.665  -0.994  1.00 20.00    -0.004 C 
HETATM    8  C6  UNL     1     -33.203  18.334   0.136  1.00 20.00    -0.031 C 
HETATM    9  C8  UNL     1     -32.020  19.230   0.303  1.00 20.00     0.036 C 
ENDBRANCH   2   7
TORSDOF 3
ENDMDL
MODEL 5
REMARK VINA RESULT:      -4.5      2.629      4.250
REMARK  3 active torsions:
REMARK  status: ('A' for Active; 'I' for Inactive)
REMARK    1  A    between atoms: C1_1  and  C3_3 
REMARK    2  A    between atoms: C2_2  and  C5_5 
REMARK    3  A    between atoms: C4_4  and  C7_7 
ROOT
HETATM    1  C1  UNL     1     -35.075   4.242   4.569  1.00 20.00     0.000 C 
HETATM    2  C2  UNL     1     -34.742   4.328   5.866  1.00 20.00    -0.000 C 
ENDROOT
BRANCH   1   3
HETATM    3  C3  UNL     1     -35.392   5.397   3.757  1.00 20.00     0.003 C 
HETATM    4  C4  UNL     1     -34.475   6.041   3.025  1.00 20.00     0.041 C 
BRANCH   4   5
HETATM    5  C7  UNL     1     -33.080   5.559   3.042  1.00 20.00     0.258 C 
HETATM    6  O9  UNL     1     -32.139   6.308   3.279  1.00 20.00    -0.302 OA
ENDBRANCH   4   5
ENDBRANCH   1   3
BRANCH   2   7
HETATM    7  C5  UNL     1     -34.668   5.584   6.578  1.00 20.00    -0.004 C 
HETATM    8  C6  UNL     1     -33.634   6.431   6.465  1.00 20.00    -0.031 C 
HETATM    9  C8  UNL     1     -33.546   7.731   7.195  1.00 20.00     0.036 C 
ENDBRANCH   2   7
TORSDOF 3
ENDMDL
MODEL 6
REMARK VINA RESULT:      -4.4      2.910      5.297
REMARK  3 active torsions:
REMARK  status: ('A' for Active; 'I' for Inactive)
REMARK    1  A    between atoms: C1_1  and  C3_3 
REMARK    2  A    between atoms: C2_2  and  C5_5 
REMARK    3  A    between atoms: C4_4  and  C7_7 
ROOT
HETATM    1  C1  UNL     1     -32.133   7.159   2.321  1.00 20.00     0.000 C 
HETATM    2  C2  UNL     1     -32.546   6.162   3.117  1.00 20.00    -0.000 C 
ENDROOT
BRANCH   1   3
HETATM    3  C3  UNL     1     -32.396   8.554   2.600  1.00 20.00     0.003 C 
HETATM    4  C4  UNL     1     -32.425   9.491   1.645  1.00 20.00     0.041 C 
BRANCH   4   5
HETATM    5  C7  UNL     1     -32.180   9.092   0.245  1.00 20.00     0.258 C 
HETATM    6  O9  UNL     1     -33.076   9.077  -0.591  1.00 20.00    -0.302 OA
ENDBRANCH   4   5
ENDBRANCH   1   3
BRANCH   2   7
HETATM    7  C5  UNL     1     -33.295   6.385   4.334  1.00 20.00    -0.004 C 
HETATM    8  C6  UNL     1     -33.931   5.405   4.994  1.00 20.00    -0.031 C 
HETATM    9  C8  UNL     1     -34.707   5.622   6.251  1.00 20.00     0.036 C 
ENDBRANCH   2   7
TORSDOF 3
ENDMDL
MODEL 7
REMARK VINA RESULT:      -4.4     10.409     11.628
REMARK  3 active torsions:
REMARK  status: ('A' for Active; 'I' for Inactive)
REMARK    1  A    between atoms: C1_1  and  C3_3 
REMARK    2  A    between atoms: C2_2  and  C5_5 
REMARK    3  A    between atoms: C4_4  and  C7_7 
ROOT
HETATM    1  C1  UNL     1     -33.247  16.075  -4.393  1.00 20.00     0.000 C 
HETATM    2  C2  UNL     1     -33.752  17.118  -3.718  1.00 20.00    -0.000 C 
ENDROOT
BRANCH   1   3
HETATM    3  C3  UNL     1     -32.637  14.935  -3.745  1.00 20.00     0.003 C 
HETATM    4  C4  UNL     1     -33.263  13.760  -3.608  1.00 20.00     0.041 C 
BRANCH   4   5
HETATM    5  C7  UNL     1     -34.632  13.614  -4.139  1.00 20.00     0.258 C 
HETATM    6  O9  UNL     1     -35.061  12.537  -4.537  1.00 20.00    -0.302 OA
ENDBRANCH   4   5
ENDBRANCH   1   3
BRANCH   2   7
HETATM    7  C5  UNL     1     -33.737  17.203  -2.274  1.00 20.00    -0.004 C 
HETATM    8  C6  UNL     1     -34.817  16.966  -1.514  1.00 20.00    -0.031 C 
HETATM    9  C8  UNL     1     -34.815  17.049  -0.023  1.00 20.00     0.036 C 
ENDBRANCH   2   7
TORSDOF 3
ENDMDL
MODEL 8
REMARK VINA RESULT:      -4.4     10.803     11.467
REMARK  3 active torsions:
REMARK  status: ('A' for Active; 'I' for Inactive)
REMARK    1  A    between atoms: C1_1  and  C3_3 
REMARK    2  A    between atoms: C2_2  and  C5_5 
REMARK    3  A    between atoms: C4_4  and  C7_7 
ROOT
HETATM    1  C1  UNL     1     -34.234  16.118  -2.896  1.00 20.00     0.000 C 
HETATM    2  C2  UNL     1     -33.863  16.665  -1.729  1.00 20.00    -0.000 C 
ENDROOT
BRANCH   1   3
HETATM    3  C3  UNL     1     -35.552  15.567  -3.127  1.00 20.00     0.003 C 
HETATM    4  C4  UNL     1     -35.749  14.397  -3.746  1.00 20.00     0.041 C 
BRANCH   4   5
HETATM    5  C7  UNL     1     -34.578  13.631  -4.216  1.00 20.00     0.258 C 
HETATM    6  O9  UNL     1     -34.698  12.578  -4.831  1.00 20.00    -0.302 OA
ENDBRANCH   4   5
ENDBRANCH   1   3
BRANCH   2   7
HETATM    7  C5  UNL     1     -34.746  16.758  -0.587  1.00 20.00    -0.004 C 
HETATM    8  C6  UNL     1     -34.550  17.618   0.423  1.00 20.00    -0.031 C 
HETATM    9  C8  UNL     1     -35.454  17.725   1.607  1.00 20.00     0.036 C 
ENDBRANCH   2   7
TORSDOF 3
ENDMDL
MODEL 9
REMARK VINA RESULT:      -4.1     11.203     12.174
REMARK  3 active torsions:
REMARK  status: ('A' for Active; 'I' for Inactive)
REMARK    1  A    between atoms: C1_1  and  C3_3 
REMARK    2  A    between atoms: C2_2  and  C5_5 
REMARK    3  A    between atoms: C4_4  and  C7_7 
ROOT
HETATM    1  C1  UNL     1     -33.867  15.997  -5.728  1.00 20.00     0.000 C 
HETATM    2  C2  UNL     1     -33.230  16.568  -4.695  1.00 20.00    -0.000 C 
ENDROOT
BRANCH   1   3
HETATM    3  C3  UNL     1     -35.285  15.711  -5.720  1.00 20.00     0.003 C 
HETATM    4  C4  UNL     1     -35.776  14.490  -5.476  1.00 20.00     0.041 C 
BRANCH   4   5
HETATM    5  C7  UNL     1     -34.838  13.384  -5.203  1.00 20.00     0.258 C 
HETATM    6  O9  UNL     1     -34.889  12.732  -4.166  1.00 20.00    -0.302 OA
ENDBRANCH   4   5
ENDBRANCH   1   3
BRANCH   2   7
HETATM    7  C5  UNL     1     -33.900  16.954  -3.472  1.00 20.00    -0.004 C 
HETATM    8  C6  UNL     1     -33.905  16.193  -2.367  1.00 20.00    -0.031 C 
HETATM    9  C8  UNL     1     -34.592  16.580  -1.099  1.00 20.00     0.036 C 
ENDBRANCH   2   7
TORSDOF 3
ENDMDL
