MODEL 1
REMARK VINA RESULT:      -5.1      0.000      0.000
REMARK  3 active torsions:
REMARK  status: ('A' for Active; 'I' for Inactive)
REMARK    1  A    between atoms: C1_1  and  C3_3 
REMARK    2  A    between atoms: C2_2  and  C5_5 
REMARK    3  A    between atoms: C4_4  and  C7_7 
ROOT
HETATM    1  C1  UNL     1     -32.814   6.486   3.159  1.00 20.00     0.000 C 
HETATM    2  C2  UNL     1     -33.821   6.304   4.027  1.00 20.00    -0.000 C 
ENDROOT
BRANCH   1   3
HETATM    3  C3  UNL     1     -31.708   7.384   3.411  1.00 20.00     0.003 C 
HETATM    4  C4  UNL     1     -31.409   8.406   2.601  1.00 20.00     0.041 C 
BRANCH   4   5
HETATM    5  C7  UNL     1     -32.237   8.635   1.401  1.00 20.00     0.258 C 
HETATM    6  O9  UNL     1     -32.461   9.761   0.973  1.00 20.00    -0.302 OA
ENDBRANCH   4   5
ENDBRANCH   1   3
BRANCH   2   7
HETATM    7  C5  UNL     1     -34.926   5.407   3.776  1.00 20.00    -0.004 C 
HETATM    8  C6  UNL     1     -35.385   4.535   4.685  1.00 20.00    -0.031 C 
HETATM    9  C8  UNL     1     -34.811   4.388   6.056  1.00 20.00     0.036 C 
ENDBRANCH   2   7
TORSDOF 3
ENDMDL
MODEL 2
REMARK VINA RESULT:      -5.0      2.781      5.225
REMARK  3 active torsions:
REMARK  status: ('A' for Active; 'I' for Inactive)
REMARK    1  A    between atoms: C1_1  and  C3_3 
REMARK    2  A    between atoms: C2_2  and  C5_5 
REMARK    3  A    between atoms: C4_4  and  C7_7 
ROOT
HETATM    1  C1  UNL     1     -33.190   6.570   3.859  1.00 20.00     0.000 C 
HETATM    2  C2  UNL     1     -32.256   7.419   3.404  1.00 20.00    -0.000 C 
ENDROOT
BRANCH   1   3
HETATM    3  C3  UNL     1     -33.563   6.482   5.254  1.00 20.00     0.003 C 
HETATM    4  C4  UNL     1     -34.478   5.616   5.703  1.00 20.00     0.041 C 
BRANCH   4   5
HETATM    5  C7  UNL     1     -35.139   4.709   4.745  1.00 20.00     0.258 C 
HETATM    6  O9  UNL     1     -35.162   3.495   4.910  1.00 20.00    -0.302 OA
ENDBRANCH   4   5
ENDBRANCH   1   3
BRANCH   2   7
HETATM    7  C5  UNL     1     -31.883   7.506   2.010  1.00 20.00    -0.004 C 
HETATM    8  C6  UNL     1     -32.036   8.619   1.277  1.00 20.00    -0.031 C 
HETATM    9  C8  UNL     1     -32.606   9.891   1.813  1.00 20.00     0.036 C 
ENDBRANCH   2   7
TORSDOF 3
ENDMDL
MODEL 3
REMARK VINA RESULT:      -5.0      2.504      5.257
REMARK  3 active torsions:
REMARK  status: ('A' for Active; 'I' for Inactive)
REMARK    1  A    between atoms: C1_1  and  C3_3 
REMARK    2  A    between atoms: C2_2  and  C5_5 
REMARK    3  A    between atoms: C4_4  and  C7_7 
ROOT
HETATM    1  C1  UNL     1     -33.837   6.405   3.827  1.00 20.00     0.000 C 
HETATM    2  C2  UNL     1     -32.753   6.473   3.039  1.00 20.00    -0.000 C 
ENDROOT
BRANCH   1   3
HETATM    3  C3  UNL     1     -34.875   5.412   3.657  1.00 20.00     0.003 C 
HETATM    4  C4  UNL     1     -35.261   4.595   4.643  1.00 20.00     0.041 C 
BRANCH   4   5
HETATM    5  C7  UNL     1     -34.608   4.703   5.961  1.00 20.00     0.258 C 
HETATM    6  O9  UNL     1     -34.849   5.626   6.730  1.00 20.00    -0.302 OA
ENDBRANCH   4   5
ENDBRANCH   1   3
BRANCH   2   7
HETATM    7  C5  UNL     1     -31.716   7.466   3.209  1.00 20.00    -0.004 C 
HETATM    8  C6  UNL     1     -31.521   8.479   2.352  1.00 20.00    -0.031 C 
HETATM    9  C8  UNL     1     -32.348   8.698   1.127  1.00 20.00     0.036 C 
ENDBRANCH   2   7
TORSDOF 3
ENDMDL
MODEL 4
REMARK VINA RESULT:      -4.5     10.564     11.319
REMARK  3 active torsions:
REMARK  status: ('A' for Active; 'I' for Inactive)
REMARK    1  A    between atoms: C1_1  and  C3_3 
REMARK    2  A    between atoms: C2_2  and  C5_5 
REMARK    3  A    between atoms: C4_4  and  C7_7 
ROOT
HETATM    1  C1  UNL     1     -34.371  15.951  -2.181  1.00 20.00     0.000 C 
HETATM    2  C2  UNL     1     -34.045  16.841  -1.232  1.00 20.00    -0.000 C 
ENDROOT
BRANCH   1   3
HETATM    3  C3  UNL     1     -33.512  15.646  -3.304  1.00 20.00     0.003 C 
HETATM    4  C4  UNL     1     -33.759  14.639  -4.151  1.00 20.00     0.041 C 
BRANCH   4   5
HETATM    5  C7  UNL     1     -34.956  13.803  -3.939  1.00 20.00     0.258 C 
HETATM    6  O9  UNL     1     -35.021  12.648  -4.344  1.00 20.00    -0.302 OA
ENDBRANCH   4   5
ENDBRANCH   1   3
BRANCH   2   7
HETATM    7  C5  UNL     1     -34.905  17.147  -0.110  1.00 20.00    -0.004 C 
HETATM    8  C6  UNL     1     -34.549  17.975   0.883  1.00 20.00    -0.031 C 
HETATM    9  C8  UNL     1     -33.230  18.673   0.947  1.00 20.00     0.036 C 
ENDBRANCH   2   7
TORSDOF 3
ENDMDL
MODEL 5
REMARK VINA RESULT:      -4.3     10.431     11.117
REMARK  3 active torsions:
REMARK  status: ('A' for Active; 'I' for Inactive)
REMARK    1  A    between atoms: C1_1  and  C3_3 
REMARK    2  A    between atoms: C2_2  and  C5_5 
REMARK    3  A    between atoms: C4_4  and  C7_7 
ROOT
HETATM    1  C1  UNL     1     -34.536  16.142  -2.399  1.00 20.00     0.000 C 
HETATM    2  C2  UNL     1     -34.737  16.561  -1.140  1.00 20.00    -0.000 C 
ENDROOT
BRANCH   1   3
HETATM    3  C3  UNL     1     -35.366  15.145  -3.040  1.00 20.00     0.003 C 
HETATM    4  C4  UNL     1     -34.858  14.121  -3.737  1.00 20.00     0.041 C 
BRANCH   4   5
HETATM    5  C7  UNL     1     -33.393  13.996  -3.860  1.00 20.00     0.258 C 
HETATM    6  O9  UNL     1     -32.811  12.940  -3.640  1.00 20.00    -0.302 OA
ENDBRANCH   4   5
ENDBRANCH   1   3
BRANCH   2   7
HETATM    7  C5  UNL     1     -33.907  17.556  -0.500  1.00 20.00    -0.004 C 
HETATM    8  C6  UNL     1     -34.166  18.056   0.717  1.00 20.00    -0.031 C 
HETATM    9  C8  UNL     1     -35.336  17.644   1.549  1.00 20.00     0.036 C 
ENDBRANCH   2   7
TORSDOF 3
ENDMDL
MODEL 6
REMARK VINA RESULT:      -4.3      2.403      4.755
REMARK  3 active torsions:
REMARK  status: ('A' for Active; 'I' for Inactive)
REMARK    1  A    between atoms: C1_1  and  C3_3 
REMARK    2  A    between atoms: C2_2  and  C5_5 
REMARK    3  A    between atoms: C4_4  and  C7_7 
ROOT
HETATM    1  C1  UNL     1     -34.643   5.781   3.677  1.00 20.00     0.000 C 
HETATM    2  C2  UNL     1     -33.356   5.697   3.306  1.00 20.00    -0.000 C 
ENDROOT
BRANCH   1   3
HETATM    3  C3  UNL     1     -35.260   4.851   4.597  1.00 20.00     0.003 C 
HETATM    4  C4  UNL     1     -34.956   4.815   5.899  1.00 20.00     0.041 C 
BRANCH   4   5
HETATM    5  C7  UNL     1     -33.952   5.758   6.427  1.00 20.00     0.258 C 
HETATM    6  O9  UNL     1     -34.250   6.893   6.780  1.00 20.00    -0.302 OA
ENDBRANCH   4   5
ENDBRANCH   1   3
BRANCH   2   7
HETATM    7  C5  UNL     1     -32.739   6.626   2.385  1.00 20.00    -0.004 C 
HETATM    8  C6  UNL     1     -31.866   7.568   2.769  1.00 20.00    -0.031 C 
HETATM    9  C8  UNL     1     -31.430   7.768   4.184  1.00 20.00     0.036 C 
ENDBRANCH   2   7
TORSDOF 3
ENDMDL
MODEL 7
REMARK VINA RESULT:      -4.2      1.594      2.068
REMARK  3 active torsions:
REMARK  status: ('A' for Active; 'I' for Inactive)
REMARK    1  A    between atoms: C1_1  and  C3_3 
REMARK    2  A    between atoms: C2_2  and  C5_5 
REMARK    3  A    between atoms: C4_4  and  C7_7 
ROOT
HETATM    1  C1  UNL     1     -33.578   5.759   3.313  1.00 20.00     0.000 C 
HETATM    2  C2  UNL     1     -34.842   5.509   3.686  1.00 20.00    -0.000 C 
ENDROOT
BRANCH   1   3
HETATM    3  C3  UNL     1     -33.223   6.811   2.385  1.00 20.00     0.003 C 
HETATM    4  C4  UNL     1     -32.157   7.600   2.560  1.00 20.00     0.041 C 
BRANCH   4   5
HETATM    5  C7  UNL     1     -31.302   7.395   3.745  1.00 20.00     0.258 C 
HETATM    6  O9  UNL     1     -31.147   8.267   4.592  1.00 20.00    -0.302 OA
ENDBRANCH   4   5
ENDBRANCH   1   3
BRANCH   2   7
HETATM    7  C5  UNL     1     -35.196   4.458   4.613  1.00 20.00    -0.004 C 
HETATM    8  C6  UNL     1     -35.025   4.560   5.940  1.00 20.00    -0.031 C 
HETATM    9  C8  UNL     1     -34.452   5.765   6.610  1.00 20.00     0.036 C 
ENDBRANCH   2   7
TORSDOF 3
ENDMDL
MODEL 8
REMARK VINA RESULT:      -4.1     10.484     11.530
REMARK  3 active torsions:
REMARK  status: ('A' for Active; 'I' for Inactive)
REMARK    1  A    between atoms: C1_1  and  C3_3 
REMARK    2  A    between atoms: C2_2  and  C5_5 
REMARK    3  A    between atoms: C4_4  and  C7_7 
ROOT
HETATM    1  C1  UNL     1     -33.810  14.932  -3.363  1.00 20.00     0.000 C 
HETATM    2  C2  UNL     1     -34.328  15.759  -2.442  1.00 20.00    -0.000 C 
ENDROOT
BRANCH   1   3
HETATM    3  C3  UNL     1     -34.376  13.635  -3.665  1.00 20.00     0.003 C 
HETATM    4  C4  UNL     1     -34.808  13.303  -4.887  1.00 20.00     0.041 C 
BRANCH   4   5
HETATM    5  C7  UNL     1     -34.706  14.293  -5.977  1.00 20.00     0.258 C 
HETATM    6  O9  UNL     1     -35.370  14.199  -7.003  1.00 20.00    -0.302 OA
ENDBRANCH   4   5
ENDBRANCH   1   3
BRANCH   2   7
HETATM    7  C5  UNL     1     -33.762  17.054  -2.139  1.00 20.00    -0.004 C 
HETATM    8  C6  UNL     1     -33.983  17.701  -0.985  1.00 20.00    -0.031 C 
HETATM    9  C8  UNL     1     -34.836  17.161   0.116  1.00 20.00     0.036 C 
ENDBRANCH   2   7
TORSDOF 3
ENDMDL
MODEL 9
REMARK VINA RESULT:      -4.1     10.389     11.225
REMARK  3 active torsions:
REMARK  status: ('A' for Active; 'I' for Inactive)
REMARK    1  A    between atoms: C1_1  and  C3_3 
REMARK    2  A    between atoms: C2_2  and  C5_5 
REMARK    3  A    between atoms: C4_4  and  C7_7 
ROOT
HETATM    1  C1  UNL     1     -34.627  16.523  -1.171  1.00 20.00     0.000 C 
HETATM    2  C2  UNL     1     -34.396  16.091  -2.420  1.00 20.00    -0.000 C 
ENDROOT
BRANCH   1   3
HETATM    3  C3  UNL     1     -33.826  17.542  -0.528  1.00 20.00     0.003 C 
HETATM    4  C4  UNL     1     -34.178  18.113   0.630  1.00 20.00     0.041 C 
BRANCH   4   5
HETATM    5  C7  UNL     1     -35.430  17.691   1.286  1.00 20.00     0.258 C 
HETATM    6  O9  UNL     1     -35.454  17.300   2.448  1.00 20.00    -0.302 OA
ENDBRANCH   4   5
ENDBRANCH   1   3
BRANCH   2   7
HETATM    7  C5  UNL     1     -35.196  15.072  -3.061  1.00 20.00    -0.004 C 
HETATM    8  C6  UNL     1     -34.670  13.988  -3.650  1.00 20.00    -0.031 C 
HETATM    9  C8  UNL     1     -33.204  13.708  -3.710  1.00 20.00     0.036 C 
ENDBRANCH   2   7
TORSDOF 3
ENDMDL
