MODEL 1
REMARK VINA RESULT:      -5.4      0.000      0.000
REMARK  3 active torsions:
REMARK  status: ('A' for Active; 'I' for Inactive)
REMARK    1  A    between atoms: C1_1  and  C3_3 
REMARK    2  A    between atoms: C2_2  and  C5_5 
REMARK    3  A    between atoms: C4_4  and  C7_7 
ROOT
HETATM    1  C1  UNL     1     -33.685   5.746   3.189  1.00 20.00     0.000 C 
HETATM    2  C2  UNL     1     -33.337   7.022   2.959  1.00 20.00    -0.000 C 
ENDROOT
BRANCH   1   3
HETATM    3  C3  UNL     1     -35.041   5.340   3.490  1.00 20.00     0.004 C 
HETATM    4  C4  UNL     1     -35.434   4.990   4.723  1.00 20.00     0.049 C 
BRANCH   4   5
HETATM    5  C7  UNL     1     -34.469   5.006   5.858  1.00 20.00     0.145 C 
HETATM    6  C9  UNL     1     -34.188   6.346   6.485  1.00 20.00     0.096 C 
HETATM    7  O10 UNL     1     -33.945   3.981   6.287  1.00 20.00    -0.294 OA
ENDBRANCH   4   5
ENDBRANCH   1   3
BRANCH   2   8
HETATM    8  C5  UNL     1     -31.979   7.421   2.658  1.00 20.00    -0.004 C 
HETATM    9  C6  UNL     1     -31.593   8.444   1.882  1.00 20.00    -0.031 C 
HETATM   10  C8  UNL     1     -32.446   9.423   1.141  1.00 20.00     0.036 C 
ENDBRANCH   2   8
TORSDOF 3
ENDMDL
MODEL 2
REMARK VINA RESULT:      -4.9      2.505      5.547
REMARK  3 active torsions:
REMARK  status: ('A' for Active; 'I' for Inactive)
REMARK    1  A    between atoms: C1_1  and  C3_3 
REMARK    2  A    between atoms: C2_2  and  C5_5 
REMARK    3  A    between atoms: C4_4  and  C7_7 
ROOT
HETATM    1  C1  UNL     1     -33.134   7.040   3.131  1.00 20.00     0.000 C 
HETATM    2  C2  UNL     1     -33.517   5.801   3.474  1.00 20.00    -0.000 C 
ENDROOT
BRANCH   1   3
HETATM    3  C3  UNL     1     -31.749   7.409   2.925  1.00 20.00     0.004 C 
HETATM    4  C4  UNL     1     -31.384   8.446   2.160  1.00 20.00     0.049 C 
BRANCH   4   5
HETATM    5  C7  UNL     1     -32.410   9.281   1.475  1.00 20.00     0.145 C 
HETATM    6  C9  UNL     1     -32.677   8.968   0.027  1.00 20.00     0.096 C 
HETATM    7  O10 UNL     1     -33.033  10.164   2.060  1.00 20.00    -0.294 OA
ENDBRANCH   4   5
ENDBRANCH   1   3
BRANCH   2   8
HETATM    8  C5  UNL     1     -34.903   5.439   3.678  1.00 20.00    -0.004 C 
HETATM    9  C6  UNL     1     -35.424   4.810   4.742  1.00 20.00    -0.031 C 
HETATM   10  C8  UNL     1     -34.725   4.330   5.973  1.00 20.00     0.036 C 
ENDBRANCH   2   8
TORSDOF 3
ENDMDL
MODEL 3
REMARK VINA RESULT:      -4.6     11.415     12.107
REMARK  3 active torsions:
REMARK  status: ('A' for Active; 'I' for Inactive)
REMARK    1  A    between atoms: C1_1  and  C3_3 
REMARK    2  A    between atoms: C2_2  and  C5_5 
REMARK    3  A    between atoms: C4_4  and  C7_7 
ROOT
HETATM    1  C1  UNL     1     -33.743  15.691  -2.898  1.00 20.00     0.000 C 
HETATM    2  C2  UNL     1     -34.431  16.673  -2.297  1.00 20.00    -0.000 C 
ENDROOT
BRANCH   1   3
HETATM    3  C3  UNL     1     -33.576  15.608  -4.334  1.00 20.00     0.004 C 
HETATM    4  C4  UNL     1     -34.274  14.753  -5.094  1.00 20.00     0.049 C 
BRANCH   4   5
HETATM    5  C7  UNL     1     -35.274  13.835  -4.480  1.00 20.00     0.145 C 
HETATM    6  C9  UNL     1     -36.640  14.409  -4.210  1.00 20.00     0.096 C 
HETATM    7  O10 UNL     1     -35.016  12.661  -4.227  1.00 20.00    -0.294 OA
ENDBRANCH   4   5
ENDBRANCH   1   3
BRANCH   2   8
HETATM    8  C5  UNL     1     -34.595  16.750  -0.862  1.00 20.00    -0.004 C 
HETATM    9  C6  UNL     1     -33.992  17.610  -0.027  1.00 20.00    -0.031 C 
HETATM   10  C8  UNL     1     -33.015  18.693  -0.353  1.00 20.00     0.036 C 
ENDBRANCH   2   8
TORSDOF 3
ENDMDL
MODEL 4
REMARK VINA RESULT:      -4.4     11.379     12.503
REMARK  3 active torsions:
REMARK  status: ('A' for Active; 'I' for Inactive)
REMARK    1  A    between atoms: C1_1  and  C3_3 
REMARK    2  A    between atoms: C2_2  and  C5_5 
REMARK    3  A    between atoms: C4_4  and  C7_7 
ROOT
HETATM    1  C1  UNL     1     -33.687  14.885  -3.568  1.00 20.00     0.000 C 
HETATM    2  C2  UNL     1     -34.221  15.599  -2.565  1.00 20.00    -0.000 C 
ENDROOT
BRANCH   1   3
HETATM    3  C3  UNL     1     -34.163  13.570  -3.941  1.00 20.00     0.004 C 
HETATM    4  C4  UNL     1     -34.824  13.338  -5.083  1.00 20.00     0.049 C 
BRANCH   4   5
HETATM    5  C7  UNL     1     -35.102  14.448  -6.036  1.00 20.00     0.145 C 
HETATM    6  C9  UNL     1     -36.440  15.129  -5.907  1.00 20.00     0.096 C 
HETATM    7  O10 UNL     1     -34.279  14.817  -6.871  1.00 20.00    -0.294 OA
ENDBRANCH   4   5
ENDBRANCH   1   3
BRANCH   2   8
HETATM    8  C5  UNL     1     -33.741  16.913  -2.198  1.00 20.00    -0.004 C 
HETATM    9  C6  UNL     1     -34.017  17.587  -1.070  1.00 20.00    -0.031 C 
HETATM   10  C8  UNL     1     -34.873  17.164   0.079  1.00 20.00     0.036 C 
ENDBRANCH   2   8
TORSDOF 3
ENDMDL
MODEL 5
REMARK VINA RESULT:      -4.4     11.488     12.078
REMARK  3 active torsions:
REMARK  status: ('A' for Active; 'I' for Inactive)
REMARK    1  A    between atoms: C1_1  and  C3_3 
REMARK    2  A    between atoms: C2_2  and  C5_5 
REMARK    3  A    between atoms: C4_4  and  C7_7 
ROOT
HETATM    1  C1  UNL     1     -35.240  15.990  -2.970  1.00 20.00     0.000 C 
HETATM    2  C2  UNL     1     -34.809  16.148  -1.710  1.00 20.00    -0.000 C 
ENDROOT
BRANCH   1   3
HETATM    3  C3  UNL     1     -36.277  15.048  -3.337  1.00 20.00     0.004 C 
HETATM    4  C4  UNL     1     -36.066  14.040  -4.195  1.00 20.00     0.049 C 
BRANCH   4   5
HETATM    5  C7  UNL     1     -34.727  13.842  -4.818  1.00 20.00     0.145 C 
HETATM    6  C9  UNL     1     -34.473  14.566  -6.113  1.00 20.00     0.096 C 
HETATM    7  O10 UNL     1     -33.858  13.149  -4.296  1.00 20.00    -0.294 OA
ENDBRANCH   4   5
ENDBRANCH   1   3
BRANCH   2   8
HETATM    8  C5  UNL     1     -33.773  17.091  -1.350  1.00 20.00    -0.004 C 
HETATM    9  C6  UNL     1     -33.721  17.850  -0.245  1.00 20.00    -0.031 C 
HETATM   10  C8  UNL     1     -34.700  17.918   0.882  1.00 20.00     0.036 C 
ENDBRANCH   2   8
TORSDOF 3
ENDMDL
MODEL 6
REMARK VINA RESULT:      -4.3     11.499     12.697
REMARK  3 active torsions:
REMARK  status: ('A' for Active; 'I' for Inactive)
REMARK    1  A    between atoms: C1_1  and  C3_3 
REMARK    2  A    between atoms: C2_2  and  C5_5 
REMARK    3  A    between atoms: C4_4  and  C7_7 
ROOT
HETATM    1  C1  UNL     1     -33.625  16.154  -4.993  1.00 20.00     0.000 C 
HETATM    2  C2  UNL     1     -34.178  17.231  -4.414  1.00 20.00    -0.000 C 
ENDROOT
BRANCH   1   3
HETATM    3  C3  UNL     1     -34.149  15.551  -6.201  1.00 20.00     0.004 C 
HETATM    4  C4  UNL     1     -34.864  14.418  -6.191  1.00 20.00     0.049 C 
BRANCH   4   5
HETATM    5  C7  UNL     1     -35.157  13.718  -4.909  1.00 20.00     0.145 C 
HETATM    6  C9  UNL     1     -36.343  14.214  -4.125  1.00 20.00     0.096 C 
HETATM    7  O10 UNL     1     -34.489  12.765  -4.515  1.00 20.00    -0.294 OA
ENDBRANCH   4   5
ENDBRANCH   1   3
BRANCH   2   8
HETATM    8  C5  UNL     1     -33.650  17.828  -3.207  1.00 20.00    -0.004 C 
HETATM    9  C6  UNL     1     -33.870  17.427  -1.946  1.00 20.00    -0.031 C 
HETATM   10  C8  UNL     1     -34.699  16.280  -1.466  1.00 20.00     0.036 C 
ENDBRANCH   2   8
TORSDOF 3
ENDMDL
MODEL 7
REMARK VINA RESULT:      -4.2     11.775     12.899
REMARK  3 active torsions:
REMARK  status: ('A' for Active; 'I' for Inactive)
REMARK    1  A    between atoms: C1_1  and  C3_3 
REMARK    2  A    between atoms: C2_2  and  C5_5 
REMARK    3  A    between atoms: C4_4  and  C7_7 
ROOT
HETATM    1  C1  UNL     1     -34.394  16.568  -3.844  1.00 20.00     0.000 C 
HETATM    2  C2  UNL     1     -33.917  16.162  -2.658  1.00 20.00    -0.000 C 
ENDROOT
BRANCH   1   3
HETATM    3  C3  UNL     1     -33.650  16.442  -5.080  1.00 20.00     0.004 C 
HETATM    4  C4  UNL     1     -33.928  15.505  -5.997  1.00 20.00     0.049 C 
BRANCH   4   5
HETATM    5  C7  UNL     1     -35.038  14.536  -5.779  1.00 20.00     0.145 C 
HETATM    6  C9  UNL     1     -34.702  13.289  -5.004  1.00 20.00     0.096 C 
HETATM    7  O10 UNL     1     -36.179  14.746  -6.182  1.00 20.00    -0.294 OA
ENDBRANCH   4   5
ENDBRANCH   1   3
BRANCH   2   8
HETATM    8  C5  UNL     1     -34.666  16.292  -1.427  1.00 20.00    -0.004 C 
HETATM    9  C6  UNL     1     -34.432  17.155  -0.427  1.00 20.00    -0.031 C 
HETATM   10  C8  UNL     1     -33.358  18.190  -0.326  1.00 20.00     0.036 C 
ENDBRANCH   2   8
TORSDOF 3
ENDMDL
MODEL 8
REMARK VINA RESULT:      -4.2     11.778     12.749
REMARK  3 active torsions:
REMARK  status: ('A' for Active; 'I' for Inactive)
REMARK    1  A    between atoms: C1_1  and  C3_3 
REMARK    2  A    between atoms: C2_2  and  C5_5 
REMARK    3  A    between atoms: C4_4  and  C7_7 
ROOT
HETATM    1  C1  UNL     1     -34.388  16.519  -1.100  1.00 20.00     0.000 C 
HETATM    2  C2  UNL     1     -34.936  16.061  -2.236  1.00 20.00    -0.000 C 
ENDROOT
BRANCH   1   3
HETATM    3  C3  UNL     1     -34.993  17.560  -0.296  1.00 20.00     0.004 C 
HETATM    4  C4  UNL     1     -34.371  18.716  -0.024  1.00 20.00     0.049 C 
BRANCH   4   5
HETATM    5  C7  UNL     1     -33.003  18.982  -0.550  1.00 20.00     0.145 C 
HETATM    6  C9  UNL     1     -31.867  18.856   0.431  1.00 20.00     0.096 C 
HETATM    7  O10 UNL     1     -32.797  19.262  -1.728  1.00 20.00    -0.294 OA
ENDBRANCH   4   5
ENDBRANCH   1   3
BRANCH   2   8
HETATM    8  C5  UNL     1     -34.326  15.020  -3.035  1.00 20.00    -0.004 C 
HETATM    9  C6  UNL     1     -33.597  15.181  -4.149  1.00 20.00    -0.031 C 
HETATM   10  C8  UNL     1     -33.228  16.453  -4.843  1.00 20.00     0.036 C 
ENDBRANCH   2   8
TORSDOF 3
ENDMDL
MODEL 9
REMARK VINA RESULT:      -4.1     11.147     12.043
REMARK  3 active torsions:
REMARK  status: ('A' for Active; 'I' for Inactive)
REMARK    1  A    between atoms: C1_1  and  C3_3 
REMARK    2  A    between atoms: C2_2  and  C5_5 
REMARK    3  A    between atoms: C4_4  and  C7_7 
ROOT
HETATM    1  C1  UNL     1     -34.462  16.770  -1.080  1.00 20.00     0.000 C 
HETATM    2  C2  UNL     1     -34.231  16.248  -2.294  1.00 20.00    -0.000 C 
ENDROOT
BRANCH   1   3
HETATM    3  C3  UNL     1     -33.583  17.736  -0.456  1.00 20.00     0.004 C 
HETATM    4  C4  UNL     1     -33.961  18.490   0.586  1.00 20.00     0.049 C 
BRANCH   4   5
HETATM    5  C7  UNL     1     -35.331  18.361   1.157  1.00 20.00     0.145 C 
HETATM    6  C9  UNL     1     -35.465  17.533   2.407  1.00 20.00     0.096 C 
HETATM    7  O10 UNL     1     -36.305  18.920   0.657  1.00 20.00    -0.294 OA
ENDBRANCH   4   5
ENDBRANCH   1   3
BRANCH   2   8
HETATM    8  C5  UNL     1     -35.113  15.283  -2.912  1.00 20.00    -0.004 C 
HETATM    9  C6  UNL     1     -34.757  14.170  -3.572  1.00 20.00    -0.031 C 
HETATM   10  C8  UNL     1     -33.382  13.646  -3.835  1.00 20.00     0.036 C 
ENDBRANCH   2   8
TORSDOF 3
ENDMDL
