MODEL 1
REMARK VINA RESULT:      -5.4      0.000      0.000
REMARK  1 active torsions:
REMARK  status: ('A' for Active; 'I' for Inactive)
REMARK    1  A    between atoms: C2_2  and  C10_10 
ROOT
HETATM    1  C1  UNL     1     -33.585  14.629  -3.373  1.00 20.00    -0.022 C 
HETATM    2  C2  UNL     1     -34.376  15.584  -2.856  1.00 20.00    -0.073 C 
HETATM    3  C3  UNL     1     -36.362  14.473  -3.932  1.00 20.00     0.134 C 
HETATM    4  C4  UNL     1     -34.078  13.548  -4.288  1.00 20.00     0.039 C 
HETATM    5  C5  UNL     1     -35.853  15.656  -3.127  1.00 20.00     0.113 C 
HETATM    6  C6  UNL     1     -35.422  13.861  -4.954  1.00 20.00     0.055 C 
HETATM    7  C7  UNL     1     -35.285  14.793  -6.155  1.00 20.00     0.018 C 
HETATM    8  O11 UNL     1     -37.526  14.085  -3.823  1.00 20.00    -0.297 OA
ENDROOT
BRANCH   2   9
HETATM    9  C10 UNL     1     -33.829  16.652  -1.953  1.00 20.00     0.006 C 
HETATM   10  C8  UNL     1     -33.817  17.995  -2.673  1.00 20.00     0.014 C 
HETATM   11  C9  UNL     1     -34.639  16.732  -0.661  1.00 20.00     0.014 C 
ENDBRANCH   2   9
TORSDOF 1
ENDMDL
MODEL 2
REMARK VINA RESULT:      -5.2      1.427      1.743
REMARK  1 active torsions:
REMARK  status: ('A' for Active; 'I' for Inactive)
REMARK    1  A    between atoms: C2_2  and  C10_10 
ROOT
HETATM    1  C1  UNL     1     -33.653  16.422  -4.773  1.00 20.00    -0.022 C 
HETATM    2  C2  UNL     1     -33.988  15.959  -3.556  1.00 20.00    -0.073 C 
HETATM    3  C3  UNL     1     -34.791  13.827  -4.627  1.00 20.00     0.134 C 
HETATM    4  C4  UNL     1     -33.925  15.680  -6.047  1.00 20.00     0.039 C 
HETATM    5  C5  UNL     1     -34.657  14.630  -3.344  1.00 20.00     0.113 C 
HETATM    6  C6  UNL     1     -34.999  14.596  -5.919  1.00 20.00     0.055 C 
HETATM    7  C7  UNL     1     -36.418  15.159  -5.963  1.00 20.00     0.018 C 
HETATM    8  O11 UNL     1     -34.821  12.596  -4.605  1.00 20.00    -0.297 OA
ENDROOT
BRANCH   2   9
HETATM    9  C10 UNL     1     -33.702  16.748  -2.311  1.00 20.00     0.006 C 
HETATM   10  C8  UNL     1     -33.733  18.241  -2.615  1.00 20.00     0.014 C 
HETATM   11  C9  UNL     1     -34.698  16.396  -1.209  1.00 20.00     0.014 C 
ENDBRANCH   2   9
TORSDOF 1
ENDMDL
MODEL 3
REMARK VINA RESULT:      -5.1     11.514     12.319
REMARK  1 active torsions:
REMARK  status: ('A' for Active; 'I' for Inactive)
REMARK    1  A    between atoms: C2_2  and  C10_10 
ROOT
HETATM    1  C1  UNL     1     -33.143   6.691   5.431  1.00 20.00    -0.022 C 
HETATM    2  C2  UNL     1     -33.046   6.547   4.098  1.00 20.00    -0.073 C 
HETATM    3  C3  UNL     1     -35.334   5.497   4.081  1.00 20.00     0.134 C 
HETATM    4  C4  UNL     1     -34.298   6.182   6.239  1.00 20.00     0.039 C 
HETATM    5  C5  UNL     1     -34.105   5.873   3.271  1.00 20.00     0.113 C 
HETATM    6  C6  UNL     1     -35.126   5.104   5.532  1.00 20.00     0.055 C 
HETATM    7  C7  UNL     1     -34.485   3.721   5.607  1.00 20.00     0.018 C 
HETATM    8  O11 UNL     1     -36.444   5.424   3.553  1.00 20.00    -0.297 OA
ENDROOT
BRANCH   2   9
HETATM    9  C10 UNL     1     -31.861   7.066   3.337  1.00 20.00     0.006 C 
HETATM   10  C8  UNL     1     -32.323   7.902   2.149  1.00 20.00     0.014 C 
HETATM   11  C9  UNL     1     -30.945   7.876   4.251  1.00 20.00     0.014 C 
ENDBRANCH   2   9
TORSDOF 1
ENDMDL
MODEL 4
REMARK VINA RESULT:      -4.8      1.705      2.290
REMARK  1 active torsions:
REMARK  status: ('A' for Active; 'I' for Inactive)
REMARK    1  A    between atoms: C2_2  and  C10_10 
ROOT
HETATM    1  C1  UNL     1     -35.495  15.618  -2.747  1.00 20.00    -0.022 C 
HETATM    2  C2  UNL     1     -34.308  16.247  -2.798  1.00 20.00    -0.073 C 
HETATM    3  C3  UNL     1     -34.111  15.606  -5.224  1.00 20.00     0.134 C 
HETATM    4  C4  UNL     1     -36.077  14.850  -3.895  1.00 20.00     0.039 C 
HETATM    5  C5  UNL     1     -33.443  16.261  -4.028  1.00 20.00     0.113 C 
HETATM    6  C6  UNL     1     -35.050  14.444  -4.957  1.00 20.00     0.055 C 
HETATM    7  C7  UNL     1     -34.243  13.209  -4.560  1.00 20.00     0.018 C 
HETATM    8  O11 UNL     1     -33.830  15.948  -6.374  1.00 20.00    -0.297 OA
ENDROOT
BRANCH   2   9
HETATM    9  C10 UNL     1     -33.765  16.994  -1.614  1.00 20.00     0.006 C 
HETATM   10  C8  UNL     1     -33.542  18.459  -1.973  1.00 20.00     0.014 C 
HETATM   11  C9  UNL     1     -34.702  16.862  -0.416  1.00 20.00     0.014 C 
ENDBRANCH   2   9
TORSDOF 1
ENDMDL
MODEL 5
REMARK VINA RESULT:      -4.7      1.917      3.893
REMARK  1 active torsions:
REMARK  status: ('A' for Active; 'I' for Inactive)
REMARK    1  A    between atoms: C2_2  and  C10_10 
ROOT
HETATM    1  C1  UNL     1     -35.965  15.755  -3.001  1.00 20.00    -0.022 C 
HETATM    2  C2  UNL     1     -36.283  14.800  -3.891  1.00 20.00    -0.073 C 
HETATM    3  C3  UNL     1     -33.921  13.940  -3.759  1.00 20.00     0.134 C 
HETATM    4  C4  UNL     1     -34.582  15.959  -2.460  1.00 20.00     0.039 C 
HETATM    5  C5  UNL     1     -35.280  13.816  -4.425  1.00 20.00     0.113 C 
HETATM    6  C6  UNL     1     -33.480  15.322  -3.313  1.00 20.00     0.055 C 
HETATM    7  C7  UNL     1     -33.111  16.165  -4.531  1.00 20.00     0.018 C 
HETATM    8  O11 UNL     1     -33.167  12.970  -3.668  1.00 20.00    -0.297 OA
ENDROOT
BRANCH   2   9
HETATM    9  C10 UNL     1     -37.684  14.646  -4.409  1.00 20.00     0.006 C 
HETATM   10  C8  UNL     1     -38.685  15.158  -3.381  1.00 20.00     0.014 C 
HETATM   11  C9  UNL     1     -37.849  15.372  -5.741  1.00 20.00     0.014 C 
ENDBRANCH   2   9
TORSDOF 1
ENDMDL
MODEL 6
REMARK VINA RESULT:      -4.5     11.562     13.373
REMARK  1 active torsions:
REMARK  status: ('A' for Active; 'I' for Inactive)
REMARK    1  A    between atoms: C2_2  and  C10_10 
ROOT
HETATM    1  C1  UNL     1     -41.223   4.078  -1.542  1.00 20.00    -0.022 C 
HETATM    2  C2  UNL     1     -42.131   4.069  -2.532  1.00 20.00    -0.073 C 
HETATM    3  C3  UNL     1     -42.242   6.580  -2.407  1.00 20.00     0.134 C 
HETATM    4  C4  UNL     1     -40.791   5.320  -0.823  1.00 20.00     0.039 C 
HETATM    5  C5  UNL     1     -42.798   5.317  -3.041  1.00 20.00     0.113 C 
HETATM    6  C6  UNL     1     -41.764   6.494  -0.969  1.00 20.00     0.055 C 
HETATM    7  C7  UNL     1     -42.964   6.389  -0.030  1.00 20.00     0.018 C 
HETATM    8  O11 UNL     1     -42.264   7.655  -3.008  1.00 20.00    -0.297 OA
ENDROOT
BRANCH   2   9
HETATM    9  C10 UNL     1     -42.538   2.793  -3.212  1.00 20.00     0.006 C 
HETATM   10  C8  UNL     1     -41.304   2.014  -3.652  1.00 20.00     0.014 C 
HETATM   11  C9  UNL     1     -43.417   1.949  -2.294  1.00 20.00     0.014 C 
ENDBRANCH   2   9
TORSDOF 1
ENDMDL
MODEL 7
REMARK VINA RESULT:      -4.4      1.802      4.374
REMARK  1 active torsions:
REMARK  status: ('A' for Active; 'I' for Inactive)
REMARK    1  A    between atoms: C2_2  and  C10_10 
ROOT
HETATM    1  C1  UNL     1     -36.460  15.305  -4.585  1.00 20.00    -0.022 C 
HETATM    2  C2  UNL     1     -35.741  14.786  -5.594  1.00 20.00    -0.073 C 
HETATM    3  C3  UNL     1     -34.050  13.964  -3.920  1.00 20.00     0.134 C 
HETATM    4  C4  UNL     1     -36.016  15.285  -3.153  1.00 20.00     0.039 C 
HETATM    5  C5  UNL     1     -34.415  14.108  -5.388  1.00 20.00     0.113 C 
HETATM    6  C6  UNL     1     -34.513  15.053  -2.970  1.00 20.00     0.055 C 
HETATM    7  C7  UNL     1     -33.688  16.318  -3.192  1.00 20.00     0.018 C 
HETATM    8  O11 UNL     1     -33.327  13.045  -3.533  1.00 20.00    -0.297 OA
ENDROOT
BRANCH   2   9
HETATM    9  C10 UNL     1     -36.226  14.843  -7.014  1.00 20.00     0.006 C 
HETATM   10  C8  UNL     1     -37.559  15.580  -7.086  1.00 20.00     0.014 C 
HETATM   11  C9  UNL     1     -35.187  15.505  -7.914  1.00 20.00     0.014 C 
ENDBRANCH   2   9
TORSDOF 1
ENDMDL
MODEL 8
REMARK VINA RESULT:      -4.4      2.049      3.652
REMARK  1 active torsions:
REMARK  status: ('A' for Active; 'I' for Inactive)
REMARK    1  A    between atoms: C2_2  and  C10_10 
ROOT
HETATM    1  C1  UNL     1     -35.059  16.430  -4.176  1.00 20.00    -0.022 C 
HETATM    2  C2  UNL     1     -34.984  16.067  -5.467  1.00 20.00    -0.073 C 
HETATM    3  C3  UNL     1     -34.571  13.693  -4.739  1.00 20.00     0.134 C 
HETATM    4  C4  UNL     1     -34.817  15.491  -3.033  1.00 20.00     0.039 C 
HETATM    5  C5  UNL     1     -34.667  14.663  -5.903  1.00 20.00     0.113 C 
HETATM    6  C6  UNL     1     -34.042  14.227  -3.420  1.00 20.00     0.055 C 
HETATM    7  C7  UNL     1     -32.537  14.464  -3.524  1.00 20.00     0.018 C 
HETATM    8  O11 UNL     1     -34.826  12.497  -4.886  1.00 20.00    -0.297 OA
ENDROOT
BRANCH   2   9
HETATM    9  C10 UNL     1     -35.226  17.051  -6.575  1.00 20.00     0.006 C 
HETATM   10  C8  UNL     1     -36.597  17.697  -6.415  1.00 20.00     0.014 C 
HETATM   11  C9  UNL     1     -34.125  18.108  -6.607  1.00 20.00     0.014 C 
ENDBRANCH   2   9
TORSDOF 1
ENDMDL
MODEL 9
REMARK VINA RESULT:      -4.3      2.168      4.396
REMARK  1 active torsions:
REMARK  status: ('A' for Active; 'I' for Inactive)
REMARK    1  A    between atoms: C2_2  and  C10_10 
ROOT
HETATM    1  C1  UNL     1     -34.101  14.256  -4.725  1.00 20.00    -0.022 C 
HETATM    2  C2  UNL     1     -34.871  15.096  -5.438  1.00 20.00    -0.073 C 
HETATM    3  C3  UNL     1     -33.914  17.024  -4.133  1.00 20.00     0.134 C 
HETATM    4  C4  UNL     1     -33.224  14.694  -3.591  1.00 20.00     0.039 C 
HETATM    5  C5  UNL     1     -34.916  16.577  -5.182  1.00 20.00     0.113 C 
HETATM    6  C6  UNL     1     -33.598  16.059  -3.005  1.00 20.00     0.055 C 
HETATM    7  C7  UNL     1     -34.780  15.985  -2.041  1.00 20.00     0.018 C 
HETATM    8  O11 UNL     1     -33.445  18.163  -4.147  1.00 20.00    -0.297 OA
ENDROOT
BRANCH   2   9
HETATM    9  C10 UNL     1     -35.741  14.604  -6.558  1.00 20.00     0.006 C 
HETATM   10  C8  UNL     1     -37.091  15.310  -6.525  1.00 20.00     0.014 C 
HETATM   11  C9  UNL     1     -35.052  14.806  -7.905  1.00 20.00     0.014 C 
ENDBRANCH   2   9
TORSDOF 1
ENDMDL
