MODEL 1
REMARK VINA RESULT:      -4.5      0.000      0.000
REMARK  1 active torsions:
REMARK  status: ('A' for Active; 'I' for Inactive)
REMARK    1  A    between atoms: C4_4  and  O11_11 
ROOT
HETATM    1  C1  UNL     1     -35.925  14.412  -3.914  1.00 20.00    -0.021 C 
HETATM    2  C2  UNL     1     -35.547  14.534  -5.197  1.00 20.00    -0.025 C 
HETATM    3  C3  UNL     1     -34.188  15.989  -3.204  1.00 20.00    -0.043 C 
HETATM    4  C4  UNL     1     -34.122  16.909  -2.238  1.00 20.00     0.045 C 
HETATM    5  C5  UNL     1     -33.735  16.161  -4.649  1.00 20.00     0.046 C 
HETATM    6  C6  UNL     1     -33.681  13.871  -4.001  1.00 20.00     0.022 C 
HETATM    7  C7  UNL     1     -34.682  14.560  -3.067  1.00 20.00     0.040 C 
HETATM    8  C8  UNL     1     -34.046  14.749  -5.205  1.00 20.00     0.013 C 
HETATM    9  C9  UNL     1     -34.584  16.675  -0.835  1.00 20.00     0.076 C 
ENDROOT
BRANCH   4  10
HETATM   10  O11 UNL     1     -33.606  18.163  -2.505  1.00 20.00    -0.360 OA
HETATM   11  C10 UNL     1     -33.255  18.863  -1.337  1.00 20.00     0.209 C 
ENDBRANCH   4  10
TORSDOF 1
ENDMDL
MODEL 2
REMARK VINA RESULT:      -4.5      2.550      3.947
REMARK  1 active torsions:
REMARK  status: ('A' for Active; 'I' for Inactive)
REMARK    1  A    between atoms: C4_4  and  O11_11 
ROOT
HETATM    1  C1  UNL     1     -33.784  15.409  -3.283  1.00 20.00    -0.021 C 
HETATM    2  C2  UNL     1     -33.352  14.169  -3.568  1.00 20.00    -0.025 C 
HETATM    3  C3  UNL     1     -36.038  14.855  -4.073  1.00 20.00    -0.043 C 
HETATM    4  C4  UNL     1     -37.261  15.231  -3.693  1.00 20.00     0.045 C 
HETATM    5  C5  UNL     1     -35.588  13.436  -4.400  1.00 20.00     0.046 C 
HETATM    6  C6  UNL     1     -34.235  15.043  -5.519  1.00 20.00     0.022 C 
HETATM    7  C7  UNL     1     -34.840  15.759  -4.306  1.00 20.00     0.040 C 
HETATM    8  C8  UNL     1     -34.113  13.698  -4.792  1.00 20.00     0.013 C 
HETATM    9  C9  UNL     1     -37.638  16.646  -3.386  1.00 20.00     0.076 C 
ENDROOT
BRANCH   4  10
HETATM   10  O11 UNL     1     -38.269  14.294  -3.561  1.00 20.00    -0.360 OA
HETATM   11  C10 UNL     1     -39.415  14.624  -4.306  1.00 20.00     0.209 C 
ENDBRANCH   4  10
TORSDOF 1
ENDMDL
MODEL 3
REMARK VINA RESULT:      -4.5     12.605     14.539
REMARK  1 active torsions:
REMARK  status: ('A' for Active; 'I' for Inactive)
REMARK    1  A    between atoms: C4_4  and  O11_11 
ROOT
HETATM    1  C1  UNL     1     -43.238   5.479  -0.369  1.00 20.00    -0.021 C 
HETATM    2  C2  UNL     1     -42.166   5.628   0.428  1.00 20.00    -0.025 C 
HETATM    3  C3  UNL     1     -41.881   4.334  -2.059  1.00 20.00    -0.043 C 
HETATM    4  C4  UNL     1     -42.131   3.347  -2.923  1.00 20.00     0.045 C 
HETATM    5  C5  UNL     1     -40.644   4.475  -1.180  1.00 20.00     0.046 C 
HETATM    6  C6  UNL     1     -41.638   6.596  -1.606  1.00 20.00     0.022 C 
HETATM    7  C7  UNL     1     -42.746   5.554  -1.796  1.00 20.00     0.040 C 
HETATM    8  C8  UNL     1     -40.960   5.816  -0.472  1.00 20.00     0.013 C 
HETATM    9  C9  UNL     1     -43.369   3.268  -3.759  1.00 20.00     0.076 C 
ENDROOT
BRANCH   4  10
HETATM   10  O11 UNL     1     -41.223   2.317  -3.085  1.00 20.00    -0.360 OA
HETATM   11  C10 UNL     1     -41.751   1.244  -3.825  1.00 20.00     0.209 C 
ENDBRANCH   4  10
TORSDOF 1
ENDMDL
MODEL 4
REMARK VINA RESULT:      -4.4      1.689      4.579
REMARK  1 active torsions:
REMARK  status: ('A' for Active; 'I' for Inactive)
REMARK    1  A    between atoms: C4_4  and  O11_11 
ROOT
HETATM    1  C1  UNL     1     -34.763  19.153  -1.928  1.00 20.00    -0.021 C 
HETATM    2  C2  UNL     1     -35.342  18.908  -0.741  1.00 20.00    -0.025 C 
HETATM    3  C3  UNL     1     -34.040  16.818  -2.110  1.00 20.00    -0.043 C 
HETATM    4  C4  UNL     1     -33.892  15.980  -3.139  1.00 20.00     0.045 C 
HETATM    5  C5  UNL     1     -34.693  16.498  -0.770  1.00 20.00     0.046 C 
HETATM    6  C6  UNL     1     -33.125  18.276  -0.556  1.00 20.00     0.022 C 
HETATM    7  C7  UNL     1     -33.553  18.253  -2.027  1.00 20.00     0.040 C 
HETATM    8  C8  UNL     1     -34.507  17.852  -0.042  1.00 20.00     0.013 C 
HETATM    9  C9  UNL     1     -33.239  16.358  -4.431  1.00 20.00     0.076 C 
ENDROOT
BRANCH   4  10
HETATM   10  O11 UNL     1     -34.354  14.680  -3.052  1.00 20.00    -0.360 OA
HETATM   11  C10 UNL     1     -33.626  13.792  -3.863  1.00 20.00     0.209 C 
ENDBRANCH   4  10
TORSDOF 1
ENDMDL
MODEL 5
REMARK VINA RESULT:      -4.4      1.329      2.270
REMARK  1 active torsions:
REMARK  status: ('A' for Active; 'I' for Inactive)
REMARK    1  A    between atoms: C4_4  and  O11_11 
ROOT
HETATM    1  C1  UNL     1     -32.734  14.644  -3.551  1.00 20.00    -0.021 C 
HETATM    2  C2  UNL     1     -33.714  13.800  -3.912  1.00 20.00    -0.025 C 
HETATM    3  C3  UNL     1     -34.353  16.134  -2.469  1.00 20.00    -0.043 C 
HETATM    4  C4  UNL     1     -34.300  16.916  -1.388  1.00 20.00     0.045 C 
HETATM    5  C5  UNL     1     -35.491  15.195  -2.852  1.00 20.00     0.046 C 
HETATM    6  C6  UNL     1     -34.259  15.878  -4.772  1.00 20.00     0.022 C 
HETATM    7  C7  UNL     1     -33.317  16.039  -3.574  1.00 20.00     0.040 C 
HETATM    8  C8  UNL     1     -34.948  14.636  -4.191  1.00 20.00     0.013 C 
HETATM    9  C9  UNL     1     -33.149  17.817  -1.069  1.00 20.00     0.076 C 
ENDROOT
BRANCH   4  10
HETATM   10  O11 UNL     1     -35.346  16.925  -0.483  1.00 20.00    -0.360 OA
HETATM   11  C10 UNL     1     -35.014  17.575   0.719  1.00 20.00     0.209 C 
ENDBRANCH   4  10
TORSDOF 1
ENDMDL
MODEL 6
REMARK VINA RESULT:      -4.4      2.092      4.138
REMARK  1 active torsions:
REMARK  status: ('A' for Active; 'I' for Inactive)
REMARK    1  A    between atoms: C4_4  and  O11_11 
ROOT
HETATM    1  C1  UNL     1     -33.852  17.608  -3.124  1.00 20.00    -0.021 C 
HETATM    2  C2  UNL     1     -35.132  18.015  -3.111  1.00 20.00    -0.025 C 
HETATM    3  C3  UNL     1     -34.546  15.263  -2.954  1.00 20.00    -0.043 C 
HETATM    4  C4  UNL     1     -34.052  14.122  -3.441  1.00 20.00     0.045 C 
HETATM    5  C5  UNL     1     -36.011  15.684  -2.946  1.00 20.00     0.046 C 
HETATM    6  C6  UNL     1     -34.801  16.757  -1.198  1.00 20.00     0.022 C 
HETATM    7  C7  UNL     1     -33.769  16.369  -2.262  1.00 20.00     0.040 C 
HETATM    8  C8  UNL     1     -35.901  17.052  -2.227  1.00 20.00     0.013 C 
HETATM    9  C9  UNL     1     -32.599  13.769  -3.417  1.00 20.00     0.076 C 
ENDROOT
BRANCH   4  10
HETATM   10  O11 UNL     1     -34.895  13.185  -4.009  1.00 20.00    -0.360 OA
HETATM   11  C10 UNL     1     -34.920  13.263  -5.413  1.00 20.00     0.209 C 
ENDBRANCH   4  10
TORSDOF 1
ENDMDL
MODEL 7
REMARK VINA RESULT:      -4.2      2.336      4.589
REMARK  1 active torsions:
REMARK  status: ('A' for Active; 'I' for Inactive)
REMARK    1  A    between atoms: C4_4  and  O11_11 
ROOT
HETATM    1  C1  UNL     1     -33.278  15.895  -4.394  1.00 20.00    -0.021 C 
HETATM    2  C2  UNL     1     -33.790  16.182  -3.185  1.00 20.00    -0.025 C 
HETATM    3  C3  UNL     1     -35.413  14.934  -5.121  1.00 20.00    -0.043 C 
HETATM    4  C4  UNL     1     -36.050  14.896  -6.294  1.00 20.00     0.045 C 
HETATM    5  C5  UNL     1     -36.033  15.253  -3.765  1.00 20.00     0.046 C 
HETATM    6  C6  UNL     1     -34.082  13.912  -3.522  1.00 20.00     0.022 C 
HETATM    7  C7  UNL     1     -33.948  14.626  -4.871  1.00 20.00     0.040 C 
HETATM    8  C8  UNL     1     -34.793  15.094  -2.851  1.00 20.00     0.013 C 
HETATM    9  C9  UNL     1     -35.381  14.575  -7.593  1.00 20.00     0.076 C 
ENDROOT
BRANCH   4  10
HETATM   10  O11 UNL     1     -37.405  15.162  -6.360  1.00 20.00    -0.360 OA
HETATM   11  C10 UNL     1     -37.896  15.143  -7.678  1.00 20.00     0.209 C 
ENDBRANCH   4  10
TORSDOF 1
ENDMDL
MODEL 8
REMARK VINA RESULT:      -4.2      2.371      3.958
REMARK  1 active torsions:
REMARK  status: ('A' for Active; 'I' for Inactive)
REMARK    1  A    between atoms: C4_4  and  O11_11 
ROOT
HETATM    1  C1  UNL     1     -34.248  13.326  -4.295  1.00 20.00    -0.021 C 
HETATM    2  C2  UNL     1     -33.184  13.844  -3.659  1.00 20.00    -0.025 C 
HETATM    3  C3  UNL     1     -34.599  15.424  -5.513  1.00 20.00    -0.043 C 
HETATM    4  C4  UNL     1     -35.040  15.711  -6.741  1.00 20.00     0.045 C 
HETATM    5  C5  UNL     1     -33.392  16.044  -4.819  1.00 20.00     0.046 C 
HETATM    6  C6  UNL     1     -34.976  15.244  -3.232  1.00 20.00     0.022 C 
HETATM    7  C7  UNL     1     -35.224  14.457  -4.524  1.00 20.00     0.040 C 
HETATM    8  C8  UNL     1     -33.460  15.320  -3.451  1.00 20.00     0.013 C 
HETATM    9  C9  UNL     1     -36.236  15.064  -7.366  1.00 20.00     0.076 C 
ENDROOT
BRANCH   4  10
HETATM   10  O11 UNL     1     -34.385  16.651  -7.515  1.00 20.00    -0.360 OA
HETATM   11  C10 UNL     1     -35.138  17.826  -7.687  1.00 20.00     0.209 C 
ENDBRANCH   4  10
TORSDOF 1
ENDMDL
MODEL 9
REMARK VINA RESULT:      -4.2      1.312      1.939
REMARK  1 active torsions:
REMARK  status: ('A' for Active; 'I' for Inactive)
REMARK    1  A    between atoms: C4_4  and  O11_11 
ROOT
HETATM    1  C1  UNL     1     -33.766  13.683  -3.792  1.00 20.00    -0.021 C 
HETATM    2  C2  UNL     1     -34.787  13.254  -4.553  1.00 20.00    -0.025 C 
HETATM    3  C3  UNL     1     -34.911  15.810  -3.372  1.00 20.00    -0.043 C 
HETATM    4  C4  UNL     1     -34.960  16.635  -2.324  1.00 20.00     0.045 C 
HETATM    5  C5  UNL     1     -36.094  15.355  -4.220  1.00 20.00     0.046 C 
HETATM    6  C6  UNL     1     -34.062  15.256  -5.458  1.00 20.00     0.022 C 
HETATM    7  C7  UNL     1     -33.670  15.180  -3.978  1.00 20.00     0.040 C 
HETATM    8  C8  UNL     1     -35.363  14.467  -5.258  1.00 20.00     0.013 C 
HETATM    9  C9  UNL     1     -33.758  17.043  -1.531  1.00 20.00     0.076 C 
ENDROOT
BRANCH   4  10
HETATM   10  O11 UNL     1     -36.167  17.166  -1.910  1.00 20.00    -0.360 OA
HETATM   11  C10 UNL     1     -36.013  18.146  -0.913  1.00 20.00     0.209 C 
ENDBRANCH   4  10
TORSDOF 1
ENDMDL
