MODEL 1
REMARK VINA RESULT:      -3.5      0.000      0.000
REMARK  1 active torsions:
REMARK  status: ('A' for Active; 'I' for Inactive)
REMARK    1  A    between atoms: C1_1  and  C2_2 
ROOT
HETATM    1  C1  UNL     1     -35.141   4.819   4.811  1.00 20.00     0.326 C 
HETATM    2  O3  UNL     1     -35.155   3.608   4.976  1.00 20.00    -0.257 OA
HETATM    3  F4  UNL     1     -35.975   5.324   3.892  1.00 20.00    -0.162 F 
ENDROOT
BRANCH   1   4
HETATM    4  C2  UNL     1     -34.268   5.778   5.551  1.00 20.00     0.338 C 
HETATM    5  F5  UNL     1     -34.741   6.013   6.803  1.00 20.00    -0.245 F 
ENDBRANCH   1   4
TORSDOF 1
ENDMDL
MODEL 2
REMARK VINA RESULT:      -3.4      0.739      2.198
REMARK  1 active torsions:
REMARK  status: ('A' for Active; 'I' for Inactive)
REMARK    1  A    between atoms: C1_1  and  C2_2 
ROOT
HETATM    1  C1  UNL     1     -34.928   4.800   5.294  1.00 20.00     0.326 C 
HETATM    2  O3  UNL     1     -35.032   3.589   5.433  1.00 20.00    -0.257 OA
HETATM    3  F4  UNL     1     -34.916   5.547   6.407  1.00 20.00    -0.162 F 
ENDROOT
BRANCH   1   4
HETATM    4  C2  UNL     1     -34.815   5.510   3.986  1.00 20.00     0.338 C 
HETATM    5  F5  UNL     1     -36.033   5.672   3.404  1.00 20.00    -0.245 F 
ENDBRANCH   1   4
TORSDOF 1
ENDMDL
MODEL 3
REMARK VINA RESULT:      -3.4      1.710      2.492
REMARK  1 active torsions:
REMARK  status: ('A' for Active; 'I' for Inactive)
REMARK    1  A    between atoms: C1_1  and  C2_2 
ROOT
HETATM    1  C1  UNL     1     -34.878   5.034   5.690  1.00 20.00     0.326 C 
HETATM    2  O3  UNL     1     -34.507   5.922   6.445  1.00 20.00    -0.257 OA
HETATM    3  F4  UNL     1     -35.284   3.885   6.247  1.00 20.00    -0.162 F 
ENDROOT
BRANCH   1   4
HETATM    4  C2  UNL     1     -34.912   5.128   4.200  1.00 20.00     0.338 C 
HETATM    5  F5  UNL     1     -36.139   5.512   3.757  1.00 20.00    -0.245 F 
ENDBRANCH   1   4
TORSDOF 1
ENDMDL
MODEL 4
REMARK VINA RESULT:      -3.4      1.561      1.561
REMARK  1 active torsions:
REMARK  status: ('A' for Active; 'I' for Inactive)
REMARK    1  A    between atoms: C1_1  and  C2_2 
ROOT
HETATM    1  C1  UNL     1     -35.030   4.749   5.121  1.00 20.00     0.326 C 
HETATM    2  O3  UNL     1     -35.412   5.281   4.089  1.00 20.00    -0.257 OA
HETATM    3  F4  UNL     1     -35.028   3.409   5.157  1.00 20.00    -0.162 F 
ENDROOT
BRANCH   1   4
HETATM    4  C2  UNL     1     -34.567   5.472   6.342  1.00 20.00     0.338 C 
HETATM    5  F5  UNL     1     -34.155   6.733   6.045  1.00 20.00    -0.245 F 
ENDBRANCH   1   4
TORSDOF 1
ENDMDL
MODEL 5
REMARK VINA RESULT:      -3.4      1.667      2.633
REMARK  1 active torsions:
REMARK  status: ('A' for Active; 'I' for Inactive)
REMARK    1  A    between atoms: C1_1  and  C2_2 
ROOT
HETATM    1  C1  UNL     1     -34.343   5.709   5.675  1.00 20.00     0.326 C 
HETATM    2  O3  UNL     1     -33.875   6.109   4.619  1.00 20.00    -0.257 OA
HETATM    3  F4  UNL     1     -34.344   6.563   6.708  1.00 20.00    -0.162 F 
ENDROOT
BRANCH   1   4
HETATM    4  C2  UNL     1     -34.911   4.348   5.906  1.00 20.00     0.338 C 
HETATM    5  F5  UNL     1     -35.185   3.721   4.731  1.00 20.00    -0.245 F 
ENDBRANCH   1   4
TORSDOF 1
ENDMDL
MODEL 6
REMARK VINA RESULT:      -3.3      1.380      1.380
REMARK  1 active torsions:
REMARK  status: ('A' for Active; 'I' for Inactive)
REMARK    1  A    between atoms: C1_1  and  C2_2 
ROOT
HETATM    1  C1  UNL     1     -34.889   5.310   4.413  1.00 20.00     0.326 C 
HETATM    2  O3  UNL     1     -33.871   5.696   3.857  1.00 20.00    -0.257 OA
HETATM    3  F4  UNL     1     -36.039   5.420   3.734  1.00 20.00    -0.162 F 
ENDROOT
BRANCH   1   4
HETATM    4  C2  UNL     1     -34.952   4.726   5.786  1.00 20.00     0.338 C 
HETATM    5  F5  UNL     1     -34.871   5.692   6.738  1.00 20.00    -0.245 F 
ENDBRANCH   1   4
TORSDOF 1
ENDMDL
MODEL 7
REMARK VINA RESULT:      -3.1      1.458      1.458
REMARK  1 active torsions:
REMARK  status: ('A' for Active; 'I' for Inactive)
REMARK    1  A    between atoms: C1_1  and  C2_2 
ROOT
HETATM    1  C1  UNL     1     -35.130   4.867   4.641  1.00 20.00     0.326 C 
HETATM    2  O3  UNL     1     -35.165   3.694   4.983  1.00 20.00    -0.257 OA
HETATM    3  F4  UNL     1     -36.127   5.310   3.862  1.00 20.00    -0.162 F 
ENDROOT
BRANCH   1   4
HETATM    4  C2  UNL     1     -34.067   5.844   5.021  1.00 20.00     0.338 C 
HETATM    5  F5  UNL     1     -33.163   6.006   4.019  1.00 20.00    -0.245 F 
ENDBRANCH   1   4
TORSDOF 1
ENDMDL
MODEL 8
REMARK VINA RESULT:      -3.0      2.654      3.050
REMARK  1 active torsions:
REMARK  status: ('A' for Active; 'I' for Inactive)
REMARK    1  A    between atoms: C1_1  and  C2_2 
ROOT
HETATM    1  C1  UNL     1     -33.945   6.114   4.099  1.00 20.00     0.326 C 
HETATM    2  O3  UNL     1     -34.793   5.392   3.596  1.00 20.00    -0.257 OA
HETATM    3  F4  UNL     1     -34.095   6.427   5.394  1.00 20.00    -0.162 F 
ENDROOT
BRANCH   1   4
HETATM    4  C2  UNL     1     -32.758   6.676   3.388  1.00 20.00     0.338 C 
HETATM    5  F5  UNL     1     -31.940   5.689   2.936  1.00 20.00    -0.245 F 
ENDBRANCH   1   4
TORSDOF 1
ENDMDL
MODEL 9
REMARK VINA RESULT:      -2.9     12.410     12.537
REMARK  1 active torsions:
REMARK  status: ('A' for Active; 'I' for Inactive)
REMARK    1  A    between atoms: C1_1  and  C2_2 
ROOT
HETATM    1  C1  UNL     1     -34.335  13.591  -3.854  1.00 20.00     0.326 C 
HETATM    2  O3  UNL     1     -34.957  12.668  -4.358  1.00 20.00    -0.257 OA
HETATM    3  F4  UNL     1     -33.020  13.414  -3.664  1.00 20.00    -0.162 F 
ENDROOT
BRANCH   1   4
HETATM    4  C2  UNL     1     -34.922  14.898  -3.434  1.00 20.00     0.338 C 
HETATM    5  F5  UNL     1     -34.410  15.310  -2.244  1.00 20.00    -0.245 F 
ENDBRANCH   1   4
TORSDOF 1
ENDMDL
