MODEL 1
REMARK VINA RESULT:      -3.8      0.000      0.000
REMARK  0 active torsions:
REMARK  status: ('A' for Active; 'I' for Inactive)
ROOT
HETATM    1  C1  UNL     1     -36.351  14.801  -3.657  1.00 20.00     0.063 C 
HETATM    2  C2  UNL     1     -34.453  15.612  -2.501  1.00 20.00     0.167 C 
HETATM    3  C3  UNL     1     -34.072  14.588  -5.103  1.00 20.00     0.112 C 
HETATM    4  C4  UNL     1     -37.812  14.799  -3.999  1.00 20.00     0.078 C 
HETATM    5  C5  UNL     1     -34.147  16.838  -1.638  1.00 20.00     0.046 C 
HETATM    6  C6  UNL     1     -34.586  15.519  -6.198  1.00 20.00     0.033 C 
HETATM    7  N7  UNL     1     -35.875  15.689  -2.857  1.00 20.00    -0.272 NA
HETATM    8  S8  UNL     1     -35.409  13.548  -4.445  1.00 20.00    -0.100 SA
HETATM    9  S9  UNL     1     -33.194  15.553  -3.830  1.00 20.00    -0.127 SA
ENDROOT
TORSDOF 0
ENDMDL
MODEL 2
REMARK VINA RESULT:      -3.7      1.943      2.471
REMARK  0 active torsions:
REMARK  status: ('A' for Active; 'I' for Inactive)
ROOT
HETATM    1  C1  UNL     1     -34.403  15.163  -3.407  1.00 20.00     0.063 C 
HETATM    2  C2  UNL     1     -34.030  16.713  -1.659  1.00 20.00     0.167 C 
HETATM    3  C3  UNL     1     -33.795  17.640  -4.314  1.00 20.00     0.112 C 
HETATM    4  C4  UNL     1     -35.065  13.960  -4.011  1.00 20.00     0.078 C 
HETATM    5  C5  UNL     1     -34.715  17.040  -0.330  1.00 20.00     0.046 C 
HETATM    6  C6  UNL     1     -35.139  17.799  -5.018  1.00 20.00     0.033 C 
HETATM    7  N7  UNL     1     -34.749  15.572  -2.236  1.00 20.00    -0.272 NA
HETATM    8  S8  UNL     1     -33.196  15.928  -4.423  1.00 20.00    -0.100 SA
HETATM    9  S9  UNL     1     -33.907  18.274  -2.609  1.00 20.00    -0.127 SA
ENDROOT
TORSDOF 0
ENDMDL
MODEL 3
REMARK VINA RESULT:      -3.6      1.927      4.033
REMARK  0 active torsions:
REMARK  status: ('A' for Active; 'I' for Inactive)
ROOT
HETATM    1  C1  UNL     1     -33.707  16.539  -5.134  1.00 20.00     0.063 C 
HETATM    2  C2  UNL     1     -34.498  14.645  -6.309  1.00 20.00     0.167 C 
HETATM    3  C3  UNL     1     -34.464  14.526  -3.490  1.00 20.00     0.112 C 
HETATM    4  C4  UNL     1     -33.499  18.015  -4.956  1.00 20.00     0.078 C 
HETATM    5  C5  UNL     1     -35.420  14.415  -7.508  1.00 20.00     0.046 C 
HETATM    6  C6  UNL     1     -35.560  15.364  -2.838  1.00 20.00     0.033 C 
HETATM    7  N7  UNL     1     -34.375  16.097  -6.141  1.00 20.00    -0.272 NA
HETATM    8  S8  UNL     1     -33.006  15.540  -3.875  1.00 20.00    -0.100 SA
HETATM    9  S9  UNL     1     -35.138  13.629  -4.926  1.00 20.00    -0.127 SA
ENDROOT
TORSDOF 0
ENDMDL
MODEL 4
REMARK VINA RESULT:      -3.6      0.968      3.166
REMARK  0 active torsions:
REMARK  status: ('A' for Active; 'I' for Inactive)
ROOT
HETATM    1  C1  UNL     1     -34.994  16.189  -2.544  1.00 20.00     0.063 C 
HETATM    2  C2  UNL     1     -36.570  15.455  -4.149  1.00 20.00     0.167 C 
HETATM    3  C3  UNL     1     -33.848  14.876  -4.615  1.00 20.00     0.112 C 
HETATM    4  C4  UNL     1     -34.562  16.521  -1.146  1.00 20.00     0.078 C 
HETATM    5  C5  UNL     1     -37.946  14.789  -4.097  1.00 20.00     0.046 C 
HETATM    6  C6  UNL     1     -33.304  13.769  -3.715  1.00 20.00     0.033 C 
HETATM    7  N7  UNL     1     -36.167  15.704  -2.760  1.00 20.00    -0.272 NA
HETATM    8  S8  UNL     1     -33.786  16.488  -3.779  1.00 20.00    -0.100 SA
HETATM    9  S9  UNL     1     -35.504  14.424  -5.225  1.00 20.00    -0.127 SA
ENDROOT
TORSDOF 0
ENDMDL
MODEL 5
REMARK VINA RESULT:      -3.6      2.074      3.251
REMARK  0 active torsions:
REMARK  status: ('A' for Active; 'I' for Inactive)
ROOT
HETATM    1  C1  UNL     1     -35.013  16.113  -2.500  1.00 20.00     0.063 C 
HETATM    2  C2  UNL     1     -35.183  14.586  -4.299  1.00 20.00     0.167 C 
HETATM    3  C3  UNL     1     -35.028  17.336  -4.915  1.00 20.00     0.112 C 
HETATM    4  C4  UNL     1     -34.572  16.518  -1.124  1.00 20.00     0.078 C 
HETATM    5  C5  UNL     1     -34.544  13.241  -4.649  1.00 20.00     0.046 C 
HETATM    6  C6  UNL     1     -33.632  17.920  -4.717  1.00 20.00     0.033 C 
HETATM    7  N7  UNL     1     -34.675  14.965  -2.976  1.00 20.00    -0.272 NA
HETATM    8  S8  UNL     1     -35.958  17.317  -3.355  1.00 20.00    -0.100 SA
HETATM    9  S9  UNL     1     -34.911  15.706  -5.723  1.00 20.00    -0.127 SA
ENDROOT
TORSDOF 0
ENDMDL
MODEL 6
REMARK VINA RESULT:      -3.6      1.883      2.985
REMARK  0 active torsions:
REMARK  status: ('A' for Active; 'I' for Inactive)
ROOT
HETATM    1  C1  UNL     1     -34.069  16.090  -3.029  1.00 20.00     0.063 C 
HETATM    2  C2  UNL     1     -33.478  16.967  -5.145  1.00 20.00     0.167 C 
HETATM    3  C3  UNL     1     -34.774  14.461  -5.074  1.00 20.00     0.112 C 
HETATM    4  C4  UNL     1     -34.501  16.220  -1.598  1.00 20.00     0.078 C 
HETATM    5  C5  UNL     1     -33.558  18.340  -5.815  1.00 20.00     0.046 C 
HETATM    6  C6  UNL     1     -36.261  14.561  -4.746  1.00 20.00     0.033 C 
HETATM    7  N7  UNL     1     -33.965  17.136  -3.772  1.00 20.00    -0.272 NA
HETATM    8  S8  UNL     1     -33.768  14.446  -3.561  1.00 20.00    -0.100 SA
HETATM    9  S9  UNL     1     -34.309  15.769  -6.255  1.00 20.00    -0.127 SA
ENDROOT
TORSDOF 0
ENDMDL
MODEL 7
REMARK VINA RESULT:      -3.5      2.134      2.829
REMARK  0 active torsions:
REMARK  status: ('A' for Active; 'I' for Inactive)
ROOT
HETATM    1  C1  UNL     1     -35.140  15.190  -5.895  1.00 20.00     0.063 C 
HETATM    2  C2  UNL     1     -34.445  17.096  -4.679  1.00 20.00     0.167 C 
HETATM    3  C3  UNL     1     -34.476  14.615  -3.334  1.00 20.00     0.112 C 
HETATM    4  C4  UNL     1     -35.276  14.377  -7.149  1.00 20.00     0.078 C 
HETATM    5  C5  UNL     1     -33.538  18.296  -4.961  1.00 20.00     0.046 C 
HETATM    6  C6  UNL     1     -33.339  13.687  -3.753  1.00 20.00     0.033 C 
HETATM    7  N7  UNL     1     -34.497  16.304  -5.913  1.00 20.00    -0.272 NA
HETATM    8  S8  UNL     1     -35.885  14.481  -4.474  1.00 20.00    -0.100 SA
HETATM    9  S9  UNL     1     -33.850  16.315  -3.132  1.00 20.00    -0.127 SA
ENDROOT
TORSDOF 0
ENDMDL
MODEL 8
REMARK VINA RESULT:      -3.5      2.234      3.558
REMARK  0 active torsions:
REMARK  status: ('A' for Active; 'I' for Inactive)
ROOT
HETATM    1  C1  UNL     1     -34.187  15.095  -4.022  1.00 20.00     0.063 C 
HETATM    2  C2  UNL     1     -34.415  17.305  -4.834  1.00 20.00     0.167 C 
HETATM    3  C3  UNL     1     -35.623  16.680  -2.362  1.00 20.00     0.112 C 
HETATM    4  C4  UNL     1     -33.450  13.799  -3.855  1.00 20.00     0.078 C 
HETATM    5  C5  UNL     1     -33.481  18.325  -5.489  1.00 20.00     0.046 C 
HETATM    6  C6  UNL     1     -34.620  16.529  -1.221  1.00 20.00     0.033 C 
HETATM    7  N7  UNL     1     -33.632  16.080  -4.638  1.00 20.00    -0.272 NA
HETATM    8  S8  UNL     1     -35.785  15.132  -3.300  1.00 20.00    -0.100 SA
HETATM    9  S9  UNL     1     -35.187  18.121  -3.387  1.00 20.00    -0.127 SA
ENDROOT
TORSDOF 0
ENDMDL
MODEL 9
REMARK VINA RESULT:      -3.5      1.835      3.180
REMARK  0 active torsions:
REMARK  status: ('A' for Active; 'I' for Inactive)
ROOT
HETATM    1  C1  UNL     1     -34.282  14.661  -4.055  1.00 20.00     0.063 C 
HETATM    2  C2  UNL     1     -36.516  15.432  -4.164  1.00 20.00     0.167 C 
HETATM    3  C3  UNL     1     -34.766  16.168  -6.252  1.00 20.00     0.112 C 
HETATM    4  C4  UNL     1     -33.226  13.662  -3.682  1.00 20.00     0.078 C 
HETATM    5  C5  UNL     1     -37.893  14.814  -3.914  1.00 20.00     0.046 C 
HETATM    6  C6  UNL     1     -34.450  15.020  -7.206  1.00 20.00     0.033 C 
HETATM    7  N7  UNL     1     -35.524  14.399  -3.843  1.00 20.00    -0.272 NA
HETATM    8  S8  UNL     1     -33.677  16.130  -4.798  1.00 20.00    -0.100 SA
HETATM    9  S9  UNL     1     -36.542  16.165  -5.842  1.00 20.00    -0.127 SA
ENDROOT
TORSDOF 0
ENDMDL
