MODEL 1
REMARK VINA RESULT:      -3.5      0.000      0.000
REMARK  0 active torsions:
REMARK  status: ('A' for Active; 'I' for Inactive)
ROOT
HETATM    1  C1  UNL     1     -35.227  14.337  -5.555  1.00 20.00     0.302 C 
HETATM    2  C2  UNL     1     -34.841  13.029  -4.901  1.00 20.00     0.201 C 
HETATM    3  C3  UNL     1     -33.851  14.756  -3.754  1.00 20.00     0.253 C 
HETATM    4  C4  UNL     1     -32.337  14.739  -3.533  1.00 20.00     0.081 C 
HETATM    5  C5  UNL     1     -34.534  15.559  -2.638  1.00 20.00     0.081 C 
HETATM    6  C6  UNL     1     -34.404  16.604  -5.336  1.00 20.00     0.314 C 
HETATM    7  N7  UNL     1     -34.128  15.193  -5.130  1.00 20.00     0.120 N 
HETATM    8  O8  UNL     1     -34.321  13.395  -3.617  1.00 20.00    -0.351 OA
ENDROOT
TORSDOF 0
ENDMDL
MODEL 2
REMARK VINA RESULT:      -3.5      1.508      2.572
REMARK  0 active torsions:
REMARK  status: ('A' for Active; 'I' for Inactive)
ROOT
HETATM    1  C1  UNL     1     -34.476  15.278  -5.911  1.00 20.00     0.302 C 
HETATM    2  C2  UNL     1     -33.729  16.591  -5.830  1.00 20.00     0.201 C 
HETATM    3  C3  UNL     1     -33.530  15.495  -3.820  1.00 20.00     0.253 C 
HETATM    4  C4  UNL     1     -33.930  16.214  -2.530  1.00 20.00     0.081 C 
HETATM    5  C5  UNL     1     -32.470  14.428  -3.516  1.00 20.00     0.081 C 
HETATM    6  C6  UNL     1     -35.165  13.659  -4.247  1.00 20.00     0.314 C 
HETATM    7  N7  UNL     1     -34.746  15.026  -4.502  1.00 20.00     0.120 N 
HETATM    8  O8  UNL     1     -32.889  16.468  -4.675  1.00 20.00    -0.351 OA
ENDROOT
TORSDOF 0
ENDMDL
MODEL 3
REMARK VINA RESULT:      -3.4      1.733      2.741
REMARK  0 active torsions:
REMARK  status: ('A' for Active; 'I' for Inactive)
ROOT
HETATM    1  C1  UNL     1     -33.816  17.232  -3.858  1.00 20.00     0.302 C 
HETATM    2  C2  UNL     1     -33.356  16.686  -5.192  1.00 20.00     0.201 C 
HETATM    3  C3  UNL     1     -34.217  14.963  -3.938  1.00 20.00     0.253 C 
HETATM    4  C4  UNL     1     -33.366  13.715  -3.697  1.00 20.00     0.081 C 
HETATM    5  C5  UNL     1     -35.707  14.604  -3.867  1.00 20.00     0.081 C 
HETATM    6  C6  UNL     1     -34.471  16.182  -1.776  1.00 20.00     0.314 C 
HETATM    7  N7  UNL     1     -33.762  16.031  -3.035  1.00 20.00     0.120 N 
HETATM    8  O8  UNL     1     -33.971  15.395  -5.296  1.00 20.00    -0.351 OA
ENDROOT
TORSDOF 0
ENDMDL
MODEL 4
REMARK VINA RESULT:      -3.4      1.368      1.539
REMARK  0 active torsions:
REMARK  status: ('A' for Active; 'I' for Inactive)
ROOT
HETATM    1  C1  UNL     1     -35.853  14.090  -4.228  1.00 20.00     0.302 C 
HETATM    2  C2  UNL     1     -34.573  13.350  -4.543  1.00 20.00     0.201 C 
HETATM    3  C3  UNL     1     -34.062  15.525  -4.006  1.00 20.00     0.253 C 
HETATM    4  C4  UNL     1     -33.232  16.363  -4.980  1.00 20.00     0.081 C 
HETATM    5  C5  UNL     1     -33.867  16.040  -2.573  1.00 20.00     0.081 C 
HETATM    6  C6  UNL     1     -36.384  16.438  -3.951  1.00 20.00     0.314 C 
HETATM    7  N7  UNL     1     -35.450  15.465  -4.491  1.00 20.00     0.120 N 
HETATM    8  O8  UNL     1     -33.526  14.182  -4.028  1.00 20.00    -0.351 OA
ENDROOT
TORSDOF 0
ENDMDL
MODEL 5
REMARK VINA RESULT:      -3.4      1.860      2.584
REMARK  0 active torsions:
REMARK  status: ('A' for Active; 'I' for Inactive)
ROOT
HETATM    1  C1  UNL     1     -35.688  13.971  -4.247  1.00 20.00     0.302 C 
HETATM    2  C2  UNL     1     -36.806  14.884  -3.793  1.00 20.00     0.201 C 
HETATM    3  C3  UNL     1     -34.794  15.798  -3.160  1.00 20.00     0.253 C 
HETATM    4  C4  UNL     1     -34.568  16.168  -1.693  1.00 20.00     0.081 C 
HETATM    5  C5  UNL     1     -33.919  16.677  -4.064  1.00 20.00     0.081 C 
HETATM    6  C6  UNL     1     -33.325  13.863  -3.728  1.00 20.00     0.314 C 
HETATM    7  N7  UNL     1     -34.632  14.344  -3.315  1.00 20.00     0.120 N 
HETATM    8  O8  UNL     1     -36.165  16.128  -3.481  1.00 20.00    -0.351 OA
ENDROOT
TORSDOF 0
ENDMDL
MODEL 6
REMARK VINA RESULT:      -3.3      1.440      2.701
REMARK  0 active torsions:
REMARK  status: ('A' for Active; 'I' for Inactive)
ROOT
HETATM    1  C1  UNL     1     -33.322  16.114  -4.523  1.00 20.00     0.302 C 
HETATM    2  C2  UNL     1     -33.661  16.229  -3.053  1.00 20.00     0.201 C 
HETATM    3  C3  UNL     1     -35.098  14.727  -4.033  1.00 20.00     0.253 C 
HETATM    4  C4  UNL     1     -36.607  14.928  -3.886  1.00 20.00     0.081 C 
HETATM    5  C5  UNL     1     -34.785  13.239  -4.241  1.00 20.00     0.081 C 
HETATM    6  C6  UNL     1     -34.470  15.128  -6.414  1.00 20.00     0.314 C 
HETATM    7  N7  UNL     1     -34.592  15.647  -5.063  1.00 20.00     0.120 N 
HETATM    8  O8  UNL     1     -34.491  15.094  -2.773  1.00 20.00    -0.351 OA
ENDROOT
TORSDOF 0
ENDMDL
MODEL 7
REMARK VINA RESULT:      -3.3      1.682      2.268
REMARK  0 active torsions:
REMARK  status: ('A' for Active; 'I' for Inactive)
ROOT
HETATM    1  C1  UNL     1     -36.025  14.566  -3.934  1.00 20.00     0.302 C 
HETATM    2  C2  UNL     1     -35.191  13.356  -4.291  1.00 20.00     0.201 C 
HETATM    3  C3  UNL     1     -34.483  15.146  -5.547  1.00 20.00     0.253 C 
HETATM    4  C4  UNL     1     -34.424  15.015  -7.070  1.00 20.00     0.081 C 
HETATM    5  C5  UNL     1     -33.465  16.190  -5.071  1.00 20.00     0.081 C 
HETATM    6  C6  UNL     1     -36.306  16.744  -4.956  1.00 20.00     0.314 C 
HETATM    7  N7  UNL     1     -35.880  15.368  -5.142  1.00 20.00     0.120 N 
HETATM    8  O8  UNL     1     -34.055  13.882  -4.990  1.00 20.00    -0.351 OA
ENDROOT
TORSDOF 0
ENDMDL
MODEL 8
REMARK VINA RESULT:      -3.3      1.321      2.657
REMARK  0 active torsions:
REMARK  status: ('A' for Active; 'I' for Inactive)
ROOT
HETATM    1  C1  UNL     1     -32.982  15.122  -3.911  1.00 20.00     0.302 C 
HETATM    2  C2  UNL     1     -33.663  13.774  -3.827  1.00 20.00     0.201 C 
HETATM    3  C3  UNL     1     -34.701  15.033  -5.445  1.00 20.00     0.253 C 
HETATM    4  C4  UNL     1     -36.215  15.245  -5.373  1.00 20.00     0.081 C 
HETATM    5  C5  UNL     1     -34.226  15.136  -6.900  1.00 20.00     0.081 C 
HETATM    6  C6  UNL     1     -33.571  17.210  -4.988  1.00 20.00     0.314 C 
HETATM    7  N7  UNL     1     -34.047  15.934  -4.483  1.00 20.00     0.120 N 
HETATM    8  O8  UNL     1     -34.437  13.674  -5.030  1.00 20.00    -0.351 OA
ENDROOT
TORSDOF 0
ENDMDL
MODEL 9
REMARK VINA RESULT:      -3.3      1.460      2.040
REMARK  0 active torsions:
REMARK  status: ('A' for Active; 'I' for Inactive)
ROOT
HETATM    1  C1  UNL     1     -34.731  13.274  -4.904  1.00 20.00     0.302 C 
HETATM    2  C2  UNL     1     -33.994  13.690  -3.650  1.00 20.00     0.201 C 
HETATM    3  C3  UNL     1     -34.446  15.562  -4.905  1.00 20.00     0.253 C 
HETATM    4  C4  UNL     1     -33.300  16.499  -5.291  1.00 20.00     0.081 C 
HETATM    5  C5  UNL     1     -35.767  16.341  -4.854  1.00 20.00     0.081 C 
HETATM    6  C6  UNL     1     -35.271  14.423  -6.967  1.00 20.00     0.314 C 
HETATM    7  N7  UNL     1     -34.419  14.387  -5.790  1.00 20.00     0.120 N 
HETATM    8  O8  UNL     1     -34.193  15.107  -3.556  1.00 20.00    -0.351 OA
ENDROOT
TORSDOF 0
ENDMDL
