MODEL 1
REMARK VINA RESULT:      -5.0      0.000      0.000
REMARK  1 active torsions:
REMARK  status: ('A' for Active; 'I' for Inactive)
REMARK    1  A    between atoms: C8_8  and  N9_9 
ROOT
HETATM    1  C1  UNL     1     -32.367   9.109   1.673  1.00 20.00     0.013 C 
HETATM    2  C2  UNL     1     -32.289   8.066   2.261  1.00 20.00    -0.087 C 
HETATM    3  C8  UNL     1     -32.189   6.792   2.977  1.00 20.00     0.364 C 
ENDROOT
BRANCH   3   4
HETATM    4  N9  UNL     1     -33.391   6.554   3.776  1.00 20.00     0.099 N 
HETATM    5  C6  UNL     1     -33.041   6.397   5.196  1.00 20.00     0.273 C 
HETATM    6  C4  UNL     1     -34.293   6.197   6.053  1.00 20.00     0.030 C 
HETATM    7  C3  UNL     1     -35.117   5.013   5.562  1.00 20.00     0.003 C 
HETATM    8  C5  UNL     1     -35.403   5.145   4.070  1.00 20.00     0.030 C 
HETATM    9  C7  UNL     1     -34.117   5.379   3.275  1.00 20.00     0.273 C 
ENDBRANCH   3   4
TORSDOF 1
ENDMDL
MODEL 2
REMARK VINA RESULT:      -4.5      0.963      1.984
REMARK  1 active torsions:
REMARK  status: ('A' for Active; 'I' for Inactive)
REMARK    1  A    between atoms: C8_8  and  N9_9 
ROOT
HETATM    1  C1  UNL     1     -31.757   7.942   2.619  1.00 20.00     0.013 C 
HETATM    2  C2  UNL     1     -32.549   7.042   2.682  1.00 20.00    -0.087 C 
HETATM    3  C8  UNL     1     -33.516   5.943   2.754  1.00 20.00     0.364 C 
ENDROOT
BRANCH   3   4
HETATM    4  N9  UNL     1     -33.685   5.494   4.136  1.00 20.00     0.099 N 
HETATM    5  C6  UNL     1     -34.819   4.565   4.239  1.00 20.00     0.273 C 
HETATM    6  C4  UNL     1     -34.978   4.046   5.670  1.00 20.00     0.030 C 
HETATM    7  C3  UNL     1     -35.123   5.193   6.662  1.00 20.00     0.003 C 
HETATM    8  C5  UNL     1     -33.985   6.194   6.489  1.00 20.00     0.030 C 
HETATM    9  C7  UNL     1     -33.857   6.645   5.034  1.00 20.00     0.273 C 
ENDBRANCH   3   4
TORSDOF 1
ENDMDL
MODEL 3
REMARK VINA RESULT:      -4.3     10.873     11.568
REMARK  1 active torsions:
REMARK  status: ('A' for Active; 'I' for Inactive)
REMARK    1  A    between atoms: C8_8  and  N9_9 
ROOT
HETATM    1  C1  UNL     1     -34.906  17.228   0.231  1.00 20.00     0.013 C 
HETATM    2  C2  UNL     1     -34.440  17.021  -0.856  1.00 20.00    -0.087 C 
HETATM    3  C8  UNL     1     -33.868  16.773  -2.182  1.00 20.00     0.364 C 
ENDROOT
BRANCH   3   4
HETATM    4  N9  UNL     1     -34.304  15.475  -2.697  1.00 20.00     0.099 N 
HETATM    5  C6  UNL     1     -33.267  14.891  -3.560  1.00 20.00     0.273 C 
HETATM    6  C4  UNL     1     -33.686  13.509  -4.067  1.00 20.00     0.030 C 
HETATM    7  C3  UNL     1     -35.027  13.567  -4.790  1.00 20.00     0.003 C 
HETATM    8  C5  UNL     1     -36.074  14.250  -3.916  1.00 20.00     0.030 C 
HETATM    9  C7  UNL     1     -35.580  15.607  -3.413  1.00 20.00     0.273 C 
ENDBRANCH   3   4
TORSDOF 1
ENDMDL
MODEL 4
REMARK VINA RESULT:      -4.1      9.233     10.748
REMARK  1 active torsions:
REMARK  status: ('A' for Active; 'I' for Inactive)
REMARK    1  A    between atoms: C8_8  and  N9_9 
ROOT
HETATM    1  C1  UNL     1     -41.291   1.709  -3.965  1.00 20.00     0.013 C 
HETATM    2  C2  UNL     1     -41.869   2.444  -3.212  1.00 20.00    -0.087 C 
HETATM    3  C8  UNL     1     -42.577   3.339  -2.293  1.00 20.00     0.364 C 
ENDROOT
BRANCH   3   4
HETATM    4  N9  UNL     1     -41.804   4.558  -2.061  1.00 20.00     0.099 N 
HETATM    5  C6  UNL     1     -41.465   4.688  -0.636  1.00 20.00     0.273 C 
HETATM    6  C4  UNL     1     -40.613   5.934  -0.384  1.00 20.00     0.030 C 
HETATM    7  C3  UNL     1     -41.304   7.192  -0.896  1.00 20.00     0.003 C 
HETATM    8  C5  UNL     1     -41.724   7.013  -2.351  1.00 20.00     0.030 C 
HETATM    9  C7  UNL     1     -42.541   5.735  -2.542  1.00 20.00     0.273 C 
ENDBRANCH   3   4
TORSDOF 1
ENDMDL
MODEL 5
REMARK VINA RESULT:      -4.1     11.096     12.150
REMARK  1 active torsions:
REMARK  status: ('A' for Active; 'I' for Inactive)
REMARK    1  A    between atoms: C8_8  and  N9_9 
ROOT
HETATM    1  C1  UNL     1     -34.726  16.803  -0.471  1.00 20.00     0.013 C 
HETATM    2  C2  UNL     1     -34.217  16.741  -1.557  1.00 20.00    -0.087 C 
HETATM    3  C8  UNL     1     -33.591  16.667  -2.879  1.00 20.00     0.364 C 
ENDROOT
BRANCH   3   4
HETATM    4  N9  UNL     1     -34.388  15.837  -3.782  1.00 20.00     0.099 N 
HETATM    5  C6  UNL     1     -34.396  14.440  -3.322  1.00 20.00     0.273 C 
HETATM    6  C4  UNL     1     -35.267  13.567  -4.227  1.00 20.00     0.030 C 
HETATM    7  C3  UNL     1     -34.821  13.658  -5.681  1.00 20.00     0.003 C 
HETATM    8  C5  UNL     1     -34.737  15.116  -6.122  1.00 20.00     0.030 C 
HETATM    9  C7  UNL     1     -33.883  15.941  -5.158  1.00 20.00     0.273 C 
ENDBRANCH   3   4
TORSDOF 1
ENDMDL
MODEL 6
REMARK VINA RESULT:      -4.0     11.124     11.955
REMARK  1 active torsions:
REMARK  status: ('A' for Active; 'I' for Inactive)
REMARK    1  A    between atoms: C8_8  and  N9_9 
ROOT
HETATM    1  C1  UNL     1     -34.455  16.951  -0.554  1.00 20.00     0.013 C 
HETATM    2  C2  UNL     1     -34.212  17.099  -1.720  1.00 20.00    -0.087 C 
HETATM    3  C8  UNL     1     -33.912  17.283  -3.142  1.00 20.00     0.364 C 
ENDROOT
BRANCH   3   4
HETATM    4  N9  UNL     1     -34.269  16.087  -3.904  1.00 20.00     0.099 N 
HETATM    5  C6  UNL     1     -35.714  15.833  -3.815  1.00 20.00     0.273 C 
HETATM    6  C4  UNL     1     -36.111  14.612  -4.649  1.00 20.00     0.030 C 
HETATM    7  C3  UNL     1     -35.316  13.379  -4.238  1.00 20.00     0.003 C 
HETATM    8  C5  UNL     1     -33.821  13.679  -4.254  1.00 20.00     0.030 C 
HETATM    9  C7  UNL     1     -33.495  14.929  -3.435  1.00 20.00     0.273 C 
ENDBRANCH   3   4
TORSDOF 1
ENDMDL
MODEL 7
REMARK VINA RESULT:      -3.9      9.709     10.714
REMARK  1 active torsions:
REMARK  status: ('A' for Active; 'I' for Inactive)
REMARK    1  A    between atoms: C8_8  and  N9_9 
ROOT
HETATM    1  C1  UNL     1     -42.169   9.115  -5.006  1.00 20.00     0.013 C 
HETATM    2  C2  UNL     1     -42.583   8.192  -4.361  1.00 20.00    -0.087 C 
HETATM    3  C8  UNL     1     -43.094   7.065  -3.575  1.00 20.00     0.364 C 
ENDROOT
BRANCH   3   4
HETATM    4  N9  UNL     1     -42.053   6.538  -2.693  1.00 20.00     0.099 N 
HETATM    5  C6  UNL     1     -42.278   5.109  -2.430  1.00 20.00     0.273 C 
HETATM    6  C4  UNL     1     -41.169   4.530  -1.549  1.00 20.00     0.030 C 
HETATM    7  C3  UNL     1     -41.035   5.307  -0.245  1.00 20.00     0.003 C 
HETATM    8  C5  UNL     1     -40.885   6.799  -0.528  1.00 20.00     0.030 C 
HETATM    9  C7  UNL     1     -42.001   7.307  -1.442  1.00 20.00     0.273 C 
ENDBRANCH   3   4
TORSDOF 1
ENDMDL
MODEL 8
REMARK VINA RESULT:      -3.8     11.253     12.385
REMARK  1 active torsions:
REMARK  status: ('A' for Active; 'I' for Inactive)
REMARK    1  A    between atoms: C8_8  and  N9_9 
ROOT
HETATM    1  C1  UNL     1     -33.310  17.969  -0.793  1.00 20.00     0.013 C 
HETATM    2  C2  UNL     1     -33.978  17.095  -1.274  1.00 20.00    -0.087 C 
HETATM    3  C8  UNL     1     -34.797  16.030  -1.858  1.00 20.00     0.364 C 
ENDROOT
BRANCH   3   4
HETATM    4  N9  UNL     1     -34.238  15.592  -3.137  1.00 20.00     0.099 N 
HETATM    5  C6  UNL     1     -34.265  16.693  -4.112  1.00 20.00     0.273 C 
HETATM    6  C4  UNL     1     -33.638  16.266  -5.441  1.00 20.00     0.030 C 
HETATM    7  C3  UNL     1     -34.321  15.025  -6.003  1.00 20.00     0.003 C 
HETATM    8  C5  UNL     1     -34.361  13.919  -4.954  1.00 20.00     0.030 C 
HETATM    9  C7  UNL     1     -34.964  14.418  -3.641  1.00 20.00     0.273 C 
ENDBRANCH   3   4
TORSDOF 1
ENDMDL
MODEL 9
REMARK VINA RESULT:      -3.7     11.214     12.670
REMARK  1 active torsions:
REMARK  status: ('A' for Active; 'I' for Inactive)
REMARK    1  A    between atoms: C8_8  and  N9_9 
ROOT
HETATM    1  C1  UNL     1     -35.168  14.769  -7.835  1.00 20.00     0.013 C 
HETATM    2  C2  UNL     1     -34.860  14.471  -6.713  1.00 20.00    -0.087 C 
HETATM    3  C8  UNL     1     -34.483  14.103  -5.347  1.00 20.00     0.364 C 
ENDROOT
BRANCH   3   4
HETATM    4  N9  UNL     1     -34.622  15.248  -4.447  1.00 20.00     0.099 N 
HETATM    5  C6  UNL     1     -33.560  16.233  -4.701  1.00 20.00     0.273 C 
HETATM    6  C4  UNL     1     -33.720  17.460  -3.802  1.00 20.00     0.030 C 
HETATM    7  C3  UNL     1     -33.758  17.068  -2.330  1.00 20.00     0.003 C 
HETATM    8  C5  UNL     1     -34.807  15.987  -2.094  1.00 20.00     0.030 C 
HETATM    9  C7  UNL     1     -34.613  14.806  -3.046  1.00 20.00     0.273 C 
ENDBRANCH   3   4
TORSDOF 1
ENDMDL
