MODEL 1
REMARK VINA RESULT:      -4.7      0.000      0.000
REMARK  2 active torsions:
REMARK  status: ('A' for Active; 'I' for Inactive)
REMARK    1  A    between atoms: C8_8  and  C9_9 
REMARK    2  A    between atoms: C9_9  and  N11_11 
ROOT
HETATM    1  C1  UNL     1     -34.793  14.257  -6.091  1.00 20.00     0.064 C 
HETATM    2  C2  UNL     1     -36.038  14.222  -3.947  1.00 20.00     0.047 C 
HETATM    3  C3  UNL     1     -33.587  13.620  -4.019  1.00 20.00     0.047 C 
HETATM    4  C4  UNL     1     -35.674  15.598  -3.400  1.00 20.00     0.236 C 
HETATM    5  C5  UNL     1     -33.241  15.000  -3.472  1.00 20.00     0.236 C 
HETATM    6  C6  UNL     1     -34.919  13.591  -4.780  1.00 20.00     0.096 C 
HETATM    7  N10 UNL     1     -34.694  14.781  -7.121  1.00 20.00    -0.197 NA
HETATM    8  N11 UNL     1     -34.382  15.506  -2.624  1.00 20.00    -0.071 N 
HETATM    9  H28 UNL     1     -34.529  14.823  -1.868  1.00 20.00     0.279 HD
ENDROOT
BRANCH   8  10
HETATM   10  C9  UNL     1     -34.042  16.810  -1.957  1.00 20.00     0.234 C 
BRANCH  10  11
HETATM   11  C8  UNL     1     -34.668  16.839  -0.572  1.00 20.00     0.023 C 
HETATM   12  C7  UNL     1     -34.077  17.953   0.276  1.00 20.00     0.007 C 
ENDBRANCH  10  11
ENDBRANCH   8  10
TORSDOF 2
ENDMDL
MODEL 2
REMARK VINA RESULT:      -4.6      1.523      2.269
REMARK  2 active torsions:
REMARK  status: ('A' for Active; 'I' for Inactive)
REMARK    1  A    between atoms: C8_8  and  C9_9 
REMARK    2  A    between atoms: C9_9  and  N11_11 
ROOT
HETATM    1  C1  UNL     1     -34.981  13.674  -5.088  1.00 20.00     0.064 C 
HETATM    2  C2  UNL     1     -33.936  15.857  -5.627  1.00 20.00     0.047 C 
HETATM    3  C3  UNL     1     -36.308  15.744  -4.769  1.00 20.00     0.047 C 
HETATM    4  C4  UNL     1     -33.465  16.280  -4.239  1.00 20.00     0.236 C 
HETATM    5  C5  UNL     1     -35.820  16.168  -3.389  1.00 20.00     0.236 C 
HETATM    6  C6  UNL     1     -35.229  15.036  -5.598  1.00 20.00     0.096 C 
HETATM    7  N10 UNL     1     -34.785  12.603  -4.688  1.00 20.00    -0.197 NA
HETATM    8  N11 UNL     1     -34.578  17.014  -3.532  1.00 20.00    -0.071 N 
HETATM    9  H28 UNL     1     -34.827  17.826  -4.114  1.00 20.00     0.279 HD
ENDROOT
BRANCH   8  10
HETATM   10  C9  UNL     1     -34.126  17.565  -2.208  1.00 20.00     0.234 C 
BRANCH  10  11
HETATM   11  C8  UNL     1     -34.501  16.587  -1.107  1.00 20.00     0.023 C 
HETATM   12  C7  UNL     1     -34.903  17.316   0.164  1.00 20.00     0.007 C 
ENDBRANCH  10  11
ENDBRANCH   8  10
TORSDOF 2
ENDMDL
MODEL 3
REMARK VINA RESULT:      -4.3      1.486      1.840
REMARK  2 active torsions:
REMARK  status: ('A' for Active; 'I' for Inactive)
REMARK    1  A    between atoms: C8_8  and  C9_9 
REMARK    2  A    between atoms: C9_9  and  N11_11 
ROOT
HETATM    1  C1  UNL     1     -36.225  14.924  -6.160  1.00 20.00     0.064 C 
HETATM    2  C2  UNL     1     -34.545  13.763  -4.754  1.00 20.00     0.047 C 
HETATM    3  C3  UNL     1     -33.905  15.799  -6.104  1.00 20.00     0.047 C 
HETATM    4  C4  UNL     1     -34.602  14.626  -3.498  1.00 20.00     0.236 C 
HETATM    5  C5  UNL     1     -33.967  16.646  -4.838  1.00 20.00     0.236 C 
HETATM    6  C6  UNL     1     -34.801  14.556  -6.040  1.00 20.00     0.096 C 
HETATM    7  N10 UNL     1     -37.345  15.213  -6.255  1.00 20.00    -0.197 NA
HETATM    8  N11 UNL     1     -33.646  15.786  -3.640  1.00 20.00    -0.071 N 
HETATM    9  H28 UNL     1     -32.707  15.391  -3.789  1.00 20.00     0.279 HD
ENDROOT
BRANCH   8  10
HETATM   10  C9  UNL     1     -33.569  16.598  -2.378  1.00 20.00     0.234 C 
BRANCH  10  11
HETATM   11  C8  UNL     1     -34.755  16.256  -1.491  1.00 20.00     0.023 C 
HETATM   12  C7  UNL     1     -34.744  17.081  -0.215  1.00 20.00     0.007 C 
ENDBRANCH  10  11
ENDBRANCH   8  10
TORSDOF 2
ENDMDL
MODEL 4
REMARK VINA RESULT:      -4.3      1.672      4.877
REMARK  2 active torsions:
REMARK  status: ('A' for Active; 'I' for Inactive)
REMARK    1  A    between atoms: C8_8  and  C9_9 
REMARK    2  A    between atoms: C9_9  and  N11_11 
ROOT
HETATM    1  C1  UNL     1     -34.295  15.749  -2.626  1.00 20.00     0.064 C 
HETATM    2  C2  UNL     1     -33.017  16.118  -4.718  1.00 20.00     0.047 C 
HETATM    3  C3  UNL     1     -33.522  13.778  -3.917  1.00 20.00     0.047 C 
HETATM    4  C4  UNL     1     -34.139  15.999  -5.744  1.00 20.00     0.236 C 
HETATM    5  C5  UNL     1     -34.640  13.676  -4.949  1.00 20.00     0.236 C 
HETATM    6  C6  UNL     1     -33.224  15.221  -3.494  1.00 20.00     0.096 C 
HETATM    7  N10 UNL     1     -35.136  16.164  -1.943  1.00 20.00    -0.197 NA
HETATM    8  N11 UNL     1     -34.312  14.551  -6.134  1.00 20.00    -0.071 N 
HETATM    9  H28 UNL     1     -33.413  14.227  -6.514  1.00 20.00     0.279 HD
ENDROOT
BRANCH   8  10
HETATM   10  C9  UNL     1     -35.321  14.391  -7.237  1.00 20.00     0.234 C 
BRANCH  10  11
HETATM   11  C8  UNL     1     -36.517  15.285  -6.954  1.00 20.00     0.023 C 
HETATM   12  C7  UNL     1     -37.657  15.002  -7.918  1.00 20.00     0.007 C 
ENDBRANCH  10  11
ENDBRANCH   8  10
TORSDOF 2
ENDMDL
MODEL 5
REMARK VINA RESULT:      -4.2      1.714      2.535
REMARK  2 active torsions:
REMARK  status: ('A' for Active; 'I' for Inactive)
REMARK    1  A    between atoms: C8_8  and  C9_9 
REMARK    2  A    between atoms: C9_9  and  N11_11 
ROOT
HETATM    1  C1  UNL     1     -37.317  14.721  -4.282  1.00 20.00     0.064 C 
HETATM    2  C2  UNL     1     -34.857  14.518  -4.522  1.00 20.00     0.047 C 
HETATM    3  C3  UNL     1     -36.005  16.738  -4.879  1.00 20.00     0.047 C 
HETATM    4  C4  UNL     1     -34.412  14.981  -3.139  1.00 20.00     0.236 C 
HETATM    5  C5  UNL     1     -35.551  17.186  -3.494  1.00 20.00     0.236 C 
HETATM    6  C6  UNL     1     -36.132  15.215  -5.008  1.00 20.00     0.096 C 
HETATM    7  N10 UNL     1     -38.249  14.332  -3.710  1.00 20.00    -0.197 NA
HETATM    8  N11 UNL     1     -34.264  16.483  -3.136  1.00 20.00    -0.071 N 
HETATM    9  H28 UNL     1     -33.572  16.724  -3.859  1.00 20.00     0.279 HD
ENDROOT
BRANCH   8  10
HETATM   10  C9  UNL     1     -33.704  16.982  -1.832  1.00 20.00     0.234 C 
BRANCH  10  11
HETATM   11  C8  UNL     1     -34.660  16.618  -0.708  1.00 20.00     0.023 C 
HETATM   12  C7  UNL     1     -34.676  17.690   0.370  1.00 20.00     0.007 C 
ENDBRANCH  10  11
ENDBRANCH   8  10
TORSDOF 2
ENDMDL
MODEL 6
REMARK VINA RESULT:      -4.2      2.173      4.106
REMARK  2 active torsions:
REMARK  status: ('A' for Active; 'I' for Inactive)
REMARK    1  A    between atoms: C8_8  and  C9_9 
REMARK    2  A    between atoms: C9_9  and  N11_11 
ROOT
HETATM    1  C1  UNL     1     -33.375  15.965  -4.282  1.00 20.00     0.064 C 
HETATM    2  C2  UNL     1     -34.742  13.998  -3.644  1.00 20.00     0.047 C 
HETATM    3  C3  UNL     1     -34.637  16.029  -2.148  1.00 20.00     0.047 C 
HETATM    4  C4  UNL     1     -36.111  14.447  -4.142  1.00 20.00     0.236 C 
HETATM    5  C5  UNL     1     -36.007  16.464  -2.657  1.00 20.00     0.236 C 
HETATM    6  C6  UNL     1     -33.871  15.158  -3.151  1.00 20.00     0.096 C 
HETATM    7  N10 UNL     1     -32.985  16.600  -5.171  1.00 20.00    -0.197 NA
HETATM    8  N11 UNL     1     -36.801  15.247  -3.063  1.00 20.00    -0.071 N 
HETATM    9  H28 UNL     1     -36.878  14.641  -2.235  1.00 20.00     0.279 HD
ENDROOT
BRANCH   8  10
HETATM   10  C9  UNL     1     -38.208  15.608  -3.454  1.00 20.00     0.234 C 
BRANCH  10  11
HETATM   11  C8  UNL     1     -38.545  14.939  -4.776  1.00 20.00     0.023 C 
HETATM   12  C7  UNL     1     -39.969  14.410  -4.778  1.00 20.00     0.007 C 
ENDBRANCH  10  11
ENDBRANCH   8  10
TORSDOF 2
ENDMDL
MODEL 7
REMARK VINA RESULT:      -4.2      2.382      3.946
REMARK  2 active torsions:
REMARK  status: ('A' for Active; 'I' for Inactive)
REMARK    1  A    between atoms: C8_8  and  C9_9 
REMARK    2  A    between atoms: C9_9  and  N11_11 
ROOT
HETATM    1  C1  UNL     1     -34.600  13.607  -3.963  1.00 20.00     0.064 C 
HETATM    2  C2  UNL     1     -35.362  15.716  -2.903  1.00 20.00     0.047 C 
HETATM    3  C3  UNL     1     -33.002  15.494  -3.772  1.00 20.00     0.047 C 
HETATM    4  C4  UNL     1     -35.732  16.523  -4.143  1.00 20.00     0.236 C 
HETATM    5  C5  UNL     1     -33.389  16.303  -5.005  1.00 20.00     0.236 C 
HETATM    6  C6  UNL     1     -34.189  14.759  -3.137  1.00 20.00     0.096 C 
HETATM    7  N10 UNL     1     -34.924  12.702  -4.612  1.00 20.00    -0.197 NA
HETATM    8  N11 UNL     1     -34.511  17.248  -4.654  1.00 20.00    -0.071 N 
HETATM    9  H28 UNL     1     -34.175  17.854  -3.893  1.00 20.00     0.279 HD
ENDROOT
BRANCH   8  10
HETATM   10  C9  UNL     1     -34.848  18.160  -5.802  1.00 20.00     0.234 C 
BRANCH  10  11
HETATM   11  C8  UNL     1     -34.406  17.509  -7.102  1.00 20.00     0.023 C 
HETATM   12  C7  UNL     1     -35.600  17.041  -7.917  1.00 20.00     0.007 C 
ENDBRANCH  10  11
ENDBRANCH   8  10
TORSDOF 2
ENDMDL
MODEL 8
REMARK VINA RESULT:      -4.2     10.683     12.420
REMARK  2 active torsions:
REMARK  status: ('A' for Active; 'I' for Inactive)
REMARK    1  A    between atoms: C8_8  and  C9_9 
REMARK    2  A    between atoms: C9_9  and  N11_11 
ROOT
HETATM    1  C1  UNL     1     -42.351   5.251   0.580  1.00 20.00     0.064 C 
HETATM    2  C2  UNL     1     -40.970   6.922  -0.627  1.00 20.00     0.047 C 
HETATM    3  C3  UNL     1     -41.369   4.631  -1.612  1.00 20.00     0.047 C 
HETATM    4  C4  UNL     1     -42.015   7.501  -1.574  1.00 20.00     0.236 C 
HETATM    5  C5  UNL     1     -42.411   5.228  -2.553  1.00 20.00     0.236 C 
HETATM    6  C6  UNL     1     -41.195   5.437  -0.319  1.00 20.00     0.096 C 
HETATM    7  N10 UNL     1     -43.259   5.105   1.286  1.00 20.00    -0.197 NA
HETATM    8  N11 UNL     1     -42.068   6.670  -2.834  1.00 20.00    -0.071 N 
HETATM    9  H28 UNL     1     -41.126   6.685  -3.249  1.00 20.00     0.279 HD
ENDROOT
BRANCH   8  10
HETATM   10  C9  UNL     1     -42.992   7.271  -3.856  1.00 20.00     0.234 C 
BRANCH  10  11
HETATM   11  C8  UNL     1     -42.659   8.744  -4.025  1.00 20.00     0.023 C 
HETATM   12  C7  UNL     1     -41.875   8.988  -5.304  1.00 20.00     0.007 C 
ENDBRANCH  10  11
ENDBRANCH   8  10
TORSDOF 2
ENDMDL
MODEL 9
REMARK VINA RESULT:      -4.1     12.474     14.309
REMARK  2 active torsions:
REMARK  status: ('A' for Active; 'I' for Inactive)
REMARK    1  A    between atoms: C8_8  and  C9_9 
REMARK    2  A    between atoms: C9_9  and  N11_11 
ROOT
HETATM    1  C1  UNL     1     -41.952   6.903  -0.717  1.00 20.00     0.064 C 
HETATM    2  C2  UNL     1     -40.560   4.852  -0.782  1.00 20.00     0.047 C 
HETATM    3  C3  UNL     1     -42.773   4.865   0.432  1.00 20.00     0.047 C 
HETATM    4  C4  UNL     1     -41.215   4.118  -1.948  1.00 20.00     0.236 C 
HETATM    5  C5  UNL     1     -43.411   4.131  -0.742  1.00 20.00     0.236 C 
HETATM    6  C6  UNL     1     -41.549   5.696   0.029  1.00 20.00     0.096 C 
HETATM    7  N10 UNL     1     -42.269   7.852  -1.304  1.00 20.00    -0.197 NA
HETATM    8  N11 UNL     1     -42.369   3.290  -1.437  1.00 20.00    -0.071 N 
HETATM    9  H28 UNL     1     -41.989   2.635  -0.739  1.00 20.00     0.279 HD
ENDROOT
BRANCH   8  10
HETATM   10  C9  UNL     1     -42.971   2.447  -2.526  1.00 20.00     0.234 C 
BRANCH  10  11
HETATM   11  C8  UNL     1     -41.898   2.114  -3.550  1.00 20.00     0.023 C 
HETATM   12  C7  UNL     1     -41.864   0.624  -3.847  1.00 20.00     0.007 C 
ENDBRANCH  10  11
ENDBRANCH   8  10
TORSDOF 2
ENDMDL
