MODEL 1
REMARK VINA RESULT:      -4.6      0.000      0.000
REMARK  1 active torsions:
REMARK  status: ('A' for Active; 'I' for Inactive)
REMARK    1  A    between atoms: C9_9  and  N11_11 
ROOT
HETATM    1  C1  UNL     1     -34.894  13.695  -4.941  1.00 20.00     0.102 C 
HETATM    2  C2  UNL     1     -35.473  15.360  -7.411  1.00 20.00     0.007 C 
HETATM    3  C5  UNL     1     -34.216  15.575  -6.538  1.00 20.00     0.058 C 
HETATM    4  C6  UNL     1     -36.316  15.462  -6.120  1.00 20.00     0.058 C 
HETATM    5  C9  UNL     1     -35.043  15.073  -5.334  1.00 20.00     0.246 C 
HETATM    6  N10 UNL     1     -34.775  12.585  -4.624  1.00 20.00    -0.194 NA
ENDROOT
BRANCH   5   7
HETATM    7  N11 UNL     1     -34.870  15.992  -4.203  1.00 20.00     0.112 N 
HETATM    8  C7  UNL     1     -35.732  15.610  -3.084  1.00 20.00     0.275 C 
HETATM    9  C3  UNL     1     -35.104  16.339  -1.907  1.00 20.00     0.032 C 
HETATM   10  C4  UNL     1     -33.642  16.542  -2.295  1.00 20.00     0.032 C 
HETATM   11  C8  UNL     1     -33.507  15.913  -3.674  1.00 20.00     0.275 C 
ENDBRANCH   5   7
TORSDOF 1
ENDMDL
MODEL 2
REMARK VINA RESULT:      -4.4      1.407      3.879
REMARK  1 active torsions:
REMARK  status: ('A' for Active; 'I' for Inactive)
REMARK    1  A    between atoms: C9_9  and  N11_11 
ROOT
HETATM    1  C1  UNL     1     -36.673  14.877  -3.788  1.00 20.00     0.102 C 
HETATM    2  C2  UNL     1     -34.747  16.179  -1.837  1.00 20.00     0.007 C 
HETATM    3  C5  UNL     1     -35.389  16.949  -3.012  1.00 20.00     0.058 C 
HETATM    4  C6  UNL     1     -34.303  15.107  -2.858  1.00 20.00     0.058 C 
HETATM    5  C9  UNL     1     -35.434  15.611  -3.783  1.00 20.00     0.246 C 
HETATM    6  N10 UNL     1     -37.671  14.284  -3.791  1.00 20.00    -0.194 NA
ENDROOT
BRANCH   5   7
HETATM    7  N11 UNL     1     -34.903  15.808  -5.137  1.00 20.00     0.112 N 
HETATM    8  C7  UNL     1     -34.659  14.523  -5.793  1.00 20.00     0.275 C 
HETATM    9  C3  UNL     1     -34.574  14.902  -7.263  1.00 20.00     0.032 C 
HETATM   10  C4  UNL     1     -35.376  16.193  -7.391  1.00 20.00     0.032 C 
HETATM   11  C8  UNL     1     -35.885  16.484  -5.987  1.00 20.00     0.275 C 
ENDBRANCH   5   7
TORSDOF 1
ENDMDL
MODEL 3
REMARK VINA RESULT:      -4.4      0.827      3.761
REMARK  1 active torsions:
REMARK  status: ('A' for Active; 'I' for Inactive)
REMARK    1  A    between atoms: C9_9  and  N11_11 
ROOT
HETATM    1  C1  UNL     1     -34.927  13.940  -4.116  1.00 20.00     0.102 C 
HETATM    2  C2  UNL     1     -34.550  16.009  -1.928  1.00 20.00     0.007 C 
HETATM    3  C5  UNL     1     -35.799  15.977  -2.837  1.00 20.00     0.058 C 
HETATM    4  C6  UNL     1     -33.688  15.984  -3.210  1.00 20.00     0.058 C 
HETATM    5  C9  UNL     1     -34.904  15.370  -3.940  1.00 20.00     0.246 C 
HETATM    6  N10 UNL     1     -34.944  12.789  -4.258  1.00 20.00    -0.194 NA
ENDROOT
BRANCH   5   7
HETATM    7  N11 UNL     1     -35.127  16.086  -5.201  1.00 20.00     0.112 N 
HETATM    8  C7  UNL     1     -34.118  15.716  -6.195  1.00 20.00     0.275 C 
HETATM    9  C3  UNL     1     -34.752  16.161  -7.504  1.00 20.00     0.032 C 
HETATM   10  C4  UNL     1     -36.255  16.152  -7.244  1.00 20.00     0.032 C 
HETATM   11  C8  UNL     1     -36.405  15.699  -5.800  1.00 20.00     0.275 C 
ENDBRANCH   5   7
TORSDOF 1
ENDMDL
MODEL 4
REMARK VINA RESULT:      -4.3      1.852      2.810
REMARK  1 active torsions:
REMARK  status: ('A' for Active; 'I' for Inactive)
REMARK    1  A    between atoms: C9_9  and  N11_11 
ROOT
HETATM    1  C1  UNL     1     -33.762  16.057  -4.598  1.00 20.00     0.102 C 
HETATM    2  C2  UNL     1     -34.830  13.224  -4.819  1.00 20.00     0.007 C 
HETATM    3  C5  UNL     1     -35.756  14.460  -4.740  1.00 20.00     0.058 C 
HETATM    4  C6  UNL     1     -34.117  13.751  -3.553  1.00 20.00     0.058 C 
HETATM    5  C9  UNL     1     -34.652  15.156  -3.912  1.00 20.00     0.246 C 
HETATM    6  N10 UNL     1     -33.045  16.782  -5.150  1.00 20.00    -0.194 NA
ENDROOT
BRANCH   5   7
HETATM    7  N11 UNL     1     -35.248  15.768  -2.720  1.00 20.00     0.112 N 
HETATM    8  C7  UNL     1     -34.211  16.204  -1.784  1.00 20.00     0.275 C 
HETATM    9  C3  UNL     1     -34.950  17.186  -0.889  1.00 20.00     0.032 C 
HETATM   10  C4  UNL     1     -36.113  17.699  -1.733  1.00 20.00     0.032 C 
HETATM   11  C8  UNL     1     -35.977  16.989  -3.071  1.00 20.00     0.275 C 
ENDBRANCH   5   7
TORSDOF 1
ENDMDL
MODEL 5
REMARK VINA RESULT:      -4.2      1.523      1.725
REMARK  1 active torsions:
REMARK  status: ('A' for Active; 'I' for Inactive)
REMARK    1  A    between atoms: C9_9  and  N11_11 
ROOT
HETATM    1  C1  UNL     1     -36.888  14.643  -4.247  1.00 20.00     0.102 C 
HETATM    2  C2  UNL     1     -35.319  14.333  -6.826  1.00 20.00     0.007 C 
HETATM    3  C5  UNL     1     -34.711  14.024  -5.440  1.00 20.00     0.058 C 
HETATM    4  C6  UNL     1     -35.744  15.710  -6.268  1.00 20.00     0.058 C 
HETATM    5  C9  UNL     1     -35.661  15.092  -4.854  1.00 20.00     0.246 C 
HETATM    6  N10 UNL     1     -37.876  14.282  -3.758  1.00 20.00    -0.194 NA
ENDROOT
BRANCH   5   7
HETATM    7  N11 UNL     1     -34.905  15.991  -3.974  1.00 20.00     0.112 N 
HETATM    8  C7  UNL     1     -35.712  17.152  -3.599  1.00 20.00     0.275 C 
HETATM    9  C3  UNL     1     -34.983  17.693  -2.378  1.00 20.00     0.032 C 
HETATM   10  C4  UNL     1     -34.239  16.496  -1.794  1.00 20.00     0.032 C 
HETATM   11  C8  UNL     1     -34.584  15.330  -2.708  1.00 20.00     0.275 C 
ENDBRANCH   5   7
TORSDOF 1
ENDMDL
MODEL 6
REMARK VINA RESULT:      -4.2      1.464      3.641
REMARK  1 active torsions:
REMARK  status: ('A' for Active; 'I' for Inactive)
REMARK    1  A    between atoms: C9_9  and  N11_11 
ROOT
HETATM    1  C1  UNL     1     -34.999  13.780  -4.257  1.00 20.00     0.102 C 
HETATM    2  C2  UNL     1     -33.678  16.121  -2.848  1.00 20.00     0.007 C 
HETATM    3  C5  UNL     1     -35.079  15.597  -2.458  1.00 20.00     0.058 C 
HETATM    4  C6  UNL     1     -34.178  16.200  -4.309  1.00 20.00     0.058 C 
HETATM    5  C9  UNL     1     -35.255  15.159  -3.930  1.00 20.00     0.246 C 
HETATM    6  N10 UNL     1     -34.791  12.669  -4.521  1.00 20.00    -0.194 NA
ENDROOT
BRANCH   5   7
HETATM    7  N11 UNL     1     -36.562  15.610  -4.421  1.00 20.00     0.112 N 
HETATM    8  C7  UNL     1     -36.668  15.418  -5.868  1.00 20.00     0.275 C 
HETATM    9  C3  UNL     1     -38.168  15.487  -6.111  1.00 20.00     0.032 C 
HETATM   10  C4  UNL     1     -38.807  15.082  -4.786  1.00 20.00     0.032 C 
HETATM   11  C8  UNL     1     -37.640  14.798  -3.853  1.00 20.00     0.275 C 
ENDBRANCH   5   7
TORSDOF 1
ENDMDL
MODEL 7
REMARK VINA RESULT:      -4.1      2.098      4.074
REMARK  1 active torsions:
REMARK  status: ('A' for Active; 'I' for Inactive)
REMARK    1  A    between atoms: C9_9  and  N11_11 
ROOT
HETATM    1  C1  UNL     1     -33.931  17.367  -3.891  1.00 20.00     0.102 C 
HETATM    2  C2  UNL     1     -34.941  17.967  -1.093  1.00 20.00     0.007 C 
HETATM    3  C5  UNL     1     -33.775  16.989  -1.366  1.00 20.00     0.058 C 
HETATM    4  C6  UNL     1     -35.771  17.174  -2.128  1.00 20.00     0.058 C 
HETATM    5  C9  UNL     1     -34.435  16.682  -2.729  1.00 20.00     0.246 C 
HETATM    6  N10 UNL     1     -33.525  17.920  -4.828  1.00 20.00    -0.194 NA
ENDROOT
BRANCH   5   7
HETATM    7  N11 UNL     1     -34.496  15.230  -2.927  1.00 20.00     0.112 N 
HETATM    8  C7  UNL     1     -35.570  14.876  -3.856  1.00 20.00     0.275 C 
HETATM    9  C3  UNL     1     -35.197  13.466  -4.287  1.00 20.00     0.032 C 
HETATM   10  C4  UNL     1     -33.686  13.374  -4.090  1.00 20.00     0.032 C 
HETATM   11  C8  UNL     1     -33.272  14.739  -3.562  1.00 20.00     0.275 C 
ENDBRANCH   5   7
TORSDOF 1
ENDMDL
MODEL 8
REMARK VINA RESULT:      -4.1      1.769      4.046
REMARK  1 active torsions:
REMARK  status: ('A' for Active; 'I' for Inactive)
REMARK    1  A    between atoms: C9_9  and  N11_11 
ROOT
HETATM    1  C1  UNL     1     -33.371  15.515  -3.256  1.00 20.00     0.102 C 
HETATM    2  C2  UNL     1     -33.637  17.583  -1.051  1.00 20.00     0.007 C 
HETATM    3  C5  UNL     1     -34.626  16.406  -1.213  1.00 20.00     0.058 C 
HETATM    4  C6  UNL     1     -33.880  17.915  -2.541  1.00 20.00     0.058 C 
HETATM    5  C9  UNL     1     -34.332  16.449  -2.729  1.00 20.00     0.246 C 
HETATM    6  N10 UNL     1     -32.596  14.763  -3.681  1.00 20.00    -0.194 NA
ENDROOT
BRANCH   5   7
HETATM    7  N11 UNL     1     -35.595  16.422  -3.474  1.00 20.00     0.112 N 
HETATM    8  C7  UNL     1     -35.366  16.670  -4.898  1.00 20.00     0.275 C 
HETATM    9  C3  UNL     1     -36.645  16.158  -5.543  1.00 20.00     0.032 C 
HETATM   10  C4  UNL     1     -37.198  15.123  -4.568  1.00 20.00     0.032 C 
HETATM   11  C8  UNL     1     -36.204  15.091  -3.417  1.00 20.00     0.275 C 
ENDBRANCH   5   7
TORSDOF 1
ENDMDL
MODEL 9
REMARK VINA RESULT:      -4.0      2.014      2.806
REMARK  1 active torsions:
REMARK  status: ('A' for Active; 'I' for Inactive)
REMARK    1  A    between atoms: C9_9  and  N11_11 
ROOT
HETATM    1  C1  UNL     1     -37.028  14.567  -4.017  1.00 20.00     0.102 C 
HETATM    2  C2  UNL     1     -34.451  13.153  -4.773  1.00 20.00     0.007 C 
HETATM    3  C5  UNL     1     -34.543  14.137  -3.585  1.00 20.00     0.058 C 
HETATM    4  C6  UNL     1     -35.092  14.248  -5.655  1.00 20.00     0.058 C 
HETATM    5  C9  UNL     1     -35.662  14.869  -4.360  1.00 20.00     0.246 C 
HETATM    6  N10 UNL     1     -38.128  14.323  -3.742  1.00 20.00    -0.194 NA
ENDROOT
BRANCH   5   7
HETATM    7  N11 UNL     1     -35.397  16.312  -4.355  1.00 20.00     0.112 N 
HETATM    8  C7  UNL     1     -36.285  17.007  -5.288  1.00 20.00     0.275 C 
HETATM    9  C3  UNL     1     -36.203  18.453  -4.824  1.00 20.00     0.032 C 
HETATM   10  C4  UNL     1     -35.814  18.378  -3.350  1.00 20.00     0.032 C 
HETATM   11  C8  UNL     1     -35.699  16.892  -3.045  1.00 20.00     0.275 C 
ENDBRANCH   5   7
TORSDOF 1
ENDMDL
