MODEL 1
REMARK VINA RESULT:      -4.4      0.000      0.000
REMARK  4 active torsions:
REMARK  status: ('A' for Active; 'I' for Inactive)
REMARK    1  A    between atoms: C5_5  and  C6_6 
REMARK    2  A    between atoms: C5_5  and  C7_7 
REMARK    3  A    between atoms: C6_6  and  C8_8 
REMARK    4  A    between atoms: C7_7  and  O9_9 
ROOT
HETATM    1  C5  UNL     1     -34.540   5.527   3.750  1.00 20.00     0.032 C 
ENDROOT
BRANCH   1   2
HETATM    2  C6  UNL     1     -33.833   6.872   3.983  1.00 20.00     0.011 C 
BRANCH   2   3
HETATM    3  C8  UNL     1     -32.445   7.029   3.306  1.00 20.00    -0.051 C 
HETATM    4  C2  UNL     1     -31.408   7.598   4.288  1.00 20.00     0.014 C 
HETATM    5  C3  UNL     1     -31.973   5.634   2.850  1.00 20.00     0.014 C 
HETATM    6  C4  UNL     1     -32.526   7.943   2.071  1.00 20.00     0.014 C 
ENDBRANCH   2   3
ENDBRANCH   1   2
BRANCH   1   7
HETATM    7  C7  UNL     1     -35.236   5.020   5.020  1.00 20.00     0.114 C 
HETATM    8  C1  UNL     1     -34.490   5.463   6.272  1.00 20.00     0.039 C 
BRANCH   7   9
HETATM    9  O9  UNL     1     -35.281   3.597   4.992  1.00 20.00    -0.396 OA
HETATM   10  H27 UNL     1     -34.361   3.290   5.010  1.00 20.00     0.210 HD
ENDBRANCH   7   9
ENDBRANCH   1   7
TORSDOF 4
ENDMDL
MODEL 2
REMARK VINA RESULT:      -4.3      0.030      1.442
REMARK  4 active torsions:
REMARK  status: ('A' for Active; 'I' for Inactive)
REMARK    1  A    between atoms: C5_5  and  C6_6 
REMARK    2  A    between atoms: C5_5  and  C7_7 
REMARK    3  A    between atoms: C6_6  and  C8_8 
REMARK    4  A    between atoms: C7_7  and  O9_9 
ROOT
HETATM    1  C5  UNL     1     -34.557   5.526   3.742  1.00 20.00     0.032 C 
ENDROOT
BRANCH   1   2
HETATM    2  C6  UNL     1     -33.833   6.864   3.966  1.00 20.00     0.011 C 
BRANCH   2   3
HETATM    3  C8  UNL     1     -32.432   6.989   3.310  1.00 20.00    -0.051 C 
HETATM    4  C2  UNL     1     -31.917   5.623   2.830  1.00 20.00     0.014 C 
HETATM    5  C3  UNL     1     -32.555   7.922   2.089  1.00 20.00     0.014 C 
HETATM    6  C4  UNL     1     -31.411   7.598   4.286  1.00 20.00     0.014 C 
ENDBRANCH   2   3
ENDBRANCH   1   2
BRANCH   1   7
HETATM    7  C7  UNL     1     -35.242   5.027   5.021  1.00 20.00     0.114 C 
HETATM    8  C1  UNL     1     -34.482   5.471   6.264  1.00 20.00     0.039 C 
BRANCH   7   9
HETATM    9  O9  UNL     1     -35.293   3.603   4.999  1.00 20.00    -0.396 OA
HETATM   10  H27 UNL     1     -34.468   3.290   5.402  1.00 20.00     0.210 HD
ENDBRANCH   7   9
ENDBRANCH   1   7
TORSDOF 4
ENDMDL
MODEL 3
REMARK VINA RESULT:      -4.3      0.033      1.446
REMARK  4 active torsions:
REMARK  status: ('A' for Active; 'I' for Inactive)
REMARK    1  A    between atoms: C5_5  and  C6_6 
REMARK    2  A    between atoms: C5_5  and  C7_7 
REMARK    3  A    between atoms: C6_6  and  C8_8 
REMARK    4  A    between atoms: C7_7  and  O9_9 
ROOT
HETATM    1  C5  UNL     1     -34.570   5.547   3.740  1.00 20.00     0.032 C 
ENDROOT
BRANCH   1   2
HETATM    2  C6  UNL     1     -33.814   6.861   3.991  1.00 20.00     0.011 C 
BRANCH   2   3
HETATM    3  C8  UNL     1     -32.438   6.993   3.284  1.00 20.00    -0.051 C 
HETATM    4  C2  UNL     1     -32.524   7.931   2.068  1.00 20.00     0.014 C 
HETATM    5  C3  UNL     1     -31.436   7.590   4.291  1.00 20.00     0.014 C 
HETATM    6  C4  UNL     1     -31.911   5.622   2.828  1.00 20.00     0.014 C 
ENDBRANCH   2   3
ENDBRANCH   1   2
BRANCH   1   7
HETATM    7  C7  UNL     1     -35.245   5.023   5.015  1.00 20.00     0.114 C 
HETATM    8  C1  UNL     1     -34.486   5.462   6.260  1.00 20.00     0.039 C 
BRANCH   7   9
HETATM    9  O9  UNL     1     -35.276   3.600   4.975  1.00 20.00    -0.396 OA
HETATM   10  H27 UNL     1     -36.012   3.323   5.543  1.00 20.00     0.210 HD
ENDBRANCH   7   9
ENDBRANCH   1   7
TORSDOF 4
ENDMDL
MODEL 4
REMARK VINA RESULT:      -4.1     11.218     12.226
REMARK  4 active torsions:
REMARK  status: ('A' for Active; 'I' for Inactive)
REMARK    1  A    between atoms: C5_5  and  C6_6 
REMARK    2  A    between atoms: C5_5  and  C7_7 
REMARK    3  A    between atoms: C6_6  and  C8_8 
REMARK    4  A    between atoms: C7_7  and  O9_9 
ROOT
HETATM    1  C5  UNL     1     -33.698  14.218  -3.859  1.00 20.00     0.032 C 
ENDROOT
BRANCH   1   2
HETATM    2  C6  UNL     1     -34.671  14.728  -2.785  1.00 20.00     0.011 C 
BRANCH   2   3
HETATM    3  C8  UNL     1     -34.726  16.269  -2.603  1.00 20.00    -0.051 C 
HETATM    4  C2  UNL     1     -33.702  16.974  -3.508  1.00 20.00     0.014 C 
HETATM    5  C3  UNL     1     -36.137  16.749  -2.996  1.00 20.00     0.014 C 
HETATM    6  C4  UNL     1     -34.467  16.668  -1.140  1.00 20.00     0.014 C 
ENDBRANCH   2   3
ENDBRANCH   1   2
BRANCH   1   7
HETATM    7  C7  UNL     1     -34.399  13.317  -4.884  1.00 20.00     0.114 C 
HETATM    8  C1  UNL     1     -35.070  14.142  -5.975  1.00 20.00     0.039 C 
BRANCH   7   9
HETATM    9  O9  UNL     1     -35.391  12.538  -4.222  1.00 20.00    -0.396 OA
HETATM   10  H27 UNL     1     -34.996  12.237  -3.389  1.00 20.00     0.210 HD
ENDBRANCH   7   9
ENDBRANCH   1   7
TORSDOF 4
ENDMDL
MODEL 5
REMARK VINA RESULT:      -4.1     11.200     12.189
REMARK  4 active torsions:
REMARK  status: ('A' for Active; 'I' for Inactive)
REMARK    1  A    between atoms: C5_5  and  C6_6 
REMARK    2  A    between atoms: C5_5  and  C7_7 
REMARK    3  A    between atoms: C6_6  and  C8_8 
REMARK    4  A    between atoms: C7_7  and  O9_9 
ROOT
HETATM    1  C5  UNL     1     -33.687  14.249  -3.933  1.00 20.00     0.032 C 
ENDROOT
BRANCH   1   2
HETATM    2  C6  UNL     1     -34.609  14.702  -2.791  1.00 20.00     0.011 C 
BRANCH   2   3
HETATM    3  C8  UNL     1     -34.749  16.237  -2.607  1.00 20.00    -0.051 C 
HETATM    4  C2  UNL     1     -34.487  16.649  -1.149  1.00 20.00     0.014 C 
HETATM    5  C3  UNL     1     -33.701  16.925  -3.504  1.00 20.00     0.014 C 
HETATM    6  C4  UNL     1     -36.145  16.726  -3.027  1.00 20.00     0.014 C 
ENDBRANCH   2   3
ENDBRANCH   1   2
BRANCH   1   7
HETATM    7  C7  UNL     1     -34.416  13.336  -4.929  1.00 20.00     0.114 C 
HETATM    8  C1  UNL     1     -35.133  14.150  -5.999  1.00 20.00     0.039 C 
BRANCH   7   9
HETATM    9  O9  UNL     1     -35.378  12.553  -4.228  1.00 20.00    -0.396 OA
HETATM   10  H27 UNL     1     -35.771  11.949  -4.878  1.00 20.00     0.210 HD
ENDBRANCH   7   9
ENDBRANCH   1   7
TORSDOF 4
ENDMDL
MODEL 6
REMARK VINA RESULT:      -4.1      2.192      4.226
REMARK  4 active torsions:
REMARK  status: ('A' for Active; 'I' for Inactive)
REMARK    1  A    between atoms: C5_5  and  C6_6 
REMARK    2  A    between atoms: C5_5  and  C7_7 
REMARK    3  A    between atoms: C6_6  and  C8_8 
REMARK    4  A    between atoms: C7_7  and  O9_9 
ROOT
HETATM    1  C5  UNL     1     -33.024   6.226   2.836  1.00 20.00     0.032 C 
ENDROOT
BRANCH   1   2
HETATM    2  C6  UNL     1     -33.012   5.429   4.149  1.00 20.00     0.011 C 
BRANCH   2   3
HETATM    3  C8  UNL     1     -34.362   5.370   4.914  1.00 20.00    -0.051 C 
HETATM    4  C2  UNL     1     -34.594   3.981   5.530  1.00 20.00     0.014 C 
HETATM    5  C3  UNL     1     -34.312   6.408   6.054  1.00 20.00     0.014 C 
HETATM    6  C4  UNL     1     -35.543   5.718   3.992  1.00 20.00     0.014 C 
ENDBRANCH   2   3
ENDBRANCH   1   2
BRANCH   1   7
HETATM    7  C7  UNL     1     -32.430   7.629   3.013  1.00 20.00     0.114 C 
HETATM    8  C1  UNL     1     -31.998   8.218   1.677  1.00 20.00     0.039 C 
BRANCH   7   9
HETATM    9  O9  UNL     1     -31.293   7.551   3.869  1.00 20.00    -0.396 OA
HETATM   10  H27 UNL     1     -30.584   8.051   3.435  1.00 20.00     0.210 HD
ENDBRANCH   7   9
ENDBRANCH   1   7
TORSDOF 4
ENDMDL
MODEL 7
REMARK VINA RESULT:      -4.1      2.194      4.225
REMARK  4 active torsions:
REMARK  status: ('A' for Active; 'I' for Inactive)
REMARK    1  A    between atoms: C5_5  and  C6_6 
REMARK    2  A    between atoms: C5_5  and  C7_7 
REMARK    3  A    between atoms: C6_6  and  C8_8 
REMARK    4  A    between atoms: C7_7  and  O9_9 
ROOT
HETATM    1  C5  UNL     1     -33.046   6.253   2.848  1.00 20.00     0.032 C 
ENDROOT
BRANCH   1   2
HETATM    2  C6  UNL     1     -32.989   5.448   4.155  1.00 20.00     0.011 C 
BRANCH   2   3
HETATM    3  C8  UNL     1     -34.309   5.391   4.970  1.00 20.00    -0.051 C 
HETATM    4  C2  UNL     1     -34.300   6.414   6.117  1.00 20.00     0.014 C 
HETATM    5  C3  UNL     1     -35.474   5.733   4.019  1.00 20.00     0.014 C 
HETATM    6  C4  UNL     1     -34.550   3.986   5.547  1.00 20.00     0.014 C 
ENDBRANCH   2   3
ENDBRANCH   1   2
BRANCH   1   7
HETATM    7  C7  UNL     1     -32.427   7.648   3.009  1.00 20.00     0.114 C 
HETATM    8  C1  UNL     1     -31.982   8.212   1.666  1.00 20.00     0.039 C 
BRANCH   7   9
HETATM    9  O9  UNL     1     -31.294   7.560   3.867  1.00 20.00    -0.396 OA
HETATM   10  H27 UNL     1     -30.529   7.857   3.349  1.00 20.00     0.210 HD
ENDBRANCH   7   9
ENDBRANCH   1   7
TORSDOF 4
ENDMDL
MODEL 8
REMARK VINA RESULT:      -3.6     11.221     13.006
REMARK  4 active torsions:
REMARK  status: ('A' for Active; 'I' for Inactive)
REMARK    1  A    between atoms: C5_5  and  C6_6 
REMARK    2  A    between atoms: C5_5  and  C7_7 
REMARK    3  A    between atoms: C6_6  and  C8_8 
REMARK    4  A    between atoms: C7_7  and  O9_9 
ROOT
HETATM    1  C5  UNL     1     -35.274  13.814  -4.121  1.00 20.00     0.032 C 
ENDROOT
BRANCH   1   2
HETATM    2  C6  UNL     1     -34.863  13.713  -5.598  1.00 20.00     0.011 C 
BRANCH   2   3
HETATM    3  C8  UNL     1     -35.291  14.902  -6.500  1.00 20.00    -0.051 C 
HETATM    4  C2  UNL     1     -35.654  14.425  -7.915  1.00 20.00     0.014 C 
HETATM    5  C3  UNL     1     -36.537  15.557  -5.870  1.00 20.00     0.014 C 
HETATM    6  C4  UNL     1     -34.180  15.961  -6.593  1.00 20.00     0.014 C 
ENDBRANCH   2   3
ENDBRANCH   1   2
BRANCH   1   7
HETATM    7  C7  UNL     1     -34.092  14.207  -3.224  1.00 20.00     0.114 C 
HETATM    8  C1  UNL     1     -34.180  15.669  -2.805  1.00 20.00     0.039 C 
BRANCH   7   9
HETATM    9  O9  UNL     1     -32.876  14.007  -3.939  1.00 20.00    -0.396 OA
HETATM   10  H27 UNL     1     -33.062  14.220  -4.867  1.00 20.00     0.210 HD
ENDBRANCH   7   9
ENDBRANCH   1   7
TORSDOF 4
ENDMDL
MODEL 9
REMARK VINA RESULT:      -3.6     11.374     12.706
REMARK  4 active torsions:
REMARK  status: ('A' for Active; 'I' for Inactive)
REMARK    1  A    between atoms: C5_5  and  C6_6 
REMARK    2  A    between atoms: C5_5  and  C7_7 
REMARK    3  A    between atoms: C6_6  and  C8_8 
REMARK    4  A    between atoms: C7_7  and  O9_9 
ROOT
HETATM    1  C5  UNL     1     -33.630  16.511  -3.401  1.00 20.00     0.032 C 
ENDROOT
BRANCH   1   2
HETATM    2  C6  UNL     1     -34.317  16.288  -2.045  1.00 20.00     0.011 C 
BRANCH   2   3
HETATM    3  C8  UNL     1     -34.587  17.567  -1.207  1.00 20.00    -0.051 C 
HETATM    4  C2  UNL     1     -35.810  18.333  -1.738  1.00 20.00     0.014 C 
HETATM    5  C3  UNL     1     -34.872  17.137   0.246  1.00 20.00     0.014 C 
HETATM    6  C4  UNL     1     -33.366  18.502  -1.207  1.00 20.00     0.014 C 
ENDBRANCH   2   3
ENDBRANCH   1   2
BRANCH   1   7
HETATM    7  C7  UNL     1     -33.239  15.186  -4.069  1.00 20.00     0.114 C 
HETATM    8  C1  UNL     1     -34.019  14.020  -3.478  1.00 20.00     0.039 C 
BRANCH   7   9
HETATM    9  O9  UNL     1     -31.847  14.955  -3.870  1.00 20.00    -0.396 OA
HETATM   10  H27 UNL     1     -31.458  15.807  -3.615  1.00 20.00     0.210 HD
ENDBRANCH   7   9
ENDBRANCH   1   7
TORSDOF 4
ENDMDL
