MODEL 1
REMARK VINA RESULT:      -4.7      0.000      0.000
REMARK  3 active torsions:
REMARK  status: ('A' for Active; 'I' for Inactive)
REMARK    1  A    between atoms: C1_1  and  C6_6 
REMARK    2  A    between atoms: C1_1  and  O9_9 
REMARK    3  A    between atoms: C6_6  and  C7_7 
ROOT
HETATM    1  C2  UNL     1     -34.981   5.501   3.325  1.00 20.00     0.021 C 
HETATM    2  C6  UNL     1     -33.983   6.336   4.131  1.00 20.00     0.085 C 
ENDROOT
BRANCH   2   3
HETATM    3  C1  UNL     1     -32.657   6.396   3.387  1.00 20.00     0.262 C 
HETATM    4  O8  UNL     1     -32.081   5.423   2.915  1.00 20.00    -0.265 OA
BRANCH   3   5
HETATM    5  O9  UNL     1     -32.223   7.688   3.323  1.00 20.00    -0.326 OA
HETATM    6  C5  UNL     1     -32.073   8.224   2.004  1.00 20.00     0.213 C 
ENDBRANCH   3   5
ENDBRANCH   2   3
BRANCH   2   7
HETATM    7  C7  UNL     1     -33.832   5.831   5.587  1.00 20.00    -0.010 C 
HETATM    8  C3  UNL     1     -34.917   4.842   6.023  1.00 20.00     0.010 C 
HETATM    9  C4  UNL     1     -33.762   6.993   6.583  1.00 20.00     0.010 C 
ENDBRANCH   2   7
TORSDOF 3
ENDMDL
MODEL 2
REMARK VINA RESULT:      -4.1     11.259     12.012
REMARK  3 active torsions:
REMARK  status: ('A' for Active; 'I' for Inactive)
REMARK    1  A    between atoms: C1_1  and  C6_6 
REMARK    2  A    between atoms: C1_1  and  O9_9 
REMARK    3  A    between atoms: C6_6  and  C7_7 
ROOT
HETATM    1  C2  UNL     1     -32.585  14.755  -3.611  1.00 20.00     0.021 C 
HETATM    2  C6  UNL     1     -34.060  14.358  -3.507  1.00 20.00     0.085 C 
ENDROOT
BRANCH   2   3
HETATM    3  C1  UNL     1     -34.480  13.638  -4.781  1.00 20.00     0.262 C 
HETATM    4  O8  UNL     1     -34.905  12.491  -4.822  1.00 20.00    -0.265 OA
BRANCH   3   5
HETATM    5  O9  UNL     1     -34.320  14.468  -5.853  1.00 20.00    -0.326 OA
HETATM    6  C5  UNL     1     -35.319  14.361  -6.872  1.00 20.00     0.213 C 
ENDBRANCH   3   5
ENDBRANCH   2   3
BRANCH   2   7
HETATM    7  C7  UNL     1     -34.973  15.562  -3.170  1.00 20.00    -0.010 C 
HETATM    8  C3  UNL     1     -34.714  16.177  -1.791  1.00 20.00     0.010 C 
HETATM    9  C4  UNL     1     -36.456  15.202  -3.305  1.00 20.00     0.010 C 
ENDBRANCH   2   7
TORSDOF 3
ENDMDL
MODEL 3
REMARK VINA RESULT:      -4.1     11.394     12.179
REMARK  3 active torsions:
REMARK  status: ('A' for Active; 'I' for Inactive)
REMARK    1  A    between atoms: C1_1  and  C6_6 
REMARK    2  A    between atoms: C1_1  and  O9_9 
REMARK    3  A    between atoms: C6_6  and  C7_7 
ROOT
HETATM    1  C2  UNL     1     -36.768  14.811  -3.800  1.00 20.00     0.021 C 
HETATM    2  C6  UNL     1     -35.318  14.851  -4.287  1.00 20.00     0.085 C 
ENDROOT
BRANCH   2   3
HETATM    3  C1  UNL     1     -35.053  13.650  -5.184  1.00 20.00     0.262 C 
HETATM    4  O8  UNL     1     -34.723  12.541  -4.780  1.00 20.00    -0.265 OA
BRANCH   3   5
HETATM    5  O9  UNL     1     -35.248  13.997  -6.489  1.00 20.00    -0.326 OA
HETATM    6  C5  UNL     1     -34.430  15.068  -6.971  1.00 20.00     0.213 C 
ENDBRANCH   3   5
ENDBRANCH   2   3
BRANCH   2   7
HETATM    7  C7  UNL     1     -34.306  14.964  -3.121  1.00 20.00    -0.010 C 
HETATM    8  C3  UNL     1     -34.693  15.991  -2.053  1.00 20.00     0.010 C 
HETATM    9  C4  UNL     1     -32.890  15.255  -3.629  1.00 20.00     0.010 C 
ENDBRANCH   2   7
TORSDOF 3
ENDMDL
MODEL 4
REMARK VINA RESULT:      -4.1     11.336     12.123
REMARK  3 active torsions:
REMARK  status: ('A' for Active; 'I' for Inactive)
REMARK    1  A    between atoms: C1_1  and  C6_6 
REMARK    2  A    between atoms: C1_1  and  O9_9 
REMARK    3  A    between atoms: C6_6  and  C7_7 
ROOT
HETATM    1  C2  UNL     1     -33.120  15.955  -4.324  1.00 20.00     0.021 C 
HETATM    2  C6  UNL     1     -33.822  14.773  -3.651  1.00 20.00     0.085 C 
ENDROOT
BRANCH   2   3
HETATM    3  C1  UNL     1     -34.362  13.831  -4.718  1.00 20.00     0.262 C 
HETATM    4  O8  UNL     1     -34.825  12.720  -4.494  1.00 20.00    -0.265 OA
BRANCH   3   5
HETATM    5  O9  UNL     1     -34.258  14.419  -5.945  1.00 20.00    -0.326 OA
HETATM    6  C5  UNL     1     -35.414  14.310  -6.782  1.00 20.00     0.213 C 
ENDBRANCH   3   5
ENDBRANCH   2   3
BRANCH   2   7
HETATM    7  C7  UNL     1     -34.908  15.226  -2.645  1.00 20.00    -0.010 C 
HETATM    8  C3  UNL     1     -36.212  15.695  -3.300  1.00 20.00     0.010 C 
HETATM    9  C4  UNL     1     -34.385  16.312  -1.700  1.00 20.00     0.010 C 
ENDBRANCH   2   7
TORSDOF 3
ENDMDL
MODEL 5
REMARK VINA RESULT:      -3.9     11.346     12.788
REMARK  3 active torsions:
REMARK  status: ('A' for Active; 'I' for Inactive)
REMARK    1  A    between atoms: C1_1  and  C6_6 
REMARK    2  A    between atoms: C1_1  and  O9_9 
REMARK    3  A    between atoms: C6_6  and  C7_7 
ROOT
HETATM    1  C2  UNL     1     -34.223  15.302  -2.824  1.00 20.00     0.021 C 
HETATM    2  C6  UNL     1     -34.974  15.113  -4.144  1.00 20.00     0.085 C 
ENDROOT
BRANCH   2   3
HETATM    3  C1  UNL     1     -35.596  13.724  -4.176  1.00 20.00     0.262 C 
HETATM    4  O8  UNL     1     -34.989  12.697  -4.451  1.00 20.00    -0.265 OA
BRANCH   3   5
HETATM    5  O9  UNL     1     -36.918  13.804  -3.846  1.00 20.00    -0.326 OA
HETATM    6  C5  UNL     1     -37.549  15.058  -4.124  1.00 20.00     0.213 C 
ENDBRANCH   3   5
ENDBRANCH   2   3
BRANCH   2   7
HETATM    7  C7  UNL     1     -34.082  15.399  -5.376  1.00 20.00    -0.010 C 
HETATM    8  C3  UNL     1     -33.325  16.729  -5.307  1.00 20.00     0.010 C 
HETATM    9  C4  UNL     1     -34.882  15.327  -6.681  1.00 20.00     0.010 C 
ENDBRANCH   2   7
TORSDOF 3
ENDMDL
MODEL 6
REMARK VINA RESULT:      -3.8     11.372     12.263
REMARK  3 active torsions:
REMARK  status: ('A' for Active; 'I' for Inactive)
REMARK    1  A    between atoms: C1_1  and  C6_6 
REMARK    2  A    between atoms: C1_1  and  O9_9 
REMARK    3  A    between atoms: C6_6  and  C7_7 
ROOT
HETATM    1  C2  UNL     1     -33.641  13.919  -3.760  1.00 20.00     0.021 C 
HETATM    2  C6  UNL     1     -34.947  14.587  -3.323  1.00 20.00     0.085 C 
ENDROOT
BRANCH   2   3
HETATM    3  C1  UNL     1     -36.015  14.347  -4.381  1.00 20.00     0.262 C 
HETATM    4  O8  UNL     1     -35.834  14.453  -5.587  1.00 20.00    -0.265 OA
BRANCH   3   5
HETATM    5  O9  UNL     1     -37.187  13.992  -3.779  1.00 20.00    -0.326 OA
HETATM    6  C5  UNL     1     -38.232  14.967  -3.838  1.00 20.00     0.213 C 
ENDBRANCH   3   5
ENDBRANCH   2   3
BRANCH   2   7
HETATM    7  C7  UNL     1     -34.759  16.087  -2.989  1.00 20.00    -0.010 C 
HETATM    8  C3  UNL     1     -33.592  16.752  -3.725  1.00 20.00     0.010 C 
HETATM    9  C4  UNL     1     -34.618  16.316  -1.481  1.00 20.00     0.010 C 
ENDBRANCH   2   7
TORSDOF 3
ENDMDL
MODEL 7
REMARK VINA RESULT:      -3.7     11.070     12.197
REMARK  3 active torsions:
REMARK  status: ('A' for Active; 'I' for Inactive)
REMARK    1  A    between atoms: C1_1  and  C6_6 
REMARK    2  A    between atoms: C1_1  and  O9_9 
REMARK    3  A    between atoms: C6_6  and  C7_7 
ROOT
HETATM    1  C2  UNL     1     -33.119  16.102  -4.432  1.00 20.00     0.021 C 
HETATM    2  C6  UNL     1     -33.726  15.669  -3.096  1.00 20.00     0.085 C 
ENDROOT
BRANCH   2   3
HETATM    3  C1  UNL     1     -34.613  14.451  -3.315  1.00 20.00     0.262 C 
HETATM    4  O8  UNL     1     -34.201  13.302  -3.418  1.00 20.00    -0.265 OA
BRANCH   3   5
HETATM    5  O9  UNL     1     -35.921  14.837  -3.370  1.00 20.00    -0.326 OA
HETATM    6  C5  UNL     1     -36.580  14.610  -4.619  1.00 20.00     0.213 C 
ENDBRANCH   3   5
ENDBRANCH   2   3
BRANCH   2   7
HETATM    7  C7  UNL     1     -34.463  16.826  -2.380  1.00 20.00    -0.010 C 
HETATM    8  C3  UNL     1     -33.887  18.214  -2.675  1.00 20.00     0.010 C 
HETATM    9  C4  UNL     1     -34.526  16.604  -0.865  1.00 20.00     0.010 C 
ENDBRANCH   2   7
TORSDOF 3
ENDMDL
MODEL 8
REMARK VINA RESULT:      -3.6     11.758     12.909
REMARK  3 active torsions:
REMARK  status: ('A' for Active; 'I' for Inactive)
REMARK    1  A    between atoms: C1_1  and  C6_6 
REMARK    2  A    between atoms: C1_1  and  O9_9 
REMARK    3  A    between atoms: C6_6  and  C7_7 
ROOT
HETATM    1  C2  UNL     1     -34.477  15.020  -6.849  1.00 20.00     0.021 C 
HETATM    2  C6  UNL     1     -34.245  14.762  -5.358  1.00 20.00     0.085 C 
ENDROOT
BRANCH   2   3
HETATM    3  C1  UNL     1     -35.329  13.831  -4.832  1.00 20.00     0.262 C 
HETATM    4  O8  UNL     1     -35.116  12.751  -4.295  1.00 20.00    -0.265 OA
BRANCH   3   5
HETATM    5  O9  UNL     1     -36.557  14.388  -5.043  1.00 20.00    -0.326 OA
HETATM    6  C5  UNL     1     -37.330  14.641  -3.865  1.00 20.00     0.213 C 
ENDBRANCH   3   5
ENDBRANCH   2   3
BRANCH   2   7
HETATM    7  C7  UNL     1     -34.132  16.072  -4.543  1.00 20.00    -0.010 C 
HETATM    8  C3  UNL     1     -33.359  17.188  -5.253  1.00 20.00     0.010 C 
HETATM    9  C4  UNL     1     -33.526  15.825  -3.157  1.00 20.00     0.010 C 
ENDBRANCH   2   7
TORSDOF 3
ENDMDL
MODEL 9
REMARK VINA RESULT:      -3.6     11.500     12.540
REMARK  3 active torsions:
REMARK  status: ('A' for Active; 'I' for Inactive)
REMARK    1  A    between atoms: C1_1  and  C6_6 
REMARK    2  A    between atoms: C1_1  and  O9_9 
REMARK    3  A    between atoms: C6_6  and  C7_7 
ROOT
HETATM    1  C2  UNL     1     -34.512  14.860  -6.787  1.00 20.00     0.021 C 
HETATM    2  C6  UNL     1     -34.826  14.865  -5.289  1.00 20.00     0.085 C 
ENDROOT
BRANCH   2   3
HETATM    3  C1  UNL     1     -34.331  13.567  -4.666  1.00 20.00     0.262 C 
HETATM    4  O8  UNL     1     -34.822  12.465  -4.875  1.00 20.00    -0.265 OA
BRANCH   3   5
HETATM    5  O9  UNL     1     -33.264  13.823  -3.855  1.00 20.00    -0.326 OA
HETATM    6  C5  UNL     1     -32.944  15.206  -3.673  1.00 20.00     0.213 C 
ENDBRANCH   3   5
ENDBRANCH   2   3
BRANCH   2   7
HETATM    7  C7  UNL     1     -36.321  15.137  -5.000  1.00 20.00    -0.010 C 
HETATM    8  C3  UNL     1     -36.851  16.439  -5.610  1.00 20.00     0.010 C 
HETATM    9  C4  UNL     1     -36.620  15.112  -3.498  1.00 20.00     0.010 C 
ENDBRANCH   2   7
TORSDOF 3
ENDMDL
