MODEL 1
REMARK VINA RESULT:      -4.7      0.000      0.000
REMARK  2 active torsions:
REMARK  status: ('A' for Active; 'I' for Inactive)
REMARK    1  A    between atoms: C3_3  and  C10_10 
REMARK    2  A    between atoms: C7_7  and  C10_10 
ROOT
HETATM    1  C1  UNL     1     -33.657  18.097  -3.016  1.00 20.00    -0.024 C 
HETATM    2  C2  UNL     1     -33.887  17.746  -1.740  1.00 20.00    -0.087 C 
HETATM    3  C4  UNL     1     -33.934  17.202  -4.189  1.00 20.00     0.032 C 
HETATM    4  C5  UNL     1     -34.483  16.409  -1.375  1.00 20.00     0.034 C 
HETATM    5  C6  UNL     1     -35.079  15.654  -2.568  1.00 20.00     0.010 C 
HETATM    6  C7  UNL     1     -34.160  15.735  -3.791  1.00 20.00    -0.001 C 
HETATM    7  C8  UNL     1     -33.563  18.659  -0.594  1.00 20.00     0.043 C 
ENDROOT
BRANCH   6   8
HETATM    8  C10 UNL     1     -34.728  14.937  -4.962  1.00 20.00     0.047 C 
HETATM    9  C9  UNL     1     -34.257  15.510  -6.291  1.00 20.00     0.017 C 
BRANCH   8  10
HETATM   10  C3  UNL     1     -34.334  13.482  -4.803  1.00 20.00     0.235 C 
HETATM   11  O11 UNL     1     -35.071  12.604  -4.366  1.00 20.00    -0.306 OA
ENDBRANCH   8  10
ENDBRANCH   6   8
TORSDOF 2
ENDMDL
MODEL 2
REMARK VINA RESULT:      -4.7      0.397      1.562
REMARK  2 active torsions:
REMARK  status: ('A' for Active; 'I' for Inactive)
REMARK    1  A    between atoms: C3_3  and  C10_10 
REMARK    2  A    between atoms: C7_7  and  C10_10 
ROOT
HETATM    1  C1  UNL     1     -34.432  16.274  -1.573  1.00 20.00    -0.024 C 
HETATM    2  C2  UNL     1     -33.928  17.500  -1.790  1.00 20.00    -0.087 C 
HETATM    3  C4  UNL     1     -34.801  15.319  -2.670  1.00 20.00     0.032 C 
HETATM    4  C5  UNL     1     -33.658  18.017  -3.180  1.00 20.00     0.034 C 
HETATM    5  C6  UNL     1     -33.703  16.932  -4.261  1.00 20.00     0.010 C 
HETATM    6  C7  UNL     1     -34.893  15.990  -4.051  1.00 20.00    -0.001 C 
HETATM    7  C8  UNL     1     -33.605  18.437  -0.663  1.00 20.00     0.043 C 
ENDROOT
BRANCH   6   8
HETATM    8  C10 UNL     1     -34.970  14.942  -5.158  1.00 20.00     0.047 C 
HETATM    9  C9  UNL     1     -34.287  15.437  -6.426  1.00 20.00     0.017 C 
BRANCH   8  10
HETATM   10  C3  UNL     1     -34.358  13.649  -4.655  1.00 20.00     0.235 C 
HETATM   11  O11 UNL     1     -34.803  12.531  -4.889  1.00 20.00    -0.306 OA
ENDBRANCH   8  10
ENDBRANCH   6   8
TORSDOF 2
ENDMDL
MODEL 3
REMARK VINA RESULT:      -4.6      2.757      5.316
REMARK  2 active torsions:
REMARK  status: ('A' for Active; 'I' for Inactive)
REMARK    1  A    between atoms: C3_3  and  C10_10 
REMARK    2  A    between atoms: C7_7  and  C10_10 
ROOT
HETATM    1  C1  UNL     1     -34.656  15.647  -2.575  1.00 20.00    -0.024 C 
HETATM    2  C2  UNL     1     -34.213  16.145  -3.742  1.00 20.00    -0.087 C 
HETATM    3  C4  UNL     1     -34.578  16.385  -1.271  1.00 20.00     0.032 C 
HETATM    4  C5  UNL     1     -33.618  17.527  -3.844  1.00 20.00     0.034 C 
HETATM    5  C6  UNL     1     -33.858  18.395  -2.605  1.00 20.00     0.010 C 
HETATM    6  C7  UNL     1     -33.632  17.597  -1.317  1.00 20.00    -0.001 C 
HETATM    7  C8  UNL     1     -34.279  15.358  -5.017  1.00 20.00     0.043 C 
ENDROOT
BRANCH   6   8
HETATM    8  C10 UNL     1     -33.818  18.476  -0.083  1.00 20.00     0.047 C 
HETATM    9  C9  UNL     1     -34.731  17.804   0.933  1.00 20.00     0.017 C 
BRANCH   8  10
HETATM   10  C3  UNL     1     -32.457  18.793   0.504  1.00 20.00     0.235 C 
HETATM   11  O11 UNL     1     -31.511  19.246  -0.133  1.00 20.00    -0.306 OA
ENDBRANCH   8  10
ENDBRANCH   6   8
TORSDOF 2
ENDMDL
MODEL 4
REMARK VINA RESULT:      -4.4      2.720      5.019
REMARK  2 active torsions:
REMARK  status: ('A' for Active; 'I' for Inactive)
REMARK    1  A    between atoms: C3_3  and  C10_10 
REMARK    2  A    between atoms: C7_7  and  C10_10 
ROOT
HETATM    1  C1  UNL     1     -35.829  14.919  -3.497  1.00 20.00    -0.024 C 
HETATM    2  C2  UNL     1     -34.693  14.378  -3.968  1.00 20.00    -0.087 C 
HETATM    3  C4  UNL     1     -35.867  16.017  -2.474  1.00 20.00     0.032 C 
HETATM    4  C5  UNL     1     -33.335  14.860  -3.523  1.00 20.00     0.034 C 
HETATM    5  C6  UNL     1     -33.372  16.190  -2.763  1.00 20.00     0.010 C 
HETATM    6  C7  UNL     1     -34.524  16.220  -1.754  1.00 20.00    -0.001 C 
HETATM    7  C8  UNL     1     -34.701  13.256  -4.965  1.00 20.00     0.043 C 
ENDROOT
BRANCH   6   8
HETATM    8  C10 UNL     1     -34.528  17.522  -0.958  1.00 20.00     0.047 C 
HETATM    9  C9  UNL     1     -35.095  17.307   0.438  1.00 20.00     0.017 C 
BRANCH   8  10
HETATM   10  C3  UNL     1     -33.117  18.077  -0.914  1.00 20.00     0.235 C 
HETATM   11  O11 UNL     1     -32.604  18.598   0.070  1.00 20.00    -0.306 OA
ENDBRANCH   8  10
ENDBRANCH   6   8
TORSDOF 2
ENDMDL
MODEL 5
REMARK VINA RESULT:      -4.4      1.265      1.552
REMARK  2 active torsions:
REMARK  status: ('A' for Active; 'I' for Inactive)
REMARK    1  A    between atoms: C3_3  and  C10_10 
REMARK    2  A    between atoms: C7_7  and  C10_10 
ROOT
HETATM    1  C1  UNL     1     -34.185  16.510  -1.554  1.00 20.00    -0.024 C 
HETATM    2  C2  UNL     1     -35.234  17.323  -1.342  1.00 20.00    -0.087 C 
HETATM    3  C4  UNL     1     -34.014  15.679  -2.792  1.00 20.00     0.032 C 
HETATM    4  C5  UNL     1     -36.330  17.495  -2.363  1.00 20.00     0.034 C 
HETATM    5  C6  UNL     1     -35.980  16.929  -3.744  1.00 20.00     0.010 C 
HETATM    6  C7  UNL     1     -35.300  15.562  -3.626  1.00 20.00    -0.001 C 
HETATM    7  C8  UNL     1     -35.384  18.111  -0.074  1.00 20.00     0.043 C 
ENDROOT
BRANCH   6   8
HETATM    8  C10 UNL     1     -35.002  14.973  -5.002  1.00 20.00     0.047 C 
HETATM    9  C9  UNL     1     -34.071  15.881  -5.794  1.00 20.00     0.017 C 
BRANCH   8  10
HETATM   10  C3  UNL     1     -34.420  13.584  -4.828  1.00 20.00     0.235 C 
HETATM   11  O11 UNL     1     -35.037  12.621  -4.384  1.00 20.00    -0.306 OA
ENDBRANCH   8  10
ENDBRANCH   6   8
TORSDOF 2
ENDMDL
MODEL 6
REMARK VINA RESULT:      -4.4      2.171      4.659
REMARK  2 active torsions:
REMARK  status: ('A' for Active; 'I' for Inactive)
REMARK    1  A    between atoms: C3_3  and  C10_10 
REMARK    2  A    between atoms: C7_7  and  C10_10 
ROOT
HETATM    1  C1  UNL     1     -35.201  14.748  -4.352  1.00 20.00    -0.024 C 
HETATM    2  C2  UNL     1     -34.592  15.152  -5.480  1.00 20.00    -0.087 C 
HETATM    3  C4  UNL     1     -34.945  15.357  -3.005  1.00 20.00     0.032 C 
HETATM    4  C5  UNL     1     -33.608  16.293  -5.491  1.00 20.00     0.034 C 
HETATM    5  C6  UNL     1     -33.615  17.126  -4.204  1.00 20.00     0.010 C 
HETATM    6  C7  UNL     1     -33.679  16.229  -2.964  1.00 20.00    -0.001 C 
HETATM    7  C8  UNL     1     -34.851  14.491  -6.803  1.00 20.00     0.043 C 
ENDROOT
BRANCH   6   8
HETATM    8  C10 UNL     1     -33.631  17.055  -1.682  1.00 20.00     0.047 C 
HETATM    9  C9  UNL     1     -33.723  18.543  -1.988  1.00 20.00     0.017 C 
BRANCH   8  10
HETATM   10  C3  UNL     1     -34.746  16.598  -0.761  1.00 20.00     0.235 C 
HETATM   11  O11 UNL     1     -34.983  17.085   0.340  1.00 20.00    -0.306 OA
ENDBRANCH   8  10
ENDBRANCH   6   8
TORSDOF 2
ENDMDL
MODEL 7
REMARK VINA RESULT:      -4.2      2.174      2.789
REMARK  2 active torsions:
REMARK  status: ('A' for Active; 'I' for Inactive)
REMARK    1  A    between atoms: C3_3  and  C10_10 
REMARK    2  A    between atoms: C7_7  and  C10_10 
ROOT
HETATM    1  C1  UNL     1     -33.698  16.947  -3.455  1.00 20.00    -0.024 C 
HETATM    2  C2  UNL     1     -34.523  16.230  -2.674  1.00 20.00    -0.087 C 
HETATM    3  C4  UNL     1     -33.568  16.744  -4.936  1.00 20.00     0.032 C 
HETATM    4  C5  UNL     1     -35.427  15.162  -3.237  1.00 20.00     0.034 C 
HETATM    5  C6  UNL     1     -35.548  15.199  -4.764  1.00 20.00     0.010 C 
HETATM    6  C7  UNL     1     -34.183  15.421  -5.422  1.00 20.00    -0.001 C 
HETATM    7  C8  UNL     1     -34.597  16.443  -1.190  1.00 20.00     0.043 C 
ENDROOT
BRANCH   6   8
HETATM    8  C10 UNL     1     -34.294  15.403  -6.944  1.00 20.00     0.047 C 
HETATM    9  C9  UNL     1     -35.361  14.417  -7.401  1.00 20.00     0.017 C 
BRANCH   8  10
HETATM   10  C3  UNL     1     -34.579  16.809  -7.434  1.00 20.00     0.235 C 
HETATM   11  O11 UNL     1     -35.683  17.216  -7.780  1.00 20.00    -0.306 OA
ENDBRANCH   8  10
ENDBRANCH   6   8
TORSDOF 2
ENDMDL
MODEL 8
REMARK VINA RESULT:      -4.2      1.442      2.334
REMARK  2 active torsions:
REMARK  status: ('A' for Active; 'I' for Inactive)
REMARK    1  A    between atoms: C3_3  and  C10_10 
REMARK    2  A    between atoms: C7_7  and  C10_10 
ROOT
HETATM    1  C1  UNL     1     -34.551  16.046  -1.918  1.00 20.00    -0.024 C 
HETATM    2  C2  UNL     1     -34.104  17.293  -2.143  1.00 20.00    -0.087 C 
HETATM    3  C4  UNL     1     -34.670  14.999  -2.987  1.00 20.00     0.032 C 
HETATM    4  C5  UNL     1     -33.647  17.743  -3.507  1.00 20.00     0.034 C 
HETATM    5  C6  UNL     1     -33.440  16.593  -4.498  1.00 20.00     0.010 C 
HETATM    6  C7  UNL     1     -34.581  15.575  -4.410  1.00 20.00    -0.001 C 
HETATM    7  C8  UNL     1     -34.035  18.320  -1.051  1.00 20.00     0.043 C 
ENDROOT
BRANCH   6   8
HETATM    8  C10 UNL     1     -34.404  14.458  -5.436  1.00 20.00     0.047 C 
HETATM    9  C9  UNL     1     -34.703  13.099  -4.819  1.00 20.00     0.017 C 
BRANCH   8  10
HETATM   10  C3  UNL     1     -35.291  14.742  -6.631  1.00 20.00     0.235 C 
HETATM   11  O11 UNL     1     -34.907  14.758  -7.796  1.00 20.00    -0.306 OA
ENDBRANCH   8  10
ENDBRANCH   6   8
TORSDOF 2
ENDMDL
MODEL 9
REMARK VINA RESULT:      -4.2      1.753      3.764
REMARK  2 active torsions:
REMARK  status: ('A' for Active; 'I' for Inactive)
REMARK    1  A    between atoms: C3_3  and  C10_10 
REMARK    2  A    between atoms: C7_7  and  C10_10 
ROOT
HETATM    1  C1  UNL     1     -33.587  18.402  -5.567  1.00 20.00    -0.024 C 
HETATM    2  C2  UNL     1     -33.938  18.141  -6.837  1.00 20.00    -0.087 C 
HETATM    3  C4  UNL     1     -33.661  17.392  -4.459  1.00 20.00     0.032 C 
HETATM    4  C5  UNL     1     -34.415  16.778  -7.269  1.00 20.00     0.034 C 
HETATM    5  C6  UNL     1     -34.159  15.678  -6.233  1.00 20.00     0.010 C 
HETATM    6  C7  UNL     1     -34.503  16.158  -4.820  1.00 20.00    -0.001 C 
HETATM    7  C8  UNL     1     -33.881  19.191  -7.908  1.00 20.00     0.043 C 
ENDROOT
BRANCH   6   8
HETATM    8  C10 UNL     1     -34.301  15.045  -3.795  1.00 20.00     0.047 C 
HETATM    9  C9  UNL     1     -34.465  15.574  -2.377  1.00 20.00     0.017 C 
BRANCH   8  10
HETATM   10  C3  UNL     1     -35.270  13.919  -4.093  1.00 20.00     0.235 C 
HETATM   11  O11 UNL     1     -34.944  12.752  -4.288  1.00 20.00    -0.306 OA
ENDBRANCH   8  10
ENDBRANCH   6   8
TORSDOF 2
ENDMDL
