MODEL 1
REMARK VINA RESULT:      -4.8      0.000      0.000
REMARK  1 active torsions:
REMARK  status: ('A' for Active; 'I' for Inactive)
REMARK    1  A    between atoms: C5_5  and  C10_10 
ROOT
HETATM    1  C1  UNL     1     -33.341   6.914   5.272  1.00 20.00    -0.018 C 
HETATM    2  C2  UNL     1     -33.727   5.951   6.121  1.00 20.00    -0.025 C 
HETATM    3  C3  UNL     1     -34.167   5.547   3.356  1.00 20.00     0.135 C 
HETATM    4  C4  UNL     1     -35.135   4.897   4.318  1.00 20.00     0.087 C 
HETATM    5  C5  UNL     1     -33.577   6.891   3.787  1.00 20.00     0.081 C 
HETATM    6  C6  UNL     1     -34.483   4.721   5.693  1.00 20.00     0.010 C 
HETATM    7  C7  UNL     1     -35.545   4.349   6.729  1.00 20.00     0.014 C 
HETATM    8  O11 UNL     1     -33.948   5.053   2.250  1.00 20.00    -0.297 OA
ENDROOT
BRANCH   5   9
HETATM    9  C10 UNL     1     -32.279   7.176   3.037  1.00 20.00    -0.008 C 
HETATM   10  C8  UNL     1     -32.490   8.264   1.985  1.00 20.00     0.010 C 
HETATM   11  C9  UNL     1     -31.171   7.581   4.010  1.00 20.00     0.010 C 
ENDBRANCH   5   9
TORSDOF 1
ENDMDL
MODEL 2
REMARK VINA RESULT:      -4.8     11.785     12.631
REMARK  1 active torsions:
REMARK  status: ('A' for Active; 'I' for Inactive)
REMARK    1  A    between atoms: C5_5  and  C10_10 
ROOT
HETATM    1  C1  UNL     1     -33.872  15.846  -4.194  1.00 20.00    -0.018 C 
HETATM    2  C2  UNL     1     -33.508  16.089  -2.927  1.00 20.00    -0.025 C 
HETATM    3  C3  UNL     1     -36.214  15.444  -3.437  1.00 20.00     0.135 C 
HETATM    4  C4  UNL     1     -35.923  16.348  -2.262  1.00 20.00     0.087 C 
HETATM    5  C5  UNL     1     -35.281  15.571  -4.642  1.00 20.00     0.081 C 
HETATM    6  C6  UNL     1     -34.482  16.150  -1.780  1.00 20.00     0.010 C 
HETATM    7  C7  UNL     1     -34.102  17.264  -0.804  1.00 20.00     0.014 C 
HETATM    8  O11 UNL     1     -37.208  14.717  -3.445  1.00 20.00    -0.297 OA
ENDROOT
BRANCH   5   9
HETATM    9  C10 UNL     1     -35.331  14.310  -5.500  1.00 20.00    -0.008 C 
HETATM   10  C8  UNL     1     -34.840  14.600  -6.918  1.00 20.00     0.010 C 
HETATM   11  C9  UNL     1     -34.503  13.192  -4.866  1.00 20.00     0.010 C 
ENDBRANCH   5   9
TORSDOF 1
ENDMDL
MODEL 3
REMARK VINA RESULT:      -4.7     11.391     13.193
REMARK  1 active torsions:
REMARK  status: ('A' for Active; 'I' for Inactive)
REMARK    1  A    between atoms: C5_5  and  C10_10 
ROOT
HETATM    1  C1  UNL     1     -35.412  16.281  -5.240  1.00 20.00    -0.018 C 
HETATM    2  C2  UNL     1     -34.597  16.721  -4.271  1.00 20.00    -0.025 C 
HETATM    3  C3  UNL     1     -34.999  13.932  -4.513  1.00 20.00     0.135 C 
HETATM    4  C4  UNL     1     -34.706  14.477  -3.134  1.00 20.00     0.087 C 
HETATM    5  C5  UNL     1     -35.795  14.842  -5.449  1.00 20.00     0.081 C 
HETATM    6  C6  UNL     1     -33.977  15.820  -3.235  1.00 20.00     0.010 C 
HETATM    7  C7  UNL     1     -33.952  16.503  -1.867  1.00 20.00     0.014 C 
HETATM    8  O11 UNL     1     -34.689  12.780  -4.817  1.00 20.00    -0.297 OA
ENDROOT
BRANCH   5   9
HETATM    9  C10 UNL     1     -35.579  14.440  -6.906  1.00 20.00    -0.008 C 
HETATM   10  C8  UNL     1     -36.766  14.869  -7.767  1.00 20.00     0.010 C 
HETATM   11  C9  UNL     1     -34.281  15.042  -7.446  1.00 20.00     0.010 C 
ENDBRANCH   5   9
TORSDOF 1
ENDMDL
MODEL 4
REMARK VINA RESULT:      -4.3     12.038     13.247
REMARK  1 active torsions:
REMARK  status: ('A' for Active; 'I' for Inactive)
REMARK    1  A    between atoms: C5_5  and  C10_10 
ROOT
HETATM    1  C1  UNL     1     -33.826  16.307  -4.024  1.00 20.00    -0.018 C 
HETATM    2  C2  UNL     1     -33.948  16.309  -5.360  1.00 20.00    -0.025 C 
HETATM    3  C3  UNL     1     -35.843  14.850  -3.850  1.00 20.00     0.135 C 
HETATM    4  C4  UNL     1     -35.524  14.349  -5.239  1.00 20.00     0.087 C 
HETATM    5  C5  UNL     1     -34.698  15.517  -3.087  1.00 20.00     0.081 C 
HETATM    6  C6  UNL     1     -34.967  15.486  -6.102  1.00 20.00     0.010 C 
HETATM    7  C7  UNL     1     -34.372  14.917  -7.391  1.00 20.00     0.014 C 
HETATM    8  O11 UNL     1     -36.944  14.641  -3.339  1.00 20.00    -0.297 OA
ENDROOT
BRANCH   5   9
HETATM    9  C10 UNL     1     -35.238  16.416  -1.978  1.00 20.00    -0.008 C 
HETATM   10  C8  UNL     1     -34.121  16.823  -1.019  1.00 20.00     0.010 C 
HETATM   11  C9  UNL     1     -35.913  17.655  -2.568  1.00 20.00     0.010 C 
ENDBRANCH   5   9
TORSDOF 1
ENDMDL
MODEL 5
REMARK VINA RESULT:      -4.3     12.014     13.341
REMARK  1 active torsions:
REMARK  status: ('A' for Active; 'I' for Inactive)
REMARK    1  A    between atoms: C5_5  and  C10_10 
ROOT
HETATM    1  C1  UNL     1     -36.020  15.442  -3.937  1.00 20.00    -0.018 C 
HETATM    2  C2  UNL     1     -35.985  16.117  -2.778  1.00 20.00    -0.025 C 
HETATM    3  C3  UNL     1     -33.645  16.071  -4.367  1.00 20.00     0.135 C 
HETATM    4  C4  UNL     1     -33.469  16.183  -2.870  1.00 20.00     0.087 C 
HETATM    5  C5  UNL     1     -34.842  15.252  -4.853  1.00 20.00     0.081 C 
HETATM    6  C6  UNL     1     -34.737  16.752  -2.225  1.00 20.00     0.010 C 
HETATM    7  C7  UNL     1     -34.669  16.583  -0.707  1.00 20.00     0.014 C 
HETATM    8  O11 UNL     1     -32.809  16.540  -5.139  1.00 20.00    -0.297 OA
ENDROOT
BRANCH   5   9
HETATM    9  C10 UNL     1     -35.213  15.634  -6.283  1.00 20.00    -0.008 C 
HETATM   10  C8  UNL     1     -34.821  14.525  -7.258  1.00 20.00     0.010 C 
HETATM   11  C9  UNL     1     -36.708  15.936  -6.391  1.00 20.00     0.010 C 
ENDBRANCH   5   9
TORSDOF 1
ENDMDL
MODEL 6
REMARK VINA RESULT:      -4.3     12.107     12.946
REMARK  1 active torsions:
REMARK  status: ('A' for Active; 'I' for Inactive)
REMARK    1  A    between atoms: C5_5  and  C10_10 
ROOT
HETATM    1  C1  UNL     1     -33.636  15.914  -2.689  1.00 20.00    -0.018 C 
HETATM    2  C2  UNL     1     -33.546  15.633  -3.997  1.00 20.00    -0.025 C 
HETATM    3  C3  UNL     1     -36.078  16.345  -2.956  1.00 20.00     0.135 C 
HETATM    4  C4  UNL     1     -36.050  15.407  -4.141  1.00 20.00     0.087 C 
HETATM    5  C5  UNL     1     -34.918  16.227  -1.967  1.00 20.00     0.081 C 
HETATM    6  C6  UNL     1     -34.738  15.565  -4.915  1.00 20.00     0.010 C 
HETATM    7  C7  UNL     1     -34.585  14.420  -5.919  1.00 20.00     0.014 C 
HETATM    8  O11 UNL     1     -37.038  17.091  -2.763  1.00 20.00    -0.297 OA
ENDROOT
BRANCH   5   9
HETATM    9  C10 UNL     1     -34.770  17.509  -1.152  1.00 20.00    -0.008 C 
HETATM   10  C8  UNL     1     -34.966  17.229   0.337  1.00 20.00     0.010 C 
HETATM   11  C9  UNL     1     -33.406  18.152  -1.400  1.00 20.00     0.010 C 
ENDBRANCH   5   9
TORSDOF 1
ENDMDL
MODEL 7
REMARK VINA RESULT:      -4.2     11.414     13.572
REMARK  1 active torsions:
REMARK  status: ('A' for Active; 'I' for Inactive)
REMARK    1  A    between atoms: C5_5  and  C10_10 
ROOT
HETATM    1  C1  UNL     1     -35.566  15.215  -6.254  1.00 20.00    -0.018 C 
HETATM    2  C2  UNL     1     -34.587  14.424  -5.791  1.00 20.00    -0.025 C 
HETATM    3  C3  UNL     1     -36.955  14.653  -4.260  1.00 20.00     0.135 C 
HETATM    4  C4  UNL     1     -35.666  14.387  -3.516  1.00 20.00     0.087 C 
HETATM    5  C5  UNL     1     -36.847  15.508  -5.523  1.00 20.00     0.081 C 
HETATM    6  C6  UNL     1     -34.635  13.744  -4.448  1.00 20.00     0.010 C 
HETATM    7  C7  UNL     1     -33.256  13.755  -3.785  1.00 20.00     0.014 C 
HETATM    8  O11 UNL     1     -38.035  14.273  -3.810  1.00 20.00    -0.297 OA
ENDROOT
BRANCH   5   9
HETATM    9  C10 UNL     1     -38.047  15.274  -6.438  1.00 20.00    -0.008 C 
HETATM   10  C8  UNL     1     -39.003  16.464  -6.389  1.00 20.00     0.010 C 
HETATM   11  C9  UNL     1     -37.589  15.014  -7.873  1.00 20.00     0.010 C 
ENDBRANCH   5   9
TORSDOF 1
ENDMDL
MODEL 8
REMARK VINA RESULT:      -4.2      9.887     11.127
REMARK  1 active torsions:
REMARK  status: ('A' for Active; 'I' for Inactive)
REMARK    1  A    between atoms: C5_5  and  C10_10 
ROOT
HETATM    1  C1  UNL     1     -41.550   4.572  -1.177  1.00 20.00    -0.018 C 
HETATM    2  C2  UNL     1     -41.163   3.513  -1.902  1.00 20.00    -0.025 C 
HETATM    3  C3  UNL     1     -43.043   5.294  -3.041  1.00 20.00     0.135 C 
HETATM    4  C4  UNL     1     -43.111   3.844  -3.464  1.00 20.00     0.087 C 
HETATM    5  C5  UNL     1     -42.599   5.563  -1.602  1.00 20.00     0.081 C 
HETATM    6  C6  UNL     1     -41.759   3.159  -3.239  1.00 20.00     0.010 C 
HETATM    7  C7  UNL     1     -41.914   1.644  -3.380  1.00 20.00     0.014 C 
HETATM    8  O11 UNL     1     -43.417   6.191  -3.796  1.00 20.00    -0.297 OA
ENDROOT
BRANCH   5   9
HETATM    9  C10 UNL     1     -42.074   6.989  -1.457  1.00 20.00    -0.008 C 
HETATM   10  C8  UNL     1     -43.133   7.893  -0.829  1.00 20.00     0.010 C 
HETATM   11  C9  UNL     1     -40.792   7.011  -0.625  1.00 20.00     0.010 C 
ENDBRANCH   5   9
TORSDOF 1
ENDMDL
MODEL 9
REMARK VINA RESULT:      -4.1     11.634     13.206
REMARK  1 active torsions:
REMARK  status: ('A' for Active; 'I' for Inactive)
REMARK    1  A    between atoms: C5_5  and  C10_10 
ROOT
HETATM    1  C1  UNL     1     -34.554  17.261  -4.453  1.00 20.00    -0.018 C 
HETATM    2  C2  UNL     1     -33.896  17.596  -3.334  1.00 20.00    -0.025 C 
HETATM    3  C3  UNL     1     -34.950  14.978  -3.530  1.00 20.00     0.135 C 
HETATM    4  C4  UNL     1     -34.847  15.587  -2.150  1.00 20.00     0.087 C 
HETATM    5  C5  UNL     1     -35.243  15.943  -4.679  1.00 20.00     0.081 C 
HETATM    6  C6  UNL     1     -33.788  16.694  -2.133  1.00 20.00     0.010 C 
HETATM    7  C7  UNL     1     -33.897  17.499  -0.837  1.00 20.00     0.014 C 
HETATM    8  O11 UNL     1     -34.892  13.759  -3.689  1.00 20.00    -0.297 OA
ENDROOT
BRANCH   5   9
HETATM    9  C10 UNL     1     -34.813  15.340  -6.014  1.00 20.00    -0.008 C 
HETATM   10  C8  UNL     1     -36.017  14.771  -6.763  1.00 20.00     0.010 C 
HETATM   11  C9  UNL     1     -34.094  16.382  -6.871  1.00 20.00     0.010 C 
ENDBRANCH   5   9
TORSDOF 1
ENDMDL
