MODEL 1
REMARK VINA RESULT:      -4.0      0.000      0.000
REMARK  2 active torsions:
REMARK  status: ('A' for Active; 'I' for Inactive)
REMARK    1  A    between atoms: C1_1  and  O6_6 
REMARK    2  A    between atoms: C4_4  and  O6_6 
ROOT
HETATM    1  O6  UNL     1     -33.757   6.673   3.884  1.00 20.00    -0.301 OA
ENDROOT
BRANCH   1   2
HETATM    2  C1  UNL     1     -32.602   6.559   3.169  1.00 20.00     0.256 C 
HETATM    3  C2  UNL     1     -32.301   7.865   2.498  1.00 20.00     0.126 C 
HETATM    4  O5  UNL     1     -31.899   5.563   3.074  1.00 20.00    -0.266 OA
ENDBRANCH   1   2
BRANCH   1   5
HETATM    5  C4  UNL     1     -34.011   5.673   4.884  1.00 20.00     0.223 C 
HETATM    6  C3  UNL     1     -35.313   4.949   4.582  1.00 20.00     0.057 C 
HETATM    7 CL7  UNL     1     -34.137   6.498   6.461  1.00 20.00    -0.095 Cl
ENDBRANCH   1   5
TORSDOF 2
ENDMDL
MODEL 2
REMARK VINA RESULT:      -3.9      2.160      3.629
REMARK  2 active torsions:
REMARK  status: ('A' for Active; 'I' for Inactive)
REMARK    1  A    between atoms: C1_1  and  O6_6 
REMARK    2  A    between atoms: C4_4  and  O6_6 
ROOT
HETATM    1  O6  UNL     1     -34.145   6.643   4.588  1.00 20.00    -0.301 OA
ENDROOT
BRANCH   1   2
HETATM    2  C1  UNL     1     -34.073   6.316   5.910  1.00 20.00     0.256 C 
HETATM    3  C2  UNL     1     -34.741   4.993   6.133  1.00 20.00     0.126 C 
HETATM    4  O5  UNL     1     -33.552   6.977   6.797  1.00 20.00    -0.266 OA
ENDBRANCH   1   2
BRANCH   1   5
HETATM    5  C4  UNL     1     -33.217   5.996   3.702  1.00 20.00     0.223 C 
HETATM    6  C3  UNL     1     -32.302   7.025   3.060  1.00 20.00     0.057 C 
HETATM    7 CL7  UNL     1     -34.160   5.163   2.437  1.00 20.00    -0.095 Cl
ENDBRANCH   1   5
TORSDOF 2
ENDMDL
MODEL 3
REMARK VINA RESULT:      -3.9      1.576      1.862
REMARK  2 active torsions:
REMARK  status: ('A' for Active; 'I' for Inactive)
REMARK    1  A    between atoms: C1_1  and  O6_6 
REMARK    2  A    between atoms: C4_4  and  O6_6 
ROOT
HETATM    1  O6  UNL     1     -33.218   5.648   4.562  1.00 20.00    -0.301 OA
ENDROOT
BRANCH   1   2
HETATM    2  C1  UNL     1     -33.360   5.934   3.237  1.00 20.00     0.256 C 
HETATM    3  C2  UNL     1     -32.419   7.039   2.863  1.00 20.00     0.126 C 
HETATM    4  O5  UNL     1     -34.124   5.391   2.452  1.00 20.00    -0.266 OA
ENDBRANCH   1   2
BRANCH   1   5
HETATM    5  C4  UNL     1     -34.368   5.845   5.402  1.00 20.00     0.223 C 
HETATM    6  C3  UNL     1     -33.995   6.685   6.612  1.00 20.00     0.057 C 
HETATM    7 CL7  UNL     1     -34.933   4.240   5.939  1.00 20.00    -0.095 Cl
ENDBRANCH   1   5
TORSDOF 2
ENDMDL
MODEL 4
REMARK VINA RESULT:      -3.7      2.283      3.555
REMARK  2 active torsions:
REMARK  status: ('A' for Active; 'I' for Inactive)
REMARK    1  A    between atoms: C1_1  and  O6_6 
REMARK    2  A    between atoms: C4_4  and  O6_6 
ROOT
HETATM    1  O6  UNL     1     -33.433   5.504   4.886  1.00 20.00    -0.301 OA
ENDROOT
BRANCH   1   2
HETATM    2  C1  UNL     1     -34.233   5.697   5.972  1.00 20.00     0.256 C 
HETATM    3  C2  UNL     1     -35.093   4.488   6.179  1.00 20.00     0.126 C 
HETATM    4  O5  UNL     1     -34.265   6.690   6.686  1.00 20.00    -0.266 OA
ENDBRANCH   1   2
BRANCH   1   5
HETATM    5  C4  UNL     1     -33.719   6.285   3.714  1.00 20.00     0.223 C 
HETATM    6  C3  UNL     1     -34.400   5.423   2.663  1.00 20.00     0.057 C 
HETATM    7 CL7  UNL     1     -32.170   6.896   3.073  1.00 20.00    -0.095 Cl
ENDBRANCH   1   5
TORSDOF 2
ENDMDL
MODEL 5
REMARK VINA RESULT:      -3.5      2.290      3.493
REMARK  2 active torsions:
REMARK  status: ('A' for Active; 'I' for Inactive)
REMARK    1  A    between atoms: C1_1  and  O6_6 
REMARK    2  A    between atoms: C4_4  and  O6_6 
ROOT
HETATM    1  O6  UNL     1     -34.156   6.634   4.647  1.00 20.00    -0.301 OA
ENDROOT
BRANCH   1   2
HETATM    2  C1  UNL     1     -34.202   6.200   5.939  1.00 20.00     0.256 C 
HETATM    3  C2  UNL     1     -33.535   7.208   6.826  1.00 20.00     0.126 C 
HETATM    4  O5  UNL     1     -34.702   5.159   6.341  1.00 20.00    -0.266 OA
ENDBRANCH   1   2
BRANCH   1   5
HETATM    5  C4  UNL     1     -33.231   5.975   3.767  1.00 20.00     0.223 C 
HETATM    6  C3  UNL     1     -32.287   6.991   3.145  1.00 20.00     0.057 C 
HETATM    7 CL7  UNL     1     -34.174   5.172   2.484  1.00 20.00    -0.095 Cl
ENDBRANCH   1   5
TORSDOF 2
ENDMDL
MODEL 6
REMARK VINA RESULT:      -3.5     11.155     11.797
REMARK  2 active torsions:
REMARK  status: ('A' for Active; 'I' for Inactive)
REMARK    1  A    between atoms: C1_1  and  O6_6 
REMARK    2  A    between atoms: C4_4  and  O6_6 
ROOT
HETATM    1  O6  UNL     1     -34.368  14.414  -3.219  1.00 20.00    -0.301 OA
ENDROOT
BRANCH   1   2
HETATM    2  C1  UNL     1     -35.207  13.685  -4.008  1.00 20.00     0.256 C 
HETATM    3  C2  UNL     1     -36.537  14.371  -4.087  1.00 20.00     0.126 C 
HETATM    4  O5  UNL     1     -34.945  12.634  -4.575  1.00 20.00    -0.266 OA
ENDBRANCH   1   2
BRANCH   1   5
HETATM    5  C4  UNL     1     -34.636  15.820  -3.101  1.00 20.00     0.223 C 
HETATM    6  C3  UNL     1     -33.551  16.621  -3.802  1.00 20.00     0.057 C 
HETATM    7 CL7  UNL     1     -34.653  16.229  -1.364  1.00 20.00    -0.095 Cl
ENDBRANCH   1   5
TORSDOF 2
ENDMDL
MODEL 7
REMARK VINA RESULT:      -3.4      1.434      3.386
REMARK  2 active torsions:
REMARK  status: ('A' for Active; 'I' for Inactive)
REMARK    1  A    between atoms: C1_1  and  O6_6 
REMARK    2  A    between atoms: C4_4  and  O6_6 
ROOT
HETATM    1  O6  UNL     1     -33.829   5.330   3.935  1.00 20.00    -0.301 OA
ENDROOT
BRANCH   1   2
HETATM    2  C1  UNL     1     -35.084   4.985   4.342  1.00 20.00     0.256 C 
HETATM    3  C2  UNL     1     -34.988   3.992   5.460  1.00 20.00     0.126 C 
HETATM    4  O5  UNL     1     -36.139   5.404   3.888  1.00 20.00    -0.266 OA
ENDBRANCH   1   2
BRANCH   1   5
HETATM    5  C4  UNL     1     -33.422   6.691   4.148  1.00 20.00     0.223 C 
HETATM    6  C3  UNL     1     -32.061   6.935   3.515  1.00 20.00     0.057 C 
HETATM    7 CL7  UNL     1     -33.319   6.961   5.908  1.00 20.00    -0.095 Cl
ENDBRANCH   1   5
TORSDOF 2
ENDMDL
MODEL 8
REMARK VINA RESULT:      -3.4     11.411     11.958
REMARK  2 active torsions:
REMARK  status: ('A' for Active; 'I' for Inactive)
REMARK    1  A    between atoms: C1_1  and  O6_6 
REMARK    2  A    between atoms: C4_4  and  O6_6 
ROOT
HETATM    1  O6  UNL     1     -35.337  14.721  -4.076  1.00 20.00    -0.301 OA
ENDROOT
BRANCH   1   2
HETATM    2  C1  UNL     1     -35.067  13.754  -4.997  1.00 20.00     0.256 C 
HETATM    3  C2  UNL     1     -35.118  14.347  -6.372  1.00 20.00     0.126 C 
HETATM    4  O5  UNL     1     -34.817  12.578  -4.768  1.00 20.00    -0.266 OA
ENDBRANCH   1   2
BRANCH   1   5
HETATM    5  C4  UNL     1     -34.392  14.891  -3.007  1.00 20.00     0.223 C 
HETATM    6  C3  UNL     1     -34.802  16.061  -2.127  1.00 20.00     0.057 C 
HETATM    7 CL7  UNL     1     -32.797  15.220  -3.735  1.00 20.00    -0.095 Cl
ENDBRANCH   1   5
TORSDOF 2
ENDMDL
MODEL 9
REMARK VINA RESULT:      -3.3     11.800     13.032
REMARK  2 active torsions:
REMARK  status: ('A' for Active; 'I' for Inactive)
REMARK    1  A    between atoms: C1_1  and  O6_6 
REMARK    2  A    between atoms: C4_4  and  O6_6 
ROOT
HETATM    1  O6  UNL     1     -34.952  14.784  -5.087  1.00 20.00    -0.301 OA
ENDROOT
BRANCH   1   2
HETATM    2  C1  UNL     1     -34.540  13.654  -4.446  1.00 20.00     0.256 C 
HETATM    3  C2  UNL     1     -33.250  13.928  -3.733  1.00 20.00     0.126 C 
HETATM    4  O5  UNL     1     -35.111  12.573  -4.436  1.00 20.00    -0.266 OA
ENDBRANCH   1   2
BRANCH   1   5
HETATM    5  C4  UNL     1     -34.385  15.048  -6.381  1.00 20.00     0.223 C 
HETATM    6  C3  UNL     1     -34.284  16.547  -6.612  1.00 20.00     0.057 C 
HETATM    7 CL7  UNL     1     -35.461  14.325  -7.606  1.00 20.00    -0.095 Cl
ENDBRANCH   1   5
TORSDOF 2
ENDMDL
