MODEL 1
REMARK VINA RESULT:      -4.8      0.000      0.000
REMARK  2 active torsions:
REMARK  status: ('A' for Active; 'I' for Inactive)
REMARK    1  A    between atoms: C2_2  and  C5_5 
REMARK    2  A    between atoms: C5_5  and  C6_6 
ROOT
HETATM    1  C1  UNL     1     -34.759   4.571   5.218  1.00 20.00     0.223 C 
HETATM    2  C2  UNL     1     -34.278   5.784   5.167  1.00 20.00    -0.030 C 
HETATM    3  C3  UNL     1     -33.957   6.565   6.411  1.00 20.00     0.048 C 
HETATM    4  O7  UNL     1     -35.192   3.479   5.263  1.00 20.00    -0.284 OA
ENDROOT
BRANCH   2   5
HETATM    5  C5  UNL     1     -34.017   6.485   3.854  1.00 20.00     0.037 C 
BRANCH   5   6
HETATM    6  C6  UNL     1     -32.563   6.337   3.400  1.00 20.00    -0.000 C 
HETATM    7  C4  UNL     1     -32.091   7.567   2.641  1.00 20.00     0.005 C 
ENDBRANCH   5   6
ENDBRANCH   2   5
TORSDOF 2
ENDMDL
MODEL 2
REMARK VINA RESULT:      -4.7      1.693      2.126
REMARK  2 active torsions:
REMARK  status: ('A' for Active; 'I' for Inactive)
REMARK    1  A    between atoms: C2_2  and  C5_5 
REMARK    2  A    between atoms: C5_5  and  C6_6 
ROOT
HETATM    1  C1  UNL     1     -33.980   6.402   6.052  1.00 20.00     0.223 C 
HETATM    2  C2  UNL     1     -34.343   5.532   5.149  1.00 20.00    -0.030 C 
HETATM    3  C3  UNL     1     -34.966   4.216   5.518  1.00 20.00     0.048 C 
HETATM    4  O7  UNL     1     -33.652   7.187   6.865  1.00 20.00    -0.284 OA
ENDROOT
BRANCH   2   5
HETATM    5  C5  UNL     1     -34.155   5.789   3.671  1.00 20.00     0.037 C 
BRANCH   5   6
HETATM    6  C6  UNL     1     -32.679   5.929   3.293  1.00 20.00    -0.000 C 
HETATM    7  C4  UNL     1     -32.361   7.335   2.809  1.00 20.00     0.005 C 
ENDBRANCH   5   6
ENDBRANCH   2   5
TORSDOF 2
ENDMDL
MODEL 3
REMARK VINA RESULT:      -4.2      2.418      4.033
REMARK  2 active torsions:
REMARK  status: ('A' for Active; 'I' for Inactive)
REMARK    1  A    between atoms: C2_2  and  C5_5 
REMARK    2  A    between atoms: C5_5  and  C6_6 
ROOT
HETATM    1  C1  UNL     1     -32.343   6.960   3.481  1.00 20.00     0.223 C 
HETATM    2  C2  UNL     1     -33.390   6.207   3.684  1.00 20.00    -0.030 C 
HETATM    3  C3  UNL     1     -34.005   5.388   2.584  1.00 20.00     0.048 C 
HETATM    4  O7  UNL     1     -31.399   7.639   3.299  1.00 20.00    -0.284 OA
ENDROOT
BRANCH   2   5
HETATM    5  C5  UNL     1     -34.056   6.113   5.038  1.00 20.00     0.037 C 
BRANCH   5   6
HETATM    6  C6  UNL     1     -35.166   5.061   5.062  1.00 20.00    -0.000 C 
HETATM    7  C4  UNL     1     -34.800   3.888   5.958  1.00 20.00     0.005 C 
ENDBRANCH   5   6
ENDBRANCH   2   5
TORSDOF 2
ENDMDL
MODEL 4
REMARK VINA RESULT:      -4.1      2.085      3.465
REMARK  2 active torsions:
REMARK  status: ('A' for Active; 'I' for Inactive)
REMARK    1  A    between atoms: C2_2  and  C5_5 
REMARK    2  A    between atoms: C5_5  and  C6_6 
ROOT
HETATM    1  C1  UNL     1     -33.241   6.075   3.412  1.00 20.00     0.223 C 
HETATM    2  C2  UNL     1     -34.305   5.573   3.978  1.00 20.00    -0.030 C 
HETATM    3  C3  UNL     1     -35.678   5.759   3.395  1.00 20.00     0.048 C 
HETATM    4  O7  UNL     1     -32.282   6.527   2.903  1.00 20.00    -0.284 OA
ENDROOT
BRANCH   2   5
HETATM    5  C5  UNL     1     -34.228   4.777   5.260  1.00 20.00     0.037 C 
BRANCH   5   6
HETATM    6  C6  UNL     1     -34.661   5.598   6.476  1.00 20.00    -0.000 C 
HETATM    7  C4  UNL     1     -33.816   6.853   6.627  1.00 20.00     0.005 C 
ENDBRANCH   5   6
ENDBRANCH   2   5
TORSDOF 2
ENDMDL
MODEL 5
REMARK VINA RESULT:      -4.1      1.772      3.380
REMARK  2 active torsions:
REMARK  status: ('A' for Active; 'I' for Inactive)
REMARK    1  A    between atoms: C2_2  and  C5_5 
REMARK    2  A    between atoms: C5_5  and  C6_6 
ROOT
HETATM    1  C1  UNL     1     -33.485   6.699   5.451  1.00 20.00     0.223 C 
HETATM    2  C2  UNL     1     -33.384   6.360   4.194  1.00 20.00    -0.030 C 
HETATM    3  C3  UNL     1     -32.270   6.866   3.321  1.00 20.00     0.048 C 
HETATM    4  O7  UNL     1     -33.576   7.004   6.583  1.00 20.00    -0.284 OA
ENDROOT
BRANCH   2   5
HETATM    5  C5  UNL     1     -34.383   5.440   3.532  1.00 20.00     0.037 C 
BRANCH   5   6
HETATM    6  C6  UNL     1     -35.457   4.956   4.510  1.00 20.00    -0.000 C 
HETATM    7  C4  UNL     1     -34.931   3.844   5.405  1.00 20.00     0.005 C 
ENDBRANCH   5   6
ENDBRANCH   2   5
TORSDOF 2
ENDMDL
MODEL 6
REMARK VINA RESULT:      -4.0     11.700     12.182
REMARK  2 active torsions:
REMARK  status: ('A' for Active; 'I' for Inactive)
REMARK    1  A    between atoms: C2_2  and  C5_5 
REMARK    2  A    between atoms: C5_5  and  C6_6 
ROOT
HETATM    1  C1  UNL     1     -34.622  13.604  -4.001  1.00 20.00     0.223 C 
HETATM    2  C2  UNL     1     -34.122  14.677  -3.450  1.00 20.00    -0.030 C 
HETATM    3  C3  UNL     1     -32.699  15.100  -3.680  1.00 20.00     0.048 C 
HETATM    4  O7  UNL     1     -35.073  12.637  -4.497  1.00 20.00    -0.284 OA
ENDROOT
BRANCH   2   5
HETATM    5  C5  UNL     1     -34.941  15.562  -2.538  1.00 20.00     0.037 C 
BRANCH   5   6
HETATM    6  C6  UNL     1     -34.081  16.606  -1.822  1.00 20.00    -0.000 C 
HETATM    7  C4  UNL     1     -34.654  16.955  -0.458  1.00 20.00     0.005 C 
ENDBRANCH   5   6
ENDBRANCH   2   5
TORSDOF 2
ENDMDL
MODEL 7
REMARK VINA RESULT:      -4.0      2.359      3.672
REMARK  2 active torsions:
REMARK  status: ('A' for Active; 'I' for Inactive)
REMARK    1  A    between atoms: C2_2  and  C5_5 
REMARK    2  A    between atoms: C5_5  and  C6_6 
ROOT
HETATM    1  C1  UNL     1     -32.621   6.951   3.321  1.00 20.00     0.223 C 
HETATM    2  C2  UNL     1     -33.521   6.406   4.095  1.00 20.00    -0.030 C 
HETATM    3  C3  UNL     1     -33.633   6.754   5.552  1.00 20.00     0.048 C 
HETATM    4  O7  UNL     1     -31.812   7.443   2.624  1.00 20.00    -0.284 OA
ENDROOT
BRANCH   2   5
HETATM    5  C5  UNL     1     -34.505   5.382   3.576  1.00 20.00     0.037 C 
BRANCH   5   6
HETATM    6  C6  UNL     1     -35.463   4.899   4.668  1.00 20.00    -0.000 C 
HETATM    7  C4  UNL     1     -34.823   3.822   5.529  1.00 20.00     0.005 C 
ENDBRANCH   5   6
ENDBRANCH   2   5
TORSDOF 2
ENDMDL
MODEL 8
REMARK VINA RESULT:      -3.8      3.083      4.408
REMARK  2 active torsions:
REMARK  status: ('A' for Active; 'I' for Inactive)
REMARK    1  A    between atoms: C2_2  and  C5_5 
REMARK    2  A    between atoms: C5_5  and  C6_6 
ROOT
HETATM    1  C1  UNL     1     -32.072   8.183   1.866  1.00 20.00     0.223 C 
HETATM    2  C2  UNL     1     -32.095   7.425   2.929  1.00 20.00    -0.030 C 
HETATM    3  C3  UNL     1     -31.256   7.728   4.139  1.00 20.00     0.048 C 
HETATM    4  O7  UNL     1     -32.053   8.866   0.909  1.00 20.00    -0.284 OA
ENDROOT
BRANCH   2   5
HETATM    5  C5  UNL     1     -32.962   6.190   3.011  1.00 20.00     0.037 C 
BRANCH   5   6
HETATM    6  C6  UNL     1     -33.876   6.207   4.237  1.00 20.00    -0.000 C 
HETATM    7  C4  UNL     1     -35.070   5.284   4.052  1.00 20.00     0.005 C 
ENDBRANCH   5   6
ENDBRANCH   2   5
TORSDOF 2
ENDMDL
MODEL 9
REMARK VINA RESULT:      -3.8     11.855     12.272
REMARK  2 active torsions:
REMARK  status: ('A' for Active; 'I' for Inactive)
REMARK    1  A    between atoms: C2_2  and  C5_5 
REMARK    2  A    between atoms: C5_5  and  C6_6 
ROOT
HETATM    1  C1  UNL     1     -35.016  13.567  -4.194  1.00 20.00     0.223 C 
HETATM    2  C2  UNL     1     -35.289  14.672  -3.554  1.00 20.00    -0.030 C 
HETATM    3  C3  UNL     1     -36.689  15.209  -3.454  1.00 20.00     0.048 C 
HETATM    4  O7  UNL     1     -34.770  12.572  -4.770  1.00 20.00    -0.284 OA
ENDROOT
BRANCH   2   5
HETATM    5  C5  UNL     1     -34.212  15.488  -2.875  1.00 20.00     0.037 C 
BRANCH   5   6
HETATM    6  C6  UNL     1     -34.739  16.224  -1.641  1.00 20.00    -0.000 C 
HETATM    7  C4  UNL     1     -33.750  17.273  -1.157  1.00 20.00     0.005 C 
ENDBRANCH   5   6
ENDBRANCH   2   5
TORSDOF 2
ENDMDL
