MODEL 1
REMARK VINA RESULT:      -5.0      0.000      0.000
REMARK  3 active torsions:
REMARK  status: ('A' for Active; 'I' for Inactive)
REMARK    1  A    between atoms: C4_4  and  C6_6 
REMARK    2  A    between atoms: C6_6  and  C8_8 
REMARK    3  A    between atoms: C7_7  and  C8_8 
ROOT
HETATM    1  C1  UNL     1     -34.418   6.021   6.480  1.00 20.00     0.011 C 
HETATM    2  C2  UNL     1     -33.350   6.457   5.487  1.00 20.00     0.016 C 
HETATM    3  C3  UNL     1     -34.996   4.721   5.945  1.00 20.00     0.074 C 
HETATM    4  C4  UNL     1     -34.004   6.422   4.109  1.00 20.00     0.047 C 
HETATM    5  S9  UNL     1     -35.073   4.945   4.147  1.00 20.00    -0.164 SA
ENDROOT
BRANCH   4   6
HETATM    6  C6  UNL     1     -32.992   6.350   2.979  1.00 20.00     0.015 C 
BRANCH   6   7
HETATM    7  C8  UNL     1     -32.017   7.527   3.024  1.00 20.00     0.001 C 
BRANCH   7   8
HETATM    8  C7  UNL     1     -31.909   8.211   1.662  1.00 20.00    -0.005 C 
HETATM    9  C5  UNL     1     -32.553   9.588   1.678  1.00 20.00     0.005 C 
ENDBRANCH   7   8
ENDBRANCH   6   7
ENDBRANCH   4   6
TORSDOF 3
ENDMDL
MODEL 2
REMARK VINA RESULT:      -4.5      1.175      1.510
REMARK  3 active torsions:
REMARK  status: ('A' for Active; 'I' for Inactive)
REMARK    1  A    between atoms: C4_4  and  C6_6 
REMARK    2  A    between atoms: C6_6  and  C8_8 
REMARK    3  A    between atoms: C7_7  and  C8_8 
ROOT
HETATM    1  C1  UNL     1     -35.019   4.292   5.260  1.00 20.00     0.011 C 
HETATM    2  C2  UNL     1     -34.833   5.073   3.967  1.00 20.00     0.016 C 
HETATM    3  C3  UNL     1     -34.926   5.305   6.389  1.00 20.00     0.074 C 
HETATM    4  C4  UNL     1     -33.566   5.905   4.144  1.00 20.00     0.047 C 
HETATM    5  S9  UNL     1     -33.623   6.460   5.881  1.00 20.00    -0.164 SA
ENDROOT
BRANCH   4   6
HETATM    6  C6  UNL     1     -33.494   7.080   3.186  1.00 20.00     0.015 C 
BRANCH   6   7
HETATM    7  C8  UNL     1     -32.049   7.513   2.936  1.00 20.00     0.001 C 
BRANCH   7   8
HETATM    8  C7  UNL     1     -31.914   8.262   1.611  1.00 20.00    -0.005 C 
HETATM    9  C5  UNL     1     -32.534   9.648   1.689  1.00 20.00     0.005 C 
ENDBRANCH   7   8
ENDBRANCH   6   7
ENDBRANCH   4   6
TORSDOF 3
ENDMDL
MODEL 3
REMARK VINA RESULT:      -4.0     11.088     11.915
REMARK  3 active torsions:
REMARK  status: ('A' for Active; 'I' for Inactive)
REMARK    1  A    between atoms: C4_4  and  C6_6 
REMARK    2  A    between atoms: C6_6  and  C8_8 
REMARK    3  A    between atoms: C7_7  and  C8_8 
ROOT
HETATM    1  C1  UNL     1     -34.471  13.216  -4.836  1.00 20.00     0.011 C 
HETATM    2  C2  UNL     1     -34.310  14.028  -3.558  1.00 20.00     0.016 C 
HETATM    3  C3  UNL     1     -34.840  14.206  -5.928  1.00 20.00     0.074 C 
HETATM    4  C4  UNL     1     -35.570  14.877  -3.425  1.00 20.00     0.047 C 
HETATM    5  S9  UNL     1     -35.955  15.394  -5.131  1.00 20.00    -0.164 SA
ENDROOT
BRANCH   4   6
HETATM    6  C6  UNL     1     -35.379  16.073  -2.509  1.00 20.00     0.015 C 
BRANCH   6   7
HETATM    7  C8  UNL     1     -33.898  16.403  -2.320  1.00 20.00     0.001 C 
BRANCH   7   8
HETATM    8  C7  UNL     1     -33.681  17.311  -1.109  1.00 20.00    -0.005 C 
HETATM    9  C5  UNL     1     -34.792  17.148  -0.085  1.00 20.00     0.005 C 
ENDBRANCH   7   8
ENDBRANCH   6   7
ENDBRANCH   4   6
TORSDOF 3
ENDMDL
MODEL 4
REMARK VINA RESULT:      -4.0     11.254     12.291
REMARK  3 active torsions:
REMARK  status: ('A' for Active; 'I' for Inactive)
REMARK    1  A    between atoms: C4_4  and  C6_6 
REMARK    2  A    between atoms: C6_6  and  C8_8 
REMARK    3  A    between atoms: C7_7  and  C8_8 
ROOT
HETATM    1  C1  UNL     1     -34.541  14.735  -6.288  1.00 20.00     0.011 C 
HETATM    2  C2  UNL     1     -34.441  15.973  -5.408  1.00 20.00     0.016 C 
HETATM    3  C3  UNL     1     -34.872  13.577  -5.361  1.00 20.00     0.074 C 
HETATM    4  C4  UNL     1     -33.495  15.615  -4.266  1.00 20.00     0.047 C 
HETATM    5  S9  UNL     1     -33.907  13.886  -3.857  1.00 20.00    -0.164 SA
ENDROOT
BRANCH   4   6
HETATM    6  C6  UNL     1     -33.656  16.526  -3.062  1.00 20.00     0.015 C 
BRANCH   6   7
HETATM    7  C8  UNL     1     -34.650  15.950  -2.052  1.00 20.00     0.001 C 
BRANCH   7   8
HETATM    8  C7  UNL     1     -34.618  16.728  -0.736  1.00 20.00    -0.005 C 
HETATM    9  C5  UNL     1     -33.519  17.777  -0.736  1.00 20.00     0.005 C 
ENDBRANCH   7   8
ENDBRANCH   6   7
ENDBRANCH   4   6
TORSDOF 3
ENDMDL
MODEL 5
REMARK VINA RESULT:      -3.8     11.073     12.163
REMARK  3 active torsions:
REMARK  status: ('A' for Active; 'I' for Inactive)
REMARK    1  A    between atoms: C4_4  and  C6_6 
REMARK    2  A    between atoms: C6_6  and  C8_8 
REMARK    3  A    between atoms: C7_7  and  C8_8 
ROOT
HETATM    1  C1  UNL     1     -33.687  17.827  -0.951  1.00 20.00     0.011 C 
HETATM    2  C2  UNL     1     -34.447  16.531  -1.189  1.00 20.00     0.016 C 
HETATM    3  C3  UNL     1     -33.907  18.686  -2.185  1.00 20.00     0.074 C 
HETATM    4  C4  UNL     1     -34.012  16.022  -2.560  1.00 20.00     0.047 C 
HETATM    5  S9  UNL     1     -33.863  17.527  -3.579  1.00 20.00    -0.164 SA
ENDROOT
BRANCH   4   6
HETATM    6  C6  UNL     1     -34.999  15.037  -3.162  1.00 20.00     0.015 C 
BRANCH   6   7
HETATM    7  C8  UNL     1     -34.305  13.747  -3.600  1.00 20.00     0.001 C 
BRANCH   7   8
HETATM    8  C7  UNL     1     -34.744  13.329  -5.004  1.00 20.00    -0.005 C 
HETATM    9  C5  UNL     1     -34.641  14.484  -5.986  1.00 20.00     0.005 C 
ENDBRANCH   7   8
ENDBRANCH   6   7
ENDBRANCH   4   6
TORSDOF 3
ENDMDL
MODEL 6
REMARK VINA RESULT:      -3.8     11.119     11.978
REMARK  3 active torsions:
REMARK  status: ('A' for Active; 'I' for Inactive)
REMARK    1  A    between atoms: C4_4  and  C6_6 
REMARK    2  A    between atoms: C6_6  and  C8_8 
REMARK    3  A    between atoms: C7_7  and  C8_8 
ROOT
HETATM    1  C1  UNL     1     -34.730  17.419  -0.008  1.00 20.00     0.011 C 
HETATM    2  C2  UNL     1     -34.777  16.377  -1.116  1.00 20.00     0.016 C 
HETATM    3  C3  UNL     1     -34.779  18.775  -0.693  1.00 20.00     0.074 C 
HETATM    4  C4  UNL     1     -33.694  16.765  -2.118  1.00 20.00     0.047 C 
HETATM    5  S9  UNL     1     -33.764  18.587  -2.183  1.00 20.00    -0.164 SA
ENDROOT
BRANCH   4   6
HETATM    6  C6  UNL     1     -33.913  16.149  -3.488  1.00 20.00     0.015 C 
BRANCH   6   7
HETATM    7  C8  UNL     1     -32.849  15.098  -3.806  1.00 20.00     0.001 C 
BRANCH   7   8
HETATM    8  C7  UNL     1     -33.425  13.684  -3.731  1.00 20.00    -0.005 C 
HETATM    9  C5  UNL     1     -34.911  13.670  -4.054  1.00 20.00     0.005 C 
ENDBRANCH   7   8
ENDBRANCH   6   7
ENDBRANCH   4   6
TORSDOF 3
ENDMDL
MODEL 7
REMARK VINA RESULT:      -3.8     10.995     12.135
REMARK  3 active torsions:
REMARK  status: ('A' for Active; 'I' for Inactive)
REMARK    1  A    between atoms: C4_4  and  C6_6 
REMARK    2  A    between atoms: C6_6  and  C8_8 
REMARK    3  A    between atoms: C7_7  and  C8_8 
ROOT
HETATM    1  C1  UNL     1     -34.976  15.901  -2.204  1.00 20.00     0.011 C 
HETATM    2  C2  UNL     1     -35.490  14.946  -3.271  1.00 20.00     0.016 C 
HETATM    3  C3  UNL     1     -33.684  16.492  -2.745  1.00 20.00     0.074 C 
HETATM    4  C4  UNL     1     -34.323  14.031  -3.629  1.00 20.00     0.047 C 
HETATM    5  S9  UNL     1     -32.862  15.122  -3.603  1.00 20.00    -0.164 SA
ENDROOT
BRANCH   4   6
HETATM    6  C6  UNL     1     -34.494  13.360  -4.980  1.00 20.00     0.015 C 
BRANCH   6   7
HETATM    7  C8  UNL     1     -35.419  14.167  -5.893  1.00 20.00     0.001 C 
BRANCH   7   8
HETATM    8  C7  UNL     1     -34.661  14.726  -7.098  1.00 20.00    -0.005 C 
HETATM    9  C5  UNL     1     -34.277  16.182  -6.888  1.00 20.00     0.005 C 
ENDBRANCH   7   8
ENDBRANCH   6   7
ENDBRANCH   4   6
TORSDOF 3
ENDMDL
MODEL 8
REMARK VINA RESULT:      -3.7     11.093     12.527
REMARK  3 active torsions:
REMARK  status: ('A' for Active; 'I' for Inactive)
REMARK    1  A    between atoms: C4_4  and  C6_6 
REMARK    2  A    between atoms: C6_6  and  C8_8 
REMARK    3  A    between atoms: C7_7  and  C8_8 
ROOT
HETATM    1  C1  UNL     1     -34.157  15.607  -6.671  1.00 20.00     0.011 C 
HETATM    2  C2  UNL     1     -34.012  16.042  -5.221  1.00 20.00     0.016 C 
HETATM    3  C3  UNL     1     -35.187  14.489  -6.681  1.00 20.00     0.074 C 
HETATM    4  C4  UNL     1     -33.768  14.772  -4.412  1.00 20.00     0.047 C 
HETATM    5  S9  UNL     1     -34.850  13.524  -5.184  1.00 20.00    -0.164 SA
ENDROOT
BRANCH   4   6
HETATM    6  C6  UNL     1     -34.080  14.945  -2.936  1.00 20.00     0.015 C 
BRANCH   6   7
HETATM    7  C8  UNL     1     -34.356  16.409  -2.589  1.00 20.00     0.001 C 
BRANCH   7   8
HETATM    8  C7  UNL     1     -34.634  16.584  -1.096  1.00 20.00    -0.005 C 
HETATM    9  C5  UNL     1     -33.755  17.665  -0.489  1.00 20.00     0.005 C 
ENDBRANCH   7   8
ENDBRANCH   6   7
ENDBRANCH   4   6
TORSDOF 3
ENDMDL
MODEL 9
REMARK VINA RESULT:      -3.7     10.949     12.360
REMARK  3 active torsions:
REMARK  status: ('A' for Active; 'I' for Inactive)
REMARK    1  A    between atoms: C4_4  and  C6_6 
REMARK    2  A    between atoms: C6_6  and  C8_8 
REMARK    3  A    between atoms: C7_7  and  C8_8 
ROOT
HETATM    1  C1  UNL     1     -35.666  14.538  -6.874  1.00 20.00     0.011 C 
HETATM    2  C2  UNL     1     -34.553  14.426  -5.842  1.00 20.00     0.016 C 
HETATM    3  C3  UNL     1     -36.777  15.342  -6.219  1.00 20.00     0.074 C 
HETATM    4  C4  UNL     1     -35.205  13.921  -4.558  1.00 20.00     0.047 C 
HETATM    5  S9  UNL     1     -36.813  14.778  -4.496  1.00 20.00    -0.164 SA
ENDROOT
BRANCH   4   6
HETATM    6  C6  UNL     1     -34.371  14.209  -3.322  1.00 20.00     0.015 C 
BRANCH   6   7
HETATM    7  C8  UNL     1     -33.377  15.345  -3.569  1.00 20.00     0.001 C 
BRANCH   7   8
HETATM    8  C7  UNL     1     -33.568  16.480  -2.563  1.00 20.00    -0.005 C 
HETATM    9  C5  UNL     1     -34.723  16.196  -1.616  1.00 20.00     0.005 C 
ENDBRANCH   7   8
ENDBRANCH   6   7
ENDBRANCH   4   6
TORSDOF 3
ENDMDL
