MODEL 1
REMARK VINA RESULT:      -4.3      0.000      0.000
REMARK  5 active torsions:
REMARK  status: ('A' for Active; 'I' for Inactive)
REMARK    1  A    between atoms: C1_1  and  C9_9 
REMARK    2  A    between atoms: C1_1  and  O11_11 
REMARK    3  A    between atoms: C6_6  and  C7_7 
REMARK    4  A    between atoms: C7_7  and  C9_9 
REMARK    5  A    between atoms: C8_8  and  O11_11 
ROOT
HETATM    1  C4  UNL     1     -32.391  14.219  -3.428  1.00 20.00     0.025 C 
HETATM    2  C5  UNL     1     -33.148  16.146  -4.817  1.00 20.00     0.025 C 
HETATM    3  C9  UNL     1     -33.630  14.933  -4.001  1.00 20.00     0.041 C 
ENDROOT
BRANCH   3   4
HETATM    4  C1  UNL     1     -34.363  13.953  -4.925  1.00 20.00     0.266 C 
HETATM    5  O10 UNL     1     -34.813  12.870  -4.568  1.00 20.00    -0.264 OA
BRANCH   4   6
HETATM    6  O11 UNL     1     -34.446  14.458  -6.192  1.00 20.00    -0.321 OA
BRANCH   6   7
HETATM    7  C8  UNL     1     -35.748  14.430  -6.787  1.00 20.00     0.174 C 
HETATM    8  C3  UNL     1     -36.607  15.498  -6.144  1.00 20.00     0.034 C 
ENDBRANCH   6   7
ENDBRANCH   4   6
ENDBRANCH   3   4
BRANCH   3   9
HETATM    9  C7  UNL     1     -34.546  15.382  -2.833  1.00 20.00     0.018 C 
BRANCH   9  10
HETATM   10  C6  UNL     1     -34.025  16.578  -2.027  1.00 20.00    -0.003 C 
HETATM   11  C2  UNL     1     -34.705  16.667  -0.669  1.00 20.00     0.005 C 
ENDBRANCH   9  10
ENDBRANCH   3   9
TORSDOF 5
ENDMDL
MODEL 2
REMARK VINA RESULT:      -4.1      1.496      2.206
REMARK  5 active torsions:
REMARK  status: ('A' for Active; 'I' for Inactive)
REMARK    1  A    between atoms: C1_1  and  C9_9 
REMARK    2  A    between atoms: C1_1  and  O11_11 
REMARK    3  A    between atoms: C6_6  and  C7_7 
REMARK    4  A    between atoms: C7_7  and  C9_9 
REMARK    5  A    between atoms: C8_8  and  O11_11 
ROOT
HETATM    1  C4  UNL     1     -35.710  14.953  -3.610  1.00 20.00     0.025 C 
HETATM    2  C5  UNL     1     -33.491  13.824  -3.733  1.00 20.00     0.025 C 
HETATM    3  C9  UNL     1     -34.191  15.195  -3.685  1.00 20.00     0.041 C 
ENDROOT
BRANCH   3   4
HETATM    4  C1  UNL     1     -33.892  15.967  -4.976  1.00 20.00     0.266 C 
HETATM    5  O10 UNL     1     -32.907  16.676  -5.146  1.00 20.00    -0.264 OA
BRANCH   4   6
HETATM    6  O11 UNL     1     -34.870  15.749  -5.905  1.00 20.00    -0.321 OA
BRANCH   6   7
HETATM    7  C8  UNL     1     -34.435  15.177  -7.143  1.00 20.00     0.174 C 
HETATM    8  C3  UNL     1     -35.581  14.402  -7.757  1.00 20.00     0.034 C 
ENDBRANCH   6   7
ENDBRANCH   4   6
ENDBRANCH   3   4
BRANCH   3   9
HETATM    9  C7  UNL     1     -33.740  16.002  -2.440  1.00 20.00     0.018 C 
BRANCH   9  10
HETATM   10  C6  UNL     1     -34.850  16.295  -1.424  1.00 20.00    -0.003 C 
HETATM   11  C2  UNL     1     -34.378  17.272  -0.358  1.00 20.00     0.005 C 
ENDBRANCH   9  10
ENDBRANCH   3   9
TORSDOF 5
ENDMDL
MODEL 3
REMARK VINA RESULT:      -4.1      1.447      2.427
REMARK  5 active torsions:
REMARK  status: ('A' for Active; 'I' for Inactive)
REMARK    1  A    between atoms: C1_1  and  C9_9 
REMARK    2  A    between atoms: C1_1  and  O11_11 
REMARK    3  A    between atoms: C6_6  and  C7_7 
REMARK    4  A    between atoms: C7_7  and  C9_9 
REMARK    5  A    between atoms: C8_8  and  O11_11 
ROOT
HETATM    1  C4  UNL     1     -33.679  17.349  -4.347  1.00 20.00     0.025 C 
HETATM    2  C5  UNL     1     -35.747  16.418  -3.312  1.00 20.00     0.025 C 
HETATM    3  C9  UNL     1     -34.209  16.425  -3.236  1.00 20.00     0.041 C 
ENDROOT
BRANCH   3   4
HETATM    4  C1  UNL     1     -33.678  15.009  -3.496  1.00 20.00     0.266 C 
HETATM    5  O10 UNL     1     -32.490  14.720  -3.574  1.00 20.00    -0.264 OA
BRANCH   4   6
HETATM    6  O11 UNL     1     -34.710  14.123  -3.621  1.00 20.00    -0.321 OA
BRANCH   6   7
HETATM    7  C8  UNL     1     -34.641  13.243  -4.747  1.00 20.00     0.174 C 
HETATM    8  C3  UNL     1     -35.029  14.008  -5.995  1.00 20.00     0.034 C 
ENDBRANCH   6   7
ENDBRANCH   4   6
ENDBRANCH   3   4
BRANCH   3   9
HETATM    9  C7  UNL     1     -33.727  16.952  -1.860  1.00 20.00     0.018 C 
BRANCH   9  10
HETATM   10  C6  UNL     1     -34.665  16.645  -0.686  1.00 20.00    -0.003 C 
HETATM   11  C2  UNL     1     -34.572  17.717   0.390  1.00 20.00     0.005 C 
ENDBRANCH   9  10
ENDBRANCH   3   9
TORSDOF 5
ENDMDL
MODEL 4
REMARK VINA RESULT:      -4.0      1.910      3.901
REMARK  5 active torsions:
REMARK  status: ('A' for Active; 'I' for Inactive)
REMARK    1  A    between atoms: C1_1  and  C9_9 
REMARK    2  A    between atoms: C1_1  and  O11_11 
REMARK    3  A    between atoms: C6_6  and  C7_7 
REMARK    4  A    between atoms: C7_7  and  C9_9 
REMARK    5  A    between atoms: C8_8  and  O11_11 
ROOT
HETATM    1  C4  UNL     1     -34.438  14.849  -6.596  1.00 20.00     0.025 C 
HETATM    2  C5  UNL     1     -34.565  13.459  -4.531  1.00 20.00     0.025 C 
HETATM    3  C9  UNL     1     -34.669  14.895  -5.074  1.00 20.00     0.041 C 
ENDROOT
BRANCH   3   4
HETATM    4  C1  UNL     1     -33.567  15.760  -4.449  1.00 20.00     0.266 C 
HETATM    5  O10 UNL     1     -32.855  16.534  -5.077  1.00 20.00    -0.264 OA
BRANCH   4   6
HETATM    6  O11 UNL     1     -33.499  15.551  -3.100  1.00 20.00    -0.321 OA
BRANCH   6   7
HETATM    7  C8  UNL     1     -33.669  16.712  -2.282  1.00 20.00     0.174 C 
HETATM    8  C3  UNL     1     -34.692  16.412  -1.206  1.00 20.00     0.034 C 
ENDBRANCH   6   7
ENDBRANCH   4   6
ENDBRANCH   3   4
BRANCH   3   9
HETATM    9  C7  UNL     1     -36.071  15.493  -4.789  1.00 20.00     0.018 C 
BRANCH   9  10
HETATM   10  C6  UNL     1     -36.889  14.742  -3.732  1.00 20.00    -0.003 C 
HETATM   11  C2  UNL     1     -38.374  14.763  -4.066  1.00 20.00     0.005 C 
ENDBRANCH   9  10
ENDBRANCH   3   9
TORSDOF 5
ENDMDL
MODEL 5
REMARK VINA RESULT:      -4.0      1.742      2.674
REMARK  5 active torsions:
REMARK  status: ('A' for Active; 'I' for Inactive)
REMARK    1  A    between atoms: C1_1  and  C9_9 
REMARK    2  A    between atoms: C1_1  and  O11_11 
REMARK    3  A    between atoms: C6_6  and  C7_7 
REMARK    4  A    between atoms: C7_7  and  C9_9 
REMARK    5  A    between atoms: C8_8  and  O11_11 
ROOT
HETATM    1  C4  UNL     1     -35.633  14.913  -3.740  1.00 20.00     0.025 C 
HETATM    2  C5  UNL     1     -33.430  13.748  -3.777  1.00 20.00     0.025 C 
HETATM    3  C9  UNL     1     -34.111  15.128  -3.813  1.00 20.00     0.041 C 
ENDROOT
BRANCH   3   4
HETATM    4  C1  UNL     1     -33.788  15.823  -5.142  1.00 20.00     0.266 C 
HETATM    5  O10 UNL     1     -34.112  15.393  -6.243  1.00 20.00    -0.264 OA
BRANCH   4   6
HETATM    6  O11 UNL     1     -33.099  16.982  -4.924  1.00 20.00    -0.321 OA
BRANCH   6   7
HETATM    7  C8  UNL     1     -33.577  18.131  -5.632  1.00 20.00     0.174 C 
HETATM    8  C3  UNL     1     -34.815  18.658  -4.938  1.00 20.00     0.034 C 
ENDBRANCH   6   7
ENDBRANCH   4   6
ENDBRANCH   3   4
BRANCH   3   9
HETATM    9  C7  UNL     1     -33.659  15.997  -2.611  1.00 20.00     0.018 C 
BRANCH   9  10
HETATM   10  C6  UNL     1     -34.752  16.279  -1.572  1.00 20.00    -0.003 C 
HETATM   11  C2  UNL     1     -34.271  17.268  -0.521  1.00 20.00     0.005 C 
ENDBRANCH   9  10
ENDBRANCH   3   9
TORSDOF 5
ENDMDL
MODEL 6
REMARK VINA RESULT:      -4.0      1.190      1.434
REMARK  5 active torsions:
REMARK  status: ('A' for Active; 'I' for Inactive)
REMARK    1  A    between atoms: C1_1  and  C9_9 
REMARK    2  A    between atoms: C1_1  and  O11_11 
REMARK    3  A    between atoms: C6_6  and  C7_7 
REMARK    4  A    between atoms: C7_7  and  C9_9 
REMARK    5  A    between atoms: C8_8  and  O11_11 
ROOT
HETATM    1  C4  UNL     1     -33.521  13.706  -3.793  1.00 20.00     0.025 C 
HETATM    2  C5  UNL     1     -33.204  16.096  -4.427  1.00 20.00     0.025 C 
HETATM    3  C9  UNL     1     -34.225  15.071  -3.901  1.00 20.00     0.041 C 
ENDROOT
BRANCH   3   4
HETATM    4  C1  UNL     1     -35.379  14.937  -4.903  1.00 20.00     0.266 C 
HETATM    5  O10 UNL     1     -36.423  15.576  -4.844  1.00 20.00    -0.264 OA
BRANCH   4   6
HETATM    6  O11 UNL     1     -35.075  14.016  -5.865  1.00 20.00    -0.321 OA
BRANCH   6   7
HETATM    7  C8  UNL     1     -35.542  14.319  -7.184  1.00 20.00     0.174 C 
HETATM    8  C3  UNL     1     -34.559  15.257  -7.852  1.00 20.00     0.034 C 
ENDBRANCH   6   7
ENDBRANCH   4   6
ENDBRANCH   3   4
BRANCH   3   9
HETATM    9  C7  UNL     1     -34.752  15.485  -2.502  1.00 20.00     0.018 C 
BRANCH   9  10
HETATM   10  C6  UNL     1     -33.992  16.643  -1.844  1.00 20.00    -0.003 C 
HETATM   11  C2  UNL     1     -34.560  16.964  -0.469  1.00 20.00     0.005 C 
ENDBRANCH   9  10
ENDBRANCH   3   9
TORSDOF 5
ENDMDL
MODEL 7
REMARK VINA RESULT:      -3.9      1.802      4.482
REMARK  5 active torsions:
REMARK  status: ('A' for Active; 'I' for Inactive)
REMARK    1  A    between atoms: C1_1  and  C9_9 
REMARK    2  A    between atoms: C1_1  and  O11_11 
REMARK    3  A    between atoms: C6_6  and  C7_7 
REMARK    4  A    between atoms: C7_7  and  C9_9 
REMARK    5  A    between atoms: C8_8  and  O11_11 
ROOT
HETATM    1  C4  UNL     1     -34.434  13.149  -4.851  1.00 20.00     0.025 C 
HETATM    2  C5  UNL     1     -36.222  14.622  -3.932  1.00 20.00     0.025 C 
HETATM    3  C9  UNL     1     -34.793  14.605  -4.503  1.00 20.00     0.041 C 
ENDROOT
BRANCH   3   4
HETATM    4  C1  UNL     1     -33.808  15.099  -3.435  1.00 20.00     0.266 C 
HETATM    5  O10 UNL     1     -32.590  15.102  -3.566  1.00 20.00    -0.264 OA
BRANCH   4   6
HETATM    6  O11 UNL     1     -34.480  15.537  -2.329  1.00 20.00    -0.321 OA
BRANCH   6   7
HETATM    7  C8  UNL     1     -33.968  16.729  -1.724  1.00 20.00     0.174 C 
HETATM    8  C3  UNL     1     -34.657  16.942  -0.393  1.00 20.00     0.034 C 
ENDBRANCH   6   7
ENDBRANCH   4   6
ENDBRANCH   3   4
BRANCH   3   9
HETATM    9  C7  UNL     1     -34.701  15.473  -5.785  1.00 20.00     0.018 C 
BRANCH   9  10
HETATM   10  C6  UNL     1     -34.689  14.684  -7.099  1.00 20.00    -0.003 C 
HETATM   11  C2  UNL     1     -35.942  14.958  -7.918  1.00 20.00     0.005 C 
ENDBRANCH   9  10
ENDBRANCH   3   9
TORSDOF 5
ENDMDL
MODEL 8
REMARK VINA RESULT:      -3.8      1.752      2.075
REMARK  5 active torsions:
REMARK  status: ('A' for Active; 'I' for Inactive)
REMARK    1  A    between atoms: C1_1  and  C9_9 
REMARK    2  A    between atoms: C1_1  and  O11_11 
REMARK    3  A    between atoms: C6_6  and  C7_7 
REMARK    4  A    between atoms: C7_7  and  C9_9 
REMARK    5  A    between atoms: C8_8  and  O11_11 
ROOT
HETATM    1  C4  UNL     1     -34.724  13.195  -4.929  1.00 20.00     0.025 C 
HETATM    2  C5  UNL     1     -34.339  15.611  -5.406  1.00 20.00     0.025 C 
HETATM    3  C9  UNL     1     -34.985  14.623  -4.418  1.00 20.00     0.041 C 
ENDROOT
BRANCH   3   4
HETATM    4  C1  UNL     1     -36.502  14.850  -4.385  1.00 20.00     0.266 C 
HETATM    5  O10 UNL     1     -37.296  14.132  -3.790  1.00 20.00    -0.264 OA
BRANCH   4   6
HETATM    6  O11 UNL     1     -36.837  15.962  -5.105  1.00 20.00    -0.321 OA
BRANCH   6   7
HETATM    7  C8  UNL     1     -38.001  15.841  -5.929  1.00 20.00     0.174 C 
HETATM    8  C3  UNL     1     -37.612  15.196  -7.241  1.00 20.00     0.034 C 
ENDBRANCH   6   7
ENDBRANCH   4   6
ENDBRANCH   3   4
BRANCH   3   9
HETATM    9  C7  UNL     1     -34.372  14.778  -3.002  1.00 20.00     0.018 C 
BRANCH   9  10
HETATM   10  C6  UNL     1     -34.106  16.225  -2.569  1.00 20.00    -0.003 C 
HETATM   11  C2  UNL     1     -34.610  16.480  -1.156  1.00 20.00     0.005 C 
ENDBRANCH   9  10
ENDBRANCH   3   9
TORSDOF 5
ENDMDL
MODEL 9
REMARK VINA RESULT:      -3.8      1.537      2.745
REMARK  5 active torsions:
REMARK  status: ('A' for Active; 'I' for Inactive)
REMARK    1  A    between atoms: C1_1  and  C9_9 
REMARK    2  A    between atoms: C1_1  and  O11_11 
REMARK    3  A    between atoms: C6_6  and  C7_7 
REMARK    4  A    between atoms: C7_7  and  C9_9 
REMARK    5  A    between atoms: C8_8  and  O11_11 
ROOT
HETATM    1  C4  UNL     1     -34.140  15.852  -2.616  1.00 20.00     0.025 C 
HETATM    2  C5  UNL     1     -32.664  14.056  -3.516  1.00 20.00     0.025 C 
HETATM    3  C9  UNL     1     -33.920  14.898  -3.805  1.00 20.00     0.041 C 
ENDROOT
BRANCH   3   4
HETATM    4  C1  UNL     1     -35.141  13.977  -3.912  1.00 20.00     0.266 C 
HETATM    5  O10 UNL     1     -35.103  12.823  -4.324  1.00 20.00    -0.264 OA
BRANCH   4   6
HETATM    6  O11 UNL     1     -36.267  14.618  -3.480  1.00 20.00    -0.321 OA
BRANCH   6   7
HETATM    7  C8  UNL     1     -37.333  14.710  -4.431  1.00 20.00     0.174 C 
HETATM    8  C3  UNL     1     -37.428  16.136  -4.930  1.00 20.00     0.034 C 
ENDBRANCH   6   7
ENDBRANCH   4   6
ENDBRANCH   3   4
BRANCH   3   9
HETATM    9  C7  UNL     1     -33.739  15.731  -5.101  1.00 20.00     0.018 C 
BRANCH   9  10
HETATM   10  C6  UNL     1     -33.520  17.232  -4.878  1.00 20.00    -0.003 C 
HETATM   11  C2  UNL     1     -33.894  18.033  -6.116  1.00 20.00     0.005 C 
ENDBRANCH   9  10
ENDBRANCH   3   9
TORSDOF 5
ENDMDL
