MODEL 1
REMARK VINA RESULT:      -4.3      0.000      0.000
REMARK  0 active torsions:
REMARK  status: ('A' for Active; 'I' for Inactive)
ROOT
HETATM    1  C1  UNL     1     -32.662   6.612   2.950  1.00 20.00     0.166 A 
HETATM    2  C2  UNL     1     -33.602   6.287   4.864  1.00 20.00     0.048 A 
HETATM    3  C3  UNL     1     -34.317   5.392   4.119  1.00 20.00     0.008 A 
HETATM    4  C4  UNL     1     -34.028   6.303   6.276  1.00 20.00     0.061 C 
HETATM    5  C5  UNL     1     -35.338   4.654   4.884  1.00 20.00     0.048 C 
HETATM    6  C6  UNL     1     -34.923   5.018   6.350  1.00 20.00     0.011 C 
HETATM    7  N7  UNL     1     -32.642   7.003   4.215  1.00 20.00    -0.257 NA
HETATM    8  S8  UNL     1     -33.825   5.389   2.522  1.00 20.00    -0.085 SA
ENDROOT
TORSDOF 0
ENDMDL
MODEL 2
REMARK VINA RESULT:      -4.0      2.033      3.517
REMARK  0 active torsions:
REMARK  status: ('A' for Active; 'I' for Inactive)
ROOT
HETATM    1  C1  UNL     1     -35.204   4.967   6.009  1.00 20.00     0.166 A 
HETATM    2  C2  UNL     1     -34.354   5.327   4.060  1.00 20.00     0.048 A 
HETATM    3  C3  UNL     1     -33.635   6.239   4.779  1.00 20.00     0.008 A 
HETATM    4  C4  UNL     1     -33.990   5.332   2.630  1.00 20.00     0.061 C 
HETATM    5  C5  UNL     1     -32.669   7.011   3.975  1.00 20.00     0.048 C 
HETATM    6  C6  UNL     1     -32.678   6.188   2.641  1.00 20.00     0.011 C 
HETATM    7  N7  UNL     1     -35.266   4.581   4.744  1.00 20.00    -0.257 NA
HETATM    8  S8  UNL     1     -34.061   6.222   6.394  1.00 20.00    -0.085 SA
ENDROOT
TORSDOF 0
ENDMDL
MODEL 3
REMARK VINA RESULT:      -3.8      1.347      1.968
REMARK  0 active torsions:
REMARK  status: ('A' for Active; 'I' for Inactive)
ROOT
HETATM    1  C1  UNL     1     -33.220   6.166   2.544  1.00 20.00     0.166 A 
HETATM    2  C2  UNL     1     -34.313   5.220   4.144  1.00 20.00     0.048 A 
HETATM    3  C3  UNL     1     -33.621   6.144   4.874  1.00 20.00     0.008 A 
HETATM    4  C4  UNL     1     -35.183   4.381   4.989  1.00 20.00     0.061 C 
HETATM    5  C5  UNL     1     -33.898   6.097   6.322  1.00 20.00     0.048 C 
HETATM    6  C6  UNL     1     -35.157   5.165   6.346  1.00 20.00     0.011 C 
HETATM    7  N7  UNL     1     -34.100   5.210   2.799  1.00 20.00    -0.257 NA
HETATM    8  S8  UNL     1     -32.637   7.083   3.903  1.00 20.00    -0.085 SA
ENDROOT
TORSDOF 0
ENDMDL
MODEL 4
REMARK VINA RESULT:      -3.7     12.003     13.681
REMARK  0 active torsions:
REMARK  status: ('A' for Active; 'I' for Inactive)
ROOT
HETATM    1  C1  UNL     1     -34.060  13.440  -3.636  1.00 20.00     0.166 A 
HETATM    2  C2  UNL     1     -34.736  14.072  -5.583  1.00 20.00     0.048 A 
HETATM    3  C3  UNL     1     -34.084  15.210  -5.203  1.00 20.00     0.008 A 
HETATM    4  C4  UNL     1     -35.336  14.194  -6.925  1.00 20.00     0.061 C 
HETATM    5  C5  UNL     1     -34.124  16.289  -6.208  1.00 20.00     0.048 C 
HETATM    6  C6  UNL     1     -34.660  15.506  -7.454  1.00 20.00     0.011 C 
HETATM    7  N7  UNL     1     -34.738  13.036  -4.698  1.00 20.00    -0.257 NA
HETATM    8  S8  UNL     1     -33.415  15.057  -3.680  1.00 20.00    -0.085 SA
ENDROOT
TORSDOF 0
ENDMDL
MODEL 5
REMARK VINA RESULT:      -3.7     12.062     12.684
REMARK  0 active torsions:
REMARK  status: ('A' for Active; 'I' for Inactive)
ROOT
HETATM    1  C1  UNL     1     -37.661  15.484  -3.505  1.00 20.00     0.166 A 
HETATM    2  C2  UNL     1     -35.929  14.279  -3.949  1.00 20.00     0.048 A 
HETATM    3  C3  UNL     1     -35.297  15.413  -3.522  1.00 20.00     0.008 A 
HETATM    4  C4  UNL     1     -34.975  13.225  -4.342  1.00 20.00     0.061 C 
HETATM    5  C5  UNL     1     -33.825  15.328  -3.548  1.00 20.00     0.048 C 
HETATM    6  C6  UNL     1     -33.628  13.790  -3.775  1.00 20.00     0.011 C 
HETATM    7  N7  UNL     1     -37.291  14.293  -3.949  1.00 20.00    -0.257 NA
HETATM    8  S8  UNL     1     -36.391  16.598  -3.084  1.00 20.00    -0.085 SA
ENDROOT
TORSDOF 0
ENDMDL
MODEL 6
REMARK VINA RESULT:      -3.7      1.532      2.945
REMARK  0 active torsions:
REMARK  status: ('A' for Active; 'I' for Inactive)
ROOT
HETATM    1  C1  UNL     1     -34.792   5.494   6.332  1.00 20.00     0.166 A 
HETATM    2  C2  UNL     1     -33.413   6.440   4.971  1.00 20.00     0.048 A 
HETATM    3  C3  UNL     1     -34.003   5.565   4.104  1.00 20.00     0.008 A 
HETATM    4  C4  UNL     1     -32.379   7.263   4.315  1.00 20.00     0.061 C 
HETATM    5  C5  UNL     1     -33.481   5.640   2.727  1.00 20.00     0.048 C 
HETATM    6  C6  UNL     1     -32.656   6.970   2.801  1.00 20.00     0.011 C 
HETATM    7  N7  UNL     1     -33.849   6.421   6.262  1.00 20.00    -0.257 NA
HETATM    8  S8  UNL     1     -35.168   4.638   4.863  1.00 20.00    -0.085 SA
ENDROOT
TORSDOF 0
ENDMDL
MODEL 7
REMARK VINA RESULT:      -3.6     12.384     13.332
REMARK  0 active torsions:
REMARK  status: ('A' for Active; 'I' for Inactive)
ROOT
HETATM    1  C1  UNL     1     -33.530  17.292  -5.202  1.00 20.00     0.166 A 
HETATM    2  C2  UNL     1     -33.767  15.285  -4.451  1.00 20.00     0.048 A 
HETATM    3  C3  UNL     1     -35.077  15.571  -4.714  1.00 20.00     0.008 A 
HETATM    4  C4  UNL     1     -33.593  13.927  -3.901  1.00 20.00     0.061 C 
HETATM    5  C5  UNL     1     -36.008  14.473  -4.394  1.00 20.00     0.048 C 
HETATM    6  C6  UNL     1     -35.001  13.293  -4.172  1.00 20.00     0.011 C 
HETATM    7  N7  UNL     1     -32.855  16.259  -4.723  1.00 20.00    -0.257 NA
HETATM    8  S8  UNL     1     -35.257  17.113  -5.332  1.00 20.00    -0.085 SA
ENDROOT
TORSDOF 0
ENDMDL
MODEL 8
REMARK VINA RESULT:      -3.6     12.432     13.590
REMARK  0 active torsions:
REMARK  status: ('A' for Active; 'I' for Inactive)
ROOT
HETATM    1  C1  UNL     1     -34.633  16.272  -7.131  1.00 20.00     0.166 A 
HETATM    2  C2  UNL     1     -33.954  15.502  -5.235  1.00 20.00     0.048 A 
HETATM    3  C3  UNL     1     -34.597  14.390  -5.700  1.00 20.00     0.008 A 
HETATM    4  C4  UNL     1     -33.360  15.285  -3.902  1.00 20.00     0.061 C 
HETATM    5  C5  UNL     1     -34.551  13.240  -4.778  1.00 20.00     0.048 C 
HETATM    6  C6  UNL     1     -33.469  13.729  -3.756  1.00 20.00     0.011 C 
HETATM    7  N7  UNL     1     -33.959  16.601  -6.040  1.00 20.00    -0.257 NA
HETATM    8  S8  UNL     1     -35.266  14.652  -7.209  1.00 20.00    -0.085 SA
ENDROOT
TORSDOF 0
ENDMDL
MODEL 9
REMARK VINA RESULT:      -3.6      9.771     10.463
REMARK  0 active torsions:
REMARK  status: ('A' for Active; 'I' for Inactive)
ROOT
HETATM    1  C1  UNL     1     -43.121   4.396  -3.254  1.00 20.00     0.166 A 
HETATM    2  C2  UNL     1     -41.626   4.769  -1.746  1.00 20.00     0.048 A 
HETATM    3  C3  UNL     1     -42.004   6.057  -1.996  1.00 20.00     0.008 A 
HETATM    4  C4  UNL     1     -40.570   4.687  -0.718  1.00 20.00     0.061 C 
HETATM    5  C5  UNL     1     -41.283   7.062  -1.191  1.00 20.00     0.048 C 
HETATM    6  C6  UNL     1     -40.586   6.140  -0.133  1.00 20.00     0.011 C 
HETATM    7  N7  UNL     1     -42.253   3.791  -2.457  1.00 20.00    -0.257 NA
HETATM    8  S8  UNL     1     -43.196   6.133  -3.164  1.00 20.00    -0.085 SA
ENDROOT
TORSDOF 0
ENDMDL
