MODEL 1
REMARK VINA RESULT:      -3.8      0.000      0.000
REMARK  2 active torsions:
REMARK  status: ('A' for Active; 'I' for Inactive)
REMARK    1  A    between atoms: C1_1  and  C8_8 
REMARK    2  A    between atoms: C9_9  and  N10_10 
ROOT
HETATM    1  C1  UNL     1     -33.748  16.651  -2.414  1.00 20.00     0.092 C 
HETATM    2  N10 UNL     1     -34.599  15.844  -2.949  1.00 20.00    -0.295 NA
ENDROOT
BRANCH   1   3
HETATM    3  C8  UNL     1     -34.144  17.668  -1.352  1.00 20.00    -0.018 C 
HETATM    4  C2  UNL     1     -35.124  18.655  -1.997  1.00 20.00     0.020 C 
HETATM    5  C3  UNL     1     -34.841  16.908  -0.218  1.00 20.00     0.020 C 
HETATM    6  C4  UNL     1     -32.933  18.428  -0.799  1.00 20.00     0.020 C 
ENDBRANCH   1   3
BRANCH   2   7
HETATM    7  C9  UNL     1     -33.998  14.958  -3.943  1.00 20.00     0.042 C 
HETATM    8  C5  UNL     1     -34.146  15.607  -5.319  1.00 20.00     0.039 C 
HETATM    9  C6  UNL     1     -32.523  14.785  -3.586  1.00 20.00     0.039 C 
HETATM   10  C7  UNL     1     -34.725  13.615  -3.893  1.00 20.00     0.039 C 
ENDBRANCH   2   7
TORSDOF 2
ENDMDL
MODEL 2
REMARK VINA RESULT:      -3.8      0.054      1.372
REMARK  2 active torsions:
REMARK  status: ('A' for Active; 'I' for Inactive)
REMARK    1  A    between atoms: C1_1  and  C8_8 
REMARK    2  A    between atoms: C9_9  and  N10_10 
ROOT
HETATM    1  C1  UNL     1     -33.749  16.619  -2.399  1.00 20.00     0.092 C 
HETATM    2  N10 UNL     1     -34.609  15.902  -3.037  1.00 20.00    -0.295 NA
ENDROOT
BRANCH   1   3
HETATM    3  C8  UNL     1     -34.159  17.657  -1.362  1.00 20.00    -0.018 C 
HETATM    4  C2  UNL     1     -35.146  18.619  -2.034  1.00 20.00     0.020 C 
HETATM    5  C3  UNL     1     -34.854  16.915  -0.214  1.00 20.00     0.020 C 
HETATM    6  C4  UNL     1     -32.958  18.441  -0.821  1.00 20.00     0.020 C 
ENDBRANCH   1   3
BRANCH   2   7
HETATM    7  C9  UNL     1     -33.991  14.976  -3.982  1.00 20.00     0.042 C 
HETATM    8  C5  UNL     1     -32.518  14.816  -3.607  1.00 20.00     0.039 C 
HETATM    9  C6  UNL     1     -34.722  13.639  -3.874  1.00 20.00     0.039 C 
HETATM   10  C7  UNL     1     -34.134  15.556  -5.388  1.00 20.00     0.039 C 
ENDBRANCH   2   7
TORSDOF 2
ENDMDL
MODEL 3
REMARK VINA RESULT:      -3.8      0.063      1.379
REMARK  2 active torsions:
REMARK  status: ('A' for Active; 'I' for Inactive)
REMARK    1  A    between atoms: C1_1  and  C8_8 
REMARK    2  A    between atoms: C9_9  and  N10_10 
ROOT
HETATM    1  C1  UNL     1     -33.749  16.603  -2.383  1.00 20.00     0.092 C 
HETATM    2  N10 UNL     1     -34.613  15.922  -3.054  1.00 20.00    -0.295 NA
ENDROOT
BRANCH   1   3
HETATM    3  C8  UNL     1     -34.155  17.650  -1.354  1.00 20.00    -0.018 C 
HETATM    4  C2  UNL     1     -35.149  18.603  -2.028  1.00 20.00     0.020 C 
HETATM    5  C3  UNL     1     -34.839  16.918  -0.193  1.00 20.00     0.020 C 
HETATM    6  C4  UNL     1     -32.952  18.443  -0.829  1.00 20.00     0.020 C 
ENDBRANCH   1   3
BRANCH   2   7
HETATM    7  C9  UNL     1     -33.998  14.978  -3.983  1.00 20.00     0.042 C 
HETATM    8  C5  UNL     1     -34.744  13.648  -3.883  1.00 20.00     0.039 C 
HETATM    9  C6  UNL     1     -34.120  15.559  -5.391  1.00 20.00     0.039 C 
HETATM   10  C7  UNL     1     -32.529  14.808  -3.596  1.00 20.00     0.039 C 
ENDBRANCH   2   7
TORSDOF 2
ENDMDL
MODEL 4
REMARK VINA RESULT:      -3.7      0.102      1.925
REMARK  2 active torsions:
REMARK  status: ('A' for Active; 'I' for Inactive)
REMARK    1  A    between atoms: C1_1  and  C8_8 
REMARK    2  A    between atoms: C9_9  and  N10_10 
ROOT
HETATM    1  C1  UNL     1     -33.792  16.605  -2.416  1.00 20.00     0.092 C 
HETATM    2  N10 UNL     1     -34.624  15.815  -3.002  1.00 20.00    -0.295 NA
ENDROOT
BRANCH   1   3
HETATM    3  C8  UNL     1     -34.230  17.622  -1.370  1.00 20.00    -0.018 C 
HETATM    4  C2  UNL     1     -32.994  18.433  -0.964  1.00 20.00     0.020 C 
HETATM    5  C3  UNL     1     -35.266  18.543  -2.026  1.00 20.00     0.020 C 
HETATM    6  C4  UNL     1     -34.841  16.955  -0.133  1.00 20.00     0.020 C 
ENDBRANCH   1   3
BRANCH   2   7
HETATM    7  C9  UNL     1     -33.983  14.926  -3.967  1.00 20.00     0.042 C 
HETATM    8  C5  UNL     1     -32.515  14.766  -3.574  1.00 20.00     0.039 C 
HETATM    9  C6  UNL     1     -34.704  13.580  -3.916  1.00 20.00     0.039 C 
HETATM   10  C7  UNL     1     -34.109  15.551  -5.356  1.00 20.00     0.039 C 
ENDBRANCH   2   7
TORSDOF 2
ENDMDL
MODEL 5
REMARK VINA RESULT:      -3.7      1.148      1.903
REMARK  2 active torsions:
REMARK  status: ('A' for Active; 'I' for Inactive)
REMARK    1  A    between atoms: C1_1  and  C8_8 
REMARK    2  A    between atoms: C9_9  and  N10_10 
ROOT
HETATM    1  C1  UNL     1     -34.827  15.941  -2.577  1.00 20.00     0.092 C 
HETATM    2  N10 UNL     1     -34.625  15.952  -3.850  1.00 20.00    -0.295 NA
ENDROOT
BRANCH   1   3
HETATM    3  C8  UNL     1     -34.880  17.217  -1.748  1.00 20.00    -0.018 C 
HETATM    4  C2  UNL     1     -33.755  18.136  -2.236  1.00 20.00     0.020 C 
HETATM    5  C3  UNL     1     -36.241  17.878  -2.002  1.00 20.00     0.020 C 
HETATM    6  C4  UNL     1     -34.710  16.941  -0.249  1.00 20.00     0.020 C 
ENDBRANCH   1   3
BRANCH   2   7
HETATM    7  C9  UNL     1     -34.611  14.615  -4.437  1.00 20.00     0.042 C 
HETATM    8  C5  UNL     1     -35.956  13.948  -4.150  1.00 20.00     0.039 C 
HETATM    9  C6  UNL     1     -34.396  14.766  -5.943  1.00 20.00     0.039 C 
HETATM   10  C7  UNL     1     -33.466  13.823  -3.807  1.00 20.00     0.039 C 
ENDBRANCH   2   7
TORSDOF 2
ENDMDL
MODEL 6
REMARK VINA RESULT:      -3.7      1.120      4.401
REMARK  2 active torsions:
REMARK  status: ('A' for Active; 'I' for Inactive)
REMARK    1  A    between atoms: C1_1  and  C8_8 
REMARK    2  A    between atoms: C9_9  and  N10_10 
ROOT
HETATM    1  C1  UNL     1     -34.647  15.925  -3.495  1.00 20.00     0.092 C 
HETATM    2  N10 UNL     1     -34.883  15.897  -2.229  1.00 20.00    -0.295 NA
ENDROOT
BRANCH   1   3
HETATM    3  C8  UNL     1     -34.563  14.659  -4.338  1.00 20.00    -0.018 C 
HETATM    4  C2  UNL     1     -33.413  13.809  -3.787  1.00 20.00     0.020 C 
HETATM    5  C3  UNL     1     -35.890  13.907  -4.178  1.00 20.00     0.020 C 
HETATM    6  C4  UNL     1     -34.316  14.965  -5.820  1.00 20.00     0.020 C 
ENDBRANCH   1   3
BRANCH   2   7
HETATM    7  C9  UNL     1     -34.917  17.227  -1.626  1.00 20.00     0.042 C 
HETATM    8  C5  UNL     1     -36.261  17.874  -1.960  1.00 20.00     0.039 C 
HETATM    9  C6  UNL     1     -34.761  17.060  -0.115  1.00 20.00     0.039 C 
HETATM   10  C7  UNL     1     -33.761  18.045  -2.199  1.00 20.00     0.039 C 
ENDBRANCH   2   7
TORSDOF 2
ENDMDL
MODEL 7
REMARK VINA RESULT:      -3.7      1.066      4.397
REMARK  2 active torsions:
REMARK  status: ('A' for Active; 'I' for Inactive)
REMARK    1  A    between atoms: C1_1  and  C8_8 
REMARK    2  A    between atoms: C9_9  and  N10_10 
ROOT
HETATM    1  C1  UNL     1     -34.740  15.861  -3.459  1.00 20.00     0.092 C 
HETATM    2  N10 UNL     1     -34.541  15.899  -2.187  1.00 20.00    -0.295 NA
ENDROOT
BRANCH   1   3
HETATM    3  C8  UNL     1     -34.525  14.598  -4.282  1.00 20.00    -0.018 C 
HETATM    4  C2  UNL     1     -34.286  15.024  -5.735  1.00 20.00     0.020 C 
HETATM    5  C3  UNL     1     -33.278  13.894  -3.734  1.00 20.00     0.020 C 
HETATM    6  C4  UNL     1     -35.728  13.650  -4.212  1.00 20.00     0.020 C 
ENDBRANCH   1   3
BRANCH   2   7
HETATM    7  C9  UNL     1     -34.808  17.212  -1.607  1.00 20.00     0.042 C 
HETATM    8  C5  UNL     1     -36.183  17.680  -2.083  1.00 20.00     0.039 C 
HETATM    9  C6  UNL     1     -34.786  17.066  -0.086  1.00 20.00     0.039 C 
HETATM   10  C7  UNL     1     -33.715  18.175  -2.071  1.00 20.00     0.039 C 
ENDBRANCH   2   7
TORSDOF 2
ENDMDL
MODEL 8
REMARK VINA RESULT:      -3.7      1.107      4.405
REMARK  2 active torsions:
REMARK  status: ('A' for Active; 'I' for Inactive)
REMARK    1  A    between atoms: C1_1  and  C8_8 
REMARK    2  A    between atoms: C9_9  and  N10_10 
ROOT
HETATM    1  C1  UNL     1     -34.608  15.930  -3.421  1.00 20.00     0.092 C 
HETATM    2  N10 UNL     1     -34.907  15.912  -2.167  1.00 20.00    -0.295 NA
ENDROOT
BRANCH   1   3
HETATM    3  C8  UNL     1     -34.516  14.660  -4.256  1.00 20.00    -0.018 C 
HETATM    4  C2  UNL     1     -35.857  13.925  -4.134  1.00 20.00     0.020 C 
HETATM    5  C3  UNL     1     -34.282  15.079  -5.713  1.00 20.00     0.020 C 
HETATM    6  C4  UNL     1     -33.380  13.742  -3.792  1.00 20.00     0.020 C 
ENDBRANCH   1   3
BRANCH   2   7
HETATM    7  C9  UNL     1     -34.936  17.244  -1.569  1.00 20.00     0.042 C 
HETATM    8  C5  UNL     1     -34.784  17.096  -0.056  1.00 20.00     0.039 C 
HETATM    9  C6  UNL     1     -33.772  18.045  -2.151  1.00 20.00     0.039 C 
HETATM   10  C7  UNL     1     -36.270  17.901  -1.920  1.00 20.00     0.039 C 
ENDBRANCH   2   7
TORSDOF 2
ENDMDL
MODEL 9
REMARK VINA RESULT:      -3.7      1.040      4.404
REMARK  2 active torsions:
REMARK  status: ('A' for Active; 'I' for Inactive)
REMARK    1  A    between atoms: C1_1  and  C8_8 
REMARK    2  A    between atoms: C9_9  and  N10_10 
ROOT
HETATM    1  C1  UNL     1     -34.829  15.815  -3.479  1.00 20.00     0.092 C 
HETATM    2  N10 UNL     1     -34.259  16.015  -2.341  1.00 20.00    -0.295 NA
ENDROOT
BRANCH   1   3
HETATM    3  C8  UNL     1     -34.531  14.593  -4.338  1.00 20.00    -0.018 C 
HETATM    4  C2  UNL     1     -33.287  13.910  -3.758  1.00 20.00     0.020 C 
HETATM    5  C3  UNL     1     -35.737  13.651  -4.237  1.00 20.00     0.020 C 
HETATM    6  C4  UNL     1     -34.283  14.961  -5.805  1.00 20.00     0.020 C 
ENDBRANCH   1   3
BRANCH   2   7
HETATM    7  C9  UNL     1     -34.695  17.250  -1.695  1.00 20.00     0.042 C 
HETATM    8  C5  UNL     1     -34.742  17.014  -0.186  1.00 20.00     0.039 C 
HETATM    9  C6  UNL     1     -33.681  18.341  -2.038  1.00 20.00     0.039 C 
HETATM   10  C7  UNL     1     -36.078  17.614  -2.232  1.00 20.00     0.039 C 
ENDBRANCH   2   7
TORSDOF 2
ENDMDL
