MODEL 1
REMARK VINA RESULT:      -5.2      0.000      0.000
REMARK  1 active torsions:
REMARK  status: ('A' for Active; 'I' for Inactive)
REMARK    1  A    between atoms: C7_7  and  C10_10 
ROOT
HETATM    1  C1  UNL     1     -33.336  16.204  -3.711  1.00 20.00    -0.004 C 
HETATM    2  C2  UNL     1     -33.337  16.422  -5.147  1.00 20.00    -0.004 C 
HETATM    3  C3  UNL     1     -34.158  15.437  -2.972  1.00 20.00    -0.017 C 
HETATM    4  C4  UNL     1     -34.161  15.908  -6.078  1.00 20.00    -0.017 C 
HETATM    5  C5  UNL     1     -34.894  13.401  -4.192  1.00 20.00    -0.021 C 
HETATM    6  C6  UNL     1     -34.896  13.603  -5.517  1.00 20.00    -0.021 C 
HETATM    7  C8  UNL     1     -35.345  14.641  -3.461  1.00 20.00     0.042 C 
HETATM    8  C9  UNL     1     -35.347  15.004  -5.846  1.00 20.00     0.042 C 
HETATM    9  C10 UNL     1     -36.117  15.381  -4.567  1.00 20.00     0.077 C 
ENDROOT
BRANCH   9  10
HETATM   10  C7  UNL     1     -37.550  14.920  -4.622  1.00 20.00     0.129 C 
HETATM   11  C11 UNL     1     -38.336  15.299  -5.848  1.00 20.00     0.091 C 
HETATM   12  O12 UNL     1     -38.053  14.266  -3.710  1.00 20.00    -0.298 OA
ENDBRANCH   9  10
TORSDOF 1
ENDMDL
MODEL 2
REMARK VINA RESULT:      -5.1      1.999      3.808
REMARK  1 active torsions:
REMARK  status: ('A' for Active; 'I' for Inactive)
REMARK    1  A    between atoms: C7_7  and  C10_10 
ROOT
HETATM    1  C1  UNL     1     -35.117  13.451  -4.153  1.00 20.00    -0.004 C 
HETATM    2  C2  UNL     1     -33.676  13.541  -3.991  1.00 20.00    -0.004 C 
HETATM    3  C3  UNL     1     -36.051  14.399  -3.952  1.00 20.00    -0.017 C 
HETATM    4  C4  UNL     1     -32.935  14.594  -3.602  1.00 20.00    -0.017 C 
HETATM    5  C5  UNL     1     -35.221  16.671  -4.516  1.00 20.00    -0.021 C 
HETATM    6  C6  UNL     1     -33.892  16.755  -4.365  1.00 20.00    -0.021 C 
HETATM    7  C8  UNL     1     -35.828  15.803  -3.443  1.00 20.00     0.042 C 
HETATM    8  C9  UNL     1     -33.436  15.952  -3.173  1.00 20.00     0.042 C 
HETATM    9  C10 UNL     1     -34.738  15.855  -2.359  1.00 20.00     0.077 C 
ENDROOT
BRANCH   9  10
HETATM   10  C7  UNL     1     -34.927  17.052  -1.464  1.00 20.00     0.129 C 
HETATM   11  C11 UNL     1     -33.708  17.555  -0.739  1.00 20.00     0.091 C 
HETATM   12  O12 UNL     1     -36.024  17.592  -1.333  1.00 20.00    -0.298 OA
ENDBRANCH   9  10
TORSDOF 1
ENDMDL
MODEL 3
REMARK VINA RESULT:      -5.0      1.122      1.825
REMARK  1 active torsions:
REMARK  status: ('A' for Active; 'I' for Inactive)
REMARK    1  A    between atoms: C7_7  and  C10_10 
ROOT
HETATM    1  C1  UNL     1     -33.010  14.044  -3.658  1.00 20.00    -0.004 C 
HETATM    2  C2  UNL     1     -32.881  15.491  -3.698  1.00 20.00    -0.004 C 
HETATM    3  C3  UNL     1     -34.069  13.281  -3.984  1.00 20.00    -0.017 C 
HETATM    4  C4  UNL     1     -33.792  16.409  -4.070  1.00 20.00    -0.017 C 
HETATM    5  C5  UNL     1     -35.389  14.252  -5.851  1.00 20.00    -0.021 C 
HETATM    6  C6  UNL     1     -35.272  15.587  -5.887  1.00 20.00    -0.021 C 
HETATM    7  C8  UNL     1     -35.432  13.756  -4.428  1.00 20.00     0.042 C 
HETATM    8  C9  UNL     1     -35.219  16.158  -4.493  1.00 20.00     0.042 C 
HETATM    9  C10 UNL     1     -35.870  15.026  -3.678  1.00 20.00     0.077 C 
ENDROOT
BRANCH   9  10
HETATM   10  C7  UNL     1     -37.372  15.146  -3.656  1.00 20.00     0.129 C 
HETATM   11  C11 UNL     1     -37.937  16.535  -3.524  1.00 20.00     0.091 C 
HETATM   12  O12 UNL     1     -38.099  14.159  -3.743  1.00 20.00    -0.298 OA
ENDBRANCH   9  10
TORSDOF 1
ENDMDL
MODEL 4
REMARK VINA RESULT:      -5.0      1.962      3.648
REMARK  1 active torsions:
REMARK  status: ('A' for Active; 'I' for Inactive)
REMARK    1  A    between atoms: C7_7  and  C10_10 
ROOT
HETATM    1  C1  UNL     1     -35.270  14.196  -6.002  1.00 20.00    -0.004 C 
HETATM    2  C2  UNL     1     -34.810  13.241  -5.008  1.00 20.00    -0.004 C 
HETATM    3  C3  UNL     1     -35.231  15.541  -5.962  1.00 20.00    -0.017 C 
HETATM    4  C4  UNL     1     -34.238  13.477  -3.813  1.00 20.00    -0.017 C 
HETATM    5  C5  UNL     1     -33.236  16.391  -4.751  1.00 20.00    -0.021 C 
HETATM    6  C6  UNL     1     -32.813  15.511  -3.833  1.00 20.00    -0.021 C 
HETATM    7  C8  UNL     1     -34.742  16.405  -4.825  1.00 20.00     0.042 C 
HETATM    8  C9  UNL     1     -33.980  14.820  -3.174  1.00 20.00     0.042 C 
HETATM    9  C10 UNL     1     -35.118  15.818  -3.454  1.00 20.00     0.077 C 
ENDROOT
BRANCH   9  10
HETATM   10  C7  UNL     1     -35.183  16.898  -2.406  1.00 20.00     0.129 C 
HETATM   11  C11 UNL     1     -34.682  16.540  -1.033  1.00 20.00     0.091 C 
HETATM   12  O12 UNL     1     -35.622  18.018  -2.661  1.00 20.00    -0.298 OA
ENDBRANCH   9  10
TORSDOF 1
ENDMDL
MODEL 5
REMARK VINA RESULT:      -5.0      1.794      2.643
REMARK  1 active torsions:
REMARK  status: ('A' for Active; 'I' for Inactive)
REMARK    1  A    between atoms: C7_7  and  C10_10 
ROOT
HETATM    1  C1  UNL     1     -35.323  17.109  -2.040  1.00 20.00    -0.004 C 
HETATM    2  C2  UNL     1     -35.555  17.917  -3.225  1.00 20.00    -0.004 C 
HETATM    3  C3  UNL     1     -34.762  15.891  -1.944  1.00 20.00    -0.017 C 
HETATM    4  C4  UNL     1     -35.263  17.635  -4.508  1.00 20.00    -0.017 C 
HETATM    5  C5  UNL     1     -32.975  15.542  -3.635  1.00 20.00    -0.021 C 
HETATM    6  C6  UNL     1     -33.190  16.285  -4.729  1.00 20.00    -0.021 C 
HETATM    7  C8  UNL     1     -34.276  15.020  -3.078  1.00 20.00     0.042 C 
HETATM    8  C9  UNL     1     -34.662  16.359  -5.047  1.00 20.00     0.042 C 
HETATM    9  C10 UNL     1     -35.193  15.116  -4.310  1.00 20.00     0.077 C 
ENDROOT
BRANCH   9  10
HETATM   10  C7  UNL     1     -35.086  13.876  -5.158  1.00 20.00     0.129 C 
HETATM   11  C11 UNL     1     -35.199  14.063  -6.647  1.00 20.00     0.091 C 
HETATM   12  O12 UNL     1     -34.912  12.766  -4.659  1.00 20.00    -0.298 OA
ENDBRANCH   9  10
TORSDOF 1
ENDMDL
MODEL 6
REMARK VINA RESULT:      -4.9      3.014      4.699
REMARK  1 active torsions:
REMARK  status: ('A' for Active; 'I' for Inactive)
REMARK    1  A    between atoms: C7_7  and  C10_10 
ROOT
HETATM    1  C1  UNL     1     -33.570  18.964  -0.626  1.00 20.00    -0.004 C 
HETATM    2  C2  UNL     1     -34.199  17.864   0.086  1.00 20.00    -0.004 C 
HETATM    3  C3  UNL     1     -33.394  19.122  -1.950  1.00 20.00    -0.017 C 
HETATM    4  C4  UNL     1     -34.753  16.744  -0.413  1.00 20.00    -0.017 C 
HETATM    5  C5  UNL     1     -35.254  18.141  -3.272  1.00 20.00    -0.021 C 
HETATM    6  C6  UNL     1     -35.833  17.125  -2.617  1.00 20.00    -0.021 C 
HETATM    7  C8  UNL     1     -33.764  18.147  -3.041  1.00 20.00     0.042 C 
HETATM    8  C9  UNL     1     -34.806  16.320  -1.860  1.00 20.00     0.042 C 
HETATM    9  C10 UNL     1     -33.517  16.689  -2.616  1.00 20.00     0.077 C 
ENDROOT
BRANCH   9  10
HETATM   10  C7  UNL     1     -33.303  15.807  -3.819  1.00 20.00     0.129 C 
HETATM   11  C11 UNL     1     -33.719  14.367  -3.684  1.00 20.00     0.091 C 
HETATM   12  O12 UNL     1     -32.816  16.243  -4.860  1.00 20.00    -0.298 OA
ENDBRANCH   9  10
TORSDOF 1
ENDMDL
MODEL 7
REMARK VINA RESULT:      -4.8      1.871      3.553
REMARK  1 active torsions:
REMARK  status: ('A' for Active; 'I' for Inactive)
REMARK    1  A    between atoms: C7_7  and  C10_10 
ROOT
HETATM    1  C1  UNL     1     -34.587  15.482  -6.442  1.00 20.00    -0.004 C 
HETATM    2  C2  UNL     1     -35.449  14.452  -5.889  1.00 20.00    -0.004 C 
HETATM    3  C3  UNL     1     -33.667  16.239  -5.817  1.00 20.00    -0.017 C 
HETATM    4  C4  UNL     1     -35.531  14.012  -4.620  1.00 20.00    -0.017 C 
HETATM    5  C5  UNL     1     -32.540  15.017  -3.970  1.00 20.00    -0.021 C 
HETATM    6  C6  UNL     1     -33.336  14.069  -3.458  1.00 20.00    -0.021 C 
HETATM    7  C8  UNL     1     -33.339  16.242  -4.344  1.00 20.00     0.042 C 
HETATM    8  C9  UNL     1     -34.771  14.532  -3.424  1.00 20.00     0.042 C 
HETATM    9  C10 UNL     1     -34.595  16.061  -3.475  1.00 20.00     0.077 C 
ENDROOT
BRANCH   9  10
HETATM   10  C7  UNL     1     -34.387  16.644  -2.101  1.00 20.00     0.129 C 
HETATM   11  C11 UNL     1     -33.673  17.967  -2.029  1.00 20.00     0.091 C 
HETATM   12  O12 UNL     1     -34.784  16.069  -1.089  1.00 20.00    -0.298 OA
ENDBRANCH   9  10
TORSDOF 1
ENDMDL
MODEL 8
REMARK VINA RESULT:      -4.8      2.318      3.538
REMARK  1 active torsions:
REMARK  status: ('A' for Active; 'I' for Inactive)
REMARK    1  A    between atoms: C7_7  and  C10_10 
ROOT
HETATM    1  C1  UNL     1     -33.716  13.395  -3.965  1.00 20.00    -0.004 C 
HETATM    2  C2  UNL     1     -35.153  13.357  -4.178  1.00 20.00    -0.004 C 
HETATM    3  C3  UNL     1     -32.932  14.451  -3.683  1.00 20.00    -0.017 C 
HETATM    4  C4  UNL     1     -36.037  14.371  -4.145  1.00 20.00    -0.017 C 
HETATM    5  C5  UNL     1     -34.094  16.142  -2.283  1.00 20.00    -0.021 C 
HETATM    6  C6  UNL     1     -35.419  16.109  -2.482  1.00 20.00    -0.021 C 
HETATM    7  C8  UNL     1     -33.353  15.896  -3.574  1.00 20.00     0.042 C 
HETATM    8  C9  UNL     1     -35.739  15.835  -3.930  1.00 20.00     0.042 C 
HETATM    9  C10 UNL     1     -34.427  16.261  -4.613  1.00 20.00     0.077 C 
ENDROOT
BRANCH   9  10
HETATM   10  C7  UNL     1     -34.407  17.738  -4.911  1.00 20.00     0.129 C 
HETATM   11  C11 UNL     1     -35.708  18.359  -5.343  1.00 20.00     0.091 C 
HETATM   12  O12 UNL     1     -33.379  18.404  -4.804  1.00 20.00    -0.298 OA
ENDBRANCH   9  10
TORSDOF 1
ENDMDL
MODEL 9
REMARK VINA RESULT:      -4.8      1.476      2.280
REMARK  1 active torsions:
REMARK  status: ('A' for Active; 'I' for Inactive)
REMARK    1  A    between atoms: C7_7  and  C10_10 
ROOT
HETATM    1  C1  UNL     1     -33.556  13.745  -3.834  1.00 20.00    -0.004 C 
HETATM    2  C2  UNL     1     -32.923  15.049  -3.730  1.00 20.00    -0.004 C 
HETATM    3  C3  UNL     1     -34.605  13.374  -4.589  1.00 20.00    -0.017 C 
HETATM    4  C4  UNL     1     -33.238  16.192  -4.365  1.00 20.00    -0.017 C 
HETATM    5  C5  UNL     1     -34.684  14.588  -6.755  1.00 20.00    -0.021 C 
HETATM    6  C6  UNL     1     -34.102  15.792  -6.658  1.00 20.00    -0.021 C 
HETATM    7  C8  UNL     1     -35.436  14.255  -5.491  1.00 20.00     0.042 C 
HETATM    8  C9  UNL     1     -34.386  16.420  -5.317  1.00 20.00     0.042 C 
HETATM    9  C10 UNL     1     -35.651  15.654  -4.888  1.00 20.00     0.077 C 
ENDROOT
BRANCH   9  10
HETATM   10  C7  UNL     1     -36.902  16.289  -5.436  1.00 20.00     0.129 C 
HETATM   11  C11 UNL     1     -38.090  15.386  -5.633  1.00 20.00     0.091 C 
HETATM   12  O12 UNL     1     -36.951  17.488  -5.708  1.00 20.00    -0.298 OA
ENDBRANCH   9  10
TORSDOF 1
ENDMDL
