MODEL 1
REMARK VINA RESULT:      -5.0      0.000      0.000
REMARK  1 active torsions:
REMARK  status: ('A' for Active; 'I' for Inactive)
REMARK    1  A    between atoms: C3_3  and  C4_4 
ROOT
HETATM    1  C1  UNL     1     -34.493  16.016  -4.553  1.00 20.00    -0.018 A 
HETATM    2  C2  UNL     1     -33.774  16.949  -3.909  1.00 20.00    -0.024 A 
HETATM    3  C4  UNL     1     -35.123  15.085  -3.547  1.00 20.00     0.082 A 
HETATM    4  C5  UNL     1     -33.771  16.799  -2.444  1.00 20.00     0.022 A 
HETATM    5  C6  UNL     1     -34.653  15.583  -2.189  1.00 20.00     0.017 A 
HETATM    6  C7  UNL     1     -35.020  16.935  -1.598  1.00 20.00    -0.035 A 
HETATM    7  C9  UNL     1     -34.817  17.104  -0.111  1.00 20.00     0.016 C 
HETATM    8  C10 UNL     1     -36.220  17.690  -2.115  1.00 20.00     0.016 C 
ENDROOT
BRANCH   3   9
HETATM    9  C3  UNL     1     -34.623  13.712  -3.858  1.00 20.00     0.131 C 
HETATM   10  C8  UNL     1     -33.145  13.478  -3.705  1.00 20.00     0.091 C 
HETATM   11  O11 UNL     1     -35.384  12.815  -4.219  1.00 20.00    -0.298 OA
ENDBRANCH   3   9
TORSDOF 1
ENDMDL
MODEL 2
REMARK VINA RESULT:      -4.7      2.734      3.457
REMARK  1 active torsions:
REMARK  status: ('A' for Active; 'I' for Inactive)
REMARK    1  A    between atoms: C3_3  and  C4_4 
ROOT
HETATM    1  C1  UNL     1     -35.424  14.249  -6.561  1.00 20.00    -0.018 A 
HETATM    2  C2  UNL     1     -34.762  15.007  -7.449  1.00 20.00    -0.024 A 
HETATM    3  C4  UNL     1     -35.142  14.750  -5.165  1.00 20.00     0.082 A 
HETATM    4  C5  UNL     1     -33.944  16.070  -6.840  1.00 20.00     0.022 A 
HETATM    5  C6  UNL     1     -34.184  15.918  -5.343  1.00 20.00     0.017 A 
HETATM    6  C7  UNL     1     -34.538  17.217  -6.049  1.00 20.00    -0.035 A 
HETATM    7  C9  UNL     1     -33.635  18.400  -5.788  1.00 20.00     0.016 C 
HETATM    8  C10 UNL     1     -35.982  17.612  -6.234  1.00 20.00     0.016 C 
ENDROOT
BRANCH   3   9
HETATM    9  C3  UNL     1     -34.528  13.614  -4.414  1.00 20.00     0.131 C 
HETATM   10  C8  UNL     1     -33.243  13.900  -3.684  1.00 20.00     0.091 C 
HETATM   11  O11 UNL     1     -35.049  12.500  -4.391  1.00 20.00    -0.298 OA
ENDBRANCH   3   9
TORSDOF 1
ENDMDL
MODEL 3
REMARK VINA RESULT:      -4.7     11.099     12.415
REMARK  1 active torsions:
REMARK  status: ('A' for Active; 'I' for Inactive)
REMARK    1  A    between atoms: C3_3  and  C4_4 
ROOT
HETATM    1  C1  UNL     1     -33.470   5.638   2.506  1.00 20.00    -0.018 A 
HETATM    2  C2  UNL     1     -34.769   5.578   2.841  1.00 20.00    -0.024 A 
HETATM    3  C4  UNL     1     -32.654   5.995   3.725  1.00 20.00     0.082 A 
HETATM    4  C5  UNL     1     -35.040   5.893   4.254  1.00 20.00     0.022 A 
HETATM    5  C6  UNL     1     -33.664   6.166   4.849  1.00 20.00     0.017 A 
HETATM    6  C7  UNL     1     -34.530   5.045   5.401  1.00 20.00    -0.035 A 
HETATM    7  C9  UNL     1     -35.164   5.279   6.752  1.00 20.00     0.016 C 
HETATM    8  C10 UNL     1     -34.141   3.604   5.178  1.00 20.00     0.016 C 
ENDROOT
BRANCH   3   9
HETATM    9  C3  UNL     1     -31.931   7.263   3.405  1.00 20.00     0.131 C 
HETATM   10  C8  UNL     1     -32.222   7.889   2.068  1.00 20.00     0.091 C 
HETATM   11  O11 UNL     1     -31.140   7.771   4.197  1.00 20.00    -0.298 OA
ENDBRANCH   3   9
TORSDOF 1
ENDMDL
MODEL 4
REMARK VINA RESULT:      -4.7      1.311      2.106
REMARK  1 active torsions:
REMARK  status: ('A' for Active; 'I' for Inactive)
REMARK    1  A    between atoms: C3_3  and  C4_4 
ROOT
HETATM    1  C1  UNL     1     -36.477  14.758  -3.473  1.00 20.00    -0.018 A 
HETATM    2  C2  UNL     1     -36.777  16.066  -3.425  1.00 20.00    -0.024 A 
HETATM    3  C4  UNL     1     -34.982  14.590  -3.586  1.00 20.00     0.082 A 
HETATM    4  C5  UNL     1     -35.606  16.954  -3.522  1.00 20.00     0.022 A 
HETATM    5  C6  UNL     1     -34.420  16.003  -3.625  1.00 20.00     0.017 A 
HETATM    6  C7  UNL     1     -34.511  16.993  -2.476  1.00 20.00    -0.035 A 
HETATM    7  C9  UNL     1     -33.572  18.175  -2.521  1.00 20.00     0.016 C 
HETATM    8  C10 UNL     1     -34.772  16.506  -1.072  1.00 20.00     0.016 C 
ENDROOT
BRANCH   3   9
HETATM    9  C3  UNL     1     -34.727  13.836  -4.851  1.00 20.00     0.131 C 
HETATM   10  C8  UNL     1     -34.486  14.655  -6.091  1.00 20.00     0.091 C 
HETATM   11  O11 UNL     1     -34.711  12.606  -4.877  1.00 20.00    -0.298 OA
ENDBRANCH   3   9
TORSDOF 1
ENDMDL
MODEL 5
REMARK VINA RESULT:      -4.7      1.509      2.099
REMARK  1 active torsions:
REMARK  status: ('A' for Active; 'I' for Inactive)
REMARK    1  A    between atoms: C3_3  and  C4_4 
ROOT
HETATM    1  C1  UNL     1     -35.860  16.212  -2.837  1.00 20.00    -0.018 A 
HETATM    2  C2  UNL     1     -35.764  17.547  -2.725  1.00 20.00    -0.024 A 
HETATM    3  C4  UNL     1     -34.590  15.574  -2.329  1.00 20.00     0.082 A 
HETATM    4  C5  UNL     1     -34.477  18.013  -2.183  1.00 20.00     0.022 A 
HETATM    5  C6  UNL     1     -33.696  16.732  -1.914  1.00 20.00     0.017 A 
HETATM    6  C7  UNL     1     -34.009  17.693  -0.778  1.00 20.00    -0.035 A 
HETATM    7  C9  UNL     1     -32.857  18.511  -0.244  1.00 20.00     0.016 C 
HETATM    8  C10 UNL     1     -34.999  17.306   0.292  1.00 20.00     0.016 C 
ENDROOT
BRANCH   3   9
HETATM    9  C3  UNL     1     -34.020  14.786  -3.463  1.00 20.00     0.131 C 
HETATM   10  C8  UNL     1     -34.885  13.693  -4.030  1.00 20.00     0.091 C 
HETATM   11  O11 UNL     1     -32.900  15.022  -3.913  1.00 20.00    -0.298 OA
ENDBRANCH   3   9
TORSDOF 1
ENDMDL
MODEL 6
REMARK VINA RESULT:      -4.7      1.950      3.140
REMARK  1 active torsions:
REMARK  status: ('A' for Active; 'I' for Inactive)
REMARK    1  A    between atoms: C3_3  and  C4_4 
ROOT
HETATM    1  C1  UNL     1     -35.478  13.955  -5.114  1.00 20.00    -0.018 A 
HETATM    2  C2  UNL     1     -34.568  13.633  -4.181  1.00 20.00    -0.024 A 
HETATM    3  C4  UNL     1     -36.190  15.222  -4.704  1.00 20.00     0.082 A 
HETATM    4  C5  UNL     1     -34.531  14.556  -3.034  1.00 20.00     0.022 A 
HETATM    5  C6  UNL     1     -35.586  15.606  -3.362  1.00 20.00     0.017 A 
HETATM    6  C7  UNL     1     -34.136  16.013  -3.160  1.00 20.00    -0.035 A 
HETATM    7  C9  UNL     1     -33.806  16.740  -1.878  1.00 20.00     0.016 C 
HETATM    8  C10 UNL     1     -33.309  16.487  -4.330  1.00 20.00     0.016 C 
ENDROOT
BRANCH   3   9
HETATM    9  C3  UNL     1     -37.643  14.888  -4.605  1.00 20.00     0.131 C 
HETATM   10  C8  UNL     1     -38.542  15.455  -5.671  1.00 20.00     0.091 C 
HETATM   11  O11 UNL     1     -38.082  14.181  -3.699  1.00 20.00    -0.298 OA
ENDBRANCH   3   9
TORSDOF 1
ENDMDL
MODEL 7
REMARK VINA RESULT:      -4.6      1.422      1.560
REMARK  1 active torsions:
REMARK  status: ('A' for Active; 'I' for Inactive)
REMARK    1  A    between atoms: C3_3  and  C4_4 
ROOT
HETATM    1  C1  UNL     1     -34.153  17.180  -3.793  1.00 20.00    -0.018 A 
HETATM    2  C2  UNL     1     -33.684  18.093  -2.928  1.00 20.00    -0.024 A 
HETATM    3  C4  UNL     1     -34.677  15.989  -3.030  1.00 20.00     0.082 A 
HETATM    4  C5  UNL     1     -33.778  17.686  -1.516  1.00 20.00     0.022 A 
HETATM    5  C6  UNL     1     -34.429  16.309  -1.564  1.00 20.00     0.017 A 
HETATM    6  C7  UNL     1     -35.097  17.449  -0.812  1.00 20.00    -0.035 A 
HETATM    7  C9  UNL     1     -35.059  17.381   0.697  1.00 20.00     0.016 C 
HETATM    8  C10 UNL     1     -36.371  18.063  -1.338  1.00 20.00     0.016 C 
ENDROOT
BRANCH   3   9
HETATM    9  C3  UNL     1     -33.899  14.801  -3.497  1.00 20.00     0.131 C 
HETATM   10  C8  UNL     1     -34.693  13.588  -3.901  1.00 20.00     0.091 C 
HETATM   11  O11 UNL     1     -32.671  14.815  -3.551  1.00 20.00    -0.298 OA
ENDBRANCH   3   9
TORSDOF 1
ENDMDL
MODEL 8
REMARK VINA RESULT:      -4.6     10.871     12.198
REMARK  1 active torsions:
REMARK  status: ('A' for Active; 'I' for Inactive)
REMARK    1  A    between atoms: C3_3  and  C4_4 
ROOT
HETATM    1  C1  UNL     1     -34.689   5.399   3.250  1.00 20.00    -0.018 A 
HETATM    2  C2  UNL     1     -33.589   5.204   2.505  1.00 20.00    -0.024 A 
HETATM    3  C4  UNL     1     -34.340   6.252   4.446  1.00 20.00     0.082 A 
HETATM    4  C5  UNL     1     -32.374   5.831   3.054  1.00 20.00     0.022 A 
HETATM    5  C6  UNL     1     -32.849   6.524   4.325  1.00 20.00     0.017 A 
HETATM    6  C7  UNL     1     -32.213   7.329   3.203  1.00 20.00    -0.035 A 
HETATM    7  C9  UNL     1     -30.813   7.841   3.443  1.00 20.00     0.016 C 
HETATM    8  C10 UNL     1     -33.050   8.277   2.380  1.00 20.00     0.016 C 
ENDROOT
BRANCH   3   9
HETATM    9  C3  UNL     1     -34.681   5.451   5.660  1.00 20.00     0.131 C 
HETATM   10  C8  UNL     1     -35.056   4.011   5.439  1.00 20.00     0.091 C 
HETATM   11  O11 UNL     1     -34.653   5.944   6.787  1.00 20.00    -0.298 OA
ENDBRANCH   3   9
TORSDOF 1
ENDMDL
MODEL 9
REMARK VINA RESULT:      -4.5      1.934      3.983
REMARK  1 active torsions:
REMARK  status: ('A' for Active; 'I' for Inactive)
REMARK    1  A    between atoms: C3_3  and  C4_4 
ROOT
HETATM    1  C1  UNL     1     -33.666  17.665  -2.756  1.00 20.00    -0.018 A 
HETATM    2  C2  UNL     1     -33.919  17.276  -4.016  1.00 20.00    -0.024 A 
HETATM    3  C4  UNL     1     -34.180  16.621  -1.796  1.00 20.00     0.082 A 
HETATM    4  C5  UNL     1     -34.632  15.991  -4.116  1.00 20.00     0.022 A 
HETATM    5  C6  UNL     1     -34.809  15.546  -2.669  1.00 20.00     0.017 A 
HETATM    6  C7  UNL     1     -34.036  14.679  -3.650  1.00 20.00    -0.035 A 
HETATM    7  C9  UNL     1     -34.719  13.418  -4.126  1.00 20.00     0.016 C 
HETATM    8  C10 UNL     1     -32.543  14.519  -3.511  1.00 20.00     0.016 C 
ENDROOT
BRANCH   3   9
HETATM    9  C3  UNL     1     -35.177  17.299  -0.914  1.00 20.00     0.131 C 
HETATM   10  C8  UNL     1     -34.836  17.388   0.550  1.00 20.00     0.091 C 
HETATM   11  O11 UNL     1     -36.223  17.765  -1.362  1.00 20.00    -0.298 OA
ENDBRANCH   3   9
TORSDOF 1
ENDMDL
