MODEL 1
REMARK VINA RESULT:      -4.0      0.000      0.000
REMARK  2 active torsions:
REMARK  status: ('A' for Active; 'I' for Inactive)
REMARK    1  A    between atoms: C2_2  and  C5_5 
REMARK    2  A    between atoms: C5_5  and  C6_6 
ROOT
HETATM    1  C1  UNL     1     -32.458   7.238   2.958  1.00 20.00     0.206 A 
HETATM    2  C2  UNL     1     -33.370   6.140   3.452  1.00 20.00     0.079 A 
HETATM    3  C3  UNL     1     -34.170   5.349   2.468  1.00 20.00     0.048 C 
HETATM    4  O7  UNL     1     -31.954   5.947   3.334  1.00 20.00    -0.375 OA
ENDROOT
BRANCH   2   5
HETATM    5  C5  UNL     1     -33.867   6.169   4.888  1.00 20.00     0.039 C 
BRANCH   5   6
HETATM    6  C6  UNL     1     -35.092   5.275   5.075  1.00 20.00    -0.002 C 
HETATM    7  C4  UNL     1     -34.780   4.083   5.964  1.00 20.00     0.005 C 
ENDBRANCH   5   6
ENDBRANCH   2   5
TORSDOF 2
ENDMDL
MODEL 2
REMARK VINA RESULT:      -4.0      1.780      3.495
REMARK  2 active torsions:
REMARK  status: ('A' for Active; 'I' for Inactive)
REMARK    1  A    between atoms: C2_2  and  C5_5 
REMARK    2  A    between atoms: C5_5  and  C6_6 
ROOT
HETATM    1  C1  UNL     1     -34.400   4.256   5.829  1.00 20.00     0.206 A 
HETATM    2  C2  UNL     1     -34.507   5.416   4.867  1.00 20.00     0.079 A 
HETATM    3  C3  UNL     1     -35.591   5.421   3.839  1.00 20.00     0.048 C 
HETATM    4  O7  UNL     1     -34.989   5.507   6.215  1.00 20.00    -0.375 OA
ENDROOT
BRANCH   2   5
HETATM    5  C5  UNL     1     -33.285   6.276   4.594  1.00 20.00     0.039 C 
BRANCH   5   6
HETATM    6  C6  UNL     1     -32.868   6.206   3.125  1.00 20.00    -0.002 C 
HETATM    7  C4  UNL     1     -32.193   7.492   2.677  1.00 20.00     0.005 C 
ENDBRANCH   5   6
ENDBRANCH   2   5
TORSDOF 2
ENDMDL
MODEL 3
REMARK VINA RESULT:      -4.0      1.565      3.624
REMARK  2 active torsions:
REMARK  status: ('A' for Active; 'I' for Inactive)
REMARK    1  A    between atoms: C2_2  and  C5_5 
REMARK    2  A    between atoms: C5_5  and  C6_6 
ROOT
HETATM    1  C1  UNL     1     -35.276   4.427   5.859  1.00 20.00     0.206 A 
HETATM    2  C2  UNL     1     -34.376   5.560   5.425  1.00 20.00     0.079 A 
HETATM    3  C3  UNL     1     -33.945   6.582   6.426  1.00 20.00     0.048 C 
HETATM    4  O7  UNL     1     -33.863   4.246   5.684  1.00 20.00    -0.375 OA
ENDROOT
BRANCH   2   5
HETATM    5  C5  UNL     1     -34.329   5.959   3.960  1.00 20.00     0.039 C 
BRANCH   5   6
HETATM    6  C6  UNL     1     -32.917   5.833   3.390  1.00 20.00    -0.002 C 
HETATM    7  C4  UNL     1     -32.329   7.193   3.054  1.00 20.00     0.005 C 
ENDBRANCH   5   6
ENDBRANCH   2   5
TORSDOF 2
ENDMDL
MODEL 4
REMARK VINA RESULT:      -3.9      1.765      3.609
REMARK  2 active torsions:
REMARK  status: ('A' for Active; 'I' for Inactive)
REMARK    1  A    between atoms: C2_2  and  C5_5 
REMARK    2  A    between atoms: C5_5  and  C6_6 
ROOT
HETATM    1  C1  UNL     1     -35.740   5.417   3.960  1.00 20.00     0.206 A 
HETATM    2  C2  UNL     1     -34.292   5.704   4.279  1.00 20.00     0.079 A 
HETATM    3  C3  UNL     1     -33.939   6.353   5.577  1.00 20.00     0.048 C 
HETATM    4  O7  UNL     1     -34.850   4.391   4.423  1.00 20.00    -0.375 OA
ENDROOT
BRANCH   2   5
HETATM    5  C5  UNL     1     -33.285   5.822   3.147  1.00 20.00     0.039 C 
BRANCH   5   6
HETATM    6  C6  UNL     1     -32.204   6.854   3.464  1.00 20.00    -0.002 C 
HETATM    7  C4  UNL     1     -32.100   7.904   2.369  1.00 20.00     0.005 C 
ENDBRANCH   5   6
ENDBRANCH   2   5
TORSDOF 2
ENDMDL
MODEL 5
REMARK VINA RESULT:      -3.6     11.652     11.983
REMARK  2 active torsions:
REMARK  status: ('A' for Active; 'I' for Inactive)
REMARK    1  A    between atoms: C2_2  and  C5_5 
REMARK    2  A    between atoms: C5_5  and  C6_6 
ROOT
HETATM    1  C1  UNL     1     -34.765  13.619  -5.367  1.00 20.00     0.206 A 
HETATM    2  C2  UNL     1     -35.350  14.160  -4.084  1.00 20.00     0.079 A 
HETATM    3  C3  UNL     1     -36.811  14.462  -4.012  1.00 20.00     0.048 C 
HETATM    4  O7  UNL     1     -35.056  12.766  -4.251  1.00 20.00    -0.375 OA
ENDROOT
BRANCH   2   5
HETATM    5  C5  UNL     1     -34.445  14.862  -3.086  1.00 20.00     0.039 C 
BRANCH   5   6
HETATM    6  C6  UNL     1     -35.091  16.136  -2.544  1.00 20.00    -0.002 C 
HETATM    7  C4  UNL     1     -34.597  16.458  -1.143  1.00 20.00     0.005 C 
ENDBRANCH   5   6
ENDBRANCH   2   5
TORSDOF 2
ENDMDL
MODEL 6
REMARK VINA RESULT:      -3.3     11.844     12.576
REMARK  2 active torsions:
REMARK  status: ('A' for Active; 'I' for Inactive)
REMARK    1  A    between atoms: C2_2  and  C5_5 
REMARK    2  A    between atoms: C5_5  and  C6_6 
ROOT
HETATM    1  C1  UNL     1     -33.801  16.420  -5.055  1.00 20.00     0.206 A 
HETATM    2  C2  UNL     1     -33.689  15.762  -3.700  1.00 20.00     0.079 A 
HETATM    3  C3  UNL     1     -34.111  14.338  -3.537  1.00 20.00     0.048 C 
HETATM    4  O7  UNL     1     -32.548  15.931  -4.554  1.00 20.00    -0.375 OA
ENDROOT
BRANCH   2   5
HETATM    5  C5  UNL     1     -33.652  16.624  -2.450  1.00 20.00     0.039 C 
BRANCH   5   6
HETATM    6  C6  UNL     1     -34.765  16.244  -1.475  1.00 20.00    -0.002 C 
HETATM    7  C4  UNL     1     -34.709  17.087  -0.211  1.00 20.00     0.005 C 
ENDBRANCH   5   6
ENDBRANCH   2   5
TORSDOF 2
ENDMDL
MODEL 7
REMARK VINA RESULT:      -3.3      1.496      1.858
REMARK  2 active torsions:
REMARK  status: ('A' for Active; 'I' for Inactive)
REMARK    1  A    between atoms: C2_2  and  C5_5 
REMARK    2  A    between atoms: C5_5  and  C6_6 
ROOT
HETATM    1  C1  UNL     1     -33.395   6.396   3.262  1.00 20.00     0.206 A 
HETATM    2  C2  UNL     1     -34.504   5.542   3.830  1.00 20.00     0.079 A 
HETATM    3  C3  UNL     1     -35.925   5.881   3.522  1.00 20.00     0.048 C 
HETATM    4  O7  UNL     1     -33.747   5.129   2.684  1.00 20.00    -0.375 OA
ENDROOT
BRANCH   2   5
HETATM    5  C5  UNL     1     -34.242   4.705   5.071  1.00 20.00     0.039 C 
BRANCH   5   6
HETATM    6  C6  UNL     1     -34.729   5.411   6.336  1.00 20.00    -0.002 C 
HETATM    7  C4  UNL     1     -33.930   6.675   6.609  1.00 20.00     0.005 C 
ENDBRANCH   5   6
ENDBRANCH   2   5
TORSDOF 2
ENDMDL
MODEL 8
REMARK VINA RESULT:      -3.2     11.591     12.301
REMARK  2 active torsions:
REMARK  status: ('A' for Active; 'I' for Inactive)
REMARK    1  A    between atoms: C2_2  and  C5_5 
REMARK    2  A    between atoms: C5_5  and  C6_6 
ROOT
HETATM    1  C1  UNL     1     -35.177  14.243  -5.401  1.00 20.00     0.206 A 
HETATM    2  C2  UNL     1     -34.426  14.551  -4.127  1.00 20.00     0.079 A 
HETATM    3  C3  UNL     1     -33.286  13.677  -3.716  1.00 20.00     0.048 C 
HETATM    4  O7  UNL     1     -34.187  15.280  -5.339  1.00 20.00    -0.375 OA
ENDROOT
BRANCH   2   5
HETATM    5  C5  UNL     1     -35.100  15.372  -3.041  1.00 20.00     0.039 C 
BRANCH   5   6
HETATM    6  C6  UNL     1     -34.087  16.208  -2.261  1.00 20.00    -0.002 C 
HETATM    7  C4  UNL     1     -34.633  16.620  -0.904  1.00 20.00     0.005 C 
ENDBRANCH   5   6
ENDBRANCH   2   5
TORSDOF 2
ENDMDL
MODEL 9
REMARK VINA RESULT:      -3.2     11.638     12.739
REMARK  2 active torsions:
REMARK  status: ('A' for Active; 'I' for Inactive)
REMARK    1  A    between atoms: C2_2  and  C5_5 
REMARK    2  A    between atoms: C5_5  and  C6_6 
ROOT
HETATM    1  C1  UNL     1     -34.507  13.261  -4.835  1.00 20.00     0.206 A 
HETATM    2  C2  UNL     1     -34.441  14.421  -3.871  1.00 20.00     0.079 A 
HETATM    3  C3  UNL     1     -35.707  15.010  -3.340  1.00 20.00     0.048 C 
HETATM    4  O7  UNL     1     -34.207  13.072  -3.444  1.00 20.00    -0.375 OA
ENDROOT
BRANCH   2   5
HETATM    5  C5  UNL     1     -33.200  15.298  -3.839  1.00 20.00     0.039 C 
BRANCH   5   6
HETATM    6  C6  UNL     1     -33.558  16.780  -3.946  1.00 20.00    -0.002 C 
HETATM    7  C4  UNL     1     -33.501  17.263  -5.387  1.00 20.00     0.005 C 
ENDBRANCH   5   6
ENDBRANCH   2   5
TORSDOF 2
ENDMDL
