MODEL 1
REMARK VINA RESULT:      -4.1      0.000      0.000
REMARK  2 active torsions:
REMARK  status: ('A' for Active; 'I' for Inactive)
REMARK    1  A    between atoms: C2_2  and  C5_5 
REMARK    2  A    between atoms: C5_5  and  C6_6 
ROOT
HETATM    1  C1  UNL     1     -34.811   4.024   4.921  1.00 20.00     0.206 A 
HETATM    2  C2  UNL     1     -34.346   5.441   4.692  1.00 20.00     0.079 A 
HETATM    3  C3  UNL     1     -34.045   6.317   5.865  1.00 20.00     0.048 C 
HETATM    4  O7  UNL     1     -35.728   5.076   4.583  1.00 20.00    -0.375 OA
ENDROOT
BRANCH   2   5
HETATM    5  C5  UNL     1     -33.704   5.814   3.365  1.00 20.00     0.039 C 
BRANCH   5   6
HETATM    6  C6  UNL     1     -32.376   6.541   3.571  1.00 20.00    -0.002 C 
HETATM    7  C4  UNL     1     -32.175   7.636   2.537  1.00 20.00     0.005 C 
ENDBRANCH   5   6
ENDBRANCH   2   5
TORSDOF 2
ENDMDL
MODEL 2
REMARK VINA RESULT:      -4.0      1.221      1.590
REMARK  2 active torsions:
REMARK  status: ('A' for Active; 'I' for Inactive)
REMARK    1  A    between atoms: C2_2  and  C5_5 
REMARK    2  A    between atoms: C5_5  and  C6_6 
ROOT
HETATM    1  C1  UNL     1     -34.847   5.333   6.375  1.00 20.00     0.206 A 
HETATM    2  C2  UNL     1     -34.441   5.530   4.934  1.00 20.00     0.079 A 
HETATM    3  C3  UNL     1     -35.455   5.353   3.851  1.00 20.00     0.048 C 
HETATM    4  O7  UNL     1     -34.136   4.322   5.644  1.00 20.00    -0.375 OA
ENDROOT
BRANCH   2   5
HETATM    5  C5  UNL     1     -33.219   6.374   4.610  1.00 20.00     0.039 C 
BRANCH   5   6
HETATM    6  C6  UNL     1     -32.820   6.239   3.142  1.00 20.00    -0.002 C 
HETATM    7  C4  UNL     1     -32.197   7.521   2.613  1.00 20.00     0.005 C 
ENDBRANCH   5   6
ENDBRANCH   2   5
TORSDOF 2
ENDMDL
MODEL 3
REMARK VINA RESULT:      -3.8      1.723      3.598
REMARK  2 active torsions:
REMARK  status: ('A' for Active; 'I' for Inactive)
REMARK    1  A    between atoms: C2_2  and  C5_5 
REMARK    2  A    between atoms: C5_5  and  C6_6 
ROOT
HETATM    1  C1  UNL     1     -32.034   6.234   3.230  1.00 20.00     0.206 A 
HETATM    2  C2  UNL     1     -33.496   6.092   3.576  1.00 20.00     0.079 A 
HETATM    3  C3  UNL     1     -34.408   5.364   2.642  1.00 20.00     0.048 C 
HETATM    4  O7  UNL     1     -32.966   7.309   3.035  1.00 20.00    -0.375 OA
ENDROOT
BRANCH   2   5
HETATM    5  C5  UNL     1     -33.937   6.207   5.026  1.00 20.00     0.039 C 
BRANCH   5   6
HETATM    6  C6  UNL     1     -35.085   5.250   5.340  1.00 20.00    -0.002 C 
HETATM    7  C4  UNL     1     -34.586   3.979   6.006  1.00 20.00     0.005 C 
ENDBRANCH   5   6
ENDBRANCH   2   5
TORSDOF 2
ENDMDL
MODEL 4
REMARK VINA RESULT:      -3.8     11.226     11.860
REMARK  2 active torsions:
REMARK  status: ('A' for Active; 'I' for Inactive)
REMARK    1  A    between atoms: C2_2  and  C5_5 
REMARK    2  A    between atoms: C5_5  and  C6_6 
ROOT
HETATM    1  C1  UNL     1     -34.806  13.678  -5.331  1.00 20.00     0.206 A 
HETATM    2  C2  UNL     1     -34.339  13.993  -3.931  1.00 20.00     0.079 A 
HETATM    3  C3  UNL     1     -32.912  13.752  -3.558  1.00 20.00     0.048 C 
HETATM    4  O7  UNL     1     -35.068  12.795  -4.229  1.00 20.00    -0.375 OA
ENDROOT
BRANCH   2   5
HETATM    5  C5  UNL     1     -35.117  14.990  -3.088  1.00 20.00     0.039 C 
BRANCH   5   6
HETATM    6  C6  UNL     1     -34.198  16.052  -2.486  1.00 20.00    -0.002 C 
HETATM    7  C4  UNL     1     -34.663  16.471  -1.101  1.00 20.00     0.005 C 
ENDBRANCH   5   6
ENDBRANCH   2   5
TORSDOF 2
ENDMDL
MODEL 5
REMARK VINA RESULT:      -3.4      1.619      2.705
REMARK  2 active torsions:
REMARK  status: ('A' for Active; 'I' for Inactive)
REMARK    1  A    between atoms: C2_2  and  C5_5 
REMARK    2  A    between atoms: C5_5  and  C6_6 
ROOT
HETATM    1  C1  UNL     1     -34.432   5.054   2.796  1.00 20.00     0.206 A 
HETATM    2  C2  UNL     1     -34.575   5.247   4.286  1.00 20.00     0.079 A 
HETATM    3  C3  UNL     1     -34.983   4.094   5.143  1.00 20.00     0.048 C 
HETATM    4  O7  UNL     1     -35.591   5.677   3.371  1.00 20.00    -0.375 OA
ENDROOT
BRANCH   2   5
HETATM    5  C5  UNL     1     -33.840   6.392   4.966  1.00 20.00     0.039 C 
BRANCH   5   6
HETATM    6  C6  UNL     1     -34.080   6.392   6.475  1.00 20.00    -0.002 C 
HETATM    7  C4  UNL     1     -33.385   7.562   7.150  1.00 20.00     0.005 C 
ENDBRANCH   5   6
ENDBRANCH   2   5
TORSDOF 2
ENDMDL
MODEL 6
REMARK VINA RESULT:      -3.4     11.678     12.357
REMARK  2 active torsions:
REMARK  status: ('A' for Active; 'I' for Inactive)
REMARK    1  A    between atoms: C2_2  and  C5_5 
REMARK    2  A    between atoms: C5_5  and  C6_6 
ROOT
HETATM    1  C1  UNL     1     -35.764  13.568  -4.224  1.00 20.00     0.206 A 
HETATM    2  C2  UNL     1     -34.453  14.078  -4.772  1.00 20.00     0.079 A 
HETATM    3  C3  UNL     1     -34.413  14.697  -6.131  1.00 20.00     0.048 C 
HETATM    4  O7  UNL     1     -34.781  12.682  -4.782  1.00 20.00    -0.375 OA
ENDROOT
BRANCH   2   5
HETATM    5  C5  UNL     1     -33.330  14.436  -3.812  1.00 20.00     0.039 C 
BRANCH   5   6
HETATM    6  C6  UNL     1     -33.257  15.943  -3.574  1.00 20.00    -0.002 C 
HETATM    7  C4  UNL     1     -33.949  16.337  -2.279  1.00 20.00     0.005 C 
ENDBRANCH   5   6
ENDBRANCH   2   5
TORSDOF 2
ENDMDL
MODEL 7
REMARK VINA RESULT:      -3.4     11.419     12.202
REMARK  2 active torsions:
REMARK  status: ('A' for Active; 'I' for Inactive)
REMARK    1  A    between atoms: C2_2  and  C5_5 
REMARK    2  A    between atoms: C5_5  and  C6_6 
ROOT
HETATM    1  C1  UNL     1     -36.525  14.776  -4.982  1.00 20.00     0.206 A 
HETATM    2  C2  UNL     1     -35.699  14.721  -3.720  1.00 20.00     0.079 A 
HETATM    3  C3  UNL     1     -34.524  13.801  -3.647  1.00 20.00     0.048 C 
HETATM    4  O7  UNL     1     -36.958  14.044  -3.824  1.00 20.00    -0.375 OA
ENDROOT
BRANCH   2   5
HETATM    5  C5  UNL     1     -35.716  15.902  -2.763  1.00 20.00     0.039 C 
BRANCH   5   6
HETATM    6  C6  UNL     1     -34.406  16.010  -1.984  1.00 20.00    -0.002 C 
HETATM    7  C4  UNL     1     -34.595  16.763  -0.677  1.00 20.00     0.005 C 
ENDBRANCH   5   6
ENDBRANCH   2   5
TORSDOF 2
ENDMDL
MODEL 8
REMARK VINA RESULT:      -3.2     11.969     12.917
REMARK  2 active torsions:
REMARK  status: ('A' for Active; 'I' for Inactive)
REMARK    1  A    between atoms: C2_2  and  C5_5 
REMARK    2  A    between atoms: C5_5  and  C6_6 
ROOT
HETATM    1  C1  UNL     1     -33.321  16.328  -5.108  1.00 20.00     0.206 A 
HETATM    2  C2  UNL     1     -33.651  15.637  -3.807  1.00 20.00     0.079 A 
HETATM    3  C3  UNL     1     -33.568  14.148  -3.720  1.00 20.00     0.048 C 
HETATM    4  O7  UNL     1     -34.677  16.110  -4.689  1.00 20.00    -0.375 OA
ENDROOT
BRANCH   2   5
HETATM    5  C5  UNL     1     -33.559  16.414  -2.503  1.00 20.00     0.039 C 
BRANCH   5   6
HETATM    6  C6  UNL     1     -34.793  16.191  -1.631  1.00 20.00    -0.002 C 
HETATM    7  C4  UNL     1     -34.708  16.977  -0.333  1.00 20.00     0.005 C 
ENDBRANCH   5   6
ENDBRANCH   2   5
TORSDOF 2
ENDMDL
MODEL 9
REMARK VINA RESULT:      -3.1     11.358     12.900
REMARK  2 active torsions:
REMARK  status: ('A' for Active; 'I' for Inactive)
REMARK    1  A    between atoms: C2_2  and  C5_5 
REMARK    2  A    between atoms: C5_5  and  C6_6 
ROOT
HETATM    1  C1  UNL     1     -34.044  13.616  -3.929  1.00 20.00     0.206 A 
HETATM    2  C2  UNL     1     -35.268  13.953  -4.747  1.00 20.00     0.079 A 
HETATM    3  C3  UNL     1     -36.474  14.519  -4.070  1.00 20.00     0.048 C 
HETATM    4  O7  UNL     1     -34.967  12.605  -4.362  1.00 20.00    -0.375 OA
ENDROOT
BRANCH   2   5
HETATM    5  C5  UNL     1     -35.124  14.209  -6.239  1.00 20.00     0.039 C 
BRANCH   5   6
HETATM    6  C6  UNL     1     -35.387  15.674  -6.582  1.00 20.00    -0.002 C 
HETATM    7  C4  UNL     1     -34.153  16.531  -6.356  1.00 20.00     0.005 C 
ENDBRANCH   5   6
ENDBRANCH   2   5
TORSDOF 2
ENDMDL
