MODEL 1
REMARK VINA RESULT:      -4.3      0.000      0.000
REMARK  2 active torsions:
REMARK  status: ('A' for Active; 'I' for Inactive)
REMARK    1  A    between atoms: C3_3  and  C8_8 
REMARK    2  A    between atoms: C4_4  and  O9_9 
ROOT
HETATM    1  C1  UNL     1     -32.603   6.941   4.360  1.00 20.00     0.037 C 
HETATM    2  C2  UNL     1     -33.380   5.876   2.683  1.00 20.00     0.037 C 
HETATM    3  C3  UNL     1     -33.236   5.539   4.187  1.00 20.00    -0.002 C 
HETATM    4  C4  UNL     1     -32.225   6.888   2.861  1.00 20.00     0.118 C 
ENDROOT
BRANCH   3   5
HETATM    5  C8  UNL     1     -34.518   5.275   4.948  1.00 20.00    -0.048 C 
HETATM    6  C5  UNL     1     -34.598   3.786   5.315  1.00 20.00     0.015 C 
HETATM    7  C6  UNL     1     -35.721   5.651   4.070  1.00 20.00     0.015 C 
HETATM    8  C7  UNL     1     -34.535   6.119   6.230  1.00 20.00     0.015 C 
ENDBRANCH   3   5
BRANCH   4   9
HETATM    9  O9  UNL     1     -32.348   8.124   2.139  1.00 20.00    -0.396 OA
HETATM   10  H25 UNL     1     -31.894   8.789   2.674  1.00 20.00     0.210 HD
ENDBRANCH   4   9
TORSDOF 2
ENDMDL
MODEL 2
REMARK VINA RESULT:      -4.3      0.049      1.433
REMARK  2 active torsions:
REMARK  status: ('A' for Active; 'I' for Inactive)
REMARK    1  A    between atoms: C3_3  and  C8_8 
REMARK    2  A    between atoms: C4_4  and  O9_9 
ROOT
HETATM    1  C1  UNL     1     -32.614   6.907   4.380  1.00 20.00     0.037 C 
HETATM    2  C2  UNL     1     -33.381   5.859   2.687  1.00 20.00     0.037 C 
HETATM    3  C3  UNL     1     -33.255   5.510   4.190  1.00 20.00    -0.002 C 
HETATM    4  C4  UNL     1     -32.221   6.862   2.885  1.00 20.00     0.118 C 
ENDROOT
BRANCH   3   5
HETATM    5  C8  UNL     1     -34.546   5.249   4.936  1.00 20.00    -0.048 C 
HETATM    6  C5  UNL     1     -34.553   6.054   6.244  1.00 20.00     0.015 C 
HETATM    7  C6  UNL     1     -34.659   3.752   5.255  1.00 20.00     0.015 C 
HETATM    8  C7  UNL     1     -35.735   5.678   4.066  1.00 20.00     0.015 C 
ENDBRANCH   3   5
BRANCH   4   9
HETATM    9  O9  UNL     1     -32.329   8.105   2.171  1.00 20.00    -0.396 OA
HETATM   10  H25 UNL     1     -32.825   7.905   1.366  1.00 20.00     0.210 HD
ENDBRANCH   4   9
TORSDOF 2
ENDMDL
MODEL 3
REMARK VINA RESULT:      -4.3      2.302      3.782
REMARK  2 active torsions:
REMARK  status: ('A' for Active; 'I' for Inactive)
REMARK    1  A    between atoms: C3_3  and  C8_8 
REMARK    2  A    between atoms: C4_4  and  O9_9 
ROOT
HETATM    1  C1  UNL     1     -34.077   5.902   5.264  1.00 20.00     0.037 C 
HETATM    2  C2  UNL     1     -34.671   5.359   3.289  1.00 20.00     0.037 C 
HETATM    3  C3  UNL     1     -33.973   6.604   3.889  1.00 20.00    -0.002 C 
HETATM    4  C4  UNL     1     -35.262   5.090   4.692  1.00 20.00     0.118 C 
ENDROOT
BRANCH   3   5
HETATM    5  C8  UNL     1     -32.577   6.907   3.385  1.00 20.00    -0.048 C 
HETATM    6  C5  UNL     1     -32.662   7.867   2.189  1.00 20.00     0.015 C 
HETATM    7  C6  UNL     1     -31.897   5.602   2.946  1.00 20.00     0.015 C 
HETATM    8  C7  UNL     1     -31.758   7.558   4.508  1.00 20.00     0.015 C 
ENDBRANCH   3   5
BRANCH   4   9
HETATM    9  O9  UNL     1     -35.331   3.713   5.097  1.00 20.00    -0.396 OA
HETATM   10  H25 UNL     1     -34.737   3.233   4.504  1.00 20.00     0.210 HD
ENDBRANCH   4   9
TORSDOF 2
ENDMDL
MODEL 4
REMARK VINA RESULT:      -4.3      2.302      3.781
REMARK  2 active torsions:
REMARK  status: ('A' for Active; 'I' for Inactive)
REMARK    1  A    between atoms: C3_3  and  C8_8 
REMARK    2  A    between atoms: C4_4  and  O9_9 
ROOT
HETATM    1  C1  UNL     1     -34.077   5.902   5.264  1.00 20.00     0.037 C 
HETATM    2  C2  UNL     1     -34.672   5.359   3.289  1.00 20.00     0.037 C 
HETATM    3  C3  UNL     1     -33.974   6.604   3.888  1.00 20.00    -0.002 C 
HETATM    4  C4  UNL     1     -35.262   5.090   4.693  1.00 20.00     0.118 C 
ENDROOT
BRANCH   3   5
HETATM    5  C8  UNL     1     -32.578   6.906   3.384  1.00 20.00    -0.048 C 
HETATM    6  C5  UNL     1     -31.759   7.559   4.508  1.00 20.00     0.015 C 
HETATM    7  C6  UNL     1     -32.663   7.867   2.189  1.00 20.00     0.015 C 
HETATM    8  C7  UNL     1     -31.898   5.602   2.946  1.00 20.00     0.015 C 
ENDBRANCH   3   5
BRANCH   4   9
HETATM    9  O9  UNL     1     -35.331   3.713   5.098  1.00 20.00    -0.396 OA
HETATM   10  H25 UNL     1     -34.855   3.660   5.938  1.00 20.00     0.210 HD
ENDBRANCH   4   9
TORSDOF 2
ENDMDL
MODEL 5
REMARK VINA RESULT:      -4.0     11.533     12.889
REMARK  2 active torsions:
REMARK  status: ('A' for Active; 'I' for Inactive)
REMARK    1  A    between atoms: C3_3  and  C8_8 
REMARK    2  A    between atoms: C4_4  and  O9_9 
ROOT
HETATM    1  C1  UNL     1     -35.327  14.913  -4.930  1.00 20.00     0.037 C 
HETATM    2  C2  UNL     1     -33.717  14.382  -3.635  1.00 20.00     0.037 C 
HETATM    3  C3  UNL     1     -34.088  15.675  -4.400  1.00 20.00    -0.002 C 
HETATM    4  C4  UNL     1     -34.552  13.600  -4.676  1.00 20.00     0.118 C 
ENDROOT
BRANCH   3   5
HETATM    5  C8  UNL     1     -34.357  16.906  -3.560  1.00 20.00    -0.048 C 
HETATM    6  C5  UNL     1     -33.829  16.679  -2.136  1.00 20.00     0.015 C 
HETATM    7  C6  UNL     1     -35.869  17.169  -3.508  1.00 20.00     0.015 C 
HETATM    8  C7  UNL     1     -33.647  18.116  -4.182  1.00 20.00     0.015 C 
ENDBRANCH   3   5
BRANCH   4   9
HETATM    9  O9  UNL     1     -35.328  12.501  -4.170  1.00 20.00    -0.396 OA
HETATM   10  H25 UNL     1     -35.038  11.722  -4.663  1.00 20.00     0.210 HD
ENDBRANCH   4   9
TORSDOF 2
ENDMDL
MODEL 6
REMARK VINA RESULT:      -4.0     11.527     12.911
REMARK  2 active torsions:
REMARK  status: ('A' for Active; 'I' for Inactive)
REMARK    1  A    between atoms: C3_3  and  C8_8 
REMARK    2  A    between atoms: C4_4  and  O9_9 
ROOT
HETATM    1  C1  UNL     1     -35.302  14.907  -4.955  1.00 20.00     0.037 C 
HETATM    2  C2  UNL     1     -33.715  14.374  -3.632  1.00 20.00     0.037 C 
HETATM    3  C3  UNL     1     -34.065  15.664  -4.413  1.00 20.00    -0.002 C 
HETATM    4  C4  UNL     1     -34.540  13.590  -4.679  1.00 20.00     0.118 C 
ENDROOT
BRANCH   3   5
HETATM    5  C8  UNL     1     -34.336  16.903  -3.586  1.00 20.00    -0.048 C 
HETATM    6  C5  UNL     1     -35.846  17.184  -3.565  1.00 20.00     0.015 C 
HETATM    7  C6  UNL     1     -33.602  18.102  -4.204  1.00 20.00     0.015 C 
HETATM    8  C7  UNL     1     -33.837  16.681  -2.152  1.00 20.00     0.015 C 
ENDBRANCH   3   5
BRANCH   4   9
HETATM    9  O9  UNL     1     -35.332  12.502  -4.175  1.00 20.00    -0.396 OA
HETATM   10  H25 UNL     1     -35.267  11.799  -4.836  1.00 20.00     0.210 HD
ENDBRANCH   4   9
TORSDOF 2
ENDMDL
MODEL 7
REMARK VINA RESULT:      -4.0     11.524     12.954
REMARK  2 active torsions:
REMARK  status: ('A' for Active; 'I' for Inactive)
REMARK    1  A    between atoms: C3_3  and  C8_8 
REMARK    2  A    between atoms: C4_4  and  O9_9 
ROOT
HETATM    1  C1  UNL     1     -35.299  14.909  -4.952  1.00 20.00     0.037 C 
HETATM    2  C2  UNL     1     -33.716  14.375  -3.626  1.00 20.00     0.037 C 
HETATM    3  C3  UNL     1     -34.063  15.666  -4.407  1.00 20.00    -0.002 C 
HETATM    4  C4  UNL     1     -34.539  13.592  -4.675  1.00 20.00     0.118 C 
ENDROOT
BRANCH   3   5
HETATM    5  C8  UNL     1     -34.336  16.905  -3.581  1.00 20.00    -0.048 C 
HETATM    6  C5  UNL     1     -33.603  18.104  -4.199  1.00 20.00     0.015 C 
HETATM    7  C6  UNL     1     -33.836  16.684  -2.146  1.00 20.00     0.015 C 
HETATM    8  C7  UNL     1     -35.845  17.183  -3.560  1.00 20.00     0.015 C 
ENDBRANCH   3   5
BRANCH   4   9
HETATM    9  O9  UNL     1     -35.333  12.504  -4.174  1.00 20.00    -0.396 OA
HETATM   10  H25 UNL     1     -34.793  11.709  -4.284  1.00 20.00     0.210 HD
ENDBRANCH   4   9
TORSDOF 2
ENDMDL
MODEL 8
REMARK VINA RESULT:      -3.9     11.576     12.763
REMARK  2 active torsions:
REMARK  status: ('A' for Active; 'I' for Inactive)
REMARK    1  A    between atoms: C3_3  and  C8_8 
REMARK    2  A    between atoms: C4_4  and  O9_9 
ROOT
HETATM    1  C1  UNL     1     -36.485  16.273  -3.646  1.00 20.00     0.037 C 
HETATM    2  C2  UNL     1     -36.301  14.192  -4.081  1.00 20.00     0.037 C 
HETATM    3  C3  UNL     1     -35.436  15.432  -4.414  1.00 20.00    -0.002 C 
HETATM    4  C4  UNL     1     -37.507  15.149  -3.934  1.00 20.00     0.118 C 
ENDROOT
BRANCH   3   5
HETATM    5  C8  UNL     1     -34.025  15.442  -3.866  1.00 20.00    -0.048 C 
HETATM    6  C5  UNL     1     -33.497  14.002  -3.789  1.00 20.00     0.015 C 
HETATM    7  C6  UNL     1     -34.026  16.062  -2.462  1.00 20.00     0.015 C 
HETATM    8  C7  UNL     1     -33.122  16.269  -4.791  1.00 20.00     0.015 C 
ENDBRANCH   3   5
BRANCH   4   9
HETATM    9  O9  UNL     1     -38.427  14.850  -2.870  1.00 20.00    -0.396 OA
HETATM   10  H25 UNL     1     -39.310  14.915  -3.258  1.00 20.00     0.210 HD
ENDBRANCH   4   9
TORSDOF 2
ENDMDL
MODEL 9
REMARK VINA RESULT:      -3.9     11.564     12.763
REMARK  2 active torsions:
REMARK  status: ('A' for Active; 'I' for Inactive)
REMARK    1  A    between atoms: C3_3  and  C8_8 
REMARK    2  A    between atoms: C4_4  and  O9_9 
ROOT
HETATM    1  C1  UNL     1     -36.474  16.223  -3.725  1.00 20.00     0.037 C 
HETATM    2  C2  UNL     1     -36.258  14.129  -4.068  1.00 20.00     0.037 C 
HETATM    3  C3  UNL     1     -35.404  15.365  -4.442  1.00 20.00    -0.002 C 
HETATM    4  C4  UNL     1     -37.478  15.076  -3.980  1.00 20.00     0.118 C 
ENDROOT
BRANCH   3   5
HETATM    5  C8  UNL     1     -34.001  15.415  -3.873  1.00 20.00    -0.048 C 
HETATM    6  C5  UNL     1     -34.039  16.045  -2.473  1.00 20.00     0.015 C 
HETATM    7  C6  UNL     1     -33.108  16.263  -4.791  1.00 20.00     0.015 C 
HETATM    8  C7  UNL     1     -33.435  13.992  -3.780  1.00 20.00     0.015 C 
ENDBRANCH   3   5
BRANCH   4   9
HETATM    9  O9  UNL     1     -38.410  14.810  -2.918  1.00 20.00    -0.396 OA
HETATM   10  H25 UNL     1     -39.287  14.970  -3.291  1.00 20.00     0.210 HD
ENDBRANCH   4   9
TORSDOF 2
ENDMDL
