MODEL 1
REMARK VINA RESULT:      -4.7      0.000      0.000
REMARK  3 active torsions:
REMARK  status: ('A' for Active; 'I' for Inactive)
REMARK    1  A    between atoms: C2_2  and  C5_5 
REMARK    2  A    between atoms: C5_5  and  C6_6 
REMARK    3  A    between atoms: C6_6  and  C7_7 
ROOT
HETATM    1  C5  UNL     1     -33.905   6.820   3.668  1.00 20.00     0.034 C 
ENDROOT
BRANCH   1   2
HETATM    2  C2  UNL     1     -32.554   6.750   2.972  1.00 20.00     0.145 A 
HETATM    3  C1  UNL     1     -31.981   7.946   2.263  1.00 20.00     0.200 A 
HETATM    4  O8  UNL     1     -31.534   7.555   3.570  1.00 20.00    -0.381 OA
ENDBRANCH   1   2
BRANCH   1   5
HETATM    5  C6  UNL     1     -34.462   5.421   3.944  1.00 20.00     0.006 C 
BRANCH   5   6
HETATM    6  C7  UNL     1     -34.966   5.235   5.387  1.00 20.00    -0.023 C 
HETATM    7  C3  UNL     1     -34.199   6.168   6.327  1.00 20.00     0.009 C 
HETATM    8  C4  UNL     1     -34.831   3.791   5.871  1.00 20.00     0.009 C 
ENDBRANCH   5   6
ENDBRANCH   1   5
TORSDOF 3
ENDMDL
MODEL 2
REMARK VINA RESULT:      -4.6      0.371      1.292
REMARK  3 active torsions:
REMARK  status: ('A' for Active; 'I' for Inactive)
REMARK    1  A    between atoms: C2_2  and  C5_5 
REMARK    2  A    between atoms: C5_5  and  C6_6 
REMARK    3  A    between atoms: C6_6  and  C7_7 
ROOT
HETATM    1  C5  UNL     1     -33.978   6.815   3.605  1.00 20.00     0.034 C 
ENDROOT
BRANCH   1   2
HETATM    2  C2  UNL     1     -32.593   6.721   2.982  1.00 20.00     0.145 A 
HETATM    3  C1  UNL     1     -31.965   7.903   2.297  1.00 20.00     0.200 A 
HETATM    4  O8  UNL     1     -31.594   7.514   3.629  1.00 20.00    -0.381 OA
ENDBRANCH   1   2
BRANCH   1   5
HETATM    5  C6  UNL     1     -34.480   5.441   4.055  1.00 20.00     0.006 C 
BRANCH   5   6
HETATM    6  C7  UNL     1     -34.167   5.126   5.530  1.00 20.00    -0.023 C 
HETATM    7  C3  UNL     1     -35.216   4.161   6.088  1.00 20.00     0.009 C 
HETATM    8  C4  UNL     1     -34.114   6.386   6.397  1.00 20.00     0.009 C 
ENDBRANCH   5   6
ENDBRANCH   1   5
TORSDOF 3
ENDMDL
MODEL 3
REMARK VINA RESULT:      -4.3      1.072      1.750
REMARK  3 active torsions:
REMARK  status: ('A' for Active; 'I' for Inactive)
REMARK    1  A    between atoms: C2_2  and  C5_5 
REMARK    2  A    between atoms: C5_5  and  C6_6 
REMARK    3  A    between atoms: C6_6  and  C7_7 
ROOT
HETATM    1  C5  UNL     1     -32.563   6.350   3.038  1.00 20.00     0.034 C 
ENDROOT
BRANCH   1   2
HETATM    2  C2  UNL     1     -31.901   7.698   2.793  1.00 20.00     0.145 A 
HETATM    3  C1  UNL     1     -31.801   8.276   1.409  1.00 20.00     0.200 A 
HETATM    4  O8  UNL     1     -32.791   8.725   2.347  1.00 20.00    -0.381 OA
ENDBRANCH   1   2
BRANCH   1   5
HETATM    5  C6  UNL     1     -33.885   6.507   3.794  1.00 20.00     0.006 C 
BRANCH   5   6
HETATM    6  C7  UNL     1     -34.017   5.561   5.001  1.00 20.00    -0.023 C 
HETATM    7  C3  UNL     1     -35.240   4.659   4.821  1.00 20.00     0.009 C 
HETATM    8  C4  UNL     1     -34.125   6.317   6.327  1.00 20.00     0.009 C 
ENDBRANCH   5   6
ENDBRANCH   1   5
TORSDOF 3
ENDMDL
MODEL 4
REMARK VINA RESULT:      -3.9      1.803      4.018
REMARK  3 active torsions:
REMARK  status: ('A' for Active; 'I' for Inactive)
REMARK    1  A    between atoms: C2_2  and  C5_5 
REMARK    2  A    between atoms: C5_5  and  C6_6 
REMARK    3  A    between atoms: C6_6  and  C7_7 
ROOT
HETATM    1  C5  UNL     1     -34.663   5.391   3.639  1.00 20.00     0.034 C 
ENDROOT
BRANCH   1   2
HETATM    2  C2  UNL     1     -35.327   5.005   4.953  1.00 20.00     0.145 A 
HETATM    3  C1  UNL     1     -34.666   4.051   5.908  1.00 20.00     0.200 A 
HETATM    4  O8  UNL     1     -34.648   5.471   6.123  1.00 20.00    -0.381 OA
ENDBRANCH   1   2
BRANCH   1   5
HETATM    5  C6  UNL     1     -34.056   6.794   3.714  1.00 20.00     0.006 C 
BRANCH   5   6
HETATM    6  C7  UNL     1     -32.537   6.819   3.459  1.00 20.00    -0.023 C 
HETATM    7  C3  UNL     1     -32.201   7.909   2.438  1.00 20.00     0.009 C 
HETATM    8  C4  UNL     1     -32.006   5.472   2.967  1.00 20.00     0.009 C 
ENDBRANCH   5   6
ENDBRANCH   1   5
TORSDOF 3
ENDMDL
MODEL 5
REMARK VINA RESULT:      -3.9     11.447     12.179
REMARK  3 active torsions:
REMARK  status: ('A' for Active; 'I' for Inactive)
REMARK    1  A    between atoms: C2_2  and  C5_5 
REMARK    2  A    between atoms: C5_5  and  C6_6 
REMARK    3  A    between atoms: C6_6  and  C7_7 
ROOT
HETATM    1  C5  UNL     1     -34.375  14.553  -3.196  1.00 20.00     0.034 C 
ENDROOT
BRANCH   1   2
HETATM    2  C2  UNL     1     -35.309  13.879  -4.192  1.00 20.00     0.145 A 
HETATM    3  C1  UNL     1     -34.922  13.720  -5.636  1.00 20.00     0.200 A 
HETATM    4  O8  UNL     1     -34.832  12.631  -4.704  1.00 20.00    -0.381 OA
ENDBRANCH   1   2
BRANCH   1   5
HETATM    5  C6  UNL     1     -35.078  15.697  -2.461  1.00 20.00     0.006 C 
BRANCH   5   6
HETATM    6  C7  UNL     1     -34.109  16.633  -1.716  1.00 20.00    -0.023 C 
HETATM    7  C3  UNL     1     -34.677  16.979  -0.338  1.00 20.00     0.009 C 
HETATM    8  C4  UNL     1     -33.827  17.920  -2.494  1.00 20.00     0.009 C 
ENDBRANCH   5   6
ENDBRANCH   1   5
TORSDOF 3
ENDMDL
MODEL 6
REMARK VINA RESULT:      -3.7      1.940      4.748
REMARK  3 active torsions:
REMARK  status: ('A' for Active; 'I' for Inactive)
REMARK    1  A    between atoms: C2_2  and  C5_5 
REMARK    2  A    between atoms: C5_5  and  C6_6 
REMARK    3  A    between atoms: C6_6  and  C7_7 
ROOT
HETATM    1  C5  UNL     1     -32.395   6.371   3.167  1.00 20.00     0.034 C 
ENDROOT
BRANCH   1   2
HETATM    2  C2  UNL     1     -33.744   6.440   3.869  1.00 20.00     0.145 A 
HETATM    3  C1  UNL     1     -34.788   5.380   3.654  1.00 20.00     0.200 A 
HETATM    4  O8  UNL     1     -33.967   5.407   4.832  1.00 20.00    -0.381 OA
ENDBRANCH   1   2
BRANCH   1   5
HETATM    5  C6  UNL     1     -31.805   7.768   2.956  1.00 20.00     0.006 C 
BRANCH   5   6
HETATM    6  C7  UNL     1     -32.426   8.521   1.765  1.00 20.00    -0.023 C 
HETATM    7  C3  UNL     1     -31.487   8.449   0.559  1.00 20.00     0.009 C 
HETATM    8  C4  UNL     1     -32.730   9.984   2.095  1.00 20.00     0.009 C 
ENDBRANCH   5   6
ENDBRANCH   1   5
TORSDOF 3
ENDMDL
MODEL 7
REMARK VINA RESULT:      -3.4     11.780     12.627
REMARK  3 active torsions:
REMARK  status: ('A' for Active; 'I' for Inactive)
REMARK    1  A    between atoms: C2_2  and  C5_5 
REMARK    2  A    between atoms: C5_5  and  C6_6 
REMARK    3  A    between atoms: C6_6  and  C7_7 
ROOT
HETATM    1  C5  UNL     1     -35.612  14.233  -3.845  1.00 20.00     0.034 C 
ENDROOT
BRANCH   1   2
HETATM    2  C2  UNL     1     -36.921  14.970  -3.604  1.00 20.00     0.145 A 
HETATM    3  C1  UNL     1     -37.907  15.191  -4.717  1.00 20.00     0.200 A 
HETATM    4  O8  UNL     1     -38.093  14.160  -3.736  1.00 20.00    -0.381 OA
ENDBRANCH   1   2
BRANCH   1   5
HETATM    5  C6  UNL     1     -34.457  14.886  -3.082  1.00 20.00     0.006 C 
BRANCH   5   6
HETATM    6  C7  UNL     1     -34.763  16.322  -2.618  1.00 20.00    -0.023 C 
HETATM    7  C3  UNL     1     -33.879  17.312  -3.380  1.00 20.00     0.009 C 
HETATM    8  C4  UNL     1     -34.562  16.505  -1.113  1.00 20.00     0.009 C 
ENDBRANCH   5   6
ENDBRANCH   1   5
TORSDOF 3
ENDMDL
MODEL 8
REMARK VINA RESULT:      -3.4     11.444     14.060
REMARK  3 active torsions:
REMARK  status: ('A' for Active; 'I' for Inactive)
REMARK    1  A    between atoms: C2_2  and  C5_5 
REMARK    2  A    between atoms: C5_5  and  C6_6 
REMARK    3  A    between atoms: C6_6  and  C7_7 
ROOT
HETATM    1  C5  UNL     1     -35.207  14.293  -6.142  1.00 20.00     0.034 C 
ENDROOT
BRANCH   1   2
HETATM    2  C2  UNL     1     -34.355  13.560  -5.117  1.00 20.00     0.145 A 
HETATM    3  C1  UNL     1     -34.510  13.822  -3.645  1.00 20.00     0.200 A 
HETATM    4  O8  UNL     1     -35.081  12.663  -4.271  1.00 20.00    -0.381 OA
ENDBRANCH   1   2
BRANCH   1   5
HETATM    5  C6  UNL     1     -34.365  15.264  -6.974  1.00 20.00     0.006 C 
BRANCH   5   6
HETATM    6  C7  UNL     1     -34.581  16.741  -6.597  1.00 20.00    -0.023 C 
HETATM    7  C3  UNL     1     -34.472  17.617  -7.848  1.00 20.00     0.009 C 
HETATM    8  C4  UNL     1     -33.586  17.226  -5.541  1.00 20.00     0.009 C 
ENDBRANCH   5   6
ENDBRANCH   1   5
TORSDOF 3
ENDMDL
MODEL 9
REMARK VINA RESULT:      -3.4     11.866     12.802
REMARK  3 active torsions:
REMARK  status: ('A' for Active; 'I' for Inactive)
REMARK    1  A    between atoms: C2_2  and  C5_5 
REMARK    2  A    between atoms: C5_5  and  C6_6 
REMARK    3  A    between atoms: C6_6  and  C7_7 
ROOT
HETATM    1  C5  UNL     1     -34.867  13.491  -5.205  1.00 20.00     0.034 C 
ENDROOT
BRANCH   1   2
HETATM    2  C2  UNL     1     -35.329  14.564  -6.181  1.00 20.00     0.145 A 
HETATM    3  C1  UNL     1     -34.419  15.075  -7.264  1.00 20.00     0.200 A 
HETATM    4  O8  UNL     1     -35.458  14.121  -7.535  1.00 20.00    -0.381 OA
ENDBRANCH   1   2
BRANCH   1   5
HETATM    5  C6  UNL     1     -34.974  13.974  -3.757  1.00 20.00     0.006 C 
BRANCH   5   6
HETATM    6  C7  UNL     1     -34.246  15.306  -3.499  1.00 20.00    -0.023 C 
HETATM    7  C3  UNL     1     -32.733  15.098  -3.603  1.00 20.00     0.009 C 
HETATM    8  C4  UNL     1     -34.591  15.905  -2.135  1.00 20.00     0.009 C 
ENDBRANCH   5   6
ENDBRANCH   1   5
TORSDOF 3
ENDMDL
