MODEL 1
REMARK VINA RESULT:      -4.8      0.000      0.000
REMARK  1 active torsions:
REMARK  status: ('A' for Active; 'I' for Inactive)
REMARK    1  A    between atoms: C5_5  and  N10_10 
ROOT
HETATM    1  C1  UNL     1     -34.422  15.782  -6.564  1.00 20.00    -0.026 C 
HETATM    2  C2  UNL     1     -33.330  13.909  -3.706  1.00 20.00    -0.026 C 
HETATM    3  C3  UNL     1     -34.249  16.480  -5.428  1.00 20.00    -0.005 C 
HETATM    4  C4  UNL     1     -34.121  13.257  -4.577  1.00 20.00    -0.005 C 
HETATM    5  C6  UNL     1     -35.093  14.430  -6.592  1.00 20.00     0.056 C 
HETATM    6  C7  UNL     1     -33.599  15.331  -3.274  1.00 20.00     0.056 C 
HETATM    7  C8  UNL     1     -34.736  15.989  -4.080  1.00 20.00     0.113 C 
HETATM    8  C9  UNL     1     -35.364  13.876  -5.179  1.00 20.00     0.113 C 
HETATM    9  N10 UNL     1     -35.780  14.987  -4.316  1.00 20.00    -0.343 N 
ENDROOT
BRANCH   9  10
HETATM   10  C5  UNL     1     -37.042  15.075  -3.762  1.00 20.00     0.352 C 
HETATM   11  O11 UNL     1     -37.908  14.208  -3.743  1.00 20.00    -0.283 OA
ENDBRANCH   9  10
TORSDOF 1
ENDMDL
MODEL 2
REMARK VINA RESULT:      -4.8      0.083      2.833
REMARK  1 active torsions:
REMARK  status: ('A' for Active; 'I' for Inactive)
REMARK    1  A    between atoms: C5_5  and  N10_10 
ROOT
HETATM    1  C1  UNL     1     -33.311  13.933  -3.712  1.00 20.00    -0.026 C 
HETATM    2  C2  UNL     1     -34.360  15.720  -6.640  1.00 20.00    -0.026 C 
HETATM    3  C3  UNL     1     -34.089  13.255  -4.573  1.00 20.00    -0.005 C 
HETATM    4  C4  UNL     1     -34.202  16.452  -5.522  1.00 20.00    -0.005 C 
HETATM    5  C6  UNL     1     -33.584  15.367  -3.326  1.00 20.00     0.056 C 
HETATM    6  C7  UNL     1     -35.032  14.367  -6.636  1.00 20.00     0.056 C 
HETATM    7  C8  UNL     1     -35.324  13.856  -5.212  1.00 20.00     0.113 C 
HETATM    8  C9  UNL     1     -34.709  16.001  -4.168  1.00 20.00     0.113 C 
HETATM    9  N10 UNL     1     -35.751  14.992  -4.388  1.00 20.00    -0.343 N 
ENDROOT
BRANCH   9  10
HETATM   10  C5  UNL     1     -37.027  15.107  -3.874  1.00 20.00     0.352 C 
HETATM   11  O11 UNL     1     -37.859  14.216  -3.744  1.00 20.00    -0.283 OA
ENDBRANCH   9  10
TORSDOF 1
ENDMDL
MODEL 3
REMARK VINA RESULT:      -4.6      2.146      3.312
REMARK  1 active torsions:
REMARK  status: ('A' for Active; 'I' for Inactive)
REMARK    1  A    between atoms: C5_5  and  N10_10 
ROOT
HETATM    1  C1  UNL     1     -34.775  13.388  -4.161  1.00 20.00    -0.026 C 
HETATM    2  C2  UNL     1     -34.270  16.725  -5.378  1.00 20.00    -0.026 C 
HETATM    3  C3  UNL     1     -35.850  14.195  -4.144  1.00 20.00    -0.005 C 
HETATM    4  C4  UNL     1     -33.220  16.151  -4.764  1.00 20.00    -0.005 C 
HETATM    5  C6  UNL     1     -33.404  13.853  -3.732  1.00 20.00     0.056 C 
HETATM    6  C7  UNL     1     -35.680  16.615  -4.846  1.00 20.00     0.056 C 
HETATM    7  C8  UNL     1     -35.791  15.632  -3.665  1.00 20.00     0.113 C 
HETATM    8  C9  UNL     1     -33.349  15.371  -3.472  1.00 20.00     0.113 C 
HETATM    9  N10 UNL     1     -34.600  15.778  -2.823  1.00 20.00    -0.343 N 
ENDROOT
BRANCH   9  10
HETATM   10  C5  UNL     1     -34.651  16.268  -1.532  1.00 20.00     0.352 C 
HETATM   11  O11 UNL     1     -33.843  17.010  -0.987  1.00 20.00    -0.283 OA
ENDBRANCH   9  10
TORSDOF 1
ENDMDL
MODEL 4
REMARK VINA RESULT:      -4.6      2.158      2.656
REMARK  1 active torsions:
REMARK  status: ('A' for Active; 'I' for Inactive)
REMARK    1  A    between atoms: C5_5  and  N10_10 
ROOT
HETATM    1  C1  UNL     1     -34.318  16.710  -5.393  1.00 20.00    -0.026 C 
HETATM    2  C2  UNL     1     -34.723  13.381  -4.118  1.00 20.00    -0.026 C 
HETATM    3  C3  UNL     1     -33.244  16.171  -4.789  1.00 20.00    -0.005 C 
HETATM    4  C4  UNL     1     -35.817  14.163  -4.095  1.00 20.00    -0.005 C 
HETATM    5  C6  UNL     1     -35.715  16.576  -4.836  1.00 20.00     0.056 C 
HETATM    6  C7  UNL     1     -33.356  13.885  -3.719  1.00 20.00     0.056 C 
HETATM    7  C8  UNL     1     -33.333  15.407  -3.483  1.00 20.00     0.113 C 
HETATM    8  C9  UNL     1     -35.784  15.607  -3.639  1.00 20.00     0.113 C 
HETATM    9  N10 UNL     1     -34.582  15.795  -2.819  1.00 20.00    -0.343 N 
ENDROOT
BRANCH   9  10
HETATM   10  C5  UNL     1     -34.623  16.282  -1.528  1.00 20.00     0.352 C 
HETATM   11  O11 UNL     1     -33.820  17.037  -0.992  1.00 20.00    -0.283 OA
ENDBRANCH   9  10
TORSDOF 1
ENDMDL
MODEL 5
REMARK VINA RESULT:      -4.6      1.663      3.190
REMARK  1 active torsions:
REMARK  status: ('A' for Active; 'I' for Inactive)
REMARK    1  A    between atoms: C5_5  and  N10_10 
ROOT
HETATM    1  C1  UNL     1     -34.833  16.194  -2.107  1.00 20.00    -0.026 C 
HETATM    2  C2  UNL     1     -34.631  17.318  -5.508  1.00 20.00    -0.026 C 
HETATM    3  C3  UNL     1     -33.615  16.150  -2.675  1.00 20.00    -0.005 C 
HETATM    4  C4  UNL     1     -35.783  16.725  -5.146  1.00 20.00    -0.005 C 
HETATM    5  C6  UNL     1     -36.083  15.758  -2.831  1.00 20.00     0.056 C 
HETATM    6  C7  UNL     1     -33.279  16.783  -5.098  1.00 20.00     0.056 C 
HETATM    7  C8  UNL     1     -33.383  15.631  -4.080  1.00 20.00     0.113 C 
HETATM    8  C9  UNL     1     -35.828  15.455  -4.321  1.00 20.00     0.113 C 
HETATM    9  N10 UNL     1     -34.527  14.789  -4.444  1.00 20.00    -0.343 N 
ENDROOT
BRANCH   9  10
HETATM   10  C5  UNL     1     -34.389  13.486  -4.878  1.00 20.00     0.352 C 
HETATM   11  O11 UNL     1     -35.033  12.509  -4.514  1.00 20.00    -0.283 OA
ENDBRANCH   9  10
TORSDOF 1
ENDMDL
MODEL 6
REMARK VINA RESULT:      -4.6      1.643      2.610
REMARK  1 active torsions:
REMARK  status: ('A' for Active; 'I' for Inactive)
REMARK    1  A    between atoms: C5_5  and  N10_10 
ROOT
HETATM    1  C1  UNL     1     -34.549  17.454  -5.486  1.00 20.00    -0.026 C 
HETATM    2  C2  UNL     1     -34.775  16.092  -2.176  1.00 20.00    -0.026 C 
HETATM    3  C3  UNL     1     -35.755  16.990  -5.117  1.00 20.00    -0.005 C 
HETATM    4  C4  UNL     1     -33.595  15.936  -2.803  1.00 20.00    -0.005 C 
HETATM    5  C6  UNL     1     -33.267  16.717  -5.183  1.00 20.00     0.056 C 
HETATM    6  C7  UNL     1     -36.098  15.883  -2.873  1.00 20.00     0.056 C 
HETATM    7  C8  UNL     1     -35.941  15.673  -4.391  1.00 20.00     0.113 C 
HETATM    8  C9  UNL     1     -33.487  15.508  -4.252  1.00 20.00     0.113 C 
HETATM    9  N10 UNL     1     -34.746  14.856  -4.626  1.00 20.00    -0.343 N 
ENDROOT
BRANCH   9  10
HETATM   10  C5  UNL     1     -34.804  13.577  -5.145  1.00 20.00     0.352 C 
HETATM   11  O11 UNL     1     -34.944  12.529  -4.525  1.00 20.00    -0.283 OA
ENDBRANCH   9  10
TORSDOF 1
ENDMDL
MODEL 7
REMARK VINA RESULT:      -4.5      1.999      3.304
REMARK  1 active torsions:
REMARK  status: ('A' for Active; 'I' for Inactive)
REMARK    1  A    between atoms: C5_5  and  N10_10 
ROOT
HETATM    1  C1  UNL     1     -35.163  16.095  -2.264  1.00 20.00    -0.026 C 
HETATM    2  C2  UNL     1     -33.588  13.308  -3.882  1.00 20.00    -0.026 C 
HETATM    3  C3  UNL     1     -35.931  15.392  -3.113  1.00 20.00    -0.005 C 
HETATM    4  C4  UNL     1     -32.796  14.360  -3.607  1.00 20.00    -0.005 C 
HETATM    5  C6  UNL     1     -33.734  16.468  -2.578  1.00 20.00     0.056 C 
HETATM    6  C7  UNL     1     -34.981  13.466  -4.444  1.00 20.00     0.056 C 
HETATM    7  C8  UNL     1     -35.444  14.935  -4.474  1.00 20.00     0.113 C 
HETATM    8  C9  UNL     1     -33.217  15.793  -3.863  1.00 20.00     0.113 C 
HETATM    9  N10 UNL     1     -34.302  15.775  -4.850  1.00 20.00    -0.343 N 
ENDROOT
BRANCH   9  10
HETATM   10  C5  UNL     1     -34.250  16.480  -6.036  1.00 20.00     0.352 C 
HETATM   11  O11 UNL     1     -34.241  16.022  -7.173  1.00 20.00    -0.283 OA
ENDBRANCH   9  10
TORSDOF 1
ENDMDL
MODEL 8
REMARK VINA RESULT:      -4.4      1.937      3.032
REMARK  1 active torsions:
REMARK  status: ('A' for Active; 'I' for Inactive)
REMARK    1  A    between atoms: C5_5  and  N10_10 
ROOT
HETATM    1  C1  UNL     1     -33.236  13.479  -3.685  1.00 20.00    -0.026 C 
HETATM    2  C2  UNL     1     -35.211  16.212  -2.461  1.00 20.00    -0.026 C 
HETATM    3  C3  UNL     1     -32.602  14.658  -3.558  1.00 20.00    -0.005 C 
HETATM    4  C4  UNL     1     -35.858  15.299  -3.207  1.00 20.00    -0.005 C 
HETATM    5  C6  UNL     1     -34.626  13.362  -4.262  1.00 20.00     0.056 C 
HETATM    6  C7  UNL     1     -33.841  16.735  -2.826  1.00 20.00     0.056 C 
HETATM    7  C8  UNL     1     -33.213  15.971  -4.007  1.00 20.00     0.113 C 
HETATM    8  C9  UNL     1     -35.288  14.735  -4.492  1.00 20.00     0.113 C 
HETATM    9  N10 UNL     1     -34.267  15.668  -4.980  1.00 20.00    -0.343 N 
ENDROOT
BRANCH   9  10
HETATM   10  C5  UNL     1     -34.301  16.224  -6.244  1.00 20.00     0.352 C 
HETATM   11  O11 UNL     1     -34.496  15.644  -7.306  1.00 20.00    -0.283 OA
ENDBRANCH   9  10
TORSDOF 1
ENDMDL
MODEL 9
REMARK VINA RESULT:      -4.4      1.756      3.299
REMARK  1 active torsions:
REMARK  status: ('A' for Active; 'I' for Inactive)
REMARK    1  A    between atoms: C5_5  and  N10_10 
ROOT
HETATM    1  C1  UNL     1     -33.622  16.516  -2.733  1.00 20.00    -0.026 C 
HETATM    2  C2  UNL     1     -36.276  17.042  -5.088  1.00 20.00    -0.026 C 
HETATM    3  C3  UNL     1     -33.333  16.256  -4.020  1.00 20.00    -0.005 C 
HETATM    4  C4  UNL     1     -36.644  16.637  -3.859  1.00 20.00    -0.005 C 
HETATM    5  C6  UNL     1     -34.922  16.096  -2.091  1.00 20.00     0.056 C 
HETATM    6  C7  UNL     1     -35.096  16.448  -5.819  1.00 20.00     0.056 C 
HETATM    7  C8  UNL     1     -34.271  15.494  -4.934  1.00 20.00     0.113 C 
HETATM    8  C9  UNL     1     -35.929  15.530  -3.112  1.00 20.00     0.113 C 
HETATM    9  N10 UNL     1     -35.194  14.724  -4.093  1.00 20.00    -0.343 N 
ENDROOT
BRANCH   9  10
HETATM   10  C5  UNL     1     -35.364  13.360  -4.223  1.00 20.00     0.352 C 
HETATM   11  O11 UNL     1     -34.687  12.586  -4.889  1.00 20.00    -0.283 OA
ENDBRANCH   9  10
TORSDOF 1
ENDMDL
