MODEL 1
REMARK VINA RESULT:      -4.1      0.000      0.000
REMARK  1 active torsions:
REMARK  status: ('A' for Active; 'I' for Inactive)
REMARK    1  A    between atoms: C3_3  and  C8_8 
ROOT
HETATM    1  C1  UNL     1     -35.611  15.213  -3.977  1.00 20.00     0.017 C 
HETATM    2  C2  UNL     1     -34.976  15.837  -5.209  1.00 20.00     0.092 C 
HETATM    3  C3  UNL     1     -33.719  15.912  -2.944  1.00 20.00     0.173 C 
HETATM    4  C4  UNL     1     -36.962  14.566  -4.105  1.00 20.00     0.066 C 
HETATM    5  C5  UNL     1     -34.594  14.780  -6.232  1.00 20.00     0.028 C 
HETATM    6  N9  UNL     1     -35.006  15.210  -2.829  1.00 20.00    -0.282 NA
HETATM    7  S10 UNL     1     -33.500  16.661  -4.576  1.00 20.00    -0.131 SA
ENDROOT
BRANCH   3   8
HETATM    8  C8  UNL     1     -33.654  16.985  -1.866  1.00 20.00     0.012 C 
HETATM    9  C6  UNL     1     -33.912  18.369  -2.461  1.00 20.00     0.012 C 
HETATM   10  C7  UNL     1     -34.655  16.691  -0.748  1.00 20.00     0.012 C 
ENDBRANCH   3   8
TORSDOF 1
ENDMDL
MODEL 2
REMARK VINA RESULT:      -4.0      1.608      1.982
REMARK  1 active torsions:
REMARK  status: ('A' for Active; 'I' for Inactive)
REMARK    1  A    between atoms: C3_3  and  C8_8 
ROOT
HETATM    1  C1  UNL     1     -34.224  14.918  -3.457  1.00 20.00     0.017 C 
HETATM    2  C2  UNL     1     -35.712  15.221  -3.522  1.00 20.00     0.092 C 
HETATM    3  C3  UNL     1     -34.080  17.016  -2.612  1.00 20.00     0.173 C 
HETATM    4  C4  UNL     1     -33.736  13.575  -3.923  1.00 20.00     0.066 C 
HETATM    5  C5  UNL     1     -36.195  15.322  -4.960  1.00 20.00     0.028 C 
HETATM    6  N9  UNL     1     -33.370  15.796  -3.028  1.00 20.00    -0.282 NA
HETATM    7  S10 UNL     1     -35.876  16.815  -2.691  1.00 20.00    -0.131 SA
ENDROOT
BRANCH   3   8
HETATM    8  C8  UNL     1     -33.657  17.361  -1.190  1.00 20.00     0.012 C 
HETATM    9  C6  UNL     1     -33.244  18.830  -1.089  1.00 20.00     0.012 C 
HETATM   10  C7  UNL     1     -34.780  17.054  -0.201  1.00 20.00     0.012 C 
ENDBRANCH   3   8
TORSDOF 1
ENDMDL
MODEL 3
REMARK VINA RESULT:      -4.0      1.297      3.736
REMARK  1 active torsions:
REMARK  status: ('A' for Active; 'I' for Inactive)
REMARK    1  A    between atoms: C3_3  and  C8_8 
ROOT
HETATM    1  C1  UNL     1     -34.525  16.568  -1.850  1.00 20.00     0.017 C 
HETATM    2  C2  UNL     1     -33.667  17.374  -2.811  1.00 20.00     0.092 C 
HETATM    3  C3  UNL     1     -34.895  15.255  -3.660  1.00 20.00     0.173 C 
HETATM    4  C4  UNL     1     -34.638  17.023  -0.422  1.00 20.00     0.066 C 
HETATM    5  C5  UNL     1     -34.275  18.740  -3.085  1.00 20.00     0.028 C 
HETATM    6  N9  UNL     1     -35.173  15.513  -2.238  1.00 20.00    -0.282 NA
HETATM    7  S10 UNL     1     -33.644  16.383  -4.320  1.00 20.00    -0.131 SA
ENDROOT
BRANCH   3   8
HETATM    8  C8  UNL     1     -34.426  13.814  -3.808  1.00 20.00     0.012 C 
HETATM    9  C6  UNL     1     -34.791  13.263  -5.186  1.00 20.00     0.012 C 
HETATM   10  C7  UNL     1     -32.919  13.707  -3.572  1.00 20.00     0.012 C 
ENDBRANCH   3   8
TORSDOF 1
ENDMDL
MODEL 4
REMARK VINA RESULT:      -3.9      1.092      3.936
REMARK  1 active torsions:
REMARK  status: ('A' for Active; 'I' for Inactive)
REMARK    1  A    between atoms: C3_3  and  C8_8 
ROOT
HETATM    1  C1  UNL     1     -34.563  16.519  -2.514  1.00 20.00     0.017 C 
HETATM    2  C2  UNL     1     -33.740  17.600  -3.197  1.00 20.00     0.092 C 
HETATM    3  C3  UNL     1     -34.967  15.826  -4.634  1.00 20.00     0.173 C 
HETATM    4  C4  UNL     1     -34.641  16.507  -1.013  1.00 20.00     0.066 C 
HETATM    5  C5  UNL     1     -34.370  18.972  -3.019  1.00 20.00     0.028 C 
HETATM    6  N9  UNL     1     -35.209  15.625  -3.197  1.00 20.00    -0.282 NA
HETATM    7  S10 UNL     1     -33.747  17.127  -4.939  1.00 20.00    -0.131 SA
ENDROOT
BRANCH   3   8
HETATM    8  C8  UNL     1     -34.486  14.511  -5.232  1.00 20.00     0.012 C 
HETATM    9  C6  UNL     1     -35.016  13.323  -4.429  1.00 20.00     0.012 C 
HETATM   10  C7  UNL     1     -34.910  14.395  -6.696  1.00 20.00     0.012 C 
ENDBRANCH   3   8
TORSDOF 1
ENDMDL
MODEL 5
REMARK VINA RESULT:      -3.9      1.831      2.868
REMARK  1 active torsions:
REMARK  status: ('A' for Active; 'I' for Inactive)
REMARK    1  A    between atoms: C3_3  and  C8_8 
ROOT
HETATM    1  C1  UNL     1     -34.725  16.181  -6.194  1.00 20.00     0.017 C 
HETATM    2  C2  UNL     1     -34.648  14.799  -6.823  1.00 20.00     0.092 C 
HETATM    3  C3  UNL     1     -35.159  15.027  -4.292  1.00 20.00     0.173 C 
HETATM    4  C4  UNL     1     -34.499  17.387  -7.061  1.00 20.00     0.066 C 
HETATM    5  C5  UNL     1     -35.796  14.566  -7.791  1.00 20.00     0.028 C 
HETATM    6  N9  UNL     1     -34.999  16.340  -4.935  1.00 20.00    -0.282 NA
HETATM    7  S10 UNL     1     -34.768  13.668  -5.421  1.00 20.00    -0.131 SA
ENDROOT
BRANCH   3   8
HETATM    8  C8  UNL     1     -34.248  14.970  -3.074  1.00 20.00     0.012 C 
HETATM    9  C6  UNL     1     -32.790  14.787  -3.495  1.00 20.00     0.012 C 
HETATM   10  C7  UNL     1     -34.403  16.229  -2.221  1.00 20.00     0.012 C 
ENDBRANCH   3   8
TORSDOF 1
ENDMDL
MODEL 6
REMARK VINA RESULT:      -3.8      1.931      2.505
REMARK  1 active torsions:
REMARK  status: ('A' for Active; 'I' for Inactive)
REMARK    1  A    between atoms: C3_3  and  C8_8 
ROOT
HETATM    1  C1  UNL     1     -33.755  17.776  -4.788  1.00 20.00     0.017 C 
HETATM    2  C2  UNL     1     -33.224  16.385  -5.093  1.00 20.00     0.092 C 
HETATM    3  C3  UNL     1     -34.354  16.851  -2.808  1.00 20.00     0.173 C 
HETATM    4  C4  UNL     1     -33.608  18.853  -5.827  1.00 20.00     0.066 C 
HETATM    5  C5  UNL     1     -34.029  15.713  -6.193  1.00 20.00     0.028 C 
HETATM    6  N9  UNL     1     -34.347  18.046  -3.665  1.00 20.00    -0.282 NA
HETATM    7  S10 UNL     1     -33.413  15.489  -3.538  1.00 20.00    -0.131 SA
ENDROOT
BRANCH   3   8
HETATM    8  C8  UNL     1     -33.766  17.222  -1.454  1.00 20.00     0.012 C 
HETATM    9  C6  UNL     1     -33.387  18.703  -1.414  1.00 20.00     0.012 C 
HETATM   10  C7  UNL     1     -34.747  16.893  -0.328  1.00 20.00     0.012 C 
ENDBRANCH   3   8
TORSDOF 1
ENDMDL
MODEL 7
REMARK VINA RESULT:      -3.8      2.030      2.997
REMARK  1 active torsions:
REMARK  status: ('A' for Active; 'I' for Inactive)
REMARK    1  A    between atoms: C3_3  and  C8_8 
ROOT
HETATM    1  C1  UNL     1     -37.795  14.913  -4.308  1.00 20.00     0.017 C 
HETATM    2  C2  UNL     1     -37.344  15.838  -5.427  1.00 20.00     0.092 C 
HETATM    3  C3  UNL     1     -35.665  14.145  -4.410  1.00 20.00     0.173 C 
HETATM    4  C4  UNL     1     -39.212  15.007  -3.816  1.00 20.00     0.066 C 
HETATM    5  C5  UNL     1     -38.033  15.499  -6.738  1.00 20.00     0.028 C 
HETATM    6  N9  UNL     1     -36.993  14.037  -3.786  1.00 20.00    -0.282 NA
HETATM    7  S10 UNL     1     -35.567  15.542  -5.556  1.00 20.00    -0.131 SA
ENDROOT
BRANCH   3   8
HETATM    8  C8  UNL     1     -34.623  14.300  -3.311  1.00 20.00     0.012 C 
HETATM    9  C6  UNL     1     -33.279  13.722  -3.752  1.00 20.00     0.012 C 
HETATM   10  C7  UNL     1     -34.469  15.768  -2.914  1.00 20.00     0.012 C 
ENDBRANCH   3   8
TORSDOF 1
ENDMDL
MODEL 8
REMARK VINA RESULT:      -3.7      1.869      3.896
REMARK  1 active torsions:
REMARK  status: ('A' for Active; 'I' for Inactive)
REMARK    1  A    between atoms: C3_3  and  C8_8 
ROOT
HETATM    1  C1  UNL     1     -33.786  17.511  -4.135  1.00 20.00     0.017 C 
HETATM    2  C2  UNL     1     -34.357  18.065  -2.840  1.00 20.00     0.092 C 
HETATM    3  C3  UNL     1     -33.780  15.544  -3.009  1.00 20.00     0.173 C 
HETATM    4  C4  UNL     1     -33.571  18.446  -5.292  1.00 20.00     0.066 C 
HETATM    5  C5  UNL     1     -33.376  19.004  -2.158  1.00 20.00     0.028 C 
HETATM    6  N9  UNL     1     -33.463  16.260  -4.255  1.00 20.00    -0.282 NA
HETATM    7  S10 UNL     1     -34.639  16.602  -1.820  1.00 20.00    -0.131 SA
ENDROOT
BRANCH   3   8
HETATM    8  C8  UNL     1     -34.642  14.337  -3.350  1.00 20.00     0.012 C 
HETATM    9  C6  UNL     1     -36.073  14.766  -3.675  1.00 20.00     0.012 C 
HETATM   10  C7  UNL     1     -34.042  13.555  -4.519  1.00 20.00     0.012 C 
ENDBRANCH   3   8
TORSDOF 1
ENDMDL
MODEL 9
REMARK VINA RESULT:      -3.7      1.794      3.885
REMARK  1 active torsions:
REMARK  status: ('A' for Active; 'I' for Inactive)
REMARK    1  A    between atoms: C3_3  and  C8_8 
ROOT
HETATM    1  C1  UNL     1     -35.682  16.891  -3.446  1.00 20.00     0.017 C 
HETATM    2  C2  UNL     1     -34.987  15.876  -2.553  1.00 20.00     0.092 C 
HETATM    3  C3  UNL     1     -33.884  16.579  -4.791  1.00 20.00     0.173 C 
HETATM    4  C4  UNL     1     -37.001  17.462  -3.006  1.00 20.00     0.066 C 
HETATM    5  C5  UNL     1     -34.506  16.512  -1.260  1.00 20.00     0.028 C 
HETATM    6  N9  UNL     1     -35.154  17.286  -4.564  1.00 20.00    -0.282 NA
HETATM    7  S10 UNL     1     -33.582  15.311  -3.536  1.00 20.00    -0.131 SA
ENDROOT
BRANCH   3   8
HETATM    8  C8  UNL     1     -33.924  15.943  -6.174  1.00 20.00     0.012 C 
HETATM    9  C6  UNL     1     -34.615  14.581  -6.125  1.00 20.00     0.012 C 
HETATM   10  C7  UNL     1     -34.626  16.862  -7.173  1.00 20.00     0.012 C 
ENDBRANCH   3   8
TORSDOF 1
ENDMDL
