MODEL 1
REMARK VINA RESULT:      -4.8      0.000      0.000
REMARK  2 active torsions:
REMARK  status: ('A' for Active; 'I' for Inactive)
REMARK    1  A    between atoms: C3_3  and  C10_10 
REMARK    2  A    between atoms: C7_7  and  C10_10 
ROOT
HETATM    1  C1  UNL     1     -33.686  18.236  -2.687  1.00 20.00    -0.024 C 
HETATM    2  C2  UNL     1     -34.107  17.986  -1.435  1.00 20.00    -0.087 C 
HETATM    3  C4  UNL     1     -33.587  17.188  -3.757  1.00 20.00     0.032 C 
HETATM    4  C5  UNL     1     -34.553  16.611  -1.003  1.00 20.00     0.034 C 
HETATM    5  C6  UNL     1     -34.781  15.643  -2.168  1.00 20.00     0.010 C 
HETATM    6  C7  UNL     1     -33.661  15.754  -3.209  1.00 20.00    -0.001 C 
HETATM    7  C8  UNL     1     -34.157  19.056  -0.386  1.00 20.00     0.043 C 
ENDROOT
BRANCH   6   8
HETATM    8  C10 UNL     1     -33.860  14.750  -4.342  1.00 20.00     0.047 C 
HETATM    9  C9  UNL     1     -34.217  15.462  -5.641  1.00 20.00     0.017 C 
BRANCH   8  10
HETATM   10  C3  UNL     1     -34.923  13.750  -3.935  1.00 20.00     0.235 C 
HETATM   11  O11 UNL     1     -35.047  12.630  -4.418  1.00 20.00    -0.306 OA
ENDBRANCH   8  10
ENDBRANCH   6   8
TORSDOF 2
ENDMDL
MODEL 2
REMARK VINA RESULT:      -4.5      0.887      1.765
REMARK  2 active torsions:
REMARK  status: ('A' for Active; 'I' for Inactive)
REMARK    1  A    between atoms: C3_3  and  C10_10 
REMARK    2  A    between atoms: C7_7  and  C10_10 
ROOT
HETATM    1  C1  UNL     1     -34.534  16.283  -1.507  1.00 20.00    -0.024 C 
HETATM    2  C2  UNL     1     -34.098  17.545  -1.668  1.00 20.00    -0.087 C 
HETATM    3  C4  UNL     1     -34.735  15.321  -2.641  1.00 20.00     0.032 C 
HETATM    4  C5  UNL     1     -33.739  18.098  -3.024  1.00 20.00     0.034 C 
HETATM    5  C6  UNL     1     -33.611  17.026  -4.112  1.00 20.00     0.010 C 
HETATM    6  C7  UNL     1     -34.747  16.002  -4.019  1.00 20.00    -0.001 C 
HETATM    7  C8  UNL     1     -33.946  18.486  -0.510  1.00 20.00     0.043 C 
ENDROOT
BRANCH   6   8
HETATM    8  C10 UNL     1     -34.649  14.966  -5.136  1.00 20.00     0.047 C 
HETATM    9  C9  UNL     1     -35.951  14.892  -5.922  1.00 20.00     0.017 C 
BRANCH   8  10
HETATM   10  C3  UNL     1     -34.274  13.626  -4.535  1.00 20.00     0.235 C 
HETATM   11  O11 UNL     1     -34.792  12.557  -4.839  1.00 20.00    -0.306 OA
ENDBRANCH   8  10
ENDBRANCH   6   8
TORSDOF 2
ENDMDL
MODEL 3
REMARK VINA RESULT:      -4.4      2.511      4.777
REMARK  2 active torsions:
REMARK  status: ('A' for Active; 'I' for Inactive)
REMARK    1  A    between atoms: C3_3  and  C10_10 
REMARK    2  A    between atoms: C7_7  and  C10_10 
ROOT
HETATM    1  C1  UNL     1     -33.898  16.107  -5.772  1.00 20.00    -0.024 C 
HETATM    2  C2  UNL     1     -34.702  15.030  -5.756  1.00 20.00    -0.087 C 
HETATM    3  C4  UNL     1     -33.500  16.867  -4.540  1.00 20.00     0.032 C 
HETATM    4  C5  UNL     1     -35.256  14.466  -4.472  1.00 20.00     0.034 C 
HETATM    5  C6  UNL     1     -34.578  15.019  -3.214  1.00 20.00     0.010 C 
HETATM    6  C7  UNL     1     -34.368  16.533  -3.316  1.00 20.00    -0.001 C 
HETATM    7  C8  UNL     1     -35.103  14.321  -7.016  1.00 20.00     0.043 C 
ENDROOT
BRANCH   6   8
HETATM    8  C10 UNL     1     -33.742  17.091  -2.040  1.00 20.00     0.047 C 
HETATM    9  C9  UNL     1     -34.584  16.734  -0.821  1.00 20.00     0.017 C 
BRANCH   8  10
HETATM   10  C3  UNL     1     -33.571  18.590  -2.189  1.00 20.00     0.235 C 
HETATM   11  O11 UNL     1     -32.747  19.260  -1.577  1.00 20.00    -0.306 OA
ENDBRANCH   8  10
ENDBRANCH   6   8
TORSDOF 2
ENDMDL
MODEL 4
REMARK VINA RESULT:      -4.4      2.625      4.902
REMARK  2 active torsions:
REMARK  status: ('A' for Active; 'I' for Inactive)
REMARK    1  A    between atoms: C3_3  and  C10_10 
REMARK    2  A    between atoms: C7_7  and  C10_10 
ROOT
HETATM    1  C1  UNL     1     -35.041  14.987  -3.665  1.00 20.00    -0.024 C 
HETATM    2  C2  UNL     1     -34.442  15.435  -4.783  1.00 20.00    -0.087 C 
HETATM    3  C4  UNL     1     -34.873  15.627  -2.318  1.00 20.00     0.032 C 
HETATM    4  C5  UNL     1     -33.561  16.659  -4.780  1.00 20.00     0.034 C 
HETATM    5  C6  UNL     1     -33.674  17.497  -3.501  1.00 20.00     0.010 C 
HETATM    6  C7  UNL     1     -33.690  16.606  -2.254  1.00 20.00    -0.001 C 
HETATM    7  C8  UNL     1     -34.609  14.745  -6.103  1.00 20.00     0.043 C 
ENDROOT
BRANCH   6   8
HETATM    8  C10 UNL     1     -33.747  17.443  -0.979  1.00 20.00     0.047 C 
HETATM    9  C9  UNL     1     -35.170  17.513  -0.439  1.00 20.00     0.017 C 
BRANCH   8  10
HETATM   10  C3  UNL     1     -33.183  18.820  -1.267  1.00 20.00     0.235 C 
HETATM   11  O11 UNL     1     -32.147  19.263  -0.783  1.00 20.00    -0.306 OA
ENDBRANCH   8  10
ENDBRANCH   6   8
TORSDOF 2
ENDMDL
MODEL 5
REMARK VINA RESULT:      -4.3      2.589      4.821
REMARK  2 active torsions:
REMARK  status: ('A' for Active; 'I' for Inactive)
REMARK    1  A    between atoms: C3_3  and  C10_10 
REMARK    2  A    between atoms: C7_7  and  C10_10 
ROOT
HETATM    1  C1  UNL     1     -35.879  14.916  -3.485  1.00 20.00    -0.024 C 
HETATM    2  C2  UNL     1     -34.742  14.346  -3.920  1.00 20.00    -0.087 C 
HETATM    3  C4  UNL     1     -35.921  16.033  -2.484  1.00 20.00     0.032 C 
HETATM    4  C5  UNL     1     -33.387  14.812  -3.451  1.00 20.00     0.034 C 
HETATM    5  C6  UNL     1     -33.417  16.156  -2.716  1.00 20.00     0.010 C 
HETATM    6  C7  UNL     1     -34.592  16.225  -1.735  1.00 20.00    -0.001 C 
HETATM    7  C8  UNL     1     -34.748  13.207  -4.895  1.00 20.00     0.043 C 
ENDROOT
BRANCH   6   8
HETATM    8  C10 UNL     1     -34.590  17.543  -0.963  1.00 20.00     0.047 C 
HETATM    9  C9  UNL     1     -33.201  18.167  -0.958  1.00 20.00     0.017 C 
BRANCH   8  10
HETATM   10  C3  UNL     1     -35.102  17.292   0.441  1.00 20.00     0.235 C 
HETATM   11  O11 UNL     1     -36.007  17.925   0.975  1.00 20.00    -0.306 OA
ENDBRANCH   8  10
ENDBRANCH   6   8
TORSDOF 2
ENDMDL
MODEL 6
REMARK VINA RESULT:      -4.3      1.778      2.478
REMARK  2 active torsions:
REMARK  status: ('A' for Active; 'I' for Inactive)
REMARK    1  A    between atoms: C3_3  and  C10_10 
REMARK    2  A    between atoms: C7_7  and  C10_10 
ROOT
HETATM    1  C1  UNL     1     -33.690  17.065  -3.203  1.00 20.00    -0.024 C 
HETATM    2  C2  UNL     1     -34.512  16.343  -2.421  1.00 20.00    -0.087 C 
HETATM    3  C4  UNL     1     -33.537  16.841  -4.679  1.00 20.00     0.032 C 
HETATM    4  C5  UNL     1     -35.388  15.250  -2.979  1.00 20.00     0.034 C 
HETATM    5  C6  UNL     1     -35.489  15.261  -4.508  1.00 20.00     0.010 C 
HETATM    6  C7  UNL     1     -34.120  15.500  -5.153  1.00 20.00    -0.001 C 
HETATM    7  C8  UNL     1     -34.608  16.576  -0.942  1.00 20.00     0.043 C 
ENDROOT
BRANCH   6   8
HETATM    8  C10 UNL     1     -34.212  15.457  -6.676  1.00 20.00     0.047 C 
HETATM    9  C9  UNL     1     -34.605  16.818  -7.235  1.00 20.00     0.017 C 
BRANCH   8  10
HETATM   10  C3  UNL     1     -35.194  14.375  -7.080  1.00 20.00     0.235 C 
HETATM   11  O11 UNL     1     -36.078  14.515  -7.918  1.00 20.00    -0.306 OA
ENDBRANCH   8  10
ENDBRANCH   6   8
TORSDOF 2
ENDMDL
MODEL 7
REMARK VINA RESULT:      -4.3      1.685      2.071
REMARK  2 active torsions:
REMARK  status: ('A' for Active; 'I' for Inactive)
REMARK    1  A    between atoms: C3_3  and  C10_10 
REMARK    2  A    between atoms: C7_7  and  C10_10 
ROOT
HETATM    1  C1  UNL     1     -35.048  17.482  -1.414  1.00 20.00    -0.024 C 
HETATM    2  C2  UNL     1     -36.229  17.806  -1.969  1.00 20.00    -0.087 C 
HETATM    3  C4  UNL     1     -34.219  16.308  -1.848  1.00 20.00     0.032 C 
HETATM    4  C5  UNL     1     -36.814  17.020  -3.115  1.00 20.00     0.034 C 
HETATM    5  C6  UNL     1     -35.820  16.057  -3.774  1.00 20.00     0.010 C 
HETATM    6  C7  UNL     1     -34.993  15.309  -2.723  1.00 20.00    -0.001 C 
HETATM    7  C8  UNL     1     -37.043  18.967  -1.481  1.00 20.00     0.043 C 
ENDROOT
BRANCH   6   8
HETATM    8  C10 UNL     1     -34.042  14.311  -3.377  1.00 20.00     0.047 C 
HETATM    9  C9  UNL     1     -32.704  14.965  -3.695  1.00 20.00     0.017 C 
BRANCH   8  10
HETATM   10  C3  UNL     1     -34.701  13.741  -4.617  1.00 20.00     0.235 C 
HETATM   11  O11 UNL     1     -34.890  12.546  -4.818  1.00 20.00    -0.306 OA
ENDBRANCH   8  10
ENDBRANCH   6   8
TORSDOF 2
ENDMDL
MODEL 8
REMARK VINA RESULT:      -4.3     12.275     14.501
REMARK  2 active torsions:
REMARK  status: ('A' for Active; 'I' for Inactive)
REMARK    1  A    between atoms: C3_3  and  C10_10 
REMARK    2  A    between atoms: C7_7  and  C10_10 
ROOT
HETATM    1  C1  UNL     1     -40.985   5.108  -1.317  1.00 20.00    -0.024 C 
HETATM    2  C2  UNL     1     -41.861   6.105  -1.534  1.00 20.00    -0.087 C 
HETATM    3  C4  UNL     1     -41.109   3.743  -1.928  1.00 20.00     0.032 C 
HETATM    4  C5  UNL     1     -43.045   5.940  -2.452  1.00 20.00     0.034 C 
HETATM    5  C6  UNL     1     -42.974   4.687  -3.332  1.00 20.00     0.010 C 
HETATM    6  C7  UNL     1     -42.498   3.472  -2.528  1.00 20.00    -0.001 C 
HETATM    7  C8  UNL     1     -41.719   7.444  -0.874  1.00 20.00     0.043 C 
ENDROOT
BRANCH   6   8
HETATM    8  C10 UNL     1     -42.479   2.212  -3.391  1.00 20.00     0.047 C 
HETATM    9  C9  UNL     1     -41.058   1.868  -3.817  1.00 20.00     0.017 C 
BRANCH   8  10
HETATM   10  C3  UNL     1     -43.392   2.418  -4.583  1.00 20.00     0.235 C 
HETATM   11  O11 UNL     1     -43.111   2.111  -5.736  1.00 20.00    -0.306 OA
ENDBRANCH   8  10
ENDBRANCH   6   8
TORSDOF 2
ENDMDL
MODEL 9
REMARK VINA RESULT:      -4.2      1.999      3.545
REMARK  2 active torsions:
REMARK  status: ('A' for Active; 'I' for Inactive)
REMARK    1  A    between atoms: C3_3  and  C10_10 
REMARK    2  A    between atoms: C7_7  and  C10_10 
ROOT
HETATM    1  C1  UNL     1     -34.253  16.798  -6.846  1.00 20.00    -0.024 C 
HETATM    2  C2  UNL     1     -33.909  18.014  -6.388  1.00 20.00    -0.087 C 
HETATM    3  C4  UNL     1     -34.312  15.570  -5.984  1.00 20.00     0.032 C 
HETATM    4  C5  UNL     1     -33.580  18.256  -4.936  1.00 20.00     0.034 C 
HETATM    5  C6  UNL     1     -33.976  17.099  -4.013  1.00 20.00     0.010 C 
HETATM    6  C7  UNL     1     -33.607  15.745  -4.630  1.00 20.00    -0.001 C 
HETATM    7  C8  UNL     1     -33.828  19.208  -7.291  1.00 20.00     0.043 C 
ENDROOT
BRANCH   6   8
HETATM    8  C10 UNL     1     -33.952  14.596  -3.686  1.00 20.00     0.047 C 
HETATM    9  C9  UNL     1     -32.730  13.727  -3.420  1.00 20.00     0.017 C 
BRANCH   8  10
HETATM   10  C3  UNL     1     -35.096  13.798  -4.279  1.00 20.00     0.235 C 
HETATM   11  O11 UNL     1     -35.079  12.585  -4.457  1.00 20.00    -0.306 OA
ENDBRANCH   8  10
ENDBRANCH   6   8
TORSDOF 2
ENDMDL
