MODEL 1
REMARK VINA RESULT:      -3.9      0.000      0.000
REMARK  1 active torsions:
REMARK  status: ('A' for Active; 'I' for Inactive)
REMARK    1  A    between atoms: C3_3  and  C8_8 
ROOT
HETATM    1  C1  UNL     1     -34.350  14.505  -4.398  1.00 20.00     0.017 C 
HETATM    2  C2  UNL     1     -34.291  15.705  -5.330  1.00 20.00     0.092 C 
HETATM    3  C3  UNL     1     -33.916  16.042  -2.788  1.00 20.00     0.173 C 
HETATM    4  C4  UNL     1     -34.623  13.148  -4.981  1.00 20.00     0.066 C 
HETATM    5  C5  UNL     1     -35.659  16.020  -5.913  1.00 20.00     0.028 C 
HETATM    6  N9  UNL     1     -34.194  14.633  -3.115  1.00 20.00    -0.282 NA
HETATM    7  S10 UNL     1     -33.728  17.057  -4.274  1.00 20.00    -0.131 SA
ENDROOT
BRANCH   3   8
HETATM    8  C8  UNL     1     -35.055  16.573  -1.926  1.00 20.00     0.012 C 
HETATM    9  C6  UNL     1     -34.568  16.864  -0.507  1.00 20.00     0.012 C 
HETATM   10  C7  UNL     1     -35.663  17.829  -2.550  1.00 20.00     0.012 C 
ENDBRANCH   3   8
TORSDOF 1
ENDMDL
MODEL 2
REMARK VINA RESULT:      -3.9      1.822      2.459
REMARK  1 active torsions:
REMARK  status: ('A' for Active; 'I' for Inactive)
REMARK    1  A    between atoms: C3_3  and  C8_8 
ROOT
HETATM    1  C1  UNL     1     -34.892  15.446  -5.659  1.00 20.00     0.017 C 
HETATM    2  C2  UNL     1     -35.736  14.448  -4.883  1.00 20.00     0.092 C 
HETATM    3  C3  UNL     1     -35.230  16.770  -3.850  1.00 20.00     0.173 C 
HETATM    4  C4  UNL     1     -34.371  15.057  -7.014  1.00 20.00     0.066 C 
HETATM    5  C5  UNL     1     -34.909  13.255  -4.434  1.00 20.00     0.028 C 
HETATM    6  N9  UNL     1     -34.593  16.610  -5.167  1.00 20.00    -0.282 NA
HETATM    7  S10 UNL     1     -36.323  15.384  -3.455  1.00 20.00    -0.131 SA
ENDROOT
BRANCH   3   8
HETATM    8  C8  UNL     1     -34.140  16.899  -2.795  1.00 20.00     0.012 C 
HETATM    9  C6  UNL     1     -33.711  18.357  -2.635  1.00 20.00     0.012 C 
HETATM   10  C7  UNL     1     -34.613  16.333  -1.456  1.00 20.00     0.012 C 
ENDBRANCH   3   8
TORSDOF 1
ENDMDL
MODEL 3
REMARK VINA RESULT:      -3.9      1.933      2.702
REMARK  1 active torsions:
REMARK  status: ('A' for Active; 'I' for Inactive)
REMARK    1  A    between atoms: C3_3  and  C8_8 
ROOT
HETATM    1  C1  UNL     1     -36.486  15.330  -5.565  1.00 20.00     0.017 C 
HETATM    2  C2  UNL     1     -35.473  14.302  -6.043  1.00 20.00     0.092 C 
HETATM    3  C3  UNL     1     -35.512  14.990  -3.545  1.00 20.00     0.173 C 
HETATM    4  C4  UNL     1     -37.444  15.922  -6.559  1.00 20.00     0.066 C 
HETATM    5  C5  UNL     1     -34.435  14.932  -6.957  1.00 20.00     0.028 C 
HETATM    6  N9  UNL     1     -36.522  15.722  -4.327  1.00 20.00    -0.282 NA
HETATM    7  S10 UNL     1     -34.700  13.705  -4.525  1.00 20.00    -0.131 SA
ENDROOT
BRANCH   3   8
HETATM    8  C8  UNL     1     -34.484  15.987  -3.026  1.00 20.00     0.012 C 
HETATM    9  C6  UNL     1     -34.654  16.207  -1.524  1.00 20.00     0.012 C 
HETATM   10  C7  UNL     1     -33.065  15.511  -3.338  1.00 20.00     0.012 C 
ENDBRANCH   3   8
TORSDOF 1
ENDMDL
MODEL 4
REMARK VINA RESULT:      -3.9      1.578      3.847
REMARK  1 active torsions:
REMARK  status: ('A' for Active; 'I' for Inactive)
REMARK    1  A    between atoms: C3_3  and  C8_8 
ROOT
HETATM    1  C1  UNL     1     -35.195  16.130  -2.982  1.00 20.00     0.017 C 
HETATM    2  C2  UNL     1     -35.108  17.305  -3.944  1.00 20.00     0.092 C 
HETATM    3  C3  UNL     1     -36.122  15.062  -4.754  1.00 20.00     0.173 C 
HETATM    4  C4  UNL     1     -34.688  16.304  -1.578  1.00 20.00     0.066 C 
HETATM    5  C5  UNL     1     -33.665  17.624  -4.299  1.00 20.00     0.028 C 
HETATM    6  N9  UNL     1     -35.671  14.981  -3.354  1.00 20.00    -0.282 NA
HETATM    7  S10 UNL     1     -36.010  16.746  -5.404  1.00 20.00    -0.131 SA
ENDROOT
BRANCH   3   8
HETATM    8  C8  UNL     1     -35.272  14.115  -5.593  1.00 20.00     0.012 C 
HETATM    9  C6  UNL     1     -34.502  14.886  -6.664  1.00 20.00     0.012 C 
HETATM   10  C7  UNL     1     -34.309  13.325  -4.708  1.00 20.00     0.012 C 
ENDBRANCH   3   8
TORSDOF 1
ENDMDL
MODEL 5
REMARK VINA RESULT:      -3.8      1.836      3.508
REMARK  1 active torsions:
REMARK  status: ('A' for Active; 'I' for Inactive)
REMARK    1  A    between atoms: C3_3  and  C8_8 
ROOT
HETATM    1  C1  UNL     1     -34.363  15.983  -2.436  1.00 20.00     0.017 C 
HETATM    2  C2  UNL     1     -35.146  14.819  -3.022  1.00 20.00     0.092 C 
HETATM    3  C3  UNL     1     -33.094  15.752  -4.300  1.00 20.00     0.173 C 
HETATM    4  C4  UNL     1     -34.803  16.564  -1.122  1.00 20.00     0.066 C 
HETATM    5  C5  UNL     1     -36.536  15.251  -3.459  1.00 20.00     0.028 C 
HETATM    6  N9  UNL     1     -33.345  16.498  -3.056  1.00 20.00    -0.282 NA
HETATM    7  S10 UNL     1     -34.167  14.302  -4.448  1.00 20.00    -0.131 SA
ENDROOT
BRANCH   3   8
HETATM    8  C8  UNL     1     -33.310  16.690  -5.481  1.00 20.00     0.012 C 
HETATM    9  C6  UNL     1     -34.384  16.140  -6.419  1.00 20.00     0.012 C 
HETATM   10  C7  UNL     1     -33.690  18.089  -4.998  1.00 20.00     0.012 C 
ENDBRANCH   3   8
TORSDOF 1
ENDMDL
MODEL 6
REMARK VINA RESULT:      -3.8      1.619      2.316
REMARK  1 active torsions:
REMARK  status: ('A' for Active; 'I' for Inactive)
REMARK    1  A    between atoms: C3_3  and  C8_8 
ROOT
HETATM    1  C1  UNL     1     -34.659  14.967  -6.538  1.00 20.00     0.017 C 
HETATM    2  C2  UNL     1     -34.146  16.382  -6.322  1.00 20.00     0.092 C 
HETATM    3  C3  UNL     1     -33.916  14.635  -4.421  1.00 20.00     0.173 C 
HETATM    4  C4  UNL     1     -35.288  14.617  -7.856  1.00 20.00     0.066 C 
HETATM    5  C5  UNL     1     -35.290  17.382  -6.259  1.00 20.00     0.028 C 
HETATM    6  N9  UNL     1     -34.587  14.069  -5.603  1.00 20.00    -0.282 NA
HETATM    7  S10 UNL     1     -33.288  16.303  -4.735  1.00 20.00    -0.131 SA
ENDROOT
BRANCH   3   8
HETATM    8  C8  UNL     1     -34.905  14.654  -3.263  1.00 20.00     0.012 C 
HETATM    9  C6  UNL     1     -34.662  15.866  -2.364  1.00 20.00     0.012 C 
HETATM   10  C7  UNL     1     -36.343  14.652  -3.780  1.00 20.00     0.012 C 
ENDBRANCH   3   8
TORSDOF 1
ENDMDL
MODEL 7
REMARK VINA RESULT:      -3.8      1.659      4.296
REMARK  1 active torsions:
REMARK  status: ('A' for Active; 'I' for Inactive)
REMARK    1  A    between atoms: C3_3  and  C8_8 
ROOT
HETATM    1  C1  UNL     1     -34.182  17.551  -3.786  1.00 20.00     0.017 C 
HETATM    2  C2  UNL     1     -33.703  16.559  -2.738  1.00 20.00     0.092 C 
HETATM    3  C3  UNL     1     -33.654  15.895  -5.242  1.00 20.00     0.173 C 
HETATM    4  C4  UNL     1     -34.672  18.898  -3.339  1.00 20.00     0.066 C 
HETATM    5  C5  UNL     1     -34.853  16.067  -1.875  1.00 20.00     0.028 C 
HETATM    6  N9  UNL     1     -34.199  17.249  -5.049  1.00 20.00    -0.282 NA
HETATM    7  S10 UNL     1     -33.009  15.199  -3.701  1.00 20.00    -0.131 SA
ENDROOT
BRANCH   3   8
HETATM    8  C8  UNL     1     -34.754  15.003  -5.802  1.00 20.00     0.012 C 
HETATM    9  C6  UNL     1     -34.639  14.891  -7.322  1.00 20.00     0.012 C 
HETATM   10  C7  UNL     1     -34.707  13.617  -5.160  1.00 20.00     0.012 C 
ENDBRANCH   3   8
TORSDOF 1
ENDMDL
MODEL 8
REMARK VINA RESULT:      -3.7      1.888      3.663
REMARK  1 active torsions:
REMARK  status: ('A' for Active; 'I' for Inactive)
REMARK    1  A    between atoms: C3_3  and  C8_8 
ROOT
HETATM    1  C1  UNL     1     -33.708  17.483  -4.504  1.00 20.00     0.017 C 
HETATM    2  C2  UNL     1     -34.719  17.440  -3.370  1.00 20.00     0.092 C 
HETATM    3  C3  UNL     1     -33.417  15.290  -4.003  1.00 20.00     0.173 C 
HETATM    4  C4  UNL     1     -33.488  18.779  -5.231  1.00 20.00     0.066 C 
HETATM    5  C5  UNL     1     -36.138  17.612  -3.887  1.00 20.00     0.028 C 
HETATM    6  N9  UNL     1     -33.053  16.423  -4.871  1.00 20.00    -0.282 NA
HETATM    7  S10 UNL     1     -34.504  15.799  -2.649  1.00 20.00    -0.131 SA
ENDROOT
BRANCH   3   8
HETATM    8  C8  UNL     1     -34.098  14.225  -4.853  1.00 20.00     0.012 C 
HETATM    9  C6  UNL     1     -35.346  13.690  -4.153  1.00 20.00     0.012 C 
HETATM   10  C7  UNL     1     -34.456  14.781  -6.231  1.00 20.00     0.012 C 
ENDBRANCH   3   8
TORSDOF 1
ENDMDL
MODEL 9
REMARK VINA RESULT:      -3.7      1.579      3.949
REMARK  1 active torsions:
REMARK  status: ('A' for Active; 'I' for Inactive)
REMARK    1  A    between atoms: C3_3  and  C8_8 
ROOT
HETATM    1  C1  UNL     1     -34.683  16.260  -3.092  1.00 20.00     0.017 C 
HETATM    2  C2  UNL     1     -33.359  16.163  -3.833  1.00 20.00     0.092 C 
HETATM    3  C3  UNL     1     -35.568  16.323  -5.178  1.00 20.00     0.173 C 
HETATM    4  C4  UNL     1     -34.674  16.261  -1.590  1.00 20.00     0.066 C 
HETATM    5  C5  UNL     1     -32.718  14.798  -3.644  1.00 20.00     0.028 C 
HETATM    6  N9  UNL     1     -35.814  16.316  -3.727  1.00 20.00    -0.282 NA
HETATM    7  S10 UNL     1     -33.803  16.419  -5.564  1.00 20.00    -0.131 SA
ENDROOT
BRANCH   3   8
HETATM    8  C8  UNL     1     -36.172  15.061  -5.781  1.00 20.00     0.012 C 
HETATM    9  C6  UNL     1     -37.449  15.388  -6.552  1.00 20.00     0.012 C 
HETATM   10  C7  UNL     1     -35.163  14.361  -6.691  1.00 20.00     0.012 C 
ENDBRANCH   3   8
TORSDOF 1
ENDMDL
