MODEL 1
REMARK VINA RESULT:      -4.8      0.000      0.000
REMARK  0 active torsions:
REMARK  status: ('A' for Active; 'I' for Inactive)
ROOT
HETATM    1  C1  UNL     1     -36.601  14.798  -3.577  1.00 20.00     0.085 C 
HETATM    2  C2  UNL     1     -34.931  15.842  -2.237  1.00 20.00     0.085 C 
HETATM    3  C3  UNL     1     -34.556  15.688  -4.763  1.00 20.00     0.030 A 
HETATM    4  C4  UNL     1     -35.222  15.197  -3.488  1.00 20.00     0.148 A 
HETATM    5  C5  UNL     1     -34.142  14.349  -4.179  1.00 20.00    -0.007 A 
HETATM    6  C6  UNL     1     -33.641  16.869  -4.799  1.00 20.00     0.014 C 
HETATM    7  C7  UNL     1     -34.547  13.114  -4.957  1.00 20.00     0.018 C 
HETATM    8  C8  UNL     1     -32.782  14.192  -3.533  1.00 20.00     0.018 C 
HETATM    9  N9  UNL     1     -37.713  14.476  -3.649  1.00 20.00    -0.195 NA
HETATM   10  N10 UNL     1     -34.696  16.362  -1.227  1.00 20.00    -0.195 NA
ENDROOT
TORSDOF 0
ENDMDL
MODEL 2
REMARK VINA RESULT:      -4.7      1.603      2.665
REMARK  0 active torsions:
REMARK  status: ('A' for Active; 'I' for Inactive)
ROOT
HETATM    1  C1  UNL     1     -36.778  14.670  -3.744  1.00 20.00     0.085 C 
HETATM    2  C2  UNL     1     -34.478  14.064  -3.617  1.00 20.00     0.085 C 
HETATM    3  C3  UNL     1     -35.195  16.349  -2.717  1.00 20.00     0.030 A 
HETATM    4  C4  UNL     1     -35.426  15.144  -3.614  1.00 20.00     0.148 A 
HETATM    5  C5  UNL     1     -35.039  16.502  -4.220  1.00 20.00    -0.007 A 
HETATM    6  C6  UNL     1     -34.042  16.449  -1.772  1.00 20.00     0.014 C 
HETATM    7  C7  UNL     1     -36.089  17.329  -4.931  1.00 20.00     0.018 C 
HETATM    8  C8  UNL     1     -33.663  16.691  -4.823  1.00 20.00     0.018 C 
HETATM    9  N9  UNL     1     -37.869  14.288  -3.849  1.00 20.00    -0.195 NA
HETATM   10  N10 UNL     1     -33.712  13.192  -3.620  1.00 20.00    -0.195 NA
ENDROOT
TORSDOF 0
ENDMDL
MODEL 3
REMARK VINA RESULT:      -4.7      2.027      3.191
REMARK  0 active torsions:
REMARK  status: ('A' for Active; 'I' for Inactive)
ROOT
HETATM    1  C1  UNL     1     -34.819  13.810  -4.212  1.00 20.00     0.085 C 
HETATM    2  C2  UNL     1     -33.728  15.911  -4.475  1.00 20.00     0.085 C 
HETATM    3  C3  UNL     1     -35.139  15.517  -2.378  1.00 20.00     0.030 A 
HETATM    4  C4  UNL     1     -34.788  15.194  -3.821  1.00 20.00     0.148 A 
HETATM    5  C5  UNL     1     -36.102  15.914  -3.483  1.00 20.00    -0.007 A 
HETATM    6  C6  UNL     1     -34.389  16.520  -1.564  1.00 20.00     0.014 C 
HETATM    7  C7  UNL     1     -37.410  15.154  -3.551  1.00 20.00     0.018 C 
HETATM    8  C8  UNL     1     -36.275  17.373  -3.849  1.00 20.00     0.018 C 
HETATM    9  N9  UNL     1     -34.844  12.693  -4.528  1.00 20.00    -0.195 NA
HETATM   10  N10 UNL     1     -32.873  16.490  -5.003  1.00 20.00    -0.195 NA
ENDROOT
TORSDOF 0
ENDMDL
MODEL 4
REMARK VINA RESULT:      -4.6      1.952      3.407
REMARK  0 active torsions:
REMARK  status: ('A' for Active; 'I' for Inactive)
ROOT
HETATM    1  C1  UNL     1     -34.070  13.784  -4.161  1.00 20.00     0.085 C 
HETATM    2  C2  UNL     1     -36.374  14.376  -4.283  1.00 20.00     0.085 C 
HETATM    3  C3  UNL     1     -34.893  14.791  -6.327  1.00 20.00     0.030 A 
HETATM    4  C4  UNL     1     -35.062  14.582  -4.831  1.00 20.00     0.148 A 
HETATM    5  C5  UNL     1     -34.674  15.962  -5.385  1.00 20.00    -0.007 A 
HETATM    6  C6  UNL     1     -36.034  14.733  -7.289  1.00 20.00     0.014 C 
HETATM    7  C7  UNL     1     -33.250  16.455  -5.234  1.00 20.00     0.018 C 
HETATM    8  C8  UNL     1     -35.675  17.097  -5.344  1.00 20.00     0.018 C 
HETATM    9  N9  UNL     1     -33.269  13.140  -3.622  1.00 20.00    -0.195 NA
HETATM   10  N10 UNL     1     -37.433  14.210  -3.840  1.00 20.00    -0.195 NA
ENDROOT
TORSDOF 0
ENDMDL
MODEL 5
REMARK VINA RESULT:      -4.6      1.723      3.080
REMARK  0 active torsions:
REMARK  status: ('A' for Active; 'I' for Inactive)
ROOT
HETATM    1  C1  UNL     1     -36.852  14.500  -4.004  1.00 20.00     0.085 C 
HETATM    2  C2  UNL     1     -35.225  14.593  -5.741  1.00 20.00     0.085 C 
HETATM    3  C3  UNL     1     -34.442  14.113  -3.354  1.00 20.00     0.030 A 
HETATM    4  C4  UNL     1     -35.462  14.681  -4.327  1.00 20.00     0.148 A 
HETATM    5  C5  UNL     1     -34.601  15.619  -3.465  1.00 20.00    -0.007 A 
HETATM    6  C6  UNL     1     -33.208  13.398  -3.797  1.00 20.00     0.014 C 
HETATM    7  C7  UNL     1     -35.224  16.326  -2.280  1.00 20.00     0.018 C 
HETATM    8  C8  UNL     1     -33.514  16.449  -4.115  1.00 20.00     0.018 C 
HETATM    9  N9  UNL     1     -37.974  14.354  -3.743  1.00 20.00    -0.195 NA
HETATM   10  N10 UNL     1     -35.034  14.522  -6.883  1.00 20.00    -0.195 NA
ENDROOT
TORSDOF 0
ENDMDL
MODEL 6
REMARK VINA RESULT:      -4.6      0.482      3.131
REMARK  0 active torsions:
REMARK  status: ('A' for Active; 'I' for Inactive)
ROOT
HETATM    1  C1  UNL     1     -34.924  15.866  -2.228  1.00 20.00     0.085 C 
HETATM    2  C2  UNL     1     -36.583  14.822  -3.582  1.00 20.00     0.085 C 
HETATM    3  C3  UNL     1     -34.118  14.414  -4.131  1.00 20.00     0.030 A 
HETATM    4  C4  UNL     1     -35.214  15.253  -3.496  1.00 20.00     0.148 A 
HETATM    5  C5  UNL     1     -34.489  15.746  -4.758  1.00 20.00    -0.007 A 
HETATM    6  C6  UNL     1     -34.382  13.106  -4.802  1.00 20.00     0.014 C 
HETATM    7  C7  UNL     1     -33.467  16.858  -4.646  1.00 20.00     0.018 C 
HETATM    8  C8  UNL     1     -35.223  15.781  -6.082  1.00 20.00     0.018 C 
HETATM    9  N9  UNL     1     -34.689  16.360  -1.204  1.00 20.00    -0.195 NA
HETATM   10  N10 UNL     1     -37.687  14.475  -3.651  1.00 20.00    -0.195 NA
ENDROOT
TORSDOF 0
ENDMDL
MODEL 7
REMARK VINA RESULT:      -4.5      1.833      3.000
REMARK  0 active torsions:
REMARK  status: ('A' for Active; 'I' for Inactive)
ROOT
HETATM    1  C1  UNL     1     -35.071  13.599  -4.577  1.00 20.00     0.085 C 
HETATM    2  C2  UNL     1     -37.109  14.616  -3.879  1.00 20.00     0.085 C 
HETATM    3  C3  UNL     1     -35.302  16.090  -4.929  1.00 20.00     0.030 A 
HETATM    4  C4  UNL     1     -35.725  14.824  -4.201  1.00 20.00     0.148 A 
HETATM    5  C5  UNL     1     -34.925  15.913  -3.468  1.00 20.00    -0.007 A 
HETATM    6  C6  UNL     1     -36.275  17.125  -5.391  1.00 20.00     0.014 C 
HETATM    7  C7  UNL     1     -33.459  15.688  -3.167  1.00 20.00     0.018 C 
HETATM    8  C8  UNL     1     -35.601  16.754  -2.406  1.00 20.00     0.018 C 
HETATM    9  N9  UNL     1     -34.545  12.611  -4.881  1.00 20.00    -0.195 NA
HETATM   10  N10 UNL     1     -38.227  14.447  -3.617  1.00 20.00    -0.195 NA
ENDROOT
TORSDOF 0
ENDMDL
MODEL 8
REMARK VINA RESULT:      -4.5      1.936      2.871
REMARK  0 active torsions:
REMARK  status: ('A' for Active; 'I' for Inactive)
ROOT
HETATM    1  C1  UNL     1     -37.100  14.586  -4.084  1.00 20.00     0.085 C 
HETATM    2  C2  UNL     1     -35.008  13.582  -4.622  1.00 20.00     0.085 C 
HETATM    3  C3  UNL     1     -35.111  16.122  -4.340  1.00 20.00     0.030 A 
HETATM    4  C4  UNL     1     -35.785  14.791  -4.629  1.00 20.00     0.148 A 
HETATM    5  C5  UNL     1     -35.584  15.821  -5.752  1.00 20.00    -0.007 A 
HETATM    6  C6  UNL     1     -33.666  16.241  -3.982  1.00 20.00     0.014 C 
HETATM    7  C7  UNL     1     -36.769  16.617  -6.256  1.00 20.00     0.018 C 
HETATM    8  C8  UNL     1     -34.573  15.551  -6.847  1.00 20.00     0.018 C 
HETATM    9  N9  UNL     1     -38.161  14.421  -3.643  1.00 20.00    -0.195 NA
HETATM   10  N10 UNL     1     -34.381  12.606  -4.617  1.00 20.00    -0.195 NA
ENDROOT
TORSDOF 0
ENDMDL
MODEL 9
REMARK VINA RESULT:      -4.4      1.915      2.393
REMARK  0 active torsions:
REMARK  status: ('A' for Active; 'I' for Inactive)
ROOT
HETATM    1  C1  UNL     1     -36.886  14.755  -4.297  1.00 20.00     0.085 C 
HETATM    2  C2  UNL     1     -36.012  16.753  -5.256  1.00 20.00     0.085 C 
HETATM    3  C3  UNL     1     -34.958  14.516  -5.911  1.00 20.00     0.030 A 
HETATM    4  C4  UNL     1     -35.760  15.372  -4.945  1.00 20.00     0.148 A 
HETATM    5  C5  UNL     1     -34.337  14.918  -4.584  1.00 20.00    -0.007 A 
HETATM    6  C6  UNL     1     -34.455  15.024  -7.223  1.00 20.00     0.014 C 
HETATM    7  C7  UNL     1     -34.141  13.816  -3.564  1.00 20.00     0.018 C 
HETATM    8  C8  UNL     1     -33.211  15.930  -4.551  1.00 20.00     0.018 C 
HETATM    9  N9  UNL     1     -37.795  14.256  -3.775  1.00 20.00    -0.195 NA
HETATM   10  N10 UNL     1     -36.215  17.867  -5.506  1.00 20.00    -0.195 NA
ENDROOT
TORSDOF 0
ENDMDL
