MODEL 1
REMARK VINA RESULT:      -3.6      0.000      0.000
REMARK  0 active torsions:
REMARK  status: ('A' for Active; 'I' for Inactive)
ROOT
HETATM    1  C1  UNL     1     -33.780   6.332   5.505  1.00 20.00     0.048 C 
HETATM    2  C2  UNL     1     -34.783   5.294   5.962  1.00 20.00     0.169 C 
HETATM    3  C3  UNL     1     -34.816   5.363   3.631  1.00 20.00     0.187 C 
HETATM    4  C4  UNL     1     -33.462   5.844   4.111  1.00 20.00     0.108 C 
HETATM    5  O5  UNL     1     -35.514   4.888   4.795  1.00 20.00    -0.390 OA
HETATM    6 CL6  UNL     1     -32.773   7.104   3.084  1.00 20.00    -0.123 Cl
ENDROOT
TORSDOF 0
ENDMDL
MODEL 2
REMARK VINA RESULT:      -3.6      1.814      2.108
REMARK  0 active torsions:
REMARK  status: ('A' for Active; 'I' for Inactive)
ROOT
HETATM    1  C1  UNL     1     -34.968   4.962   6.021  1.00 20.00     0.048 C 
HETATM    2  C2  UNL     1     -35.192   4.236   4.711  1.00 20.00     0.169 C 
HETATM    3  C3  UNL     1     -34.165   6.277   4.246  1.00 20.00     0.187 C 
HETATM    4  C4  UNL     1     -33.815   5.869   5.663  1.00 20.00     0.108 C 
HETATM    5  O5  UNL     1     -34.867   5.165   3.666  1.00 20.00    -0.390 OA
HETATM    6 CL6  UNL     1     -33.661   7.245   6.759  1.00 20.00    -0.123 Cl
ENDROOT
TORSDOF 0
ENDMDL
MODEL 3
REMARK VINA RESULT:      -3.5      1.618      2.269
REMARK  0 active torsions:
REMARK  status: ('A' for Active; 'I' for Inactive)
ROOT
HETATM    1  C1  UNL     1     -34.001   6.251   4.294  1.00 20.00     0.048 C 
HETATM    2  C2  UNL     1     -34.894   5.145   3.772  1.00 20.00     0.169 C 
HETATM    3  C3  UNL     1     -34.663   4.869   6.076  1.00 20.00     0.187 C 
HETATM    4  C4  UNL     1     -34.439   6.328   5.737  1.00 20.00     0.108 C 
HETATM    5  O5  UNL     1     -35.098   4.233   4.863  1.00 20.00    -0.390 OA
HETATM    6 CL6  UNL     1     -33.239   7.102   6.776  1.00 20.00    -0.123 Cl
ENDROOT
TORSDOF 0
ENDMDL
MODEL 4
REMARK VINA RESULT:      -3.3      2.262      2.859
REMARK  0 active torsions:
REMARK  status: ('A' for Active; 'I' for Inactive)
ROOT
HETATM    1  C1  UNL     1     -35.130   5.277   4.010  1.00 20.00     0.048 C 
HETATM    2  C2  UNL     1     -34.382   5.336   2.695  1.00 20.00     0.169 C 
HETATM    3  C3  UNL     1     -33.085   6.393   4.319  1.00 20.00     0.187 C 
HETATM    4  C4  UNL     1     -33.996   5.393   5.001  1.00 20.00     0.108 C 
HETATM    5  O5  UNL     1     -33.250   6.193   2.905  1.00 20.00    -0.390 OA
HETATM    6 CL6  UNL     1     -34.533   5.926   6.597  1.00 20.00    -0.123 Cl
ENDROOT
TORSDOF 0
ENDMDL
MODEL 5
REMARK VINA RESULT:      -3.2      2.130      2.587
REMARK  0 active torsions:
REMARK  status: ('A' for Active; 'I' for Inactive)
ROOT
HETATM    1  C1  UNL     1     -32.939   6.363   4.384  1.00 20.00     0.048 C 
HETATM    2  C2  UNL     1     -33.064   6.213   2.882  1.00 20.00     0.169 C 
HETATM    3  C3  UNL     1     -34.881   5.140   3.874  1.00 20.00     0.187 C 
HETATM    4  C4  UNL     1     -34.379   6.215   4.816  1.00 20.00     0.108 C 
HETATM    5  O5  UNL     1     -34.146   5.300   2.649  1.00 20.00    -0.390 OA
HETATM    6 CL6  UNL     1     -34.541   5.771   6.518  1.00 20.00    -0.123 Cl
ENDROOT
TORSDOF 0
ENDMDL
MODEL 6
REMARK VINA RESULT:      -3.1      2.389      2.630
REMARK  0 active torsions:
REMARK  status: ('A' for Active; 'I' for Inactive)
ROOT
HETATM    1  C1  UNL     1     -34.407   5.576   6.498  1.00 20.00     0.048 C 
HETATM    2  C2  UNL     1     -33.713   6.918   6.388  1.00 20.00     0.169 C 
HETATM    3  C3  UNL     1     -33.661   5.897   4.292  1.00 20.00     0.187 C 
HETATM    4  C4  UNL     1     -34.840   5.350   5.069  1.00 20.00     0.108 C 
HETATM    5  O5  UNL     1     -33.114   6.964   5.084  1.00 20.00    -0.390 OA
HETATM    6 CL6  UNL     1     -35.172   3.652   4.715  1.00 20.00    -0.123 Cl
ENDROOT
TORSDOF 0
ENDMDL
MODEL 7
REMARK VINA RESULT:      -3.0     12.354     12.831
REMARK  0 active torsions:
REMARK  status: ('A' for Active; 'I' for Inactive)
ROOT
HETATM    1  C1  UNL     1     -34.545  14.431  -5.651  1.00 20.00     0.048 C 
HETATM    2  C2  UNL     1     -34.729  13.169  -4.835  1.00 20.00     0.169 C 
HETATM    3  C3  UNL     1     -33.200  14.537  -3.727  1.00 20.00     0.187 C 
HETATM    4  C4  UNL     1     -34.091  15.406  -4.590  1.00 20.00     0.108 C 
HETATM    5  O5  UNL     1     -33.744  13.208  -3.792  1.00 20.00    -0.390 OA
HETATM    6 CL6  UNL     1     -33.249  16.805  -5.261  1.00 20.00    -0.123 Cl
ENDROOT
TORSDOF 0
ENDMDL
MODEL 8
REMARK VINA RESULT:      -3.0     11.893     12.114
REMARK  0 active torsions:
REMARK  status: ('A' for Active; 'I' for Inactive)
ROOT
HETATM    1  C1  UNL     1     -34.416  15.090  -3.131  1.00 20.00     0.048 C 
HETATM    2  C2  UNL     1     -33.207  14.336  -3.643  1.00 20.00     0.169 C 
HETATM    3  C3  UNL     1     -35.121  13.228  -4.381  1.00 20.00     0.187 C 
HETATM    4  C4  UNL     1     -35.466  14.683  -4.139  1.00 20.00     0.108 C 
HETATM    5  O5  UNL     1     -33.697  13.117  -4.220  1.00 20.00    -0.390 OA
HETATM    6 CL6  UNL     1     -37.112  14.912  -3.543  1.00 20.00    -0.123 Cl
ENDROOT
TORSDOF 0
ENDMDL
MODEL 9
REMARK VINA RESULT:      -3.0     12.019     12.492
REMARK  0 active torsions:
REMARK  status: ('A' for Active; 'I' for Inactive)
ROOT
HETATM    1  C1  UNL     1     -34.445  15.120  -5.233  1.00 20.00     0.048 C 
HETATM    2  C2  UNL     1     -34.960  13.798  -5.761  1.00 20.00     0.169 C 
HETATM    3  C3  UNL     1     -34.227  13.472  -3.571  1.00 20.00     0.187 C 
HETATM    4  C4  UNL     1     -34.608  14.928  -3.744  1.00 20.00     0.108 C 
HETATM    5  O5  UNL     1     -34.619  12.805  -4.782  1.00 20.00    -0.390 OA
HETATM    6 CL6  UNL     1     -33.597  16.023  -2.797  1.00 20.00    -0.123 Cl
ENDROOT
TORSDOF 0
ENDMDL
