MODEL 1
REMARK VINA RESULT:      -4.5      0.000      0.000
REMARK  3 active torsions:
REMARK  status: ('A' for Active; 'I' for Inactive)
REMARK    1  A    between atoms: C1_1  and  C3_3 
REMARK    2  A    between atoms: C2_2  and  C7_7 
REMARK    3  A    between atoms: C3_3  and  O9_9 
ROOT
HETATM    1  C1  UNL     1     -34.044   6.166   3.006  1.00 20.00     0.078 C 
HETATM    2  C2  UNL     1     -34.770   5.724   4.042  1.00 20.00    -0.017 C 
ENDROOT
BRANCH   1   3
HETATM    3  C3  UNL     1     -32.572   6.243   3.115  1.00 20.00     0.282 C 
HETATM    4  O8  UNL     1     -31.809   5.291   3.092  1.00 20.00    -0.260 OA
BRANCH   3   5
HETATM    5  O9  UNL     1     -32.237   7.556   3.244  1.00 20.00    -0.323 OA
HETATM    6  C6  UNL     1     -32.065   8.270   2.016  1.00 20.00     0.213 C 
ENDBRANCH   3   5
ENDBRANCH   1   3
BRANCH   2   7
HETATM    7  C7  UNL     1     -34.162   5.289   5.352  1.00 20.00    -0.000 C 
HETATM    8  C4  UNL     1     -34.131   6.461   6.334  1.00 20.00     0.013 C 
HETATM    9  C5  UNL     1     -34.950   4.118   5.937  1.00 20.00     0.013 C 
ENDBRANCH   2   7
TORSDOF 3
ENDMDL
MODEL 2
REMARK VINA RESULT:      -4.0     11.360     12.259
REMARK  3 active torsions:
REMARK  status: ('A' for Active; 'I' for Inactive)
REMARK    1  A    between atoms: C1_1  and  C3_3 
REMARK    2  A    between atoms: C2_2  and  C7_7 
REMARK    3  A    between atoms: C3_3  and  O9_9 
ROOT
HETATM    1  C1  UNL     1     -33.162  14.086  -3.911  1.00 20.00     0.078 C 
HETATM    2  C2  UNL     1     -33.266  15.175  -3.137  1.00 20.00    -0.017 C 
ENDROOT
BRANCH   1   3
HETATM    3  C3  UNL     1     -34.346  13.579  -4.637  1.00 20.00     0.282 C 
HETATM    4  O8  UNL     1     -35.129  12.741  -4.217  1.00 20.00    -0.260 OA
BRANCH   3   5
HETATM    5  O9  UNL     1     -34.393  14.212  -5.840  1.00 20.00    -0.323 OA
HETATM    6  C6  UNL     1     -35.700  14.594  -6.283  1.00 20.00     0.213 C 
ENDBRANCH   3   5
ENDBRANCH   1   3
BRANCH   2   7
HETATM    7  C7  UNL     1     -34.554  15.940  -2.955  1.00 20.00    -0.000 C 
HETATM    8  C4  UNL     1     -34.745  16.306  -1.483  1.00 20.00     0.013 C 
HETATM    9  C5  UNL     1     -34.551  17.195  -3.826  1.00 20.00     0.013 C 
ENDBRANCH   2   7
TORSDOF 3
ENDMDL
MODEL 3
REMARK VINA RESULT:      -4.0      1.431      1.987
REMARK  3 active torsions:
REMARK  status: ('A' for Active; 'I' for Inactive)
REMARK    1  A    between atoms: C1_1  and  C3_3 
REMARK    2  A    between atoms: C2_2  and  C7_7 
REMARK    3  A    between atoms: C3_3  and  O9_9 
ROOT
HETATM    1  C1  UNL     1     -32.173   6.084   2.870  1.00 20.00     0.078 C 
HETATM    2  C2  UNL     1     -33.283   5.478   3.313  1.00 20.00    -0.017 C 
ENDROOT
BRANCH   1   3
HETATM    3  C3  UNL     1     -31.928   7.506   3.194  1.00 20.00     0.282 C 
HETATM    4  O8  UNL     1     -31.282   7.914   4.145  1.00 20.00    -0.260 OA
BRANCH   3   5
HETATM    5  O9  UNL     1     -32.552   8.257   2.246  1.00 20.00    -0.323 OA
HETATM    6  C6  UNL     1     -31.748   8.614   1.117  1.00 20.00     0.213 C 
ENDBRANCH   3   5
ENDBRANCH   1   3
BRANCH   2   7
HETATM    7  C7  UNL     1     -34.330   6.175   4.145  1.00 20.00    -0.000 C 
HETATM    8  C4  UNL     1     -35.719   5.637   3.802  1.00 20.00     0.013 C 
HETATM    9  C5  UNL     1     -34.033   5.988   5.632  1.00 20.00     0.013 C 
ENDBRANCH   2   7
TORSDOF 3
ENDMDL
MODEL 4
REMARK VINA RESULT:      -4.0     11.466     12.286
REMARK  3 active torsions:
REMARK  status: ('A' for Active; 'I' for Inactive)
REMARK    1  A    between atoms: C1_1  and  C3_3 
REMARK    2  A    between atoms: C2_2  and  C7_7 
REMARK    3  A    between atoms: C3_3  and  O9_9 
ROOT
HETATM    1  C1  UNL     1     -36.145  14.631  -4.195  1.00 20.00     0.078 C 
HETATM    2  C2  UNL     1     -35.869  15.608  -3.319  1.00 20.00    -0.017 C 
ENDROOT
BRANCH   1   3
HETATM    3  C3  UNL     1     -35.079  13.701  -4.624  1.00 20.00     0.282 C 
HETATM    4  O8  UNL     1     -34.772  12.665  -4.055  1.00 20.00    -0.260 OA
BRANCH   3   5
HETATM    5  O9  UNL     1     -34.517  14.212  -5.752  1.00 20.00    -0.323 OA
HETATM    6  C6  UNL     1     -35.407  14.383  -6.860  1.00 20.00     0.213 C 
ENDBRANCH   3   5
ENDBRANCH   1   3
BRANCH   2   7
HETATM    7  C7  UNL     1     -34.500  15.824  -2.726  1.00 20.00    -0.000 C 
HETATM    8  C4  UNL     1     -33.704  16.808  -3.584  1.00 20.00     0.013 C 
HETATM    9  C5  UNL     1     -34.620  16.335  -1.292  1.00 20.00     0.013 C 
ENDBRANCH   2   7
TORSDOF 3
ENDMDL
MODEL 5
REMARK VINA RESULT:      -3.8     11.608     12.541
REMARK  3 active torsions:
REMARK  status: ('A' for Active; 'I' for Inactive)
REMARK    1  A    between atoms: C1_1  and  C3_3 
REMARK    2  A    between atoms: C2_2  and  C7_7 
REMARK    3  A    between atoms: C3_3  and  O9_9 
ROOT
HETATM    1  C1  UNL     1     -35.169  13.883  -3.961  1.00 20.00     0.078 C 
HETATM    2  C2  UNL     1     -34.381  14.654  -3.199  1.00 20.00    -0.017 C 
ENDROOT
BRANCH   1   3
HETATM    3  C3  UNL     1     -36.412  14.439  -4.537  1.00 20.00     0.282 C 
HETATM    4  O8  UNL     1     -36.491  15.061  -5.584  1.00 20.00    -0.260 OA
BRANCH   3   5
HETATM    5  O9  UNL     1     -37.431  14.131  -3.690  1.00 20.00    -0.323 OA
HETATM    6  C6  UNL     1     -38.609  14.932  -3.829  1.00 20.00     0.213 C 
ENDBRANCH   3   5
ENDBRANCH   1   3
BRANCH   2   7
HETATM    7  C7  UNL     1     -34.691  16.095  -2.882  1.00 20.00    -0.000 C 
HETATM    8  C4  UNL     1     -34.619  16.330  -1.373  1.00 20.00     0.013 C 
HETATM    9  C5  UNL     1     -33.721  17.019  -3.617  1.00 20.00     0.013 C 
ENDBRANCH   2   7
TORSDOF 3
ENDMDL
MODEL 6
REMARK VINA RESULT:      -3.7     11.318     13.109
REMARK  3 active torsions:
REMARK  status: ('A' for Active; 'I' for Inactive)
REMARK    1  A    between atoms: C1_1  and  C3_3 
REMARK    2  A    between atoms: C2_2  and  C7_7 
REMARK    3  A    between atoms: C3_3  and  O9_9 
ROOT
HETATM    1  C1  UNL     1     -36.153  14.566  -4.439  1.00 20.00     0.078 C 
HETATM    2  C2  UNL     1     -36.168  15.231  -5.603  1.00 20.00    -0.017 C 
ENDROOT
BRANCH   1   3
HETATM    3  C3  UNL     1     -35.035  13.652  -4.125  1.00 20.00     0.282 C 
HETATM    4  O8  UNL     1     -34.859  12.551  -4.624  1.00 20.00    -0.260 OA
BRANCH   3   5
HETATM    5  O9  UNL     1     -34.256  14.260  -3.190  1.00 20.00    -0.323 OA
HETATM    6  C6  UNL     1     -33.031  14.817  -3.678  1.00 20.00     0.213 C 
ENDBRANCH   3   5
ENDBRANCH   1   3
BRANCH   2   7
HETATM    7  C7  UNL     1     -35.085  15.100  -6.644  1.00 20.00    -0.000 C 
HETATM    8  C4  UNL     1     -35.650  14.472  -7.918  1.00 20.00     0.013 C 
HETATM    9  C5  UNL     1     -34.473  16.467  -6.944  1.00 20.00     0.013 C 
ENDBRANCH   2   7
TORSDOF 3
ENDMDL
MODEL 7
REMARK VINA RESULT:      -3.7      9.373     10.357
REMARK  3 active torsions:
REMARK  status: ('A' for Active; 'I' for Inactive)
REMARK    1  A    between atoms: C1_1  and  C3_3 
REMARK    2  A    between atoms: C2_2  and  C7_7 
REMARK    3  A    between atoms: C3_3  and  O9_9 
ROOT
HETATM    1  C1  UNL     1     -40.546   6.174  -0.293  1.00 20.00     0.078 C 
HETATM    2  C2  UNL     1     -41.150   7.263  -0.789  1.00 20.00    -0.017 C 
ENDROOT
BRANCH   1   3
HETATM    3  C3  UNL     1     -41.188   4.849  -0.423  1.00 20.00     0.282 C 
HETATM    4  O8  UNL     1     -42.020   4.388   0.342  1.00 20.00    -0.260 OA
BRANCH   3   5
HETATM    5  O9  UNL     1     -40.682   4.254  -1.537  1.00 20.00    -0.323 OA
HETATM    6  C6  UNL     1     -41.627   3.525  -2.328  1.00 20.00     0.213 C 
ENDBRANCH   3   5
ENDBRANCH   1   3
BRANCH   2   7
HETATM    7  C7  UNL     1     -42.483   7.220  -1.493  1.00 20.00    -0.000 C 
HETATM    8  C4  UNL     1     -43.417   8.284  -0.916  1.00 20.00     0.013 C 
HETATM    9  C5  UNL     1     -42.295   7.427  -2.995  1.00 20.00     0.013 C 
ENDBRANCH   2   7
TORSDOF 3
ENDMDL
MODEL 8
REMARK VINA RESULT:      -3.7     11.730     13.296
REMARK  3 active torsions:
REMARK  status: ('A' for Active; 'I' for Inactive)
REMARK    1  A    between atoms: C1_1  and  C3_3 
REMARK    2  A    between atoms: C2_2  and  C7_7 
REMARK    3  A    between atoms: C3_3  and  O9_9 
ROOT
HETATM    1  C1  UNL     1     -35.266  13.669  -4.244  1.00 20.00     0.078 C 
HETATM    2  C2  UNL     1     -34.774  13.857  -5.476  1.00 20.00    -0.017 C 
ENDROOT
BRANCH   1   3
HETATM    3  C3  UNL     1     -36.277  14.601  -3.701  1.00 20.00     0.282 C 
HETATM    4  O8  UNL     1     -36.040  15.688  -3.197  1.00 20.00    -0.260 OA
BRANCH   3   5
HETATM    5  O9  UNL     1     -37.498  14.025  -3.868  1.00 20.00    -0.323 OA
HETATM    6  C6  UNL     1     -38.568  14.928  -4.168  1.00 20.00     0.213 C 
ENDBRANCH   3   5
ENDBRANCH   1   3
BRANCH   2   7
HETATM    7  C7  UNL     1     -35.200  14.994  -6.372  1.00 20.00    -0.000 C 
HETATM    8  C4  UNL     1     -34.090  16.042  -6.456  1.00 20.00     0.013 C 
HETATM    9  C5  UNL     1     -35.549  14.468  -7.763  1.00 20.00     0.013 C 
ENDBRANCH   2   7
TORSDOF 3
ENDMDL
MODEL 9
REMARK VINA RESULT:      -3.6      1.886      4.100
REMARK  3 active torsions:
REMARK  status: ('A' for Active; 'I' for Inactive)
REMARK    1  A    between atoms: C1_1  and  C3_3 
REMARK    2  A    between atoms: C2_2  and  C7_7 
REMARK    3  A    between atoms: C3_3  and  O9_9 
ROOT
HETATM    1  C1  UNL     1     -34.795   6.239   4.619  1.00 20.00     0.078 C 
HETATM    2  C2  UNL     1     -34.091   6.531   3.517  1.00 20.00    -0.017 C 
ENDROOT
BRANCH   1   3
HETATM    3  C3  UNL     1     -34.103   6.061   5.913  1.00 20.00     0.282 C 
HETATM    4  O8  UNL     1     -33.680   6.962   6.620  1.00 20.00    -0.260 OA
BRANCH   3   5
HETATM    5  O9  UNL     1     -34.028   4.726   6.159  1.00 20.00    -0.323 OA
HETATM    6  C6  UNL     1     -35.082   3.937   5.598  1.00 20.00     0.213 C 
ENDBRANCH   3   5
ENDBRANCH   1   3
BRANCH   2   7
HETATM    7  C7  UNL     1     -32.591   6.694   3.513  1.00 20.00    -0.000 C 
HETATM    8  C4  UNL     1     -31.922   5.403   3.041  1.00 20.00     0.013 C 
HETATM    9  C5  UNL     1     -32.190   7.866   2.619  1.00 20.00     0.013 C 
ENDBRANCH   2   7
TORSDOF 3
ENDMDL
