MODEL 1
REMARK VINA RESULT:      -4.1      0.000      0.000
REMARK  3 active torsions:
REMARK  status: ('A' for Active; 'I' for Inactive)
REMARK    1  A    between atoms: C2_2  and  C6_6 
REMARK    2  A    between atoms: C2_2  and  O9_9 
REMARK    3  A    between atoms: C5_5  and  C6_6 
ROOT
HETATM    1  C1  UNL     1     -37.011  14.556  -3.972  1.00 20.00     0.074 C 
HETATM    2  C6  UNL     1     -35.598  14.783  -4.324  1.00 20.00     0.192 C 
HETATM    3  N7  UNL     1     -38.125  14.379  -3.696  1.00 20.00    -0.196 NA
ENDROOT
BRANCH   2   4
HETATM    4  C2  UNL     1     -35.049  13.648  -5.173  1.00 20.00     0.276 C 
HETATM    5  O8  UNL     1     -34.577  12.608  -4.733  1.00 20.00    -0.264 OA
BRANCH   4   6
HETATM    6  O9  UNL     1     -35.153  13.975  -6.496  1.00 20.00    -0.325 OA
HETATM    7  C4  UNL     1     -34.416  15.131  -6.907  1.00 20.00     0.213 C 
ENDBRANCH   4   6
ENDBRANCH   2   4
BRANCH   2   8
HETATM    8  C5  UNL     1     -34.738  15.022  -3.075  1.00 20.00     0.025 C 
HETATM    9  C3  UNL     1     -33.367  15.632  -3.356  1.00 20.00     0.007 C 
ENDBRANCH   2   8
TORSDOF 3
ENDMDL
MODEL 2
REMARK VINA RESULT:      -4.0      2.438      2.912
REMARK  3 active torsions:
REMARK  status: ('A' for Active; 'I' for Inactive)
REMARK    1  A    between atoms: C2_2  and  C6_6 
REMARK    2  A    between atoms: C2_2  and  O9_9 
REMARK    3  A    between atoms: C5_5  and  C6_6 
ROOT
HETATM    1  C1  UNL     1     -33.477  15.758  -4.208  1.00 20.00     0.074 C 
HETATM    2  C6  UNL     1     -34.173  14.926  -3.209  1.00 20.00     0.192 C 
HETATM    3  N7  UNL     1     -32.927  16.410  -4.994  1.00 20.00    -0.196 NA
ENDROOT
BRANCH   2   4
HETATM    4  C2  UNL     1     -35.141  13.958  -3.871  1.00 20.00     0.276 C 
HETATM    5  O8  UNL     1     -34.840  12.857  -4.313  1.00 20.00    -0.264 OA
BRANCH   4   6
HETATM    6  O9  UNL     1     -36.389  14.514  -3.906  1.00 20.00    -0.325 OA
HETATM    7  C4  UNL     1     -36.841  14.936  -5.197  1.00 20.00     0.213 C 
ENDBRANCH   4   6
ENDBRANCH   2   4
BRANCH   2   8
HETATM    8  C5  UNL     1     -34.871  15.788  -2.148  1.00 20.00     0.025 C 
HETATM    9  C3  UNL     1     -33.979  16.846  -1.504  1.00 20.00     0.007 C 
ENDBRANCH   2   8
TORSDOF 3
ENDMDL
MODEL 3
REMARK VINA RESULT:      -3.9      1.806      2.087
REMARK  3 active torsions:
REMARK  status: ('A' for Active; 'I' for Inactive)
REMARK    1  A    between atoms: C2_2  and  C6_6 
REMARK    2  A    between atoms: C2_2  and  O9_9 
REMARK    3  A    between atoms: C5_5  and  C6_6 
ROOT
HETATM    1  C1  UNL     1     -36.267  14.834  -3.521  1.00 20.00     0.074 C 
HETATM    2  C6  UNL     1     -34.980  15.493  -3.231  1.00 20.00     0.192 C 
HETATM    3  N7  UNL     1     -37.280  14.317  -3.752  1.00 20.00    -0.196 NA
ENDROOT
BRANCH   2   4
HETATM    4  C2  UNL     1     -33.805  14.619  -3.638  1.00 20.00     0.276 C 
HETATM    5  O8  UNL     1     -33.763  13.401  -3.519  1.00 20.00    -0.264 OA
BRANCH   4   6
HETATM    6  O9  UNL     1     -32.805  15.403  -4.141  1.00 20.00    -0.325 OA
HETATM    7  C4  UNL     1     -33.214  16.395  -5.087  1.00 20.00     0.213 C 
ENDBRANCH   4   6
ENDBRANCH   2   4
BRANCH   2   8
HETATM    8  C5  UNL     1     -34.886  15.918  -1.758  1.00 20.00     0.025 C 
HETATM    9  C3  UNL     1     -33.957  17.101  -1.498  1.00 20.00     0.007 C 
ENDBRANCH   2   8
TORSDOF 3
ENDMDL
MODEL 4
REMARK VINA RESULT:      -3.8      2.834      3.986
REMARK  3 active torsions:
REMARK  status: ('A' for Active; 'I' for Inactive)
REMARK    1  A    between atoms: C2_2  and  C6_6 
REMARK    2  A    between atoms: C2_2  and  O9_9 
REMARK    3  A    between atoms: C5_5  and  C6_6 
ROOT
HETATM    1  C1  UNL     1     -34.141  13.781  -4.064  1.00 20.00     0.074 C 
HETATM    2  C6  UNL     1     -33.584  15.026  -3.504  1.00 20.00     0.192 C 
HETATM    3  N7  UNL     1     -34.578  12.800  -4.502  1.00 20.00    -0.196 NA
ENDROOT
BRANCH   2   4
HETATM    4  C2  UNL     1     -34.581  15.718  -2.588  1.00 20.00     0.276 C 
HETATM    5  O8  UNL     1     -35.798  15.617  -2.673  1.00 20.00    -0.264 OA
BRANCH   4   6
HETATM    6  O9  UNL     1     -33.909  16.476  -1.670  1.00 20.00    -0.325 OA
HETATM    7  C4  UNL     1     -34.667  16.871  -0.523  1.00 20.00     0.213 C 
ENDBRANCH   4   6
ENDBRANCH   2   4
BRANCH   2   8
HETATM    8  C5  UNL     1     -33.085  15.967  -4.611  1.00 20.00     0.025 C 
HETATM    9  C3  UNL     1     -33.964  15.998  -5.859  1.00 20.00     0.007 C 
ENDBRANCH   2   8
TORSDOF 3
ENDMDL
MODEL 5
REMARK VINA RESULT:      -3.8      1.575      2.828
REMARK  3 active torsions:
REMARK  status: ('A' for Active; 'I' for Inactive)
REMARK    1  A    between atoms: C2_2  and  C6_6 
REMARK    2  A    between atoms: C2_2  and  O9_9 
REMARK    3  A    between atoms: C5_5  and  C6_6 
ROOT
HETATM    1  C1  UNL     1     -36.506  14.139  -4.257  1.00 20.00     0.074 C 
HETATM    2  C6  UNL     1     -35.167  13.858  -4.807  1.00 20.00     0.192 C 
HETATM    3  N7  UNL     1     -37.560  14.356  -3.824  1.00 20.00    -0.196 NA
ENDROOT
BRANCH   2   4
HETATM    4  C2  UNL     1     -34.099  13.928  -3.728  1.00 20.00     0.276 C 
HETATM    5  O8  UNL     1     -33.109  13.209  -3.673  1.00 20.00    -0.264 OA
BRANCH   4   6
HETATM    6  O9  UNL     1     -34.422  14.903  -2.827  1.00 20.00    -0.325 OA
HETATM    7  C4  UNL     1     -33.586  16.064  -2.845  1.00 20.00     0.213 C 
ENDBRANCH   4   6
ENDBRANCH   2   4
BRANCH   2   8
HETATM    8  C5  UNL     1     -34.839  14.784  -5.988  1.00 20.00     0.025 C 
HETATM    9  C3  UNL     1     -35.482  14.375  -7.311  1.00 20.00     0.007 C 
ENDBRANCH   2   8
TORSDOF 3
ENDMDL
MODEL 6
REMARK VINA RESULT:      -3.8      2.572      2.839
REMARK  3 active torsions:
REMARK  status: ('A' for Active; 'I' for Inactive)
REMARK    1  A    between atoms: C2_2  and  C6_6 
REMARK    2  A    between atoms: C2_2  and  O9_9 
REMARK    3  A    between atoms: C5_5  and  C6_6 
ROOT
HETATM    1  C1  UNL     1     -35.104  13.521  -4.191  1.00 20.00     0.074 C 
HETATM    2  C6  UNL     1     -35.780  14.550  -3.380  1.00 20.00     0.192 C 
HETATM    3  N7  UNL     1     -34.572  12.709  -4.827  1.00 20.00    -0.196 NA
ENDROOT
BRANCH   2   4
HETATM    4  C2  UNL     1     -37.160  14.871  -3.930  1.00 20.00     0.276 C 
HETATM    5  O8  UNL     1     -38.176  14.231  -3.693  1.00 20.00    -0.264 OA
BRANCH   4   6
HETATM    6  O9  UNL     1     -37.086  15.971  -4.738  1.00 20.00    -0.325 OA
HETATM    7  C4  UNL     1     -37.436  15.755  -6.109  1.00 20.00     0.213 C 
ENDBRANCH   4   6
ENDBRANCH   2   4
BRANCH   2   8
HETATM    8  C5  UNL     1     -34.918  15.814  -3.242  1.00 20.00     0.025 C 
HETATM    9  C3  UNL     1     -34.610  16.216  -1.802  1.00 20.00     0.007 C 
ENDBRANCH   2   8
TORSDOF 3
ENDMDL
MODEL 7
REMARK VINA RESULT:      -3.7      2.169      2.557
REMARK  3 active torsions:
REMARK  status: ('A' for Active; 'I' for Inactive)
REMARK    1  A    between atoms: C2_2  and  C6_6 
REMARK    2  A    between atoms: C2_2  and  O9_9 
REMARK    3  A    between atoms: C5_5  and  C6_6 
ROOT
HETATM    1  C1  UNL     1     -34.745  13.934  -4.159  1.00 20.00     0.074 C 
HETATM    2  C6  UNL     1     -34.522  15.386  -4.026  1.00 20.00     0.192 C 
HETATM    3  N7  UNL     1     -34.923  12.793  -4.265  1.00 20.00    -0.196 NA
ENDROOT
BRANCH   2   4
HETATM    4  C2  UNL     1     -33.767  15.943  -5.221  1.00 20.00     0.276 C 
HETATM    5  O8  UNL     1     -32.932  16.836  -5.169  1.00 20.00    -0.264 OA
BRANCH   4   6
HETATM    6  O9  UNL     1     -34.174  15.303  -6.358  1.00 20.00    -0.325 OA
HETATM    7  C4  UNL     1     -34.751  16.139  -7.365  1.00 20.00     0.213 C 
ENDBRANCH   4   6
ENDBRANCH   2   4
BRANCH   2   8
HETATM    8  C5  UNL     1     -33.820  15.727  -2.703  1.00 20.00     0.025 C 
HETATM    9  C3  UNL     1     -34.749  16.242  -1.607  1.00 20.00     0.007 C 
ENDBRANCH   2   8
TORSDOF 3
ENDMDL
MODEL 8
REMARK VINA RESULT:      -3.7      2.642      3.461
REMARK  3 active torsions:
REMARK  status: ('A' for Active; 'I' for Inactive)
REMARK    1  A    between atoms: C2_2  and  C6_6 
REMARK    2  A    between atoms: C2_2  and  O9_9 
REMARK    3  A    between atoms: C5_5  and  C6_6 
ROOT
HETATM    1  C1  UNL     1     -34.372  13.732  -4.019  1.00 20.00     0.074 C 
HETATM    2  C6  UNL     1     -33.813  14.927  -3.360  1.00 20.00     0.192 C 
HETATM    3  N7  UNL     1     -34.811  12.790  -4.535  1.00 20.00    -0.196 NA
ENDROOT
BRANCH   2   4
HETATM    4  C2  UNL     1     -34.843  15.601  -2.468  1.00 20.00     0.276 C 
HETATM    5  O8  UNL     1     -34.591  16.178  -1.418  1.00 20.00    -0.264 OA
BRANCH   4   6
HETATM    6  O9  UNL     1     -36.088  15.450  -3.012  1.00 20.00    -0.325 OA
HETATM    7  C4  UNL     1     -36.783  16.664  -3.312  1.00 20.00     0.213 C 
ENDBRANCH   4   6
ENDBRANCH   2   4
BRANCH   2   8
HETATM    8  C5  UNL     1     -33.222  15.908  -4.383  1.00 20.00     0.025 C 
HETATM    9  C3  UNL     1     -33.955  15.946  -5.721  1.00 20.00     0.007 C 
ENDBRANCH   2   8
TORSDOF 3
ENDMDL
MODEL 9
REMARK VINA RESULT:      -3.6      2.714      3.418
REMARK  3 active torsions:
REMARK  status: ('A' for Active; 'I' for Inactive)
REMARK    1  A    between atoms: C2_2  and  C6_6 
REMARK    2  A    between atoms: C2_2  and  O9_9 
REMARK    3  A    between atoms: C5_5  and  C6_6 
ROOT
HETATM    1  C1  UNL     1     -33.821  16.956  -3.583  1.00 20.00     0.074 C 
HETATM    2  C6  UNL     1     -34.113  15.886  -2.612  1.00 20.00     0.192 C 
HETATM    3  N7  UNL     1     -33.587  17.796  -4.348  1.00 20.00    -0.196 NA
ENDROOT
BRANCH   2   4
HETATM    4  C2  UNL     1     -35.070  14.857  -3.191  1.00 20.00     0.276 C 
HETATM    5  O8  UNL     1     -36.273  15.027  -3.345  1.00 20.00    -0.264 OA
BRANCH   4   6
HETATM    6  O9  UNL     1     -34.384  13.716  -3.499  1.00 20.00    -0.325 OA
HETATM    7  C4  UNL     1     -34.582  13.214  -4.823  1.00 20.00     0.213 C 
ENDBRANCH   4   6
ENDBRANCH   2   4
BRANCH   2   8
HETATM    8  C5  UNL     1     -34.634  16.459  -1.285  1.00 20.00     0.025 C 
HETATM    9  C3  UNL     1     -33.772  17.572  -0.694  1.00 20.00     0.007 C 
ENDBRANCH   2   8
TORSDOF 3
ENDMDL
