MODEL 1
REMARK VINA RESULT:      -3.6      0.000      0.000
REMARK  1 active torsions:
REMARK  status: ('A' for Active; 'I' for Inactive)
REMARK    1  A    between atoms: C3_3  and  C6_6 
ROOT
HETATM    1  C1  UNL     1     -33.623  16.607  -5.736  1.00 20.00     0.282 C 
HETATM    2  C2  UNL     1     -34.186  15.580  -6.706  1.00 20.00     0.106 C 
HETATM    3  C3  UNL     1     -33.966  14.843  -4.177  1.00 20.00     0.201 C 
HETATM    4  C4  UNL     1     -33.173  13.636  -3.671  1.00 20.00     0.061 C 
HETATM    5  N7  UNL     1     -33.019  15.876  -4.620  1.00 20.00     0.103 N 
HETATM    6  S8  UNL     1     -34.960  14.351  -5.632  1.00 20.00    -0.127 SA
HETATM    7  H21 UNL     1     -32.172  15.423  -4.966  1.00 20.00     0.318 HD
ENDROOT
BRANCH   3   8
HETATM    8  C6  UNL     1     -34.897  15.372  -3.082  1.00 20.00     0.048 C 
HETATM    9  C5  UNL     1     -34.162  16.222  -2.101  1.00 20.00     0.009 C 
ENDBRANCH   3   8
TORSDOF 1
ENDMDL
MODEL 2
REMARK VINA RESULT:      -3.6      1.030      1.063
REMARK  1 active torsions:
REMARK  status: ('A' for Active; 'I' for Inactive)
REMARK    1  A    between atoms: C3_3  and  C6_6 
ROOT
HETATM    1  C1  UNL     1     -33.677  16.974  -5.635  1.00 20.00     0.282 C 
HETATM    2  C2  UNL     1     -35.066  16.441  -5.944  1.00 20.00     0.106 C 
HETATM    3  C3  UNL     1     -33.786  15.341  -3.909  1.00 20.00     0.201 C 
HETATM    4  C4  UNL     1     -33.465  13.853  -3.764  1.00 20.00     0.061 C 
HETATM    5  N7  UNL     1     -32.933  15.908  -4.963  1.00 20.00     0.103 N 
HETATM    6  S8  UNL     1     -35.525  15.539  -4.447  1.00 20.00    -0.127 SA
HETATM    7  H21 UNL     1     -32.735  15.183  -5.654  1.00 20.00     0.318 HD
ENDROOT
BRANCH   3   8
HETATM    8  C6  UNL     1     -33.583  16.068  -2.575  1.00 20.00     0.048 C 
HETATM    9  C5  UNL     1     -34.862  16.185  -1.816  1.00 20.00     0.009 C 
ENDBRANCH   3   8
TORSDOF 1
ENDMDL
MODEL 3
REMARK VINA RESULT:      -3.4     12.852     13.528
REMARK  1 active torsions:
REMARK  status: ('A' for Active; 'I' for Inactive)
REMARK    1  A    between atoms: C3_3  and  C6_6 
ROOT
HETATM    1  C1  UNL     1     -41.557   3.757  -2.305  1.00 20.00     0.282 C 
HETATM    2  C2  UNL     1     -42.859   4.322  -2.849  1.00 20.00     0.106 C 
HETATM    3  C3  UNL     1     -42.089   5.170  -0.467  1.00 20.00     0.201 C 
HETATM    4  C4  UNL     1     -42.908   5.059   0.820  1.00 20.00     0.061 C 
HETATM    5  N7  UNL     1     -41.620   3.829  -0.844  1.00 20.00     0.103 N 
HETATM    6  S8  UNL     1     -43.163   5.775  -1.820  1.00 20.00    -0.127 SA
HETATM    7  H21 UNL     1     -42.301   3.139  -0.527  1.00 20.00     0.318 HD
ENDROOT
BRANCH   3   8
HETATM    8  C6  UNL     1     -40.918   6.139  -0.278  1.00 20.00     0.048 C 
HETATM    9  C5  UNL     1     -41.180   7.451  -0.939  1.00 20.00     0.009 C 
ENDBRANCH   3   8
TORSDOF 1
ENDMDL
MODEL 4
REMARK VINA RESULT:      -3.4      1.377      2.812
REMARK  1 active torsions:
REMARK  status: ('A' for Active; 'I' for Inactive)
REMARK    1  A    between atoms: C3_3  and  C6_6 
ROOT
HETATM    1  C1  UNL     1     -34.060  13.357  -4.666  1.00 20.00     0.282 C 
HETATM    2  C2  UNL     1     -35.520  13.593  -4.313  1.00 20.00     0.106 C 
HETATM    3  C3  UNL     1     -33.851  15.602  -3.909  1.00 20.00     0.201 C 
HETATM    4  C4  UNL     1     -33.621  16.308  -2.572  1.00 20.00     0.061 C 
HETATM    5  N7  UNL     1     -33.255  14.260  -3.843  1.00 20.00     0.103 N 
HETATM    6  S8  UNL     1     -35.648  15.390  -4.184  1.00 20.00    -0.127 SA
HETATM    7  H21 UNL     1     -33.298  13.926  -2.879  1.00 20.00     0.318 HD
ENDROOT
BRANCH   3   8
HETATM    8  C6  UNL     1     -33.255  16.421  -5.060  1.00 20.00     0.048 C 
HETATM    9  C5  UNL     1     -34.294  16.787  -6.065  1.00 20.00     0.009 C 
ENDBRANCH   3   8
TORSDOF 1
ENDMDL
MODEL 5
REMARK VINA RESULT:      -3.4      1.684      2.613
REMARK  1 active torsions:
REMARK  status: ('A' for Active; 'I' for Inactive)
REMARK    1  A    between atoms: C3_3  and  C6_6 
ROOT
HETATM    1  C1  UNL     1     -33.470  16.712  -4.127  1.00 20.00     0.282 C 
HETATM    2  C2  UNL     1     -34.807  17.398  -4.352  1.00 20.00     0.106 C 
HETATM    3  C3  UNL     1     -34.366  15.165  -5.697  1.00 20.00     0.201 C 
HETATM    4  C4  UNL     1     -34.409  15.024  -7.219  1.00 20.00     0.061 C 
HETATM    5  N7  UNL     1     -33.166  15.929  -5.327  1.00 20.00     0.103 N 
HETATM    6  S8  UNL     1     -35.821  16.123  -5.134  1.00 20.00    -0.127 SA
HETATM    7  H21 UNL     1     -32.946  16.584  -6.078  1.00 20.00     0.318 HD
ENDROOT
BRANCH   3   8
HETATM    8  C6  UNL     1     -34.378  13.786  -5.028  1.00 20.00     0.048 C 
HETATM    9  C5  UNL     1     -35.566  13.619  -4.141  1.00 20.00     0.009 C 
ENDBRANCH   3   8
TORSDOF 1
ENDMDL
MODEL 6
REMARK VINA RESULT:      -3.3      1.599      3.125
REMARK  1 active torsions:
REMARK  status: ('A' for Active; 'I' for Inactive)
REMARK    1  A    between atoms: C3_3  and  C6_6 
ROOT
HETATM    1  C1  UNL     1     -34.703  16.311  -1.612  1.00 20.00     0.282 C 
HETATM    2  C2  UNL     1     -35.897  16.840  -2.388  1.00 20.00     0.106 C 
HETATM    3  C3  UNL     1     -33.998  15.641  -3.783  1.00 20.00     0.201 C 
HETATM    4  C4  UNL     1     -33.221  16.268  -4.942  1.00 20.00     0.061 C 
HETATM    5  N7  UNL     1     -33.562  16.271  -2.528  1.00 20.00     0.103 N 
HETATM    6  S8  UNL     1     -35.782  15.999  -3.983  1.00 20.00    -0.127 SA
HETATM    7  H21 UNL     1     -33.282  17.233  -2.720  1.00 20.00     0.318 HD
ENDROOT
BRANCH   3   8
HETATM    8  C6  UNL     1     -33.786  14.124  -3.750  1.00 20.00     0.048 C 
HETATM    9  C5  UNL     1     -35.000  13.392  -4.215  1.00 20.00     0.009 C 
ENDBRANCH   3   8
TORSDOF 1
ENDMDL
MODEL 7
REMARK VINA RESULT:      -3.3      1.086      3.356
REMARK  1 active torsions:
REMARK  status: ('A' for Active; 'I' for Inactive)
REMARK    1  A    between atoms: C3_3  and  C6_6 
ROOT
HETATM    1  C1  UNL     1     -33.220  14.700  -3.788  1.00 20.00     0.282 C 
HETATM    2  C2  UNL     1     -34.484  15.184  -3.098  1.00 20.00     0.106 C 
HETATM    3  C3  UNL     1     -34.008  16.127  -5.521  1.00 20.00     0.201 C 
HETATM    4  C4  UNL     1     -33.880  17.606  -5.887  1.00 20.00     0.061 C 
HETATM    5  N7  UNL     1     -32.821  15.727  -4.752  1.00 20.00     0.103 N 
HETATM    6  S8  UNL     1     -35.466  15.892  -4.440  1.00 20.00    -0.127 SA
HETATM    7  H21 UNL     1     -32.481  16.533  -4.226  1.00 20.00     0.318 HD
ENDROOT
BRANCH   3   8
HETATM    8  C6  UNL     1     -34.169  15.272  -6.783  1.00 20.00     0.048 C 
HETATM    9  C5  UNL     1     -35.437  14.485  -6.752  1.00 20.00     0.009 C 
ENDBRANCH   3   8
TORSDOF 1
ENDMDL
MODEL 8
REMARK VINA RESULT:      -3.3      2.099      3.052
REMARK  1 active torsions:
REMARK  status: ('A' for Active; 'I' for Inactive)
REMARK    1  A    between atoms: C3_3  and  C6_6 
ROOT
HETATM    1  C1  UNL     1     -33.607  16.949  -4.325  1.00 20.00     0.282 C 
HETATM    2  C2  UNL     1     -33.908  17.567  -2.970  1.00 20.00     0.106 C 
HETATM    3  C3  UNL     1     -35.087  15.267  -3.524  1.00 20.00     0.201 C 
HETATM    4  C4  UNL     1     -36.597  15.023  -3.525  1.00 20.00     0.061 C 
HETATM    5  N7  UNL     1     -34.743  16.099  -4.686  1.00 20.00     0.103 N 
HETATM    6  S8  UNL     1     -34.624  16.206  -2.022  1.00 20.00    -0.127 SA
HETATM    7  H21 UNL     1     -35.532  16.710  -4.901  1.00 20.00     0.318 HD
ENDROOT
BRANCH   3   8
HETATM    8  C6  UNL     1     -34.326  13.937  -3.545  1.00 20.00     0.048 C 
HETATM    9  C5  UNL     1     -34.549  13.200  -4.823  1.00 20.00     0.009 C 
ENDBRANCH   3   8
TORSDOF 1
ENDMDL
MODEL 9
REMARK VINA RESULT:      -3.3      2.176      3.071
REMARK  1 active torsions:
REMARK  status: ('A' for Active; 'I' for Inactive)
REMARK    1  A    between atoms: C3_3  and  C6_6 
ROOT
HETATM    1  C1  UNL     1     -37.280  15.324  -3.766  1.00 20.00     0.282 C 
HETATM    2  C2  UNL     1     -36.894  16.257  -4.902  1.00 20.00     0.106 C 
HETATM    3  C3  UNL     1     -34.925  15.290  -3.426  1.00 20.00     0.201 C 
HETATM    4  C4  UNL     1     -33.901  16.126  -2.658  1.00 20.00     0.061 C 
HETATM    5  N7  UNL     1     -36.226  15.402  -2.752  1.00 20.00     0.103 N 
HETATM    6  S8  UNL     1     -35.123  15.970  -5.114  1.00 20.00    -0.127 SA
HETATM    7  H21 UNL     1     -36.290  16.319  -2.307  1.00 20.00     0.318 HD
ENDROOT
BRANCH   3   8
HETATM    8  C6  UNL     1     -34.469  13.830  -3.519  1.00 20.00     0.048 C 
HETATM    9  C5  UNL     1     -34.474  13.343  -4.929  1.00 20.00     0.009 C 
ENDBRANCH   3   8
TORSDOF 1
ENDMDL
