MODEL 1
REMARK VINA RESULT:      -3.1      0.000      0.000
REMARK  2 active torsions:
REMARK  status: ('A' for Active; 'I' for Inactive)
REMARK    1  A    between atoms: C2_2  and  C4_4 
REMARK    2  A    between atoms: C4_4  and  S6_6 
ROOT
HETATM    1  C1  UNL     1     -32.471   7.199   2.856  1.00 20.00     0.201 A 
HETATM    2  C2  UNL     1     -33.171   6.375   3.900  1.00 20.00     0.154 A 
HETATM    3  O5  UNL     1     -32.004   5.892   3.226  1.00 20.00    -0.380 OA
ENDROOT
BRANCH   2   4
HETATM    4  C4  UNL     1     -34.419   5.632   3.583  1.00 20.00     0.107 C 
BRANCH   4   5
HETATM    5  S6  UNL     1     -35.047   4.731   5.040  1.00 20.00    -0.171 SA
HETATM    6  C3  UNL     1     -34.381   5.819   6.319  1.00 20.00     0.089 C 
ENDBRANCH   4   5
ENDBRANCH   2   4
TORSDOF 2
ENDMDL
MODEL 2
REMARK VINA RESULT:      -2.8     11.648     11.826
REMARK  2 active torsions:
REMARK  status: ('A' for Active; 'I' for Inactive)
REMARK    1  A    between atoms: C2_2  and  C4_4 
REMARK    2  A    between atoms: C4_4  and  S6_6 
ROOT
HETATM    1  C1  UNL     1     -34.683  13.591  -5.323  1.00 20.00     0.201 A 
HETATM    2  C2  UNL     1     -34.270  13.933  -3.919  1.00 20.00     0.154 A 
HETATM    3  O5  UNL     1     -35.010  12.743  -4.211  1.00 20.00    -0.380 OA
ENDROOT
BRANCH   2   4
HETATM    4  C4  UNL     1     -35.014  14.943  -3.122  1.00 20.00     0.107 C 
BRANCH   4   5
HETATM    5  S6  UNL     1     -33.936  16.330  -2.629  1.00 20.00    -0.171 SA
HETATM    6  C3  UNL     1     -34.599  16.588  -0.969  1.00 20.00     0.089 C 
ENDBRANCH   4   5
ENDBRANCH   2   4
TORSDOF 2
ENDMDL
MODEL 3
REMARK VINA RESULT:      -2.7     11.650     12.315
REMARK  2 active torsions:
REMARK  status: ('A' for Active; 'I' for Inactive)
REMARK    1  A    between atoms: C2_2  and  C4_4 
REMARK    2  A    between atoms: C4_4  and  S6_6 
ROOT
HETATM    1  C1  UNL     1     -34.666  13.415  -5.374  1.00 20.00     0.201 A 
HETATM    2  C2  UNL     1     -34.283  13.820  -3.979  1.00 20.00     0.154 A 
HETATM    3  O5  UNL     1     -35.081  12.658  -4.227  1.00 20.00    -0.380 OA
ENDROOT
BRANCH   2   4
HETATM    4  C4  UNL     1     -34.995  14.918  -3.275  1.00 20.00     0.107 C 
BRANCH   4   5
HETATM    5  S6  UNL     1     -33.858  16.274  -2.831  1.00 20.00    -0.171 SA
HETATM    6  C3  UNL     1     -33.447  16.819  -4.503  1.00 20.00     0.089 C 
ENDBRANCH   4   5
ENDBRANCH   2   4
TORSDOF 2
ENDMDL
MODEL 4
REMARK VINA RESULT:      -2.6     12.042     13.080
REMARK  2 active torsions:
REMARK  status: ('A' for Active; 'I' for Inactive)
REMARK    1  A    between atoms: C2_2  and  C4_4 
REMARK    2  A    between atoms: C4_4  and  S6_6 
ROOT
HETATM    1  C1  UNL     1     -34.242  13.590  -3.633  1.00 20.00     0.201 A 
HETATM    2  C2  UNL     1     -35.162  14.068  -4.721  1.00 20.00     0.154 A 
HETATM    3  O5  UNL     1     -35.010  12.675  -4.430  1.00 20.00    -0.380 OA
ENDROOT
BRANCH   2   4
HETATM    4  C4  UNL     1     -34.634  14.483  -6.046  1.00 20.00     0.107 C 
BRANCH   4   5
HETATM    5  S6  UNL     1     -34.800  16.283  -6.297  1.00 20.00    -0.171 SA
HETATM    6  C3  UNL     1     -33.406  16.811  -5.277  1.00 20.00     0.089 C 
ENDBRANCH   4   5
ENDBRANCH   2   4
TORSDOF 2
ENDMDL
MODEL 5
REMARK VINA RESULT:      -2.6      2.428      3.635
REMARK  2 active torsions:
REMARK  status: ('A' for Active; 'I' for Inactive)
REMARK    1  A    between atoms: C2_2  and  C4_4 
REMARK    2  A    between atoms: C4_4  and  S6_6 
ROOT
HETATM    1  C1  UNL     1     -35.099   4.607   5.617  1.00 20.00     0.201 A 
HETATM    2  C2  UNL     1     -33.870   5.413   5.304  1.00 20.00     0.154 A 
HETATM    3  O5  UNL     1     -34.745   5.772   6.379  1.00 20.00    -0.380 OA
ENDROOT
BRANCH   2   4
HETATM    4  C4  UNL     1     -33.850   6.379   4.175  1.00 20.00     0.107 C 
BRANCH   4   5
HETATM    5  S6  UNL     1     -32.370   6.156   3.132  1.00 20.00    -0.171 SA
HETATM    6  C3  UNL     1     -32.224   7.854   2.533  1.00 20.00     0.089 C 
ENDBRANCH   4   5
ENDBRANCH   2   4
TORSDOF 2
ENDMDL
MODEL 6
REMARK VINA RESULT:      -2.6     11.765     12.446
REMARK  2 active torsions:
REMARK  status: ('A' for Active; 'I' for Inactive)
REMARK    1  A    between atoms: C2_2  and  C4_4 
REMARK    2  A    between atoms: C4_4  and  S6_6 
ROOT
HETATM    1  C1  UNL     1     -34.156  13.651  -3.808  1.00 20.00     0.201 A 
HETATM    2  C2  UNL     1     -35.561  13.920  -4.266  1.00 20.00     0.154 A 
HETATM    3  O5  UNL     1     -34.957  12.632  -4.425  1.00 20.00    -0.380 OA
ENDROOT
BRANCH   2   4
HETATM    4  C4  UNL     1     -35.831  14.637  -5.539  1.00 20.00     0.107 C 
BRANCH   4   5
HETATM    5  S6  UNL     1     -37.432  15.511  -5.487  1.00 20.00    -0.171 SA
HETATM    6  C3  UNL     1     -38.049  14.819  -3.936  1.00 20.00     0.089 C 
ENDBRANCH   4   5
ENDBRANCH   2   4
TORSDOF 2
ENDMDL
MODEL 7
REMARK VINA RESULT:      -2.5     11.944     12.518
REMARK  2 active torsions:
REMARK  status: ('A' for Active; 'I' for Inactive)
REMARK    1  A    between atoms: C2_2  and  C4_4 
REMARK    2  A    between atoms: C4_4  and  S6_6 
ROOT
HETATM    1  C1  UNL     1     -38.043  15.107  -4.767  1.00 20.00     0.201 A 
HETATM    2  C2  UNL     1     -36.839  14.441  -4.165  1.00 20.00     0.154 A 
HETATM    3  O5  UNL     1     -38.143  14.278  -3.599  1.00 20.00    -0.380 OA
ENDROOT
BRANCH   2   4
HETATM    4  C4  UNL     1     -35.886  15.199  -3.314  1.00 20.00     0.107 C 
BRANCH   4   5
HETATM    5  S6  UNL     1     -34.182  14.573  -3.497  1.00 20.00    -0.171 SA
HETATM    6  C3  UNL     1     -34.508  13.310  -4.747  1.00 20.00     0.089 C 
ENDBRANCH   4   5
ENDBRANCH   2   4
TORSDOF 2
ENDMDL
MODEL 8
REMARK VINA RESULT:      -2.4     12.215     12.879
REMARK  2 active torsions:
REMARK  status: ('A' for Active; 'I' for Inactive)
REMARK    1  A    between atoms: C2_2  and  C4_4 
REMARK    2  A    between atoms: C4_4  and  S6_6 
ROOT
HETATM    1  C1  UNL     1     -33.726  17.341  -4.992  1.00 20.00     0.201 A 
HETATM    2  C2  UNL     1     -33.543  16.557  -3.723  1.00 20.00     0.154 A 
HETATM    3  O5  UNL     1     -32.739  16.304  -4.880  1.00 20.00    -0.380 OA
ENDROOT
BRANCH   2   4
HETATM    4  C4  UNL     1     -34.469  15.453  -3.361  1.00 20.00     0.107 C 
BRANCH   4   5
HETATM    5  S6  UNL     1     -33.743  13.822  -3.737  1.00 20.00    -0.171 SA
HETATM    6  C3  UNL     1     -34.866  13.345  -5.068  1.00 20.00     0.089 C 
ENDBRANCH   4   5
ENDBRANCH   2   4
TORSDOF 2
ENDMDL
MODEL 9
REMARK VINA RESULT:      -2.4      9.471     10.254
REMARK  2 active torsions:
REMARK  status: ('A' for Active; 'I' for Inactive)
REMARK    1  A    between atoms: C2_2  and  C4_4 
REMARK    2  A    between atoms: C4_4  and  S6_6 
ROOT
HETATM    1  C1  UNL     1     -40.836   6.253  -0.241  1.00 20.00     0.201 A 
HETATM    2  C2  UNL     1     -41.014   4.955  -0.977  1.00 20.00     0.154 A 
HETATM    3  O5  UNL     1     -40.933   6.204  -1.672  1.00 20.00    -0.380 OA
ENDROOT
BRANCH   2   4
HETATM    4  C4  UNL     1     -42.341   4.290  -1.054  1.00 20.00     0.107 C 
BRANCH   4   5
HETATM    5  S6  UNL     1     -42.813   3.941  -2.781  1.00 20.00    -0.171 SA
HETATM    6  C3  UNL     1     -41.592   2.654  -3.123  1.00 20.00     0.089 C 
ENDBRANCH   4   5
ENDBRANCH   2   4
TORSDOF 2
ENDMDL
