MODEL 1
REMARK VINA RESULT:      -3.2      0.000      0.000
REMARK  0 active torsions:
REMARK  status: ('A' for Active; 'I' for Inactive)
ROOT
HETATM    1  C1  UNL     1     -35.128  15.060  -5.070  1.00 20.00     0.116 C 
HETATM    2  C2  UNL     1     -33.393  17.029  -5.206  1.00 20.00     0.344 C 
HETATM    3  C3  UNL     1     -33.985  15.031  -4.042  1.00 20.00     0.159 C 
HETATM    4  C4  UNL     1     -34.415  15.615  -2.683  1.00 20.00     0.049 C 
HETATM    5  C5  UNL     1     -33.509  13.587  -3.827  1.00 20.00     0.049 C 
HETATM    6  N6  UNL     1     -32.871  15.796  -4.630  1.00 20.00     0.102 N 
HETATM    7  S7  UNL     1     -35.061  16.705  -5.824  1.00 20.00    -0.137 SA
HETATM    8  H18 UNL     1     -32.463  15.244  -5.385  1.00 20.00     0.317 HD
ENDROOT
TORSDOF 0
ENDMDL
MODEL 2
REMARK VINA RESULT:      -3.2      1.395      1.796
REMARK  0 active torsions:
REMARK  status: ('A' for Active; 'I' for Inactive)
ROOT
HETATM    1  C1  UNL     1     -34.837  15.479  -3.181  1.00 20.00     0.116 C 
HETATM    2  C2  UNL     1     -33.240  16.471  -5.018  1.00 20.00     0.344 C 
HETATM    3  C3  UNL     1     -34.172  14.463  -4.124  1.00 20.00     0.159 C 
HETATM    4  C4  UNL     1     -32.918  13.827  -3.496  1.00 20.00     0.049 C 
HETATM    5  C5  UNL     1     -35.165  13.346  -4.476  1.00 20.00     0.049 C 
HETATM    6  N6  UNL     1     -33.845  15.190  -5.364  1.00 20.00     0.102 N 
HETATM    7  S7  UNL     1     -33.973  17.045  -3.469  1.00 20.00    -0.137 SA
HETATM    8  H18 UNL     1     -34.712  15.377  -5.867  1.00 20.00     0.317 HD
ENDROOT
TORSDOF 0
ENDMDL
MODEL 3
REMARK VINA RESULT:      -3.2     13.066     13.757
REMARK  0 active torsions:
REMARK  status: ('A' for Active; 'I' for Inactive)
ROOT
HETATM    1  C1  UNL     1     -42.296   5.396  -2.605  1.00 20.00     0.116 C 
HETATM    2  C2  UNL     1     -40.664   5.497  -0.547  1.00 20.00     0.344 C 
HETATM    3  C3  UNL     1     -42.040   4.067  -1.874  1.00 20.00     0.159 C 
HETATM    4  C4  UNL     1     -43.157   3.737  -0.866  1.00 20.00     0.049 C 
HETATM    5  C5  UNL     1     -41.942   2.921  -2.891  1.00 20.00     0.049 C 
HETATM    6  N6  UNL     1     -40.733   4.199  -1.207  1.00 20.00     0.102 N 
HETATM    7  S7  UNL     1     -41.618   6.682  -1.525  1.00 20.00    -0.137 SA
HETATM    8  H18 UNL     1     -40.002   4.169  -1.919  1.00 20.00     0.317 HD
ENDROOT
TORSDOF 0
ENDMDL
MODEL 4
REMARK VINA RESULT:      -3.2      1.729      2.489
REMARK  0 active torsions:
REMARK  status: ('A' for Active; 'I' for Inactive)
ROOT
HETATM    1  C1  UNL     1     -34.785  15.844  -4.844  1.00 20.00     0.116 C 
HETATM    2  C2  UNL     1     -34.697  13.221  -4.994  1.00 20.00     0.344 C 
HETATM    3  C3  UNL     1     -34.207  15.112  -3.622  1.00 20.00     0.159 C 
HETATM    4  C4  UNL     1     -32.667  15.082  -3.642  1.00 20.00     0.049 C 
HETATM    5  C5  UNL     1     -34.666  15.805  -2.331  1.00 20.00     0.049 C 
HETATM    6  N6  UNL     1     -34.773  13.752  -3.638  1.00 20.00     0.102 N 
HETATM    7  S7  UNL     1     -34.887  14.596  -6.153  1.00 20.00    -0.137 SA
HETATM    8  H18 UNL     1     -35.759  13.810  -3.378  1.00 20.00     0.317 HD
ENDROOT
TORSDOF 0
ENDMDL
MODEL 5
REMARK VINA RESULT:      -3.2      1.712      2.366
REMARK  0 active torsions:
REMARK  status: ('A' for Active; 'I' for Inactive)
ROOT
HETATM    1  C1  UNL     1     -35.647  15.493  -4.593  1.00 20.00     0.116 C 
HETATM    2  C2  UNL     1     -33.352  15.600  -3.316  1.00 20.00     0.344 C 
HETATM    3  C3  UNL     1     -34.477  14.726  -5.232  1.00 20.00     0.159 C 
HETATM    4  C4  UNL     1     -34.508  13.227  -4.880  1.00 20.00     0.049 C 
HETATM    5  C5  UNL     1     -34.527  14.872  -6.759  1.00 20.00     0.049 C 
HETATM    6  N6  UNL     1     -33.241  15.367  -4.752  1.00 20.00     0.102 N 
HETATM    7  S7  UNL     1     -35.085  15.934  -2.928  1.00 20.00    -0.137 SA
HETATM    8  H18 UNL     1     -33.148  16.274  -5.211  1.00 20.00     0.317 HD
ENDROOT
TORSDOF 0
ENDMDL
MODEL 6
REMARK VINA RESULT:      -3.2      1.853      2.954
REMARK  0 active torsions:
REMARK  status: ('A' for Active; 'I' for Inactive)
ROOT
HETATM    1  C1  UNL     1     -35.572  15.879  -4.696  1.00 20.00     0.116 C 
HETATM    2  C2  UNL     1     -34.872  13.365  -4.378  1.00 20.00     0.344 C 
HETATM    3  C3  UNL     1     -34.257  15.449  -5.367  1.00 20.00     0.159 C 
HETATM    4  C4  UNL     1     -34.451  15.120  -6.859  1.00 20.00     0.049 C 
HETATM    5  C5  UNL     1     -33.215  16.570  -5.244  1.00 20.00     0.049 C 
HETATM    6  N6  UNL     1     -33.763  14.281  -4.617  1.00 20.00     0.102 N 
HETATM    7  S7  UNL     1     -36.383  14.340  -4.188  1.00 20.00    -0.137 SA
HETATM    8  H18 UNL     1     -33.419  14.602  -3.711  1.00 20.00     0.317 HD
ENDROOT
TORSDOF 0
ENDMDL
MODEL 7
REMARK VINA RESULT:      -3.0      2.029      2.830
REMARK  0 active torsions:
REMARK  status: ('A' for Active; 'I' for Inactive)
ROOT
HETATM    1  C1  UNL     1     -35.073  15.999  -4.803  1.00 20.00     0.116 C 
HETATM    2  C2  UNL     1     -37.293  14.815  -4.042  1.00 20.00     0.344 C 
HETATM    3  C3  UNL     1     -35.026  15.272  -3.449  1.00 20.00     0.159 C 
HETATM    4  C4  UNL     1     -34.415  13.863  -3.569  1.00 20.00     0.049 C 
HETATM    5  C5  UNL     1     -34.193  16.083  -2.447  1.00 20.00     0.049 C 
HETATM    6  N6  UNL     1     -36.412  15.218  -2.952  1.00 20.00     0.102 N 
HETATM    7  S7  UNL     1     -36.615  15.463  -5.588  1.00 20.00    -0.137 SA
HETATM    8  H18 UNL     1     -36.686  16.155  -2.656  1.00 20.00     0.317 HD
ENDROOT
TORSDOF 0
ENDMDL
MODEL 8
REMARK VINA RESULT:      -3.0     13.152     13.877
REMARK  0 active torsions:
REMARK  status: ('A' for Active; 'I' for Inactive)
ROOT
HETATM    1  C1  UNL     1     -42.903   4.863  -0.501  1.00 20.00     0.116 C 
HETATM    2  C2  UNL     1     -41.770   3.300  -2.286  1.00 20.00     0.344 C 
HETATM    3  C3  UNL     1     -41.561   5.347  -1.076  1.00 20.00     0.159 C 
HETATM    4  C4  UNL     1     -41.753   6.367  -2.213  1.00 20.00     0.049 C 
HETATM    5  C5  UNL     1     -40.722   6.001   0.032  1.00 20.00     0.049 C 
HETATM    6  N6  UNL     1     -40.845   4.147  -1.542  1.00 20.00     0.102 N 
HETATM    7  S7  UNL     1     -43.417   3.489  -1.564  1.00 20.00    -0.137 SA
HETATM    8  H18 UNL     1     -40.526   3.623  -0.727  1.00 20.00     0.317 HD
ENDROOT
TORSDOF 0
ENDMDL
MODEL 9
REMARK VINA RESULT:      -3.0      2.150      3.006
REMARK  0 active torsions:
REMARK  status: ('A' for Active; 'I' for Inactive)
ROOT
HETATM    1  C1  UNL     1     -33.246  15.350  -3.505  1.00 20.00     0.116 C 
HETATM    2  C2  UNL     1     -35.754  14.624  -3.810  1.00 20.00     0.344 C 
HETATM    3  C3  UNL     1     -34.308  16.365  -3.050  1.00 20.00     0.159 C 
HETATM    4  C4  UNL     1     -34.560  16.297  -1.532  1.00 20.00     0.049 C 
HETATM    5  C5  UNL     1     -33.860  17.789  -3.409  1.00 20.00     0.049 C 
HETATM    6  N6  UNL     1     -35.532  16.065  -3.814  1.00 20.00     0.102 N 
HETATM    7  S7  UNL     1     -34.144  13.802  -3.785  1.00 20.00    -0.137 SA
HETATM    8  H18 UNL     1     -35.390  16.359  -4.781  1.00 20.00     0.317 HD
ENDROOT
TORSDOF 0
ENDMDL
