MODEL 1
REMARK VINA RESULT:      -4.7      0.000      0.000
REMARK  0 active torsions:
REMARK  status: ('A' for Active; 'I' for Inactive)
ROOT
HETATM    1  C1  UNL     1     -34.640   5.249   5.552  1.00 20.00     0.003 C 
HETATM    2  C2  UNL     1     -35.452   5.121   4.264  1.00 20.00     0.003 C 
HETATM    3  C3  UNL     1     -33.648   6.374   5.244  1.00 20.00     0.040 C 
HETATM    4  C4  UNL     1     -34.410   5.299   3.157  1.00 20.00     0.040 C 
HETATM    5  C5  UNL     1     -32.592   7.208   2.975  1.00 20.00     0.207 A 
HETATM    6  C6  UNL     1     -33.406   6.224   3.774  1.00 20.00     0.082 A 
HETATM    7  O7  UNL     1     -32.045   5.956   3.411  1.00 20.00    -0.375 OA
ENDROOT
TORSDOF 0
ENDMDL
MODEL 2
REMARK VINA RESULT:      -4.5      0.826      1.757
REMARK  0 active torsions:
REMARK  status: ('A' for Active; 'I' for Inactive)
ROOT
HETATM    1  C1  UNL     1     -35.514   5.007   4.492  1.00 20.00     0.003 C 
HETATM    2  C2  UNL     1     -34.735   5.199   5.791  1.00 20.00     0.003 C 
HETATM    3  C3  UNL     1     -34.448   5.157   3.404  1.00 20.00     0.040 C 
HETATM    4  C4  UNL     1     -33.752   6.326   5.463  1.00 20.00     0.040 C 
HETATM    5  C5  UNL     1     -32.176   6.497   3.349  1.00 20.00     0.207 A 
HETATM    6  C6  UNL     1     -33.485   6.135   4.002  1.00 20.00     0.082 A 
HETATM    7  O7  UNL     1     -33.323   7.352   3.261  1.00 20.00    -0.375 OA
ENDROOT
TORSDOF 0
ENDMDL
MODEL 3
REMARK VINA RESULT:      -4.2      1.831      2.445
REMARK  0 active torsions:
REMARK  status: ('A' for Active; 'I' for Inactive)
ROOT
HETATM    1  C1  UNL     1     -35.164   4.600   6.413  1.00 20.00     0.003 C 
HETATM    2  C2  UNL     1     -34.126   5.716   6.516  1.00 20.00     0.003 C 
HETATM    3  C3  UNL     1     -35.009   4.094   4.977  1.00 20.00     0.040 C 
HETATM    4  C4  UNL     1     -34.215   6.423   5.161  1.00 20.00     0.040 C 
HETATM    5  C5  UNL     1     -34.193   5.294   2.773  1.00 20.00     0.207 A 
HETATM    6  C6  UNL     1     -34.601   5.321   4.223  1.00 20.00     0.082 A 
HETATM    7  O7  UNL     1     -35.502   5.716   3.179  1.00 20.00    -0.375 OA
ENDROOT
TORSDOF 0
ENDMDL
MODEL 4
REMARK VINA RESULT:      -3.8      1.550      2.973
REMARK  0 active torsions:
REMARK  status: ('A' for Active; 'I' for Inactive)
ROOT
HETATM    1  C1  UNL     1     -34.308   5.407   2.656  1.00 20.00     0.003 C 
HETATM    2  C2  UNL     1     -33.266   6.437   3.089  1.00 20.00     0.003 C 
HETATM    3  C3  UNL     1     -35.210   5.265   3.884  1.00 20.00     0.040 C 
HETATM    4  C4  UNL     1     -32.971   6.066   4.545  1.00 20.00     0.040 C 
HETATM    5  C5  UNL     1     -34.734   5.601   6.458  1.00 20.00     0.207 A 
HETATM    6  C6  UNL     1     -34.272   5.501   5.027  1.00 20.00     0.082 A 
HETATM    7  O7  UNL     1     -34.144   4.401   5.939  1.00 20.00    -0.375 OA
ENDROOT
TORSDOF 0
ENDMDL
MODEL 5
REMARK VINA RESULT:      -3.7      1.692      2.451
REMARK  0 active torsions:
REMARK  status: ('A' for Active; 'I' for Inactive)
ROOT
HETATM    1  C1  UNL     1     -35.051   4.108   4.999  1.00 20.00     0.003 C 
HETATM    2  C2  UNL     1     -35.116   5.168   3.901  1.00 20.00     0.003 C 
HETATM    3  C3  UNL     1     -34.976   4.928   6.290  1.00 20.00     0.040 C 
HETATM    4  C4  UNL     1     -34.141   6.247   4.378  1.00 20.00     0.040 C 
HETATM    5  C5  UNL     1     -34.029   7.342   6.780  1.00 20.00     0.207 A 
HETATM    6  C6  UNL     1     -34.232   6.158   5.871  1.00 20.00     0.082 A 
HETATM    7  O7  UNL     1     -32.992   6.377   6.558  1.00 20.00    -0.375 OA
ENDROOT
TORSDOF 0
ENDMDL
MODEL 6
REMARK VINA RESULT:      -3.6     11.630     11.867
REMARK  0 active torsions:
REMARK  status: ('A' for Active; 'I' for Inactive)
ROOT
HETATM    1  C1  UNL     1     -34.471  15.743  -2.349  1.00 20.00     0.003 C 
HETATM    2  C2  UNL     1     -35.849  16.074  -2.920  1.00 20.00     0.003 C 
HETATM    3  C3  UNL     1     -33.800  14.939  -3.465  1.00 20.00     0.040 C 
HETATM    4  C4  UNL     1     -36.257  14.793  -3.652  1.00 20.00     0.040 C 
HETATM    5  C5  UNL     1     -34.800  13.408  -5.367  1.00 20.00     0.207 A 
HETATM    6  C6  UNL     1     -34.948  14.228  -4.112  1.00 20.00     0.082 A 
HETATM    7  O7  UNL     1     -34.870  12.796  -4.073  1.00 20.00    -0.375 OA
ENDROOT
TORSDOF 0
ENDMDL
MODEL 7
REMARK VINA RESULT:      -3.6      1.740      2.860
REMARK  0 active torsions:
REMARK  status: ('A' for Active; 'I' for Inactive)
ROOT
HETATM    1  C1  UNL     1     -32.882   7.141   4.028  1.00 20.00     0.003 C 
HETATM    2  C2  UNL     1     -32.527   6.101   2.968  1.00 20.00     0.003 C 
HETATM    3  C3  UNL     1     -33.694   6.349   5.055  1.00 20.00     0.040 C 
HETATM    4  C4  UNL     1     -33.799   5.258   2.844  1.00 20.00     0.040 C 
HETATM    5  C5  UNL     1     -35.204   4.198   4.815  1.00 20.00     0.207 A 
HETATM    6  C6  UNL     1     -34.385   5.315   4.222  1.00 20.00     0.082 A 
HETATM    7  O7  UNL     1     -35.818   5.368   4.259  1.00 20.00    -0.375 OA
ENDROOT
TORSDOF 0
ENDMDL
MODEL 8
REMARK VINA RESULT:      -3.6     11.259     12.207
REMARK  0 active torsions:
REMARK  status: ('A' for Active; 'I' for Inactive)
ROOT
HETATM    1  C1  UNL     1     -34.110  13.704  -3.606  1.00 20.00     0.003 C 
HETATM    2  C2  UNL     1     -34.094  15.179  -3.208  1.00 20.00     0.003 C 
HETATM    3  C3  UNL     1     -35.289  13.604  -4.577  1.00 20.00     0.040 C 
HETATM    4  C4  UNL     1     -35.576  15.534  -3.065  1.00 20.00     0.040 C 
HETATM    5  C5  UNL     1     -37.511  15.012  -4.788  1.00 20.00     0.207 A 
HETATM    6  C6  UNL     1     -36.242  14.639  -4.065  1.00 20.00     0.082 A 
HETATM    7  O7  UNL     1     -37.520  14.132  -3.655  1.00 20.00    -0.375 OA
ENDROOT
TORSDOF 0
ENDMDL
MODEL 9
REMARK VINA RESULT:      -3.5      1.666      2.810
REMARK  0 active torsions:
REMARK  status: ('A' for Active; 'I' for Inactive)
ROOT
HETATM    1  C1  UNL     1     -33.496   6.560   3.229  1.00 20.00     0.003 C 
HETATM    2  C2  UNL     1     -34.499   5.509   2.758  1.00 20.00     0.003 C 
HETATM    3  C3  UNL     1     -33.055   6.049   4.603  1.00 20.00     0.040 C 
HETATM    4  C4  UNL     1     -35.284   5.159   4.025  1.00 20.00     0.040 C 
HETATM    5  C5  UNL     1     -34.288   4.557   6.397  1.00 20.00     0.207 A 
HETATM    6  C6  UNL     1     -34.276   5.352   5.117  1.00 20.00     0.082 A 
HETATM    7  O7  UNL     1     -34.812   5.890   6.334  1.00 20.00    -0.375 OA
ENDROOT
TORSDOF 0
ENDMDL
