MODEL 1
REMARK VINA RESULT:      -2.9      0.000      0.000
REMARK  2 active torsions:
REMARK  status: ('A' for Active; 'I' for Inactive)
REMARK    1  A    between atoms: C2_2  and  C4_4 
REMARK    2  A    between atoms: C4_4  and  S6_6 
ROOT
HETATM    1  C1  UNL     1     -32.336   7.586   2.523  1.00 20.00     0.201 A 
HETATM    2  C2  UNL     1     -32.655   6.403   3.393  1.00 20.00     0.154 A 
HETATM    3  O5  UNL     1     -31.544   7.261   3.676  1.00 20.00    -0.380 OA
ENDROOT
BRANCH   2   4
HETATM    4  C4  UNL     1     -33.749   6.458   4.397  1.00 20.00     0.107 C 
BRANCH   4   5
HETATM    5  S6  UNL     1     -34.985   5.147   4.112  1.00 20.00    -0.171 SA
HETATM    6  C3  UNL     1     -34.894   4.356   5.734  1.00 20.00     0.089 C 
ENDBRANCH   4   5
ENDBRANCH   2   4
TORSDOF 2
ENDMDL
MODEL 2
REMARK VINA RESULT:      -2.8     11.529     11.773
REMARK  2 active torsions:
REMARK  status: ('A' for Active; 'I' for Inactive)
REMARK    1  A    between atoms: C2_2  and  C4_4 
REMARK    2  A    between atoms: C4_4  and  S6_6 
ROOT
HETATM    1  C1  UNL     1     -34.902  13.689  -5.520  1.00 20.00     0.201 A 
HETATM    2  C2  UNL     1     -35.434  14.000  -4.149  1.00 20.00     0.154 A 
HETATM    3  O5  UNL     1     -34.928  12.701  -4.478  1.00 20.00    -0.380 OA
ENDROOT
BRANCH   2   4
HETATM    4  C4  UNL     1     -34.617  14.747  -3.158  1.00 20.00     0.107 C 
BRANCH   4   5
HETATM    5  S6  UNL     1     -35.414  16.319  -2.685  1.00 20.00    -0.171 SA
HETATM    6  C3  UNL     1     -34.589  16.553  -1.094  1.00 20.00     0.089 C 
ENDBRANCH   4   5
ENDBRANCH   2   4
TORSDOF 2
ENDMDL
MODEL 3
REMARK VINA RESULT:      -2.7      2.458      3.959
REMARK  2 active torsions:
REMARK  status: ('A' for Active; 'I' for Inactive)
REMARK    1  A    between atoms: C2_2  and  C4_4 
REMARK    2  A    between atoms: C4_4  and  S6_6 
ROOT
HETATM    1  C1  UNL     1     -34.732   5.267   6.005  1.00 20.00     0.201 A 
HETATM    2  C2  UNL     1     -34.121   5.218   4.632  1.00 20.00     0.154 A 
HETATM    3  O5  UNL     1     -35.516   4.971   4.838  1.00 20.00    -0.380 OA
ENDROOT
BRANCH   2   4
HETATM    4  C4  UNL     1     -33.819   6.462   3.879  1.00 20.00     0.107 C 
BRANCH   4   5
HETATM    5  S6  UNL     1     -32.124   6.440   3.204  1.00 20.00    -0.171 SA
HETATM    6  C3  UNL     1     -32.194   8.001   2.295  1.00 20.00     0.089 C 
ENDBRANCH   4   5
ENDBRANCH   2   4
TORSDOF 2
ENDMDL
MODEL 4
REMARK VINA RESULT:      -2.7     12.015     13.077
REMARK  2 active torsions:
REMARK  status: ('A' for Active; 'I' for Inactive)
REMARK    1  A    between atoms: C2_2  and  C4_4 
REMARK    2  A    between atoms: C4_4  and  S6_6 
ROOT
HETATM    1  C1  UNL     1     -35.478  13.603  -4.095  1.00 20.00     0.201 A 
HETATM    2  C2  UNL     1     -34.431  14.009  -5.094  1.00 20.00     0.154 A 
HETATM    3  O5  UNL     1     -34.744  12.632  -4.857  1.00 20.00    -0.380 OA
ENDROOT
BRANCH   2   4
HETATM    4  C4  UNL     1     -34.806  14.503  -6.444  1.00 20.00     0.107 C 
BRANCH   4   5
HETATM    5  S6  UNL     1     -34.375  16.264  -6.655  1.00 20.00    -0.171 SA
HETATM    6  C3  UNL     1     -33.326  16.444  -5.195  1.00 20.00     0.089 C 
ENDBRANCH   4   5
ENDBRANCH   2   4
TORSDOF 2
ENDMDL
MODEL 5
REMARK VINA RESULT:      -2.7     11.495     12.258
REMARK  2 active torsions:
REMARK  status: ('A' for Active; 'I' for Inactive)
REMARK    1  A    between atoms: C2_2  and  C4_4 
REMARK    2  A    between atoms: C4_4  and  S6_6 
ROOT
HETATM    1  C1  UNL     1     -35.129  13.687  -5.562  1.00 20.00     0.201 A 
HETATM    2  C2  UNL     1     -34.877  13.845  -4.089  1.00 20.00     0.154 A 
HETATM    3  O5  UNL     1     -34.780  12.569  -4.731  1.00 20.00    -0.380 OA
ENDROOT
BRANCH   2   4
HETATM    4  C4  UNL     1     -33.587  14.380  -3.582  1.00 20.00     0.107 C 
BRANCH   4   5
HETATM    5  S6  UNL     1     -33.757  16.105  -3.012  1.00 20.00    -0.171 SA
HETATM    6  C3  UNL     1     -33.470  16.925  -4.596  1.00 20.00     0.089 C 
ENDBRANCH   4   5
ENDBRANCH   2   4
TORSDOF 2
ENDMDL
MODEL 6
REMARK VINA RESULT:      -2.7      2.411      3.957
REMARK  2 active torsions:
REMARK  status: ('A' for Active; 'I' for Inactive)
REMARK    1  A    between atoms: C2_2  and  C4_4 
REMARK    2  A    between atoms: C4_4  and  S6_6 
ROOT
HETATM    1  C1  UNL     1     -34.789   3.944   5.537  1.00 20.00     0.201 A 
HETATM    2  C2  UNL     1     -34.906   5.316   4.934  1.00 20.00     0.154 A 
HETATM    3  O5  UNL     1     -35.308   5.056   6.284  1.00 20.00    -0.380 OA
ENDROOT
BRANCH   2   4
HETATM    4  C4  UNL     1     -33.721   6.202   4.802  1.00 20.00     0.107 C 
BRANCH   4   5
HETATM    5  S6  UNL     1     -33.031   6.148   3.114  1.00 20.00    -0.171 SA
HETATM    6  C3  UNL     1     -31.781   7.438   3.310  1.00 20.00     0.089 C 
ENDBRANCH   4   5
ENDBRANCH   2   4
TORSDOF 2
ENDMDL
MODEL 7
REMARK VINA RESULT:      -2.6     11.636     12.193
REMARK  2 active torsions:
REMARK  status: ('A' for Active; 'I' for Inactive)
REMARK    1  A    between atoms: C2_2  and  C4_4 
REMARK    2  A    between atoms: C4_4  and  S6_6 
ROOT
HETATM    1  C1  UNL     1     -37.521  15.124  -4.762  1.00 20.00     0.201 A 
HETATM    2  C2  UNL     1     -36.438  14.579  -3.872  1.00 20.00     0.154 A 
HETATM    3  O5  UNL     1     -37.791  14.120  -3.770  1.00 20.00    -0.380 OA
ENDROOT
BRANCH   2   4
HETATM    4  C4  UNL     1     -35.476  13.561  -4.366  1.00 20.00     0.107 C 
BRANCH   4   5
HETATM    5  S6  UNL     1     -33.777  13.920  -3.808  1.00 20.00    -0.171 SA
HETATM    6  C3  UNL     1     -34.044  15.620  -3.259  1.00 20.00     0.089 C 
ENDBRANCH   4   5
ENDBRANCH   2   4
TORSDOF 2
ENDMDL
MODEL 8
REMARK VINA RESULT:      -2.5     11.502     12.092
REMARK  2 active torsions:
REMARK  status: ('A' for Active; 'I' for Inactive)
REMARK    1  A    between atoms: C2_2  and  C4_4 
REMARK    2  A    between atoms: C4_4  and  S6_6 
ROOT
HETATM    1  C1  UNL     1     -33.979  13.608  -3.995  1.00 20.00     0.201 A 
HETATM    2  C2  UNL     1     -35.231  14.040  -4.706  1.00 20.00     0.154 A 
HETATM    3  O5  UNL     1     -34.916  12.655  -4.522  1.00 20.00    -0.380 OA
ENDROOT
BRANCH   2   4
HETATM    4  C4  UNL     1     -36.423  14.507  -3.952  1.00 20.00     0.107 C 
BRANCH   4   5
HETATM    5  S6  UNL     1     -36.592  16.323  -4.027  1.00 20.00    -0.171 SA
HETATM    6  C3  UNL     1     -35.628  16.728  -2.554  1.00 20.00     0.089 C 
ENDBRANCH   4   5
ENDBRANCH   2   4
TORSDOF 2
ENDMDL
MODEL 9
REMARK VINA RESULT:      -2.4     11.625     12.306
REMARK  2 active torsions:
REMARK  status: ('A' for Active; 'I' for Inactive)
REMARK    1  A    between atoms: C2_2  and  C4_4 
REMARK    2  A    between atoms: C4_4  and  S6_6 
ROOT
HETATM    1  C1  UNL     1     -33.330  14.327  -3.718  1.00 20.00     0.201 A 
HETATM    2  C2  UNL     1     -34.406  13.771  -4.608  1.00 20.00     0.154 A 
HETATM    3  O5  UNL     1     -33.887  13.020  -3.505  1.00 20.00    -0.380 OA
ENDROOT
BRANCH   2   4
HETATM    4  C4  UNL     1     -35.823  14.190  -4.456  1.00 20.00     0.107 C 
BRANCH   4   5
HETATM    5  S6  UNL     1     -36.396  15.145  -5.902  1.00 20.00    -0.171 SA
HETATM    6  C3  UNL     1     -35.311  14.403  -7.142  1.00 20.00     0.089 C 
ENDBRANCH   4   5
ENDBRANCH   2   4
TORSDOF 2
ENDMDL
