MODEL 1
REMARK VINA RESULT:      -4.8      0.000      0.000
REMARK  1 active torsions:
REMARK  status: ('A' for Active; 'I' for Inactive)
REMARK    1  A    between atoms: C5_5  and  O12_12 
ROOT
HETATM    1  C1  UNL     1     -34.873  13.301  -4.387  1.00 20.00     0.006 C 
HETATM    2  C2  UNL     1     -33.870  14.060  -3.510  1.00 20.00     0.012 C 
HETATM    3  C3  UNL     1     -35.995  15.142  -3.433  1.00 20.00     0.017 C 
HETATM    4  C4  UNL     1     -35.894  14.388  -4.767  1.00 20.00    -0.003 C 
HETATM    5  C5  UNL     1     -34.295  16.209  -4.752  1.00 20.00     0.137 C 
HETATM    6  C6  UNL     1     -34.497  15.470  -3.397  1.00 20.00    -0.017 C 
HETATM    7  C7  UNL     1     -35.276  15.467  -5.715  1.00 20.00    -0.017 C 
HETATM    8  C8  UNL     1     -34.044  16.234  -2.168  1.00 20.00     0.018 C 
HETATM    9  C9  UNL     1     -34.521  14.869  -6.912  1.00 20.00     0.018 C 
HETATM   10  C10 UNL     1     -36.395  16.366  -6.281  1.00 20.00     0.018 C 
ENDROOT
BRANCH   5  11
HETATM   11  O12 UNL     1     -34.607  17.589  -4.618  1.00 20.00    -0.389 OA
HETATM   12  C11 UNL     1     -33.563  18.412  -5.121  1.00 20.00     0.202 C 
ENDBRANCH   5  11
TORSDOF 1
ENDMDL
MODEL 2
REMARK VINA RESULT:      -4.5      1.702      3.486
REMARK  1 active torsions:
REMARK  status: ('A' for Active; 'I' for Inactive)
REMARK    1  A    between atoms: C5_5  and  O12_12 
ROOT
HETATM    1  C1  UNL     1     -32.596  14.976  -3.434  1.00 20.00     0.006 C 
HETATM    2  C2  UNL     1     -33.465  13.814  -3.930  1.00 20.00     0.012 C 
HETATM    3  C3  UNL     1     -33.859  15.749  -5.268  1.00 20.00     0.017 C 
HETATM    4  C4  UNL     1     -33.387  16.217  -3.884  1.00 20.00    -0.003 C 
HETATM    5  C5  UNL     1     -35.566  15.178  -3.678  1.00 20.00     0.137 C 
HETATM    6  C6  UNL     1     -34.597  14.527  -4.707  1.00 20.00    -0.017 C 
HETATM    7  C7  UNL     1     -34.732  16.369  -3.104  1.00 20.00    -0.017 C 
HETATM    8  C8  UNL     1     -35.257  13.648  -5.752  1.00 20.00     0.018 C 
HETATM    9  C9  UNL     1     -34.574  16.244  -1.581  1.00 20.00     0.018 C 
HETATM   10  C10 UNL     1     -35.346  17.756  -3.389  1.00 20.00     0.018 C 
ENDROOT
BRANCH   5  11
HETATM   11  O12 UNL     1     -36.758  15.611  -4.320  1.00 20.00    -0.389 OA
HETATM   12  C11 UNL     1     -37.914  15.066  -3.700  1.00 20.00     0.202 C 
ENDBRANCH   5  11
TORSDOF 1
ENDMDL
MODEL 3
REMARK VINA RESULT:      -4.5      1.388      3.038
REMARK  1 active torsions:
REMARK  status: ('A' for Active; 'I' for Inactive)
REMARK    1  A    between atoms: C5_5  and  O12_12 
ROOT
HETATM    1  C1  UNL     1     -34.007  16.448  -2.133  1.00 20.00     0.006 C 
HETATM    2  C2  UNL     1     -33.956  17.467  -3.277  1.00 20.00     0.012 C 
HETATM    3  C3  UNL     1     -36.013  16.261  -3.356  1.00 20.00     0.017 C 
HETATM    4  C4  UNL     1     -34.968  15.372  -2.668  1.00 20.00    -0.003 C 
HETATM    5  C5  UNL     1     -34.360  15.670  -4.995  1.00 20.00     0.137 C 
HETATM    6  C6  UNL     1     -34.984  16.910  -4.291  1.00 20.00    -0.017 C 
HETATM    7  C7  UNL     1     -34.354  14.584  -3.871  1.00 20.00    -0.017 C 
HETATM    8  C8  UNL     1     -35.548  17.967  -5.220  1.00 20.00     0.018 C 
HETATM    9  C9  UNL     1     -32.928  14.077  -3.606  1.00 20.00     0.018 C 
HETATM   10  C10 UNL     1     -35.228  13.353  -4.188  1.00 20.00     0.018 C 
ENDROOT
BRANCH   5  11
HETATM   11  O12 UNL     1     -35.145  15.285  -6.115  1.00 20.00    -0.389 OA
HETATM   12  C11 UNL     1     -34.352  15.145  -7.286  1.00 20.00     0.202 C 
ENDBRANCH   5  11
TORSDOF 1
ENDMDL
MODEL 4
REMARK VINA RESULT:      -4.5      1.407      2.700
REMARK  1 active torsions:
REMARK  status: ('A' for Active; 'I' for Inactive)
REMARK    1  A    between atoms: C5_5  and  O12_12 
ROOT
HETATM    1  C1  UNL     1     -34.009  15.047  -3.167  1.00 20.00     0.006 C 
HETATM    2  C2  UNL     1     -35.441  15.482  -2.832  1.00 20.00     0.012 C 
HETATM    3  C3  UNL     1     -35.485  13.710  -4.428  1.00 20.00     0.017 C 
HETATM    4  C4  UNL     1     -34.149  14.451  -4.579  1.00 20.00    -0.003 C 
HETATM    5  C5  UNL     1     -35.957  15.914  -5.258  1.00 20.00     0.137 C 
HETATM    6  C6  UNL     1     -36.255  14.981  -4.048  1.00 20.00    -0.017 C 
HETATM    7  C7  UNL     1     -34.489  15.544  -5.644  1.00 20.00    -0.017 C 
HETATM    8  C8  UNL     1     -37.724  14.766  -3.742  1.00 20.00     0.018 C 
HETATM    9  C9  UNL     1     -33.575  16.776  -5.570  1.00 20.00     0.018 C 
HETATM   10  C10 UNL     1     -34.347  14.951  -7.062  1.00 20.00     0.018 C 
ENDROOT
BRANCH   5  11
HETATM   11  O12 UNL     1     -36.874  15.667  -6.316  1.00 20.00    -0.389 OA
HETATM   12  C11 UNL     1     -37.462  16.871  -6.790  1.00 20.00     0.202 C 
ENDBRANCH   5  11
TORSDOF 1
ENDMDL
MODEL 5
REMARK VINA RESULT:      -4.5      1.710      3.166
REMARK  1 active torsions:
REMARK  status: ('A' for Active; 'I' for Inactive)
REMARK    1  A    between atoms: C5_5  and  O12_12 
ROOT
HETATM    1  C1  UNL     1     -33.335  16.760  -4.834  1.00 20.00     0.006 C 
HETATM    2  C2  UNL     1     -34.535  17.587  -4.357  1.00 20.00     0.012 C 
HETATM    3  C3  UNL     1     -34.072  15.853  -2.786  1.00 20.00     0.017 C 
HETATM    4  C4  UNL     1     -33.566  15.395  -4.161  1.00 20.00    -0.003 C 
HETATM    5  C5  UNL     1     -35.985  15.534  -4.203  1.00 20.00     0.137 C 
HETATM    6  C6  UNL     1     -35.255  16.632  -3.376  1.00 20.00    -0.017 C 
HETATM    7  C7  UNL     1     -34.813  14.656  -4.749  1.00 20.00    -0.017 C 
HETATM    8  C8  UNL     1     -36.113  17.352  -2.354  1.00 20.00     0.018 C 
HETATM    9  C9  UNL     1     -34.830  14.612  -6.285  1.00 20.00     0.018 C 
HETATM   10  C10 UNL     1     -34.839  13.198  -4.247  1.00 20.00     0.018 C 
ENDROOT
BRANCH   5  11
HETATM   11  O12 UNL     1     -36.875  14.796  -3.377  1.00 20.00    -0.389 OA
HETATM   12  C11 UNL     1     -38.186  14.758  -3.923  1.00 20.00     0.202 C 
ENDBRANCH   5  11
TORSDOF 1
ENDMDL
MODEL 6
REMARK VINA RESULT:      -4.4      1.010      3.048
REMARK  1 active torsions:
REMARK  status: ('A' for Active; 'I' for Inactive)
REMARK    1  A    between atoms: C5_5  and  O12_12 
ROOT
HETATM    1  C1  UNL     1     -36.417  14.105  -4.130  1.00 20.00     0.006 C 
HETATM    2  C2  UNL     1     -36.801  15.186  -5.148  1.00 20.00     0.012 C 
HETATM    3  C3  UNL     1     -34.717  14.200  -5.760  1.00 20.00     0.017 C 
HETATM    4  C4  UNL     1     -34.883  14.052  -4.241  1.00 20.00    -0.003 C 
HETATM    5  C5  UNL     1     -34.621  16.397  -4.795  1.00 20.00     0.137 C 
HETATM    6  C6  UNL     1     -35.447  15.548  -5.804  1.00 20.00    -0.017 C 
HETATM    7  C7  UNL     1     -34.212  15.357  -3.702  1.00 20.00    -0.017 C 
HETATM    8  C8  UNL     1     -35.591  16.147  -7.190  1.00 20.00     0.018 C 
HETATM    9  C9  UNL     1     -34.727  15.784  -2.319  1.00 20.00     0.018 C 
HETATM   10  C10 UNL     1     -32.688  15.147  -3.579  1.00 20.00     0.018 C 
ENDROOT
BRANCH   5  11
HETATM   11  O12 UNL     1     -33.494  16.979  -5.438  1.00 20.00    -0.389 OA
HETATM   12  C11 UNL     1     -33.469  18.390  -5.273  1.00 20.00     0.202 C 
ENDBRANCH   5  11
TORSDOF 1
ENDMDL
MODEL 7
REMARK VINA RESULT:      -4.4      1.295      3.213
REMARK  1 active torsions:
REMARK  status: ('A' for Active; 'I' for Inactive)
REMARK    1  A    between atoms: C5_5  and  O12_12 
ROOT
HETATM    1  C1  UNL     1     -35.337  15.987  -6.369  1.00 20.00     0.006 C 
HETATM    2  C2  UNL     1     -35.523  17.273  -5.556  1.00 20.00     0.012 C 
HETATM    3  C3  UNL     1     -33.283  16.485  -5.325  1.00 20.00     0.017 C 
HETATM    4  C4  UNL     1     -34.180  15.280  -5.641  1.00 20.00    -0.003 C 
HETATM    5  C5  UNL     1     -34.741  16.143  -3.447  1.00 20.00     0.137 C 
HETATM    6  C6  UNL     1     -34.374  17.206  -4.522  1.00 20.00    -0.017 C 
HETATM    7  C7  UNL     1     -34.598  14.790  -4.216  1.00 20.00    -0.017 C 
HETATM    8  C8  UNL     1     -33.971  18.564  -3.980  1.00 20.00     0.018 C 
HETATM    9  C9  UNL     1     -35.920  14.008  -4.201  1.00 20.00     0.018 C 
HETATM   10  C10 UNL     1     -33.508  13.859  -3.645  1.00 20.00     0.018 C 
ENDROOT
BRANCH   5  11
HETATM   11  O12 UNL     1     -33.857  16.231  -2.337  1.00 20.00    -0.389 OA
HETATM   12  C11 UNL     1     -34.560  16.468  -1.126  1.00 20.00     0.202 C 
ENDBRANCH   5  11
TORSDOF 1
ENDMDL
MODEL 8
REMARK VINA RESULT:      -4.3      1.481      3.099
REMARK  1 active torsions:
REMARK  status: ('A' for Active; 'I' for Inactive)
REMARK    1  A    between atoms: C5_5  and  O12_12 
ROOT
HETATM    1  C1  UNL     1     -34.532  16.546  -2.387  1.00 20.00     0.006 C 
HETATM    2  C2  UNL     1     -34.971  15.104  -2.668  1.00 20.00     0.012 C 
HETATM    3  C3  UNL     1     -32.922  15.562  -3.800  1.00 20.00     0.017 C 
HETATM    4  C4  UNL     1     -33.668  16.891  -3.613  1.00 20.00    -0.003 C 
HETATM    5  C5  UNL     1     -34.904  15.489  -5.156  1.00 20.00     0.137 C 
HETATM    6  C6  UNL     1     -34.214  14.753  -3.971  1.00 20.00    -0.017 C 
HETATM    7  C7  UNL     1     -34.519  16.986  -4.921  1.00 20.00    -0.017 C 
HETATM    8  C8  UNL     1     -34.008  13.263  -4.164  1.00 20.00     0.018 C 
HETATM    9  C9  UNL     1     -35.775  17.858  -4.772  1.00 20.00     0.018 C 
HETATM   10  C10 UNL     1     -33.667  17.596  -6.054  1.00 20.00     0.018 C 
ENDROOT
BRANCH   5  11
HETATM   11  O12 UNL     1     -34.422  14.994  -6.398  1.00 20.00    -0.389 OA
HETATM   12  C11 UNL     1     -35.486  14.573  -7.240  1.00 20.00     0.202 C 
ENDBRANCH   5  11
TORSDOF 1
ENDMDL
MODEL 9
REMARK VINA RESULT:      -4.2      1.236      2.623
REMARK  1 active torsions:
REMARK  status: ('A' for Active; 'I' for Inactive)
REMARK    1  A    between atoms: C5_5  and  O12_12 
ROOT
HETATM    1  C1  UNL     1     -34.472  13.398  -5.107  1.00 20.00     0.006 C 
HETATM    2  C2  UNL     1     -35.625  13.430  -4.096  1.00 20.00     0.012 C 
HETATM    3  C3  UNL     1     -35.821  15.266  -5.606  1.00 20.00     0.017 C 
HETATM    4  C4  UNL     1     -34.339  14.873  -5.527  1.00 20.00    -0.003 C 
HETATM    5  C5  UNL     1     -35.043  15.777  -3.392  1.00 20.00     0.137 C 
HETATM    6  C6  UNL     1     -36.092  14.905  -4.140  1.00 20.00    -0.017 C 
HETATM    7  C7  UNL     1     -33.815  15.770  -4.359  1.00 20.00    -0.017 C 
HETATM    8  C8  UNL     1     -37.529  15.095  -3.695  1.00 20.00     0.018 C 
HETATM    9  C9  UNL     1     -32.571  15.201  -3.661  1.00 20.00     0.018 C 
HETATM   10  C10 UNL     1     -33.440  17.165  -4.902  1.00 20.00     0.018 C 
ENDROOT
BRANCH   5  11
HETATM   11  O12 UNL     1     -35.550  17.086  -3.170  1.00 20.00    -0.389 OA
HETATM   12  C11 UNL     1     -35.408  17.478  -1.811  1.00 20.00     0.202 C 
ENDBRANCH   5  11
TORSDOF 1
ENDMDL
