MODEL 1
REMARK VINA RESULT:      -4.4      0.000      0.000
REMARK  1 active torsions:
REMARK  status: ('A' for Active; 'I' for Inactive)
REMARK    1  A    between atoms: C6_6  and  N7_7 
ROOT
HETATM    1  C1  UNL     1     -33.755  17.456  -3.743  1.00 20.00     0.000 C 
HETATM    2  C2  UNL     1     -33.294  16.632  -4.940  1.00 20.00     0.003 C 
HETATM    3  C3  UNL     1     -33.848  16.615  -2.473  1.00 20.00     0.003 C 
HETATM    4  C4  UNL     1     -34.175  15.399  -5.149  1.00 20.00     0.046 C 
HETATM    5  C5  UNL     1     -34.731  15.382  -2.676  1.00 20.00     0.046 C 
HETATM    6  C6  UNL     1     -34.304  14.537  -3.886  1.00 20.00     0.136 C 
HETATM    7 CL9  UNL     1     -32.753  13.704  -3.542  1.00 20.00    -0.098 Cl
ENDROOT
BRANCH   6   8
HETATM    8  N7  UNL     1     -35.331  13.473  -4.123  1.00 20.00    -0.037 NA
HETATM    9  O8  UNL     1     -34.891  12.575  -4.840  1.00 20.00    -0.099 OA
ENDBRANCH   6   8
TORSDOF 1
ENDMDL
MODEL 2
REMARK VINA RESULT:      -4.4      2.519      3.138
REMARK  1 active torsions:
REMARK  status: ('A' for Active; 'I' for Inactive)
REMARK    1  A    between atoms: C6_6  and  N7_7 
ROOT
HETATM    1  C1  UNL     1     -33.225  14.021  -3.686  1.00 20.00     0.000 C 
HETATM    2  C2  UNL     1     -33.581  15.456  -3.315  1.00 20.00     0.003 C 
HETATM    3  C3  UNL     1     -34.190  13.442  -4.717  1.00 20.00     0.003 C 
HETATM    4  C4  UNL     1     -35.034  15.576  -2.849  1.00 20.00     0.046 C 
HETATM    5  C5  UNL     1     -35.645  13.556  -4.254  1.00 20.00     0.046 C 
HETATM    6  C6  UNL     1     -36.032  14.988  -3.856  1.00 20.00     0.136 C 
HETATM    7 CL9  UNL     1     -36.131  16.030  -5.313  1.00 20.00    -0.098 Cl
ENDROOT
BRANCH   6   8
HETATM    8  N7  UNL     1     -37.396  14.969  -3.237  1.00 20.00    -0.037 NA
HETATM    9  O8  UNL     1     -38.129  14.149  -3.787  1.00 20.00    -0.099 OA
ENDBRANCH   6   8
TORSDOF 1
ENDMDL
MODEL 3
REMARK VINA RESULT:      -4.3      1.506      2.234
REMARK  1 active torsions:
REMARK  status: ('A' for Active; 'I' for Inactive)
REMARK    1  A    between atoms: C6_6  and  N7_7 
ROOT
HETATM    1  C1  UNL     1     -33.510  17.237  -5.196  1.00 20.00     0.000 C 
HETATM    2  C2  UNL     1     -33.636  17.085  -3.684  1.00 20.00     0.003 C 
HETATM    3  C3  UNL     1     -34.545  16.399  -5.942  1.00 20.00     0.003 C 
HETATM    4  C4  UNL     1     -33.579  15.616  -3.258  1.00 20.00     0.046 C 
HETATM    5  C5  UNL     1     -34.490  14.928  -5.521  1.00 20.00     0.046 C 
HETATM    6  C6  UNL     1     -34.597  14.740  -4.001  1.00 20.00     0.136 C 
HETATM    7 CL9  UNL     1     -36.261  15.117  -3.446  1.00 20.00    -0.098 Cl
ENDROOT
BRANCH   6   8
HETATM    8  N7  UNL     1     -34.338  13.303  -3.668  1.00 20.00    -0.037 NA
HETATM    9  O8  UNL     1     -34.971  12.549  -4.407  1.00 20.00    -0.099 OA
ENDBRANCH   6   8
TORSDOF 1
ENDMDL
MODEL 4
REMARK VINA RESULT:      -4.3      1.617      2.041
REMARK  1 active torsions:
REMARK  status: ('A' for Active; 'I' for Inactive)
REMARK    1  A    between atoms: C6_6  and  N7_7 
ROOT
HETATM    1  C1  UNL     1     -35.076  16.511  -2.061  1.00 20.00     0.000 C 
HETATM    2  C2  UNL     1     -36.102  16.041  -3.085  1.00 20.00     0.003 C 
HETATM    3  C3  UNL     1     -33.657  16.494  -2.626  1.00 20.00     0.003 C 
HETATM    4  C4  UNL     1     -35.744  14.666  -3.653  1.00 20.00     0.046 C 
HETATM    5  C5  UNL     1     -33.293  15.120  -3.192  1.00 20.00     0.046 C 
HETATM    6  C6  UNL     1     -34.317  14.607  -4.216  1.00 20.00     0.136 C 
HETATM    7 CL9  UNL     1     -34.208  15.561  -5.732  1.00 20.00    -0.098 Cl
ENDROOT
BRANCH   6   8
HETATM    8  N7  UNL     1     -33.988  13.188  -4.565  1.00 20.00    -0.037 NA
HETATM    9  O8  UNL     1     -34.999  12.489  -4.607  1.00 20.00    -0.099 OA
ENDBRANCH   6   8
TORSDOF 1
ENDMDL
MODEL 5
REMARK VINA RESULT:      -4.2      1.862      1.988
REMARK  1 active torsions:
REMARK  status: ('A' for Active; 'I' for Inactive)
REMARK    1  A    between atoms: C6_6  and  N7_7 
ROOT
HETATM    1  C1  UNL     1     -33.220  16.389  -4.849  1.00 20.00     0.000 C 
HETATM    2  C2  UNL     1     -34.223  15.828  -5.851  1.00 20.00     0.003 C 
HETATM    3  C3  UNL     1     -33.159  15.552  -3.573  1.00 20.00     0.003 C 
HETATM    4  C4  UNL     1     -35.610  15.658  -5.227  1.00 20.00     0.046 C 
HETATM    5  C5  UNL     1     -34.543  15.382  -2.943  1.00 20.00     0.046 C 
HETATM    6  C6  UNL     1     -35.584  14.834  -3.932  1.00 20.00     0.136 C 
HETATM    7 CL9  UNL     1     -35.241  13.112  -4.299  1.00 20.00    -0.098 Cl
ENDROOT
BRANCH   6   8
HETATM    8  N7  UNL     1     -36.937  14.886  -3.292  1.00 20.00    -0.037 NA
HETATM    9  O8  UNL     1     -37.727  14.123  -3.848  1.00 20.00    -0.099 OA
ENDBRANCH   6   8
TORSDOF 1
ENDMDL
MODEL 6
REMARK VINA RESULT:      -4.2     12.282     13.195
REMARK  1 active torsions:
REMARK  status: ('A' for Active; 'I' for Inactive)
REMARK    1  A    between atoms: C6_6  and  N7_7 
ROOT
HETATM    1  C1  UNL     1     -34.404   4.897   6.766  1.00 20.00     0.000 C 
HETATM    2  C2  UNL     1     -35.155   3.974   5.812  1.00 20.00     0.003 C 
HETATM    3  C3  UNL     1     -34.348   6.331   6.246  1.00 20.00     0.003 C 
HETATM    4  C4  UNL     1     -34.577   4.034   4.396  1.00 20.00     0.046 C 
HETATM    5  C5  UNL     1     -33.768   6.396   4.832  1.00 20.00     0.046 C 
HETATM    6  C6  UNL     1     -34.491   5.465   3.848  1.00 20.00     0.136 C 
HETATM    7 CL9  UNL     1     -36.134   6.093   3.494  1.00 20.00    -0.098 Cl
ENDROOT
BRANCH   6   8
HETATM    8  N7  UNL     1     -33.739   5.447   2.552  1.00 20.00    -0.037 NA
HETATM    9  O8  UNL     1     -32.607   5.912   2.682  1.00 20.00    -0.099 OA
ENDBRANCH   6   8
TORSDOF 1
ENDMDL
MODEL 7
REMARK VINA RESULT:      -4.2      1.104      1.194
REMARK  1 active torsions:
REMARK  status: ('A' for Active; 'I' for Inactive)
REMARK    1  A    between atoms: C6_6  and  N7_7 
ROOT
HETATM    1  C1  UNL     1     -35.199  17.011  -5.054  1.00 20.00     0.000 C 
HETATM    2  C2  UNL     1     -34.257  16.175  -5.914  1.00 20.00     0.003 C 
HETATM    3  C3  UNL     1     -34.909  16.845  -3.564  1.00 20.00     0.003 C 
HETATM    4  C4  UNL     1     -34.275  14.701  -5.502  1.00 20.00     0.046 C 
HETATM    5  C5  UNL     1     -34.928  15.373  -3.146  1.00 20.00     0.046 C 
HETATM    6  C6  UNL     1     -34.002  14.498  -4.005  1.00 20.00     0.136 C 
HETATM    7 CL9  UNL     1     -32.285  14.862  -3.632  1.00 20.00    -0.098 Cl
ENDROOT
BRANCH   6   8
HETATM    8  N7  UNL     1     -34.232  13.059  -3.658  1.00 20.00    -0.037 NA
HETATM    9  O8  UNL     1     -35.077  12.549  -4.392  1.00 20.00    -0.099 OA
ENDBRANCH   6   8
TORSDOF 1
ENDMDL
MODEL 8
REMARK VINA RESULT:      -4.1     11.753     12.737
REMARK  1 active torsions:
REMARK  status: ('A' for Active; 'I' for Inactive)
REMARK    1  A    between atoms: C6_6  and  N7_7 
ROOT
HETATM    1  C1  UNL     1     -35.141   4.716   5.944  1.00 20.00     0.000 C 
HETATM    2  C2  UNL     1     -33.897   5.500   6.347  1.00 20.00     0.003 C 
HETATM    3  C3  UNL     1     -35.097   4.292   4.478  1.00 20.00     0.003 C 
HETATM    4  C4  UNL     1     -33.661   6.698   5.426  1.00 20.00     0.046 C 
HETATM    5  C5  UNL     1     -34.864   5.488   3.551  1.00 20.00     0.046 C 
HETATM    6  C6  UNL     1     -33.627   6.310   3.941  1.00 20.00     0.136 C 
HETATM    7 CL9  UNL     1     -32.131   5.390   3.574  1.00 20.00    -0.098 Cl
ENDROOT
BRANCH   6   8
HETATM    8  N7  UNL     1     -33.590   7.557   3.111  1.00 20.00    -0.037 NA
HETATM    9  O8  UNL     1     -32.497   7.702   2.565  1.00 20.00    -0.099 OA
ENDBRANCH   6   8
TORSDOF 1
ENDMDL
MODEL 9
REMARK VINA RESULT:      -4.1      2.783      3.466
REMARK  1 active torsions:
REMARK  status: ('A' for Active; 'I' for Inactive)
REMARK    1  A    between atoms: C6_6  and  N7_7 
ROOT
HETATM    1  C1  UNL     1     -34.591  13.303  -4.468  1.00 20.00     0.000 C 
HETATM    2  C2  UNL     1     -35.754  14.244  -4.175  1.00 20.00     0.003 C 
HETATM    3  C3  UNL     1     -33.361  13.638  -3.629  1.00 20.00     0.003 C 
HETATM    4  C4  UNL     1     -35.349  15.711  -4.341  1.00 20.00     0.046 C 
HETATM    5  C5  UNL     1     -32.949  15.103  -3.793  1.00 20.00     0.046 C 
HETATM    6  C6  UNL     1     -34.103  16.080  -3.523  1.00 20.00     0.136 C 
HETATM    7 CL9  UNL     1     -34.496  16.105  -1.772  1.00 20.00    -0.098 Cl
ENDROOT
BRANCH   6   8
HETATM    8  N7  UNL     1     -33.668  17.464  -3.895  1.00 20.00    -0.037 NA
HETATM    9  O8  UNL     1     -33.321  17.524  -5.074  1.00 20.00    -0.099 OA
ENDBRANCH   6   8
TORSDOF 1
ENDMDL
