MODEL 1
REMARK VINA RESULT:      -4.4      0.000      0.000
REMARK  2 active torsions:
REMARK  status: ('A' for Active; 'I' for Inactive)
REMARK    1  A    between atoms: C3_3  and  C8_8 
REMARK       I    between atoms: C3_3  and  N10_10 
REMARK    2  A    between atoms: C9_9  and  N10_10 
ROOT
HETATM    1  C1  UNL     1     -34.359  15.558  -6.805  1.00 20.00     0.015 C 
HETATM    2  C2  UNL     1     -34.878  15.205  -5.780  1.00 20.00    -0.086 C 
HETATM    3  C6  UNL     1     -37.040  14.805  -4.680  1.00 20.00     0.052 C 
HETATM    4  C7  UNL     1     -35.061  13.348  -4.174  1.00 20.00     0.052 C 
HETATM    5  C9  UNL     1     -35.516  14.769  -4.521  1.00 20.00     0.088 C 
ENDROOT
BRANCH   5   6
HETATM    6  N10 UNL     1     -35.121  15.666  -3.459  1.00 20.00    -0.341 N 
HETATM    7  C3  UNL     1     -33.801  15.826  -3.065  1.00 20.00     0.222 C 
HETATM    8  O11 UNL     1     -32.845  15.237  -3.562  1.00 20.00    -0.273 OA
HETATM    9  H26 UNL     1     -35.841  16.202  -2.982  1.00 20.00     0.164 HD
BRANCH   7  10
HETATM   10  C8  UNL     1     -33.652  16.827  -1.921  1.00 20.00     0.070 C 
HETATM   11  C4  UNL     1     -33.766  18.255  -2.453  1.00 20.00     0.019 C 
HETATM   12  C5  UNL     1     -34.694  16.580  -0.833  1.00 20.00     0.019 C 
ENDBRANCH   7  10
ENDBRANCH   5   6
TORSDOF 2
ENDMDL
MODEL 2
REMARK VINA RESULT:      -4.3      1.524      2.082
REMARK  2 active torsions:
REMARK  status: ('A' for Active; 'I' for Inactive)
REMARK    1  A    between atoms: C3_3  and  C8_8 
REMARK       I    between atoms: C3_3  and  N10_10 
REMARK    2  A    between atoms: C9_9  and  N10_10 
ROOT
HETATM    1  C1  UNL     1     -34.718  13.298  -4.160  1.00 20.00     0.015 C 
HETATM    2  C2  UNL     1     -35.390  14.268  -3.936  1.00 20.00    -0.086 C 
HETATM    3  C6  UNL     1     -35.983  16.510  -4.750  1.00 20.00     0.052 C 
HETATM    4  C7  UNL     1     -37.698  15.066  -3.624  1.00 20.00     0.052 C 
HETATM    5  C9  UNL     1     -36.218  15.460  -3.659  1.00 20.00     0.088 C 
ENDROOT
BRANCH   5   6
HETATM    6  N10 UNL     1     -35.841  16.007  -2.375  1.00 20.00    -0.341 N 
HETATM    7  C3  UNL     1     -34.560  16.460  -2.100  1.00 20.00     0.222 C 
HETATM    8  O11 UNL     1     -33.625  16.447  -2.898  1.00 20.00    -0.273 OA
HETATM    9  H26 UNL     1     -36.545  16.061  -1.645  1.00 20.00     0.164 HD
BRANCH   7  10
HETATM   10  C8  UNL     1     -34.421  16.985  -0.672  1.00 20.00     0.070 C 
HETATM   11  C4  UNL     1     -33.223  17.926  -0.572  1.00 20.00     0.019 C 
HETATM   12  C5  UNL     1     -35.696  17.696  -0.221  1.00 20.00     0.019 C 
ENDBRANCH   7  10
ENDBRANCH   5   6
TORSDOF 2
ENDMDL
MODEL 3
REMARK VINA RESULT:      -4.3      0.575      2.040
REMARK  2 active torsions:
REMARK  status: ('A' for Active; 'I' for Inactive)
REMARK    1  A    between atoms: C3_3  and  C8_8 
REMARK       I    between atoms: C3_3  and  N10_10 
REMARK    2  A    between atoms: C9_9  and  N10_10 
ROOT
HETATM    1  C1  UNL     1     -38.409  14.681  -4.071  1.00 20.00     0.015 C 
HETATM    2  C2  UNL     1     -37.212  14.753  -4.141  1.00 20.00    -0.086 C 
HETATM    3  C6  UNL     1     -35.132  13.446  -4.071  1.00 20.00     0.052 C 
HETATM    4  C7  UNL     1     -35.336  15.440  -5.580  1.00 20.00     0.052 C 
HETATM    5  C9  UNL     1     -35.740  14.844  -4.227  1.00 20.00     0.088 C 
ENDROOT
BRANCH   5   6
HETATM    6  N10 UNL     1     -35.258  15.700  -3.168  1.00 20.00    -0.341 N 
HETATM    7  C3  UNL     1     -33.912  15.974  -2.980  1.00 20.00     0.222 C 
HETATM    8  O11 UNL     1     -33.002  15.530  -3.676  1.00 20.00    -0.273 OA
HETATM    9  H26 UNL     1     -35.934  16.119  -2.535  1.00 20.00     0.164 HD
BRANCH   7  10
HETATM   10  C8  UNL     1     -33.666  16.902  -1.791  1.00 20.00     0.070 C 
HETATM   11  C4  UNL     1     -33.720  18.360  -2.242  1.00 20.00     0.019 C 
HETATM   12  C5  UNL     1     -34.681  16.651  -0.679  1.00 20.00     0.019 C 
ENDBRANCH   7  10
ENDBRANCH   5   6
TORSDOF 2
ENDMDL
MODEL 4
REMARK VINA RESULT:      -4.2      1.651      3.598
REMARK  2 active torsions:
REMARK  status: ('A' for Active; 'I' for Inactive)
REMARK    1  A    between atoms: C3_3  and  C8_8 
REMARK       I    between atoms: C3_3  and  N10_10 
REMARK    2  A    between atoms: C9_9  and  N10_10 
ROOT
HETATM    1  C1  UNL     1     -34.548  16.284  -1.531  1.00 20.00     0.015 C 
HETATM    2  C2  UNL     1     -34.857  15.722  -2.547  1.00 20.00    -0.086 C 
HETATM    3  C6  UNL     1     -34.375  13.777  -3.970  1.00 20.00     0.052 C 
HETATM    4  C7  UNL     1     -36.718  14.644  -3.744  1.00 20.00     0.052 C 
HETATM    5  C9  UNL     1     -35.236  15.032  -3.796  1.00 20.00     0.088 C 
ENDROOT
BRANCH   5   6
HETATM    6  N10 UNL     1     -35.018  15.924  -4.912  1.00 20.00    -0.341 N 
HETATM    7  C3  UNL     1     -33.768  16.430  -5.233  1.00 20.00     0.222 C 
HETATM    8  O11 UNL     1     -32.732  16.182  -4.621  1.00 20.00    -0.273 OA
HETATM    9  H26 UNL     1     -35.814  16.191  -5.484  1.00 20.00     0.164 HD
BRANCH   7  10
HETATM   10  C8  UNL     1     -33.808  17.351  -6.452  1.00 20.00     0.070 C 
HETATM   11  C4  UNL     1     -35.078  17.099  -7.261  1.00 20.00     0.019 C 
HETATM   12  C5  UNL     1     -33.724  18.818  -6.036  1.00 20.00     0.019 C 
ENDBRANCH   7  10
ENDBRANCH   5   6
TORSDOF 2
ENDMDL
MODEL 5
REMARK VINA RESULT:      -4.2      2.145      5.079
REMARK  2 active torsions:
REMARK  status: ('A' for Active; 'I' for Inactive)
REMARK    1  A    between atoms: C3_3  and  C8_8 
REMARK       I    between atoms: C3_3  and  N10_10 
REMARK    2  A    between atoms: C9_9  and  N10_10 
ROOT
HETATM    1  C1  UNL     1     -32.160  18.839   0.276  1.00 20.00     0.015 C 
HETATM    2  C2  UNL     1     -33.272  18.402   0.155  1.00 20.00    -0.086 C 
HETATM    3  C6  UNL     1     -35.210  17.525   1.387  1.00 20.00     0.052 C 
HETATM    4  C7  UNL     1     -35.532  18.902  -0.686  1.00 20.00     0.052 C 
HETATM    5  C9  UNL     1     -34.640  17.865   0.006  1.00 20.00     0.088 C 
ENDROOT
BRANCH   5   6
HETATM    6  N10 UNL     1     -34.590  16.668  -0.802  1.00 20.00    -0.341 N 
HETATM    7  C3  UNL     1     -34.128  16.665  -2.110  1.00 20.00     0.222 C 
HETATM    8  O11 UNL     1     -33.720  17.656  -2.711  1.00 20.00    -0.273 OA
HETATM    9  H26 UNL     1     -34.907  15.793  -0.395  1.00 20.00     0.164 HD
BRANCH   7  10
HETATM   10  C8  UNL     1     -34.182  15.276  -2.744  1.00 20.00     0.070 C 
HETATM   11  C4  UNL     1     -35.521  15.072  -3.451  1.00 20.00     0.019 C 
HETATM   12  C5  UNL     1     -33.027  15.072  -3.721  1.00 20.00     0.019 C 
ENDBRANCH   7  10
ENDBRANCH   5   6
TORSDOF 2
ENDMDL
MODEL 6
REMARK VINA RESULT:      -4.1      1.548      2.391
REMARK  2 active torsions:
REMARK  status: ('A' for Active; 'I' for Inactive)
REMARK    1  A    between atoms: C3_3  and  C8_8 
REMARK       I    between atoms: C3_3  and  N10_10 
REMARK    2  A    between atoms: C9_9  and  N10_10 
ROOT
HETATM    1  C1  UNL     1     -37.011  14.675  -3.913  1.00 20.00     0.015 C 
HETATM    2  C2  UNL     1     -35.815  14.791  -3.922  1.00 20.00    -0.086 C 
HETATM    3  C6  UNL     1     -33.696  13.549  -3.995  1.00 20.00     0.052 C 
HETATM    4  C7  UNL     1     -33.915  15.767  -5.145  1.00 20.00     0.052 C 
HETATM    5  C9  UNL     1     -34.346  14.935  -3.933  1.00 20.00     0.088 C 
ENDROOT
BRANCH   5   6
HETATM    6  N10 UNL     1     -33.930  15.609  -2.723  1.00 20.00    -0.341 N 
HETATM    7  C3  UNL     1     -34.358  16.885  -2.391  1.00 20.00     0.222 C 
HETATM    8  O11 UNL     1     -35.120  17.568  -3.071  1.00 20.00    -0.273 OA
HETATM    9  H26 UNL     1     -33.297  15.126  -2.091  1.00 20.00     0.164 HD
BRANCH   7  10
HETATM   10  C8  UNL     1     -33.771  17.370  -1.067  1.00 20.00     0.070 C 
HETATM   11  C4  UNL     1     -33.301  18.818  -1.197  1.00 20.00     0.019 C 
HETATM   12  C5  UNL     1     -34.787  17.240   0.066  1.00 20.00     0.019 C 
ENDBRANCH   7  10
ENDBRANCH   5   6
TORSDOF 2
ENDMDL
MODEL 7
REMARK VINA RESULT:      -4.1      1.315      1.315
REMARK  2 active torsions:
REMARK  status: ('A' for Active; 'I' for Inactive)
REMARK    1  A    between atoms: C3_3  and  C8_8 
REMARK       I    between atoms: C3_3  and  N10_10 
REMARK    2  A    between atoms: C9_9  and  N10_10 
ROOT
HETATM    1  C1  UNL     1     -34.057  16.044  -6.350  1.00 20.00     0.015 C 
HETATM    2  C2  UNL     1     -34.387  15.446  -5.362  1.00 20.00    -0.086 C 
HETATM    3  C6  UNL     1     -36.320  14.683  -4.049  1.00 20.00     0.052 C 
HETATM    4  C7  UNL     1     -34.247  13.277  -4.204  1.00 20.00     0.052 C 
HETATM    5  C9  UNL     1     -34.791  14.709  -4.147  1.00 20.00     0.088 C 
ENDROOT
BRANCH   5   6
HETATM    6  N10 UNL     1     -34.245  15.378  -2.988  1.00 20.00    -0.341 N 
HETATM    7  C3  UNL     1     -34.576  16.681  -2.650  1.00 20.00     0.222 C 
HETATM    8  O11 UNL     1     -35.351  17.395  -3.283  1.00 20.00    -0.273 OA
HETATM    9  H26 UNL     1     -33.592  14.872  -2.397  1.00 20.00     0.164 HD
BRANCH   7  10
HETATM   10  C8  UNL     1     -33.862  17.155  -1.385  1.00 20.00     0.070 C 
HETATM   11  C4  UNL     1     -33.404  18.602  -1.549  1.00 20.00     0.019 C 
HETATM   12  C5  UNL     1     -34.764  17.018  -0.160  1.00 20.00     0.019 C 
ENDBRANCH   7  10
ENDBRANCH   5   6
TORSDOF 2
ENDMDL
MODEL 8
REMARK VINA RESULT:      -4.0      1.964      4.269
REMARK  2 active torsions:
REMARK  status: ('A' for Active; 'I' for Inactive)
REMARK    1  A    between atoms: C3_3  and  C8_8 
REMARK       I    between atoms: C3_3  and  N10_10 
REMARK    2  A    between atoms: C9_9  and  N10_10 
ROOT
HETATM    1  C1  UNL     1     -34.800  16.265  -1.512  1.00 20.00     0.015 C 
HETATM    2  C2  UNL     1     -34.585  15.810  -2.604  1.00 20.00    -0.086 C 
HETATM    3  C6  UNL     1     -33.080  15.920  -4.544  1.00 20.00     0.052 C 
HETATM    4  C7  UNL     1     -34.099  13.738  -3.841  1.00 20.00     0.052 C 
HETATM    5  C9  UNL     1     -34.321  15.251  -3.945  1.00 20.00     0.088 C 
ENDROOT
BRANCH   5   6
HETATM    6  N10 UNL     1     -35.463  15.505  -4.794  1.00 20.00    -0.341 N 
HETATM    7  C3  UNL     1     -36.692  14.892  -4.601  1.00 20.00     0.222 C 
HETATM    8  O11 UNL     1     -36.940  14.085  -3.709  1.00 20.00    -0.273 OA
HETATM    9  H26 UNL     1     -35.360  16.160  -5.564  1.00 20.00     0.164 HD
BRANCH   7  10
HETATM   10  C8  UNL     1     -37.729  15.328  -5.635  1.00 20.00     0.070 C 
HETATM   11  C4  UNL     1     -38.223  16.739  -5.322  1.00 20.00     0.019 C 
HETATM   12  C5  UNL     1     -37.156  15.267  -7.049  1.00 20.00     0.019 C 
ENDBRANCH   7  10
ENDBRANCH   5   6
TORSDOF 2
ENDMDL
MODEL 9
REMARK VINA RESULT:      -4.0      1.333      2.160
REMARK  2 active torsions:
REMARK  status: ('A' for Active; 'I' for Inactive)
REMARK    1  A    between atoms: C3_3  and  C8_8 
REMARK       I    between atoms: C3_3  and  N10_10 
REMARK    2  A    between atoms: C9_9  and  N10_10 
ROOT
HETATM    1  C1  UNL     1     -34.503  13.177  -4.908  1.00 20.00     0.015 C 
HETATM    2  C2  UNL     1     -34.578  14.370  -5.024  1.00 20.00    -0.086 C 
HETATM    3  C6  UNL     1     -33.866  16.285  -6.392  1.00 20.00     0.052 C 
HETATM    4  C7  UNL     1     -36.138  16.250  -5.327  1.00 20.00     0.052 C 
HETATM    5  C9  UNL     1     -34.671  15.837  -5.167  1.00 20.00     0.088 C 
ENDROOT
BRANCH   5   6
HETATM    6  N10 UNL     1     -34.129  16.460  -3.981  1.00 20.00    -0.341 N 
HETATM    7  C3  UNL     1     -34.629  16.216  -2.711  1.00 20.00     0.222 C 
HETATM    8  O11 UNL     1     -35.565  15.461  -2.459  1.00 20.00    -0.273 OA
HETATM    9  H26 UNL     1     -33.350  17.104  -4.082  1.00 20.00     0.164 HD
BRANCH   7  10
HETATM   10  C8  UNL     1     -33.885  17.000  -1.631  1.00 20.00     0.070 C 
HETATM   11  C4  UNL     1     -33.630  18.431  -2.101  1.00 20.00     0.019 C 
HETATM   12  C5  UNL     1     -34.664  17.002  -0.317  1.00 20.00     0.019 C 
ENDBRANCH   7  10
ENDBRANCH   5   6
TORSDOF 2
ENDMDL
