MODEL 1
REMARK VINA RESULT:      -4.2      0.000      0.000
REMARK  0 active torsions:
REMARK  status: ('A' for Active; 'I' for Inactive)
ROOT
HETATM    1  C1  UNL     1     -34.929  14.320  -3.418  1.00 20.00     0.033 A 
HETATM    2  C2  UNL     1     -35.098  13.397  -4.437  1.00 20.00     0.117 A 
HETATM    3  C3  UNL     1     -34.416  14.866  -6.099  1.00 20.00     0.136 A 
HETATM    4  C4  UNL     1     -33.761  17.832  -3.718  1.00 20.00     0.070 A 
HETATM    5  C5  UNL     1     -34.471  15.601  -3.779  1.00 20.00     0.002 A 
HETATM    6  C6  UNL     1     -34.219  15.853  -5.132  1.00 20.00     0.034 A 
HETATM    7  C7  UNL     1     -34.198  16.759  -2.978  1.00 20.00     0.029 A 
HETATM    8  N8  UNL     1     -34.856  13.640  -5.739  1.00 20.00    -0.272 NA
HETATM    9  S9  UNL     1     -33.669  17.466  -5.380  1.00 20.00    -0.098 SA
HETATM   10 BR10 UNL     1     -34.419  16.804  -1.101  1.00 20.00    -0.050 Br
ENDROOT
TORSDOF 0
ENDMDL
MODEL 2
REMARK VINA RESULT:      -4.1      2.524      3.120
REMARK  0 active torsions:
REMARK  status: ('A' for Active; 'I' for Inactive)
ROOT
HETATM    1  C1  UNL     1     -33.264  15.610  -4.200  1.00 20.00     0.033 A 
HETATM    2  C2  UNL     1     -33.144  14.417  -3.507  1.00 20.00     0.117 A 
HETATM    3  C3  UNL     1     -34.449  13.225  -5.011  1.00 20.00     0.136 A 
HETATM    4  C4  UNL     1     -35.139  16.219  -7.347  1.00 20.00     0.070 A 
HETATM    5  C5  UNL     1     -34.034  15.595  -5.379  1.00 20.00     0.002 A 
HETATM    6  C6  UNL     1     -34.619  14.385  -5.767  1.00 20.00     0.034 A 
HETATM    7  C7  UNL     1     -34.346  16.643  -6.308  1.00 20.00     0.029 A 
HETATM    8  N8  UNL     1     -33.709  13.254  -3.881  1.00 20.00    -0.272 NA
HETATM    9  S9  UNL     1     -35.518  14.561  -7.226  1.00 20.00    -0.098 SA
HETATM   10 BR10 UNL     1     -33.732  18.421  -6.120  1.00 20.00    -0.050 Br
ENDROOT
TORSDOF 0
ENDMDL
MODEL 3
REMARK VINA RESULT:      -4.1      2.019      2.198
REMARK  0 active torsions:
REMARK  status: ('A' for Active; 'I' for Inactive)
ROOT
HETATM    1  C1  UNL     1     -33.577  14.621  -3.166  1.00 20.00     0.033 A 
HETATM    2  C2  UNL     1     -33.598  13.442  -3.892  1.00 20.00     0.117 A 
HETATM    3  C3  UNL     1     -35.832  13.657  -4.484  1.00 20.00     0.136 A 
HETATM    4  C4  UNL     1     -36.382  16.994  -2.625  1.00 20.00     0.070 A 
HETATM    5  C5  UNL     1     -34.775  15.360  -3.102  1.00 20.00     0.002 A 
HETATM    6  C6  UNL     1     -35.895  14.856  -3.773  1.00 20.00     0.034 A 
HETATM    7  C7  UNL     1     -35.078  16.598  -2.445  1.00 20.00     0.029 A 
HETATM    8  N8  UNL     1     -34.677  12.958  -4.537  1.00 20.00    -0.272 NA
HETATM    9  S9  UNL     1     -37.259  15.890  -3.583  1.00 20.00    -0.098 SA
HETATM   10 BR10 UNL     1     -33.816  17.580  -1.437  1.00 20.00    -0.050 Br
ENDROOT
TORSDOF 0
ENDMDL
MODEL 4
REMARK VINA RESULT:      -4.1      2.173      2.612
REMARK  0 active torsions:
REMARK  status: ('A' for Active; 'I' for Inactive)
ROOT
HETATM    1  C1  UNL     1     -34.619  14.806  -6.075  1.00 20.00     0.033 A 
HETATM    2  C2  UNL     1     -34.801  13.467  -5.773  1.00 20.00     0.117 A 
HETATM    3  C3  UNL     1     -34.418  13.760  -3.503  1.00 20.00     0.136 A 
HETATM    4  C4  UNL     1     -33.807  17.564  -3.724  1.00 20.00     0.070 A 
HETATM    5  C5  UNL     1     -34.315  15.672  -5.006  1.00 20.00     0.002 A 
HETATM    6  C6  UNL     1     -34.220  15.124  -3.722  1.00 20.00     0.034 A 
HETATM    7  C7  UNL     1     -34.074  17.085  -4.985  1.00 20.00     0.029 A 
HETATM    8  N8  UNL     1     -34.709  12.940  -4.537  1.00 20.00    -0.272 NA
HETATM    9  S9  UNL     1     -33.844  16.328  -2.550  1.00 20.00    -0.098 SA
HETATM   10 BR10 UNL     1     -34.117  18.175  -6.529  1.00 20.00    -0.050 Br
ENDROOT
TORSDOF 0
ENDMDL
MODEL 5
REMARK VINA RESULT:      -3.9      2.880      3.871
REMARK  0 active torsions:
REMARK  status: ('A' for Active; 'I' for Inactive)
ROOT
HETATM    1  C1  UNL     1     -34.454  16.251  -1.504  1.00 20.00     0.033 A 
HETATM    2  C2  UNL     1     -34.745  17.295  -0.642  1.00 20.00     0.117 A 
HETATM    3  C3  UNL     1     -34.355  18.935  -2.238  1.00 20.00     0.136 A 
HETATM    4  C4  UNL     1     -33.439  16.475  -5.069  1.00 20.00     0.070 A 
HETATM    5  C5  UNL     1     -34.089  16.586  -2.822  1.00 20.00     0.002 A 
HETATM    6  C6  UNL     1     -34.046  17.941  -3.169  1.00 20.00     0.034 A 
HETATM    7  C7  UNL     1     -33.735  15.755  -3.936  1.00 20.00     0.029 A 
HETATM    8  N8  UNL     1     -34.703  18.599  -0.976  1.00 20.00    -0.272 NA
HETATM    9  S9  UNL     1     -33.582  18.155  -4.813  1.00 20.00    -0.098 SA
HETATM   10 BR10 UNL     1     -33.681  13.867  -3.854  1.00 20.00    -0.050 Br
ENDROOT
TORSDOF 0
ENDMDL
MODEL 6
REMARK VINA RESULT:      -3.9      2.315      2.460
REMARK  0 active torsions:
REMARK  status: ('A' for Active; 'I' for Inactive)
ROOT
HETATM    1  C1  UNL     1     -35.987  14.113  -4.302  1.00 20.00     0.033 A 
HETATM    2  C2  UNL     1     -35.029  13.160  -4.605  1.00 20.00     0.117 A 
HETATM    3  C3  UNL     1     -33.337  14.264  -3.462  1.00 20.00     0.136 A 
HETATM    4  C4  UNL     1     -35.542  17.216  -2.310  1.00 20.00     0.070 A 
HETATM    5  C5  UNL     1     -35.577  15.214  -3.525  1.00 20.00     0.002 A 
HETATM    6  C6  UNL     1     -34.241  15.268  -3.113  1.00 20.00     0.034 A 
HETATM    7  C7  UNL     1     -36.313  16.350  -3.049  1.00 20.00     0.029 A 
HETATM    8  N8  UNL     1     -33.743  13.214  -4.209  1.00 20.00    -0.272 NA
HETATM    9  S9  UNL     1     -33.929  16.679  -2.176  1.00 20.00    -0.098 SA
HETATM   10 BR10 UNL     1     -38.149  16.626  -3.401  1.00 20.00    -0.050 Br
ENDROOT
TORSDOF 0
ENDMDL
MODEL 7
REMARK VINA RESULT:      -3.8      2.692      3.064
REMARK  0 active torsions:
REMARK  status: ('A' for Active; 'I' for Inactive)
ROOT
HETATM    1  C1  UNL     1     -35.068  13.872  -5.677  1.00 20.00     0.033 A 
HETATM    2  C2  UNL     1     -34.453  13.069  -4.731  1.00 20.00     0.117 A 
HETATM    3  C3  UNL     1     -33.241  14.817  -3.801  1.00 20.00     0.136 A 
HETATM    4  C4  UNL     1     -34.623  17.524  -6.180  1.00 20.00     0.070 A 
HETATM    5  C5  UNL     1     -34.738  15.241  -5.674  1.00 20.00     0.002 A 
HETATM    6  C6  UNL     1     -33.818  15.693  -4.722  1.00 20.00     0.034 A 
HETATM    7  C7  UNL     1     -35.192  16.317  -6.507  1.00 20.00     0.029 A 
HETATM    8  N8  UNL     1     -33.567  13.505  -3.816  1.00 20.00    -0.272 NA
HETATM    9  S9  UNL     1     -33.540  17.386  -4.871  1.00 20.00    -0.098 SA
HETATM   10 BR10 UNL     1     -36.442  16.095  -7.908  1.00 20.00    -0.050 Br
ENDROOT
TORSDOF 0
ENDMDL
MODEL 8
REMARK VINA RESULT:      -3.8      1.977      2.919
REMARK  0 active torsions:
REMARK  status: ('A' for Active; 'I' for Inactive)
ROOT
HETATM    1  C1  UNL     1     -34.299  17.133  -5.507  1.00 20.00     0.033 A 
HETATM    2  C2  UNL     1     -34.441  17.224  -6.881  1.00 20.00     0.117 A 
HETATM    3  C3  UNL     1     -34.701  14.935  -7.167  1.00 20.00     0.136 A 
HETATM    4  C4  UNL     1     -34.376  14.061  -3.422  1.00 20.00     0.070 A 
HETATM    5  C5  UNL     1     -34.364  15.847  -4.935  1.00 20.00     0.002 A 
HETATM    6  C6  UNL     1     -34.567  14.758  -5.789  1.00 20.00     0.034 A 
HETATM    7  C7  UNL     1     -34.257  15.422  -3.570  1.00 20.00     0.029 A 
HETATM    8  N8  UNL     1     -34.636  16.174  -7.702  1.00 20.00    -0.272 NA
HETATM    9  S9  UNL     1     -34.619  13.275  -4.915  1.00 20.00    -0.098 SA
HETATM   10 BR10 UNL     1     -33.980  16.610  -2.126  1.00 20.00    -0.050 Br
ENDROOT
TORSDOF 0
ENDMDL
MODEL 9
REMARK VINA RESULT:      -3.7      3.109      4.259
REMARK  0 active torsions:
REMARK  status: ('A' for Active; 'I' for Inactive)
ROOT
HETATM    1  C1  UNL     1     -34.310  17.190  -5.682  1.00 20.00     0.033 A 
HETATM    2  C2  UNL     1     -33.915  18.084  -4.702  1.00 20.00     0.117 A 
HETATM    3  C3  UNL     1     -33.730  16.452  -3.061  1.00 20.00     0.136 A 
HETATM    4  C4  UNL     1     -34.780  13.522  -5.343  1.00 20.00     0.070 A 
HETATM    5  C5  UNL     1     -34.419  15.835  -5.313  1.00 20.00     0.002 A 
HETATM    6  C6  UNL     1     -34.122  15.488  -3.991  1.00 20.00     0.034 A 
HETATM    7  C7  UNL     1     -34.797  14.682  -6.079  1.00 20.00     0.029 A 
HETATM    8  N8  UNL     1     -33.630  17.749  -3.429  1.00 20.00    -0.272 NA
HETATM    9  S9  UNL     1     -34.311  13.796  -3.728  1.00 20.00    -0.098 SA
HETATM   10 BR10 UNL     1     -35.268  14.754  -7.908  1.00 20.00    -0.050 Br
ENDROOT
TORSDOF 0
ENDMDL
