MODEL 1
REMARK VINA RESULT:      -4.4      0.000      0.000
REMARK  0 active torsions:
REMARK  status: ('A' for Active; 'I' for Inactive)
ROOT
HETATM    1  C1  UNL     1     -34.770  13.886  -4.624  1.00 20.00     0.139 C 
HETATM    2  C2  UNL     1     -35.204  14.868  -5.734  1.00 20.00     0.057 C 
HETATM    3  C3  UNL     1     -34.092  15.833  -5.210  1.00 20.00     0.007 C 
HETATM    4  C4  UNL     1     -33.944  14.985  -3.887  1.00 20.00     0.018 C 
HETATM    5  C5  UNL     1     -35.038  14.370  -7.156  1.00 20.00     0.018 C 
HETATM    6  C6  UNL     1     -34.489  17.297  -5.112  1.00 20.00     0.012 C 
HETATM    7  C7  UNL     1     -34.642  15.502  -2.631  1.00 20.00     0.023 C 
HETATM    8  C8  UNL     1     -32.502  14.575  -3.595  1.00 20.00     0.023 C 
HETATM    9  O9  UNL     1     -34.997  12.714  -4.407  1.00 20.00    -0.297 OA
ENDROOT
TORSDOF 0
ENDMDL
MODEL 2
REMARK VINA RESULT:      -4.1      1.831      2.500
REMARK  0 active torsions:
REMARK  status: ('A' for Active; 'I' for Inactive)
ROOT
HETATM    1  C1  UNL     1     -33.357  14.814  -3.516  1.00 20.00     0.139 C 
HETATM    2  C2  UNL     1     -34.623  13.976  -3.794  1.00 20.00     0.057 C 
HETATM    3  C3  UNL     1     -35.401  15.327  -3.909  1.00 20.00     0.007 C 
HETATM    4  C4  UNL     1     -34.192  16.106  -3.259  1.00 20.00     0.018 C 
HETATM    5  C5  UNL     1     -34.586  13.121  -5.046  1.00 20.00     0.018 C 
HETATM    6  C6  UNL     1     -36.759  15.361  -3.226  1.00 20.00     0.012 C 
HETATM    7  C7  UNL     1     -34.290  16.457  -1.776  1.00 20.00     0.023 C 
HETATM    8  C8  UNL     1     -33.736  17.306  -4.087  1.00 20.00     0.023 C 
HETATM    9  O9  UNL     1     -32.171  14.558  -3.495  1.00 20.00    -0.297 OA
ENDROOT
TORSDOF 0
ENDMDL
MODEL 3
REMARK VINA RESULT:      -4.1      1.539      3.325
REMARK  0 active torsions:
REMARK  status: ('A' for Active; 'I' for Inactive)
ROOT
HETATM    1  C1  UNL     1     -35.934  14.924  -3.472  1.00 20.00     0.139 C 
HETATM    2  C2  UNL     1     -34.786  15.347  -2.531  1.00 20.00     0.057 C 
HETATM    3  C3  UNL     1     -33.880  15.445  -3.800  1.00 20.00     0.007 C 
HETATM    4  C4  UNL     1     -34.951  14.659  -4.654  1.00 20.00     0.018 C 
HETATM    5  C5  UNL     1     -35.003  16.639  -1.767  1.00 20.00     0.018 C 
HETATM    6  C6  UNL     1     -32.481  14.869  -3.653  1.00 20.00     0.012 C 
HETATM    7  C7  UNL     1     -34.710  13.170  -4.896  1.00 20.00     0.023 C 
HETATM    8  C8  UNL     1     -35.336  15.379  -5.945  1.00 20.00     0.023 C 
HETATM    9  O9  UNL     1     -37.135  14.825  -3.336  1.00 20.00    -0.297 OA
ENDROOT
TORSDOF 0
ENDMDL
MODEL 4
REMARK VINA RESULT:      -4.1      1.351      2.452
REMARK  0 active torsions:
REMARK  status: ('A' for Active; 'I' for Inactive)
ROOT
HETATM    1  C1  UNL     1     -34.824  14.435  -4.759  1.00 20.00     0.139 C 
HETATM    2  C2  UNL     1     -35.778  14.676  -3.570  1.00 20.00     0.057 C 
HETATM    3  C3  UNL     1     -34.922  15.941  -3.235  1.00 20.00     0.007 C 
HETATM    4  C4  UNL     1     -33.777  15.452  -4.207  1.00 20.00     0.018 C 
HETATM    5  C5  UNL     1     -37.228  14.929  -3.930  1.00 20.00     0.018 C 
HETATM    6  C6  UNL     1     -34.608  16.148  -1.763  1.00 20.00     0.012 C 
HETATM    7  C7  UNL     1     -32.563  14.767  -3.584  1.00 20.00     0.023 C 
HETATM    8  C8  UNL     1     -33.359  16.513  -5.223  1.00 20.00     0.023 C 
HETATM    9  O9  UNL     1     -34.869  13.720  -5.738  1.00 20.00    -0.297 OA
ENDROOT
TORSDOF 0
ENDMDL
MODEL 5
REMARK VINA RESULT:      -4.1      1.661      3.222
REMARK  0 active torsions:
REMARK  status: ('A' for Active; 'I' for Inactive)
ROOT
HETATM    1  C1  UNL     1     -33.400  15.165  -3.688  1.00 20.00     0.139 C 
HETATM    2  C2  UNL     1     -34.171  16.379  -3.128  1.00 20.00     0.057 C 
HETATM    3  C3  UNL     1     -35.470  15.721  -3.693  1.00 20.00     0.007 C 
HETATM    4  C4  UNL     1     -34.614  14.716  -4.559  1.00 20.00     0.018 C 
HETATM    5  C5  UNL     1     -34.114  16.559  -1.624  1.00 20.00     0.018 C 
HETATM    6  C6  UNL     1     -36.434  16.667  -4.391  1.00 20.00     0.012 C 
HETATM    7  C7  UNL     1     -34.426  15.038  -6.040  1.00 20.00     0.023 C 
HETATM    8  C8  UNL     1     -35.011  13.256  -4.352  1.00 20.00     0.023 C 
HETATM    9  O9  UNL     1     -32.277  14.735  -3.521  1.00 20.00    -0.297 OA
ENDROOT
TORSDOF 0
ENDMDL
MODEL 6
REMARK VINA RESULT:      -4.0      1.840      3.638
REMARK  0 active torsions:
REMARK  status: ('A' for Active; 'I' for Inactive)
ROOT
HETATM    1  C1  UNL     1     -35.352  16.451  -3.894  1.00 20.00     0.139 C 
HETATM    2  C2  UNL     1     -34.842  15.585  -2.722  1.00 20.00     0.057 C 
HETATM    3  C3  UNL     1     -33.574  15.292  -3.587  1.00 20.00     0.007 C 
HETATM    4  C4  UNL     1     -34.291  15.860  -4.874  1.00 20.00     0.018 C 
HETATM    5  C5  UNL     1     -34.603  16.319  -1.417  1.00 20.00     0.018 C 
HETATM    6  C6  UNL     1     -33.095  13.850  -3.579  1.00 20.00     0.012 C 
HETATM    7  C7  UNL     1     -34.891  14.853  -5.853  1.00 20.00     0.023 C 
HETATM    8  C8  UNL     1     -33.469  16.922  -5.600  1.00 20.00     0.023 C 
HETATM    9  O9  UNL     1     -36.243  17.266  -4.008  1.00 20.00    -0.297 OA
ENDROOT
TORSDOF 0
ENDMDL
MODEL 7
REMARK VINA RESULT:      -4.0      1.683      2.951
REMARK  0 active torsions:
REMARK  status: ('A' for Active; 'I' for Inactive)
ROOT
HETATM    1  C1  UNL     1     -33.823  15.721  -3.887  1.00 20.00     0.139 C 
HETATM    2  C2  UNL     1     -33.469  16.348  -5.253  1.00 20.00     0.057 C 
HETATM    3  C3  UNL     1     -34.712  15.600  -5.834  1.00 20.00     0.007 C 
HETATM    4  C4  UNL     1     -34.807  14.702  -4.539  1.00 20.00     0.018 C 
HETATM    5  C5  UNL     1     -33.514  17.862  -5.313  1.00 20.00     0.018 C 
HETATM    6  C6  UNL     1     -34.503  14.935  -7.185  1.00 20.00     0.012 C 
HETATM    7  C7  UNL     1     -34.230  13.290  -4.612  1.00 20.00     0.023 C 
HETATM    8  C8  UNL     1     -36.198  14.704  -3.908  1.00 20.00     0.023 C 
HETATM    9  O9  UNL     1     -33.461  15.934  -2.748  1.00 20.00    -0.297 OA
ENDROOT
TORSDOF 0
ENDMDL
MODEL 8
REMARK VINA RESULT:      -4.0      1.931      2.806
REMARK  0 active torsions:
REMARK  status: ('A' for Active; 'I' for Inactive)
ROOT
HETATM    1  C1  UNL     1     -33.628  16.296  -4.963  1.00 20.00     0.139 C 
HETATM    2  C2  UNL     1     -34.600  15.381  -5.739  1.00 20.00     0.057 C 
HETATM    3  C3  UNL     1     -34.956  14.721  -4.368  1.00 20.00     0.007 C 
HETATM    4  C4  UNL     1     -33.702  15.399  -3.689  1.00 20.00     0.018 C 
HETATM    5  C5  UNL     1     -35.736  16.084  -6.455  1.00 20.00     0.018 C 
HETATM    6  C6  UNL     1     -35.064  13.205  -4.380  1.00 20.00     0.012 C 
HETATM    7  C7  UNL     1     -32.451  14.545  -3.498  1.00 20.00     0.023 C 
HETATM    8  C8  UNL     1     -34.052  16.169  -2.416  1.00 20.00     0.023 C 
HETATM    9  O9  UNL     1     -33.031  17.314  -5.244  1.00 20.00    -0.297 OA
ENDROOT
TORSDOF 0
ENDMDL
MODEL 9
REMARK VINA RESULT:      -4.0      0.763      2.996
REMARK  0 active torsions:
REMARK  status: ('A' for Active; 'I' for Inactive)
ROOT
HETATM    1  C1  UNL     1     -34.709  14.006  -4.929  1.00 20.00     0.139 C 
HETATM    2  C2  UNL     1     -33.860  15.096  -4.241  1.00 20.00     0.057 C 
HETATM    3  C3  UNL     1     -34.631  16.142  -5.109  1.00 20.00     0.007 C 
HETATM    4  C4  UNL     1     -35.191  14.994  -6.037  1.00 20.00     0.018 C 
HETATM    5  C5  UNL     1     -34.035  15.217  -2.740  1.00 20.00     0.018 C 
HETATM    6  C6  UNL     1     -33.779  17.242  -5.720  1.00 20.00     0.012 C 
HETATM    7  C7  UNL     1     -34.493  14.761  -7.376  1.00 20.00     0.023 C 
HETATM    8  C8  UNL     1     -36.709  15.039  -6.200  1.00 20.00     0.023 C 
HETATM    9  O9  UNL     1     -34.911  12.832  -4.700  1.00 20.00    -0.297 OA
ENDROOT
TORSDOF 0
ENDMDL
