MODEL 1
REMARK VINA RESULT:      -5.3      0.000      0.000
REMARK  0 active torsions:
REMARK  status: ('A' for Active; 'I' for Inactive)
ROOT
HETATM    1  C1  UNL     1     -32.174   6.989   3.336  1.00 20.00     0.094 C 
HETATM    2  C2  UNL     1     -34.862   5.413   6.651  1.00 20.00     0.003 C 
HETATM    3  C3  UNL     1     -35.027   4.098   5.894  1.00 20.00     0.003 C 
HETATM    4  C4  UNL     1     -33.836   6.182   5.817  1.00 20.00     0.042 C 
HETATM    5  C5  UNL     1     -35.012   4.520   4.423  1.00 20.00     0.042 C 
HETATM    6  C6  UNL     1     -33.302   6.123   3.204  1.00 20.00     0.263 A 
HETATM    7  C7  UNL     1     -34.118   5.726   4.415  1.00 20.00     0.101 A 
HETATM    8  N8  UNL     1     -31.257   7.692   3.443  1.00 20.00    -0.194 NA
HETATM    9  O9  UNL     1     -34.543   6.766   3.524  1.00 20.00    -0.354 OA
ENDROOT
TORSDOF 0
ENDMDL
MODEL 2
REMARK VINA RESULT:      -4.4      1.520      2.182
REMARK  0 active torsions:
REMARK  status: ('A' for Active; 'I' for Inactive)
ROOT
HETATM    1  C1  UNL     1     -32.119   7.975   2.333  1.00 20.00     0.094 C 
HETATM    2  C2  UNL     1     -35.236   5.072   3.932  1.00 20.00     0.003 C 
HETATM    3  C3  UNL     1     -34.931   5.527   5.357  1.00 20.00     0.003 C 
HETATM    4  C4  UNL     1     -34.393   6.010   3.066  1.00 20.00     0.042 C 
HETATM    5  C5  UNL     1     -33.430   5.824   5.331  1.00 20.00     0.042 C 
HETATM    6  C6  UNL     1     -32.079   7.243   3.559  1.00 20.00     0.263 A 
HETATM    7  C7  UNL     1     -33.189   6.280   3.921  1.00 20.00     0.101 A 
HETATM    8  N8  UNL     1     -32.152   8.571   1.338  1.00 20.00    -0.194 NA
HETATM    9  O9  UNL     1     -31.948   5.829   3.362  1.00 20.00    -0.354 OA
ENDROOT
TORSDOF 0
ENDMDL
MODEL 3
REMARK VINA RESULT:      -4.2     12.060     12.952
REMARK  0 active torsions:
REMARK  status: ('A' for Active; 'I' for Inactive)
ROOT
HETATM    1  C1  UNL     1     -34.507  13.817  -4.514  1.00 20.00     0.094 C 
HETATM    2  C2  UNL     1     -34.343  17.051  -1.317  1.00 20.00     0.003 C 
HETATM    3  C3  UNL     1     -34.480  18.124  -2.394  1.00 20.00     0.003 C 
HETATM    4  C4  UNL     1     -34.506  15.742  -2.092  1.00 20.00     0.042 C 
HETATM    5  C5  UNL     1     -33.722  17.541  -3.589  1.00 20.00     0.042 C 
HETATM    6  C6  UNL     1     -33.920  15.115  -4.618  1.00 20.00     0.263 A 
HETATM    7  C7  UNL     1     -33.917  16.060  -3.436  1.00 20.00     0.101 A 
HETATM    8  N8  UNL     1     -34.985  12.763  -4.430  1.00 20.00    -0.194 NA
HETATM    9  O9  UNL     1     -32.766  15.277  -3.782  1.00 20.00    -0.354 OA
ENDROOT
TORSDOF 0
ENDMDL
MODEL 4
REMARK VINA RESULT:      -4.1     12.013     13.078
REMARK  0 active torsions:
REMARK  status: ('A' for Active; 'I' for Inactive)
ROOT
HETATM    1  C1  UNL     1     -37.600  14.870  -4.243  1.00 20.00     0.094 C 
HETATM    2  C2  UNL     1     -33.237  13.676  -3.753  1.00 20.00     0.003 C 
HETATM    3  C3  UNL     1     -32.839  15.149  -3.696  1.00 20.00     0.003 C 
HETATM    4  C4  UNL     1     -34.766  13.717  -3.785  1.00 20.00     0.042 C 
HETATM    5  C5  UNL     1     -33.825  15.830  -4.648  1.00 20.00     0.042 C 
HETATM    6  C6  UNL     1     -36.450  15.547  -4.753  1.00 20.00     0.263 A 
HETATM    7  C7  UNL     1     -35.062  14.986  -4.531  1.00 20.00     0.101 A 
HETATM    8  N8  UNL     1     -38.535  14.321  -3.828  1.00 20.00    -0.194 NA
HETATM    9  O9  UNL     1     -35.765  14.800  -5.767  1.00 20.00    -0.354 OA
ENDROOT
TORSDOF 0
ENDMDL
MODEL 5
REMARK VINA RESULT:      -4.1     12.140     12.691
REMARK  0 active torsions:
REMARK  status: ('A' for Active; 'I' for Inactive)
ROOT
HETATM    1  C1  UNL     1     -35.384  13.683  -4.262  1.00 20.00     0.094 C 
HETATM    2  C2  UNL     1     -33.678  17.034  -1.700  1.00 20.00     0.003 C 
HETATM    3  C3  UNL     1     -35.046  17.237  -1.053  1.00 20.00     0.003 C 
HETATM    4  C4  UNL     1     -33.878  15.802  -2.585  1.00 20.00     0.042 C 
HETATM    5  C5  UNL     1     -36.032  16.939  -2.185  1.00 20.00     0.042 C 
HETATM    6  C6  UNL     1     -36.046  14.874  -3.833  1.00 20.00     0.263 A 
HETATM    7  C7  UNL     1     -35.313  15.913  -3.013  1.00 20.00     0.101 A 
HETATM    8  N8  UNL     1     -34.847  12.715  -4.610  1.00 20.00    -0.194 NA
HETATM    9  O9  UNL     1     -35.502  16.061  -4.427  1.00 20.00    -0.354 OA
ENDROOT
TORSDOF 0
ENDMDL
MODEL 6
REMARK VINA RESULT:      -3.9     12.553     13.767
REMARK  0 active torsions:
REMARK  status: ('A' for Active; 'I' for Inactive)
ROOT
HETATM    1  C1  UNL     1     -33.606  17.954  -5.335  1.00 20.00     0.094 C 
HETATM    2  C2  UNL     1     -34.832  13.576  -5.521  1.00 20.00     0.003 C 
HETATM    3  C3  UNL     1     -35.330  13.653  -4.080  1.00 20.00     0.003 C 
HETATM    4  C4  UNL     1     -34.445  15.020  -5.846  1.00 20.00     0.042 C 
HETATM    5  C5  UNL     1     -34.358  14.628  -3.410  1.00 20.00     0.042 C 
HETATM    6  C6  UNL     1     -33.562  16.992  -4.280  1.00 20.00     0.263 A 
HETATM    7  C7  UNL     1     -33.972  15.556  -4.525  1.00 20.00     0.101 A 
HETATM    8  N8  UNL     1     -33.642  18.736  -6.192  1.00 20.00    -0.194 NA
HETATM    9  O9  UNL     1     -32.595  15.958  -4.505  1.00 20.00    -0.354 OA
ENDROOT
TORSDOF 0
ENDMDL
MODEL 7
REMARK VINA RESULT:      -3.9     12.108     13.338
REMARK  0 active torsions:
REMARK  status: ('A' for Active; 'I' for Inactive)
ROOT
HETATM    1  C1  UNL     1     -34.003  16.166  -2.495  1.00 20.00     0.094 C 
HETATM    2  C2  UNL     1     -34.198  15.360  -6.969  1.00 20.00     0.003 C 
HETATM    3  C3  UNL     1     -35.294  14.323  -6.735  1.00 20.00     0.003 C 
HETATM    4  C4  UNL     1     -33.976  15.967  -5.582  1.00 20.00     0.042 C 
HETATM    5  C5  UNL     1     -34.921  13.695  -5.391  1.00 20.00     0.042 C 
HETATM    6  C6  UNL     1     -34.263  14.921  -3.145  1.00 20.00     0.263 A 
HETATM    7  C7  UNL     1     -34.251  14.819  -4.655  1.00 20.00     0.101 A 
HETATM    8  N8  UNL     1     -33.792  17.178  -1.967  1.00 20.00    -0.194 NA
HETATM    9  O9  UNL     1     -33.128  14.414  -3.859  1.00 20.00    -0.354 OA
ENDROOT
TORSDOF 0
ENDMDL
MODEL 8
REMARK VINA RESULT:      -3.9     10.115     10.708
REMARK  0 active torsions:
REMARK  status: ('A' for Active; 'I' for Inactive)
ROOT
HETATM    1  C1  UNL     1     -42.505   7.941  -3.834  1.00 20.00     0.094 C 
HETATM    2  C2  UNL     1     -40.717   6.143  -0.057  1.00 20.00     0.003 C 
HETATM    3  C3  UNL     1     -40.586   4.794  -0.760  1.00 20.00     0.003 C 
HETATM    4  C4  UNL     1     -41.199   7.080  -1.165  1.00 20.00     0.042 C 
HETATM    5  C5  UNL     1     -41.804   4.745  -1.684  1.00 20.00     0.042 C 
HETATM    6  C6  UNL     1     -42.671   6.612  -3.340  1.00 20.00     0.263 A 
HETATM    7  C7  UNL     1     -42.034   6.186  -2.035  1.00 20.00     0.101 A 
HETATM    8  N8  UNL     1     -42.369   9.022  -4.236  1.00 20.00    -0.194 NA
HETATM    9  O9  UNL     1     -43.417   6.558  -2.117  1.00 20.00    -0.354 OA
ENDROOT
TORSDOF 0
ENDMDL
MODEL 9
REMARK VINA RESULT:      -3.9     11.795     12.750
REMARK  0 active torsions:
REMARK  status: ('A' for Active; 'I' for Inactive)
ROOT
HETATM    1  C1  UNL     1     -35.030  16.497  -1.772  1.00 20.00     0.094 C 
HETATM    2  C2  UNL     1     -34.516  13.203  -4.868  1.00 20.00     0.003 C 
HETATM    3  C3  UNL     1     -34.712  14.222  -5.987  1.00 20.00     0.003 C 
HETATM    4  C4  UNL     1     -34.498  14.059  -3.600  1.00 20.00     0.042 C 
HETATM    5  C5  UNL     1     -35.724  15.212  -5.405  1.00 20.00     0.042 C 
HETATM    6  C6  UNL     1     -35.685  16.381  -3.037  1.00 20.00     0.263 A 
HETATM    7  C7  UNL     1     -35.427  15.190  -3.934  1.00 20.00     0.101 A 
HETATM    8  N8  UNL     1     -34.498  16.593  -0.745  1.00 20.00    -0.194 NA
HETATM    9  O9  UNL     1     -36.590  15.271  -3.098  1.00 20.00    -0.354 OA
ENDROOT
TORSDOF 0
ENDMDL
