MODEL 1
REMARK VINA RESULT:      -4.4      0.000      0.000
REMARK  2 active torsions:
REMARK  status: ('A' for Active; 'I' for Inactive)
REMARK    1  A    between atoms: C1_1  and  C3_3 
REMARK    2  A    between atoms: C2_2  and  C9_9 
ROOT
HETATM    1  C1  UNL     1     -34.259  14.840  -3.184  1.00 20.00    -0.071 C 
HETATM    2  C2  UNL     1     -34.495  15.857  -2.590  1.00 20.00    -0.095 C 
ENDROOT
BRANCH   1   3
HETATM    3  C3  UNL     1     -33.972  13.603  -3.908  1.00 20.00     0.229 A 
HETATM    4  C4  UNL     1     -34.523  13.383  -5.276  1.00 20.00     0.160 A 
HETATM    5  C5  UNL     1     -35.360  14.366  -6.016  1.00 20.00     0.043 C 
HETATM    6  O10 UNL     1     -35.147  12.824  -4.117  1.00 20.00    -0.363 OA
ENDBRANCH   1   3
BRANCH   2   7
HETATM    7  C9  UNL     1     -34.787  17.110  -1.857  1.00 20.00     0.013 C 
HETATM    8  C6  UNL     1     -33.760  18.182  -2.252  1.00 20.00     0.028 C 
HETATM    9  C7  UNL     1     -34.701  16.848  -0.347  1.00 20.00     0.028 C 
HETATM   10  C8  UNL     1     -36.198  17.594  -2.215  1.00 20.00     0.028 C 
ENDBRANCH   2   7
TORSDOF 2
ENDMDL
MODEL 2
REMARK VINA RESULT:      -4.4      0.014      1.372
REMARK  2 active torsions:
REMARK  status: ('A' for Active; 'I' for Inactive)
REMARK    1  A    between atoms: C1_1  and  C3_3 
REMARK    2  A    between atoms: C2_2  and  C9_9 
ROOT
HETATM    1  C1  UNL     1     -34.263  14.833  -3.196  1.00 20.00    -0.071 C 
HETATM    2  C2  UNL     1     -34.497  15.849  -2.599  1.00 20.00    -0.095 C 
ENDROOT
BRANCH   1   3
HETATM    3  C3  UNL     1     -33.978  13.596  -3.920  1.00 20.00     0.229 A 
HETATM    4  C4  UNL     1     -34.525  13.381  -5.291  1.00 20.00     0.160 A 
HETATM    5  C5  UNL     1     -35.357  14.367  -6.031  1.00 20.00     0.043 C 
HETATM    6  O10 UNL     1     -35.155  12.822  -4.134  1.00 20.00    -0.363 OA
ENDBRANCH   1   3
BRANCH   2   7
HETATM    7  C9  UNL     1     -34.785  17.102  -1.864  1.00 20.00     0.013 C 
HETATM    8  C6  UNL     1     -36.195  17.591  -2.226  1.00 20.00     0.028 C 
HETATM    9  C7  UNL     1     -33.754  18.170  -2.255  1.00 20.00     0.028 C 
HETATM   10  C8  UNL     1     -34.705  16.838  -0.354  1.00 20.00     0.028 C 
ENDBRANCH   2   7
TORSDOF 2
ENDMDL
MODEL 3
REMARK VINA RESULT:      -4.0      2.425      4.861
REMARK  2 active torsions:
REMARK  status: ('A' for Active; 'I' for Inactive)
REMARK    1  A    between atoms: C1_1  and  C3_3 
REMARK    2  A    between atoms: C2_2  and  C9_9 
ROOT
HETATM    1  C1  UNL     1     -34.587  16.189  -1.664  1.00 20.00    -0.071 C 
HETATM    2  C2  UNL     1     -34.532  15.541  -2.674  1.00 20.00    -0.095 C 
ENDROOT
BRANCH   1   3
HETATM    3  C3  UNL     1     -34.651  16.977  -0.435  1.00 20.00     0.229 A 
HETATM    4  C4  UNL     1     -34.799  18.460  -0.495  1.00 20.00     0.160 A 
HETATM    5  C5  UNL     1     -34.915  19.245  -1.753  1.00 20.00     0.043 C 
HETATM    6  O10 UNL     1     -33.525  17.840  -0.296  1.00 20.00    -0.363 OA
ENDBRANCH   1   3
BRANCH   2   7
HETATM    7  C9  UNL     1     -34.467  14.742  -3.919  1.00 20.00     0.013 C 
HETATM    8  C6  UNL     1     -35.830  14.083  -4.173  1.00 20.00     0.028 C 
HETATM    9  C7  UNL     1     -33.390  13.658  -3.771  1.00 20.00     0.028 C 
HETATM   10  C8  UNL     1     -34.112  15.660  -5.096  1.00 20.00     0.028 C 
ENDBRANCH   2   7
TORSDOF 2
ENDMDL
MODEL 4
REMARK VINA RESULT:      -4.0      2.425      4.848
REMARK  2 active torsions:
REMARK  status: ('A' for Active; 'I' for Inactive)
REMARK    1  A    between atoms: C1_1  and  C3_3 
REMARK    2  A    between atoms: C2_2  and  C9_9 
ROOT
HETATM    1  C1  UNL     1     -34.604  16.186  -1.652  1.00 20.00    -0.071 C 
HETATM    2  C2  UNL     1     -34.540  15.539  -2.663  1.00 20.00    -0.095 C 
ENDROOT
BRANCH   1   3
HETATM    3  C3  UNL     1     -34.682  16.970  -0.421  1.00 20.00     0.229 A 
HETATM    4  C4  UNL     1     -34.856  18.450  -0.479  1.00 20.00     0.160 A 
HETATM    5  C5  UNL     1     -34.987  19.235  -1.736  1.00 20.00     0.043 C 
HETATM    6  O10 UNL     1     -33.571  17.852  -0.282  1.00 20.00    -0.363 OA
ENDBRANCH   1   3
BRANCH   2   7
HETATM    7  C9  UNL     1     -34.462  14.744  -3.909  1.00 20.00     0.013 C 
HETATM    8  C6  UNL     1     -33.375  13.670  -3.760  1.00 20.00     0.028 C 
HETATM    9  C7  UNL     1     -34.113  15.670  -5.083  1.00 20.00     0.028 C 
HETATM   10  C8  UNL     1     -35.816  14.071  -4.171  1.00 20.00     0.028 C 
ENDBRANCH   2   7
TORSDOF 2
ENDMDL
MODEL 5
REMARK VINA RESULT:      -4.0      2.428      4.854
REMARK  2 active torsions:
REMARK  status: ('A' for Active; 'I' for Inactive)
REMARK    1  A    between atoms: C1_1  and  C3_3 
REMARK    2  A    between atoms: C2_2  and  C9_9 
ROOT
HETATM    1  C1  UNL     1     -34.611  16.190  -1.648  1.00 20.00    -0.071 C 
HETATM    2  C2  UNL     1     -34.549  15.544  -2.660  1.00 20.00    -0.095 C 
ENDROOT
BRANCH   1   3
HETATM    3  C3  UNL     1     -34.687  16.974  -0.418  1.00 20.00     0.229 A 
HETATM    4  C4  UNL     1     -34.863  18.454  -0.475  1.00 20.00     0.160 A 
HETATM    5  C5  UNL     1     -34.997  19.239  -1.731  1.00 20.00     0.043 C 
HETATM    6  O10 UNL     1     -33.577  17.858  -0.281  1.00 20.00    -0.363 OA
ENDBRANCH   1   3
BRANCH   2   7
HETATM    7  C9  UNL     1     -34.473  14.749  -3.906  1.00 20.00     0.013 C 
HETATM    8  C6  UNL     1     -34.126  15.675  -5.081  1.00 20.00     0.028 C 
HETATM    9  C7  UNL     1     -35.829  14.077  -4.165  1.00 20.00     0.028 C 
HETATM   10  C8  UNL     1     -33.387  13.675  -3.761  1.00 20.00     0.028 C 
ENDBRANCH   2   7
TORSDOF 2
ENDMDL
MODEL 6
REMARK VINA RESULT:      -3.9      1.695      2.530
REMARK  2 active torsions:
REMARK  status: ('A' for Active; 'I' for Inactive)
REMARK    1  A    between atoms: C1_1  and  C3_3 
REMARK    2  A    between atoms: C2_2  and  C9_9 
ROOT
HETATM    1  C1  UNL     1     -34.488  15.977  -2.162  1.00 20.00    -0.071 C 
HETATM    2  C2  UNL     1     -34.484  16.856  -1.343  1.00 20.00    -0.095 C 
ENDROOT
BRANCH   1   3
HETATM    3  C3  UNL     1     -34.495  14.906  -3.157  1.00 20.00     0.229 A 
HETATM    4  C4  UNL     1     -33.900  15.125  -4.506  1.00 20.00     0.160 A 
HETATM    5  C5  UNL     1     -33.248  16.389  -4.945  1.00 20.00     0.043 C 
HETATM    6  O10 UNL     1     -35.308  15.230  -4.281  1.00 20.00    -0.363 OA
ENDBRANCH   1   3
BRANCH   2   7
HETATM    7  C9  UNL     1     -34.477  17.940  -0.335  1.00 20.00     0.013 C 
HETATM    8  C6  UNL     1     -35.117  17.431   0.964  1.00 20.00     0.028 C 
HETATM    9  C7  UNL     1     -35.277  19.136  -0.869  1.00 20.00     0.028 C 
HETATM   10  C8  UNL     1     -33.030  18.372  -0.060  1.00 20.00     0.028 C 
ENDBRANCH   2   7
TORSDOF 2
ENDMDL
MODEL 7
REMARK VINA RESULT:      -3.7      2.644      5.048
REMARK  2 active torsions:
REMARK  status: ('A' for Active; 'I' for Inactive)
REMARK    1  A    between atoms: C1_1  and  C3_3 
REMARK    2  A    between atoms: C2_2  and  C9_9 
ROOT
HETATM    1  C1  UNL     1     -33.807  16.922  -1.836  1.00 20.00    -0.071 C 
HETATM    2  C2  UNL     1     -34.239  16.146  -2.646  1.00 20.00    -0.095 C 
ENDROOT
BRANCH   1   3
HETATM    3  C3  UNL     1     -33.280  17.866  -0.853  1.00 20.00     0.229 A 
HETATM    4  C4  UNL     1     -34.009  18.111   0.425  1.00 20.00     0.160 A 
HETATM    5  C5  UNL     1     -35.273  17.432   0.818  1.00 20.00     0.043 C 
HETATM    6  O10 UNL     1     -34.131  18.997  -0.692  1.00 20.00    -0.363 OA
ENDBRANCH   1   3
BRANCH   2   7
HETATM    7  C9  UNL     1     -34.772  15.190  -3.643  1.00 20.00     0.013 C 
HETATM    8  C6  UNL     1     -36.283  15.017  -3.425  1.00 20.00     0.028 C 
HETATM    9  C7  UNL     1     -34.070  13.836  -3.475  1.00 20.00     0.028 C 
HETATM   10  C8  UNL     1     -34.516  15.730  -5.056  1.00 20.00     0.028 C 
ENDBRANCH   2   7
TORSDOF 2
ENDMDL
MODEL 8
REMARK VINA RESULT:      -3.7      1.227      2.065
REMARK  2 active torsions:
REMARK  status: ('A' for Active; 'I' for Inactive)
REMARK    1  A    between atoms: C1_1  and  C3_3 
REMARK    2  A    between atoms: C2_2  and  C9_9 
ROOT
HETATM    1  C1  UNL     1     -35.717  15.519  -3.064  1.00 20.00    -0.071 C 
HETATM    2  C2  UNL     1     -35.401  16.442  -2.362  1.00 20.00    -0.095 C 
ENDROOT
BRANCH   1   3
HETATM    3  C3  UNL     1     -36.100  14.397  -3.918  1.00 20.00     0.229 A 
HETATM    4  C4  UNL     1     -35.080  13.404  -4.363  1.00 20.00     0.160 A 
HETATM    5  C5  UNL     1     -33.643  13.443  -3.981  1.00 20.00     0.043 C 
HETATM    6  O10 UNL     1     -35.500  14.480  -5.208  1.00 20.00    -0.363 OA
ENDBRANCH   1   3
BRANCH   2   7
HETATM    7  C9  UNL     1     -35.013  17.579  -1.498  1.00 20.00     0.013 C 
HETATM    8  C6  UNL     1     -34.778  17.074  -0.067  1.00 20.00     0.028 C 
HETATM    9  C7  UNL     1     -36.137  18.624  -1.496  1.00 20.00     0.028 C 
HETATM   10  C8  UNL     1     -33.723  18.213  -2.037  1.00 20.00     0.028 C 
ENDBRANCH   2   7
TORSDOF 2
ENDMDL
MODEL 9
REMARK VINA RESULT:      -3.7      2.679      5.059
REMARK  2 active torsions:
REMARK  status: ('A' for Active; 'I' for Inactive)
REMARK    1  A    between atoms: C1_1  and  C3_3 
REMARK    2  A    between atoms: C2_2  and  C9_9 
ROOT
HETATM    1  C1  UNL     1     -33.805  16.970  -1.758  1.00 20.00    -0.071 C 
HETATM    2  C2  UNL     1     -34.236  16.204  -2.578  1.00 20.00    -0.095 C 
ENDROOT
BRANCH   1   3
HETATM    3  C3  UNL     1     -33.283  17.901  -0.760  1.00 20.00     0.229 A 
HETATM    4  C4  UNL     1     -34.025  18.141   0.511  1.00 20.00     0.160 A 
HETATM    5  C5  UNL     1     -35.298  17.468   0.883  1.00 20.00     0.043 C 
HETATM    6  O10 UNL     1     -34.128  19.037  -0.599  1.00 20.00    -0.363 OA
ENDBRANCH   1   3
BRANCH   2   7
HETATM    7  C9  UNL     1     -34.766  15.261  -3.589  1.00 20.00     0.013 C 
HETATM    8  C6  UNL     1     -34.505  15.822  -4.994  1.00 20.00     0.028 C 
HETATM    9  C7  UNL     1     -36.276  15.085  -3.377  1.00 20.00     0.028 C 
HETATM   10  C8  UNL     1     -34.064  13.905  -3.439  1.00 20.00     0.028 C 
ENDBRANCH   2   7
TORSDOF 2
ENDMDL
