MODEL 1
REMARK VINA RESULT:      -5.4      0.000      0.000
REMARK  1 active torsions:
REMARK  status: ('A' for Active; 'I' for Inactive)
REMARK    1  A    between atoms: C2_2  and  C4_4 
ROOT
HETATM    1  C1  UNL     1     -35.237   4.818   5.224  1.00 20.00     0.236 A 
HETATM    2  C2  UNL     1     -33.617   6.086   4.561  1.00 20.00     0.199 A 
HETATM    3  C3  UNL     1     -33.828   6.310   5.906  1.00 20.00     0.245 A 
HETATM    4  N5  UNL     1     -34.501   5.154   4.144  1.00 20.00    -0.233 NA
HETATM    5  N6  UNL     1     -34.841   5.514   6.311  1.00 20.00    -0.212 NA
HETATM    6  F7  UNL     1     -33.155   7.161   6.678  1.00 20.00    -0.182 F 
ENDROOT
BRANCH   2   7
HETATM    7  C4  UNL     1     -32.644   6.684   3.637  1.00 20.00     0.439 C 
HETATM    8  F8  UNL     1     -33.180   7.588   2.750  1.00 20.00    -0.164 F 
HETATM    9  F9  UNL     1     -31.628   7.378   4.250  1.00 20.00    -0.164 F 
HETATM   10  F10 UNL     1     -32.003   5.762   2.845  1.00 20.00    -0.164 F 
ENDBRANCH   2   7
TORSDOF 1
ENDMDL
MODEL 2
REMARK VINA RESULT:      -5.3      1.629      2.119
REMARK  1 active torsions:
REMARK  status: ('A' for Active; 'I' for Inactive)
REMARK    1  A    between atoms: C2_2  and  C4_4 
ROOT
HETATM    1  C1  UNL     1     -34.368   6.119   6.661  1.00 20.00     0.236 A 
HETATM    2  C2  UNL     1     -33.883   5.787   4.581  1.00 20.00     0.199 A 
HETATM    3  C3  UNL     1     -34.748   4.795   4.993  1.00 20.00     0.245 A 
HETATM    4  N5  UNL     1     -33.651   6.608   5.627  1.00 20.00    -0.233 NA
HETATM    5  N6  UNL     1     -35.045   5.009   6.293  1.00 20.00    -0.212 NA
HETATM    6  F7  UNL     1     -35.213   3.795   4.247  1.00 20.00    -0.182 F 
ENDROOT
BRANCH   2   7
HETATM    7  C4  UNL     1     -33.257   6.022   3.273  1.00 20.00     0.439 C 
HETATM    8  F8  UNL     1     -33.226   7.340   2.883  1.00 20.00    -0.164 F 
HETATM    9  F9  UNL     1     -31.946   5.616   3.188  1.00 20.00    -0.164 F 
HETATM   10  F10 UNL     1     -33.887   5.372   2.239  1.00 20.00    -0.164 F 
ENDBRANCH   2   7
TORSDOF 1
ENDMDL
MODEL 3
REMARK VINA RESULT:      -5.1      2.398      3.332
REMARK  1 active torsions:
REMARK  status: ('A' for Active; 'I' for Inactive)
REMARK    1  A    between atoms: C2_2  and  C4_4 
ROOT
HETATM    1  C1  UNL     1     -32.541   6.558   2.951  1.00 20.00     0.236 A 
HETATM    2  C2  UNL     1     -34.036   5.734   4.277  1.00 20.00     0.199 A 
HETATM    3  C3  UNL     1     -33.253   6.616   4.992  1.00 20.00     0.245 A 
HETATM    4  N5  UNL     1     -33.585   5.704   3.004  1.00 20.00    -0.233 NA
HETATM    5  N6  UNL     1     -32.322   7.126   4.157  1.00 20.00    -0.212 NA
HETATM    6  F7  UNL     1     -33.384   6.918   6.283  1.00 20.00    -0.182 F 
ENDROOT
BRANCH   2   7
HETATM    7  C4  UNL     1     -35.180   4.916   4.700  1.00 20.00     0.439 C 
HETATM    8  F8  UNL     1     -35.023   3.566   4.497  1.00 20.00    -0.164 F 
HETATM    9  F9  UNL     1     -35.492   5.021   6.035  1.00 20.00    -0.164 F 
HETATM   10  F10 UNL     1     -36.349   5.229   4.048  1.00 20.00    -0.164 F 
ENDBRANCH   2   7
TORSDOF 1
ENDMDL
MODEL 4
REMARK VINA RESULT:      -4.9      2.349      3.828
REMARK  1 active torsions:
REMARK  status: ('A' for Active; 'I' for Inactive)
REMARK    1  A    between atoms: C2_2  and  C4_4 
ROOT
HETATM    1  C1  UNL     1     -32.118   7.238   3.765  1.00 20.00     0.236 A 
HETATM    2  C2  UNL     1     -33.694   5.912   4.422  1.00 20.00     0.199 A 
HETATM    3  C3  UNL     1     -33.560   5.791   3.055  1.00 20.00     0.245 A 
HETATM    4  N5  UNL     1     -32.790   6.817   4.857  1.00 20.00    -0.233 NA
HETATM    5  N6  UNL     1     -32.575   6.623   2.653  1.00 20.00    -0.212 NA
HETATM    6  F7  UNL     1     -34.275   4.996   2.260  1.00 20.00    -0.182 F 
ENDROOT
BRANCH   2   7
HETATM    7  C4  UNL     1     -34.608   5.238   5.354  1.00 20.00     0.439 C 
HETATM    8  F8  UNL     1     -34.173   4.011   5.794  1.00 20.00    -0.164 F 
HETATM    9  F9  UNL     1     -34.862   5.939   6.510  1.00 20.00    -0.164 F 
HETATM   10  F10 UNL     1     -35.850   4.992   4.820  1.00 20.00    -0.164 F 
ENDBRANCH   2   7
TORSDOF 1
ENDMDL
MODEL 5
REMARK VINA RESULT:      -4.9      2.538      3.654
REMARK  1 active torsions:
REMARK  status: ('A' for Active; 'I' for Inactive)
REMARK    1  A    between atoms: C2_2  and  C4_4 
ROOT
HETATM    1  C1  UNL     1     -32.991   6.212   3.037  1.00 20.00     0.236 A 
HETATM    2  C2  UNL     1     -34.030   5.818   4.891  1.00 20.00     0.199 A 
HETATM    3  C3  UNL     1     -34.804   5.356   3.847  1.00 20.00     0.245 A 
HETATM    4  N5  UNL     1     -32.901   6.351   4.376  1.00 20.00    -0.233 NA
HETATM    5  N6  UNL     1     -34.148   5.606   2.693  1.00 20.00    -0.212 NA
HETATM    6  F7  UNL     1     -35.993   4.765   3.949  1.00 20.00    -0.182 F 
ENDROOT
BRANCH   2   7
HETATM    7  C4  UNL     1     -34.272   5.795   6.339  1.00 20.00     0.439 C 
HETATM    8  F8  UNL     1     -35.554   5.453   6.699  1.00 20.00    -0.164 F 
HETATM    9  F9  UNL     1     -33.481   4.911   7.036  1.00 20.00    -0.164 F 
HETATM   10  F10 UNL     1     -34.055   7.007   6.950  1.00 20.00    -0.164 F 
ENDBRANCH   2   7
TORSDOF 1
ENDMDL
MODEL 6
REMARK VINA RESULT:      -4.8      1.819      3.354
REMARK  1 active torsions:
REMARK  status: ('A' for Active; 'I' for Inactive)
REMARK    1  A    between atoms: C2_2  and  C4_4 
ROOT
HETATM    1  C1  UNL     1     -34.321   5.336   2.646  1.00 20.00     0.236 A 
HETATM    2  C2  UNL     1     -34.160   5.601   4.786  1.00 20.00     0.199 A 
HETATM    3  C3  UNL     1     -33.189   6.367   4.174  1.00 20.00     0.245 A 
HETATM    4  N5  UNL     1     -34.861   4.961   3.825  1.00 20.00    -0.233 NA
HETATM    5  N6  UNL     1     -33.297   6.195   2.839  1.00 20.00    -0.212 NA
HETATM    6  F7  UNL     1     -32.296   7.143   4.785  1.00 20.00    -0.182 F 
ENDROOT
BRANCH   2   7
HETATM    7  C4  UNL     1     -34.479   5.426   6.209  1.00 20.00     0.439 C 
HETATM    8  F8  UNL     1     -33.632   4.580   6.884  1.00 20.00    -0.164 F 
HETATM    9  F9  UNL     1     -34.451   6.587   6.946  1.00 20.00    -0.164 F 
HETATM   10  F10 UNL     1     -35.732   4.907   6.429  1.00 20.00    -0.164 F 
ENDBRANCH   2   7
TORSDOF 1
ENDMDL
MODEL 7
REMARK VINA RESULT:      -4.6     11.488     12.072
REMARK  1 active torsions:
REMARK  status: ('A' for Active; 'I' for Inactive)
REMARK    1  A    between atoms: C2_2  and  C4_4 
ROOT
HETATM    1  C1  UNL     1     -35.217  13.279  -4.395  1.00 20.00     0.236 A 
HETATM    2  C2  UNL     1     -34.447  14.926  -3.224  1.00 20.00     0.199 A 
HETATM    3  C3  UNL     1     -33.383  14.170  -3.672  1.00 20.00     0.245 A 
HETATM    4  N5  UNL     1     -35.587  14.362  -3.680  1.00 20.00    -0.233 NA
HETATM    5  N6  UNL     1     -33.873  13.144  -4.401  1.00 20.00    -0.212 NA
HETATM    6  F7  UNL     1     -32.095  14.404  -3.430  1.00 20.00    -0.182 F 
ENDROOT
BRANCH   2   7
HETATM    7  C4  UNL     1     -34.473  16.141  -2.399  1.00 20.00     0.439 C 
HETATM    8  F8  UNL     1     -34.715  15.919  -1.064  1.00 20.00    -0.164 F 
HETATM    9  F9  UNL     1     -33.303  16.863  -2.412  1.00 20.00    -0.164 F 
HETATM   10  F10 UNL     1     -35.439  17.041  -2.780  1.00 20.00    -0.164 F 
ENDBRANCH   2   7
TORSDOF 1
ENDMDL
MODEL 8
REMARK VINA RESULT:      -4.4     11.970     12.653
REMARK  1 active torsions:
REMARK  status: ('A' for Active; 'I' for Inactive)
REMARK    1  A    between atoms: C2_2  and  C4_4 
ROOT
HETATM    1  C1  UNL     1     -33.469  17.562  -4.433  1.00 20.00     0.236 A 
HETATM    2  C2  UNL     1     -33.717  15.497  -3.843  1.00 20.00     0.199 A 
HETATM    3  C3  UNL     1     -33.985  16.300  -2.754  1.00 20.00     0.245 A 
HETATM    4  N5  UNL     1     -33.396  16.293  -4.886  1.00 20.00    -0.233 NA
HETATM    5  N6  UNL     1     -33.827  17.587  -3.131  1.00 20.00    -0.212 NA
HETATM    6  F7  UNL     1     -34.337  15.886  -1.538  1.00 20.00    -0.182 F 
ENDROOT
BRANCH   2   7
HETATM    7  C4  UNL     1     -33.742  14.035  -3.978  1.00 20.00     0.439 C 
HETATM    8  F8  UNL     1     -34.690  13.406  -3.207  1.00 20.00    -0.164 F 
HETATM    9  F9  UNL     1     -33.994  13.585  -5.253  1.00 20.00    -0.164 F 
HETATM   10  F10 UNL     1     -32.557  13.433  -3.628  1.00 20.00    -0.164 F 
ENDBRANCH   2   7
TORSDOF 1
ENDMDL
MODEL 9
REMARK VINA RESULT:      -4.3     11.988     12.670
REMARK  1 active torsions:
REMARK  status: ('A' for Active; 'I' for Inactive)
REMARK    1  A    between atoms: C2_2  and  C4_4 
ROOT
HETATM    1  C1  UNL     1     -33.520  17.599  -4.418  1.00 20.00     0.236 A 
HETATM    2  C2  UNL     1     -33.736  15.529  -3.836  1.00 20.00     0.199 A 
HETATM    3  C3  UNL     1     -34.006  16.323  -2.741  1.00 20.00     0.245 A 
HETATM    4  N5  UNL     1     -33.434  16.333  -4.878  1.00 20.00    -0.233 NA
HETATM    5  N6  UNL     1     -33.869  17.614  -3.114  1.00 20.00    -0.212 NA
HETATM    6  F7  UNL     1     -34.344  15.899  -1.525  1.00 20.00    -0.182 F 
ENDROOT
BRANCH   2   7
HETATM    7  C4  UNL     1     -33.742  14.067  -3.978  1.00 20.00     0.439 C 
HETATM    8  F8  UNL     1     -32.563  13.454  -3.626  1.00 20.00    -0.164 F 
HETATM    9  F9  UNL     1     -34.693  13.425  -3.220  1.00 20.00    -0.164 F 
HETATM   10  F10 UNL     1     -33.981  13.641  -5.263  1.00 20.00    -0.164 F 
ENDBRANCH   2   7
TORSDOF 1
ENDMDL
