MODEL 1
REMARK VINA RESULT:      -5.1      0.000      0.000
REMARK  0 active torsions:
REMARK  status: ('A' for Active; 'I' for Inactive)
ROOT
HETATM    1  C1  UNL     1     -34.048   5.077   2.722  1.00 20.00     0.014 A 
HETATM    2  C2  UNL     1     -33.239   5.997   2.052  1.00 20.00     0.024 A 
HETATM    3  C3  UNL     1     -35.093   4.302   4.799  1.00 20.00     0.031 A 
HETATM    4  C4  UNL     1     -32.887   7.199   4.115  1.00 20.00     0.039 A 
HETATM    5  C5  UNL     1     -35.281   4.499   6.160  1.00 20.00     0.119 A 
HETATM    6  C6  UNL     1     -34.287   5.207   4.099  1.00 20.00    -0.021 A 
HETATM    7  C7  UNL     1     -33.698   6.281   4.800  1.00 20.00     0.016 A 
HETATM    8  C8  UNL     1     -32.660   7.056   2.746  1.00 20.00     0.035 A 
HETATM    9  C9  UNL     1     -33.959   6.377   6.168  1.00 20.00     0.136 A 
HETATM   10  N10 UNL     1     -34.734   5.514   6.863  1.00 20.00    -0.248 NA
HETATM   11 CL11 UNL     1     -31.663   8.186   1.914  1.00 20.00    -0.084 Cl
HETATM   12 CL12 UNL     1     -33.324   7.623   7.182  1.00 20.00    -0.061 Cl
ENDROOT
TORSDOF 0
ENDMDL
MODEL 2
REMARK VINA RESULT:      -4.8     12.309     13.772
REMARK  0 active torsions:
REMARK  status: ('A' for Active; 'I' for Inactive)
ROOT
HETATM    1  C1  UNL     1     -33.795  18.107  -3.842  1.00 20.00     0.014 A 
HETATM    2  C2  UNL     1     -33.999  18.065  -2.462  1.00 20.00     0.024 A 
HETATM    3  C3  UNL     1     -33.824  16.978  -6.017  1.00 20.00     0.031 A 
HETATM    4  C4  UNL     1     -34.653  15.747  -2.622  1.00 20.00     0.039 A 
HETATM    5  C5  UNL     1     -34.066  15.811  -6.728  1.00 20.00     0.119 A 
HETATM    6  C6  UNL     1     -34.018  16.968  -4.632  1.00 20.00    -0.021 A 
HETATM    7  C7  UNL     1     -34.451  15.777  -4.011  1.00 20.00     0.016 A 
HETATM    8  C8  UNL     1     -34.427  16.888  -1.852  1.00 20.00     0.035 A 
HETATM    9  C9  UNL     1     -34.663  14.665  -4.829  1.00 20.00     0.136 A 
HETATM   10  N10 UNL     1     -34.481  14.654  -6.168  1.00 20.00    -0.248 NA
HETATM   11 CL11 UNL     1     -34.676  16.843  -0.150  1.00 20.00    -0.084 Cl
HETATM   12 CL12 UNL     1     -35.192  13.128  -4.244  1.00 20.00    -0.061 Cl
ENDROOT
TORSDOF 0
ENDMDL
MODEL 3
REMARK VINA RESULT:      -4.8     12.666     13.634
REMARK  0 active torsions:
REMARK  status: ('A' for Active; 'I' for Inactive)
ROOT
HETATM    1  C1  UNL     1     -34.839  14.423  -3.647  1.00 20.00     0.014 A 
HETATM    2  C2  UNL     1     -34.899  14.127  -5.009  1.00 20.00     0.024 A 
HETATM    3  C3  UNL     1     -34.382  16.030  -1.852  1.00 20.00     0.031 A 
HETATM    4  C4  UNL     1     -34.190  16.373  -5.537  1.00 20.00     0.039 A 
HETATM    5  C5  UNL     1     -33.992  17.314  -1.502  1.00 20.00     0.119 A 
HETATM    6  C6  UNL     1     -34.452  15.701  -3.210  1.00 20.00    -0.021 A 
HETATM    7  C7  UNL     1     -34.125  16.683  -4.169  1.00 20.00     0.016 A 
HETATM    8  C8  UNL     1     -34.576  15.099  -5.953  1.00 20.00     0.035 A 
HETATM    9  C9  UNL     1     -33.746  17.942  -3.697  1.00 20.00     0.136 A 
HETATM   10  N10 UNL     1     -33.672  18.280  -2.391  1.00 20.00    -0.248 NA
HETATM   11 CL11 UNL     1     -34.653  14.726  -7.632  1.00 20.00    -0.084 Cl
HETATM   12 CL12 UNL     1     -33.313  19.262  -4.723  1.00 20.00    -0.061 Cl
ENDROOT
TORSDOF 0
ENDMDL
MODEL 4
REMARK VINA RESULT:      -4.6     12.543     13.663
REMARK  0 active torsions:
REMARK  status: ('A' for Active; 'I' for Inactive)
ROOT
HETATM    1  C1  UNL     1     -33.261  15.723  -4.418  1.00 20.00     0.014 A 
HETATM    2  C2  UNL     1     -33.370  16.034  -3.061  1.00 20.00     0.024 A 
HETATM    3  C3  UNL     1     -34.331  15.121  -6.540  1.00 20.00     0.031 A 
HETATM    4  C4  UNL     1     -35.767  15.780  -3.189  1.00 20.00     0.039 A 
HETATM    5  C5  UNL     1     -35.507  14.850  -7.223  1.00 20.00     0.119 A 
HETATM    6  C6  UNL     1     -34.406  15.436  -5.179  1.00 20.00    -0.021 A 
HETATM    7  C7  UNL     1     -35.671  15.466  -4.554  1.00 20.00     0.016 A 
HETATM    8  C8  UNL     1     -34.620  16.063  -2.447  1.00 20.00     0.035 A 
HETATM    9  C9  UNL     1     -36.786  15.176  -5.343  1.00 20.00     0.136 A 
HETATM   10  N10 UNL     1     -36.734  14.869  -6.658  1.00 20.00    -0.248 NA
HETATM   11 CL11 UNL     1     -34.747  16.447  -0.774  1.00 20.00    -0.084 Cl
HETATM   12 CL12 UNL     1     -38.407  15.165  -4.748  1.00 20.00    -0.061 Cl
ENDROOT
TORSDOF 0
ENDMDL
MODEL 5
REMARK VINA RESULT:      -4.6     11.916     12.861
REMARK  0 active torsions:
REMARK  status: ('A' for Active; 'I' for Inactive)
ROOT
HETATM    1  C1  UNL     1     -33.657  16.340  -2.374  1.00 20.00     0.014 A 
HETATM    2  C2  UNL     1     -34.200  17.512  -1.844  1.00 20.00     0.024 A 
HETATM    3  C3  UNL     1     -33.964  14.219  -3.564  1.00 20.00     0.031 A 
HETATM    4  C4  UNL     1     -36.395  16.842  -2.592  1.00 20.00     0.039 A 
HETATM    5  C5  UNL     1     -34.840  13.343  -4.188  1.00 20.00     0.119 A 
HETATM    6  C6  UNL     1     -34.477  15.403  -3.022  1.00 20.00    -0.021 A 
HETATM    7  C7  UNL     1     -35.860  15.660  -3.129  1.00 20.00     0.016 A 
HETATM    8  C8  UNL     1     -35.565  17.763  -1.952  1.00 20.00     0.035 A 
HETATM    9  C9  UNL     1     -36.644  14.705  -3.780  1.00 20.00     0.136 A 
HETATM   10  N10 UNL     1     -36.168  13.556  -4.310  1.00 20.00    -0.248 NA
HETATM   11 CL11 UNL     1     -36.228  19.210  -1.296  1.00 20.00    -0.084 Cl
HETATM   12 CL12 UNL     1     -38.350  14.852  -4.004  1.00 20.00    -0.061 Cl
ENDROOT
TORSDOF 0
ENDMDL
MODEL 6
REMARK VINA RESULT:      -4.6     12.349     13.592
REMARK  0 active torsions:
REMARK  status: ('A' for Active; 'I' for Inactive)
ROOT
HETATM    1  C1  UNL     1     -34.477  15.437  -2.262  1.00 20.00     0.014 A 
HETATM    2  C2  UNL     1     -34.074  16.737  -1.954  1.00 20.00     0.024 A 
HETATM    3  C3  UNL     1     -35.039  13.740  -3.939  1.00 20.00     0.031 A 
HETATM    4  C4  UNL     1     -33.980  17.271  -4.307  1.00 20.00     0.039 A 
HETATM    5  C5  UNL     1     -35.174  13.421  -5.282  1.00 20.00     0.119 A 
HETATM    6  C6  UNL     1     -34.637  15.036  -3.598  1.00 20.00    -0.021 A 
HETATM    7  C7  UNL     1     -34.385  15.966  -4.628  1.00 20.00     0.016 A 
HETATM    8  C8  UNL     1     -33.826  17.653  -2.974  1.00 20.00     0.035 A 
HETATM    9  C9  UNL     1     -34.554  15.531  -5.944  1.00 20.00     0.136 A 
HETATM   10  N10 UNL     1     -34.942  14.284  -6.295  1.00 20.00    -0.248 NA
HETATM   11 CL11 UNL     1     -33.330  19.256  -2.588  1.00 20.00    -0.084 Cl
HETATM   12 CL12 UNL     1     -34.292  16.530  -7.329  1.00 20.00    -0.061 Cl
ENDROOT
TORSDOF 0
ENDMDL
MODEL 7
REMARK VINA RESULT:      -4.6     12.264     13.774
REMARK  0 active torsions:
REMARK  status: ('A' for Active; 'I' for Inactive)
ROOT
HETATM    1  C1  UNL     1     -34.661  15.376  -7.179  1.00 20.00     0.014 A 
HETATM    2  C2  UNL     1     -34.406  16.706  -7.516  1.00 20.00     0.024 A 
HETATM    3  C3  UNL     1     -34.817  13.622  -5.474  1.00 20.00     0.031 A 
HETATM    4  C4  UNL     1     -33.955  17.215  -5.200  1.00 20.00     0.039 A 
HETATM    5  C5  UNL     1     -34.703  13.276  -4.135  1.00 20.00     0.119 A 
HETATM    6  C6  UNL     1     -34.567  14.947  -5.845  1.00 20.00    -0.021 A 
HETATM    7  C7  UNL     1     -34.210  15.880  -4.848  1.00 20.00     0.016 A 
HETATM    8  C8  UNL     1     -34.054  17.624  -6.530  1.00 20.00     0.035 A 
HETATM    9  C9  UNL     1     -34.126  15.417  -3.533  1.00 20.00     0.136 A 
HETATM   10  N10 UNL     1     -34.363  14.141  -3.154  1.00 20.00    -0.248 NA
HETATM   11 CL11 UNL     1     -33.740  19.263  -6.954  1.00 20.00    -0.084 Cl
HETATM   12 CL12 UNL     1     -33.704  16.414  -2.188  1.00 20.00    -0.061 Cl
ENDROOT
TORSDOF 0
ENDMDL
MODEL 8
REMARK VINA RESULT:      -4.6     11.743     12.728
REMARK  0 active torsions:
REMARK  status: ('A' for Active; 'I' for Inactive)
ROOT
HETATM    1  C1  UNL     1     -36.352  17.409  -2.292  1.00 20.00     0.014 A 
HETATM    2  C2  UNL     1     -35.352  18.068  -1.575  1.00 20.00     0.024 A 
HETATM    3  C3  UNL     1     -37.060  15.513  -3.674  1.00 20.00     0.031 A 
HETATM    4  C4  UNL     1     -33.783  16.326  -2.148  1.00 20.00     0.039 A 
HETATM    5  C5  UNL     1     -36.713  14.321  -4.294  1.00 20.00     0.119 A 
HETATM    6  C6  UNL     1     -36.080  16.198  -2.947  1.00 20.00    -0.021 A 
HETATM    7  C7  UNL     1     -34.780  15.654  -2.873  1.00 20.00     0.016 A 
HETATM    8  C8  UNL     1     -34.070  17.529  -1.502  1.00 20.00     0.035 A 
HETATM    9  C9  UNL     1     -34.548  14.448  -3.537  1.00 20.00     0.136 A 
HETATM   10  N10 UNL     1     -35.480  13.771  -4.244  1.00 20.00    -0.248 NA
HETATM   11 CL11 UNL     1     -32.842  18.347  -0.616  1.00 20.00    -0.084 Cl
HETATM   12 CL12 UNL     1     -33.022  13.638  -3.554  1.00 20.00    -0.061 Cl
ENDROOT
TORSDOF 0
ENDMDL
MODEL 9
REMARK VINA RESULT:      -4.5     12.447     12.911
REMARK  0 active torsions:
REMARK  status: ('A' for Active; 'I' for Inactive)
ROOT
HETATM    1  C1  UNL     1     -31.478  19.081   1.622  1.00 20.00     0.014 A 
HETATM    2  C2  UNL     1     -31.922  18.901   0.311  1.00 20.00     0.024 A 
HETATM    3  C3  UNL     1     -31.932  19.047   4.030  1.00 20.00     0.031 A 
HETATM    4  C4  UNL     1     -34.114  18.305   1.129  1.00 20.00     0.039 A 
HETATM    5  C5  UNL     1     -32.851  18.824   5.046  1.00 20.00     0.119 A 
HETATM    6  C6  UNL     1     -32.347  18.875   2.705  1.00 20.00    -0.021 A 
HETATM    7  C7  UNL     1     -33.678  18.483   2.452  1.00 20.00     0.016 A 
HETATM    8  C8  UNL     1     -33.237  18.513   0.064  1.00 20.00     0.035 A 
HETATM    9  C9  UNL     1     -34.513  18.287   3.554  1.00 20.00     0.136 A 
HETATM   10  N10 UNL     1     -34.132  18.448   4.841  1.00 20.00    -0.248 NA
HETATM   11 CL11 UNL     1     -33.779  18.293  -1.555  1.00 20.00    -0.084 Cl
HETATM   12 CL12 UNL     1     -36.168  17.808   3.433  1.00 20.00    -0.061 Cl
ENDROOT
TORSDOF 0
ENDMDL
