MODEL 1
REMARK VINA RESULT:      -4.3      0.000      0.000
REMARK  2 active torsions:
REMARK  status: ('A' for Active; 'I' for Inactive)
REMARK    1  A    between atoms: C1_1  and  C6_6 
REMARK    2  A    between atoms: C1_1  and  O9_9 
ROOT
HETATM    1  C2  UNL     1     -35.600   4.919   4.868  1.00 20.00     0.024 C 
HETATM    2  C3  UNL     1     -33.784   4.144   5.643  1.00 20.00     0.024 C 
HETATM    3  C4  UNL     1     -34.388   6.116   6.132  1.00 20.00     0.024 C 
HETATM    4  C5  UNL     1     -35.071   4.719   6.331  1.00 20.00    -0.011 C 
HETATM    5  C6  UNL     1     -34.117   5.396   4.775  1.00 20.00     0.049 C 
ENDROOT
BRANCH   5   6
HETATM    6  C1  UNL     1     -33.391   5.911   3.587  1.00 20.00     0.267 C 
HETATM    7  O8  UNL     1     -33.617   5.555   2.438  1.00 20.00    -0.264 OA
BRANCH   6   8
HETATM    8  O9  UNL     1     -32.456   6.821   3.983  1.00 20.00    -0.326 OA
HETATM    9  C7  UNL     1     -31.872   7.599   2.933  1.00 20.00     0.213 C 
ENDBRANCH   6   8
ENDBRANCH   5   6
TORSDOF 2
ENDMDL
MODEL 2
REMARK VINA RESULT:      -3.9     11.947     12.781
REMARK  2 active torsions:
REMARK  status: ('A' for Active; 'I' for Inactive)
REMARK    1  A    between atoms: C1_1  and  C6_6 
REMARK    2  A    between atoms: C1_1  and  O9_9 
ROOT
HETATM    1  C2  UNL     1     -34.203  16.027  -4.644  1.00 20.00     0.024 C 
HETATM    2  C3  UNL     1     -34.553  15.667  -2.584  1.00 20.00     0.024 C 
HETATM    3  C4  UNL     1     -32.950  14.693  -3.573  1.00 20.00     0.024 C 
HETATM    4  C5  UNL     1     -33.307  16.206  -3.369  1.00 20.00    -0.011 C 
HETATM    5  C6  UNL     1     -34.488  14.728  -3.828  1.00 20.00     0.049 C 
ENDROOT
BRANCH   5   6
HETATM    6  C1  UNL     1     -35.391  13.604  -4.179  1.00 20.00     0.267 C 
HETATM    7  O8  UNL     1     -35.028  12.587  -4.757  1.00 20.00    -0.264 OA
BRANCH   6   8
HETATM    8  O9  UNL     1     -36.657  13.887  -3.759  1.00 20.00    -0.326 OA
HETATM    9  C7  UNL     1     -37.425  14.714  -4.639  1.00 20.00     0.213 C 
ENDBRANCH   6   8
ENDBRANCH   5   6
TORSDOF 2
ENDMDL
MODEL 3
REMARK VINA RESULT:      -3.9     12.160     13.102
REMARK  2 active torsions:
REMARK  status: ('A' for Active; 'I' for Inactive)
REMARK    1  A    between atoms: C1_1  and  C6_6 
REMARK    2  A    between atoms: C1_1  and  O9_9 
ROOT
HETATM    1  C2  UNL     1     -34.721  15.385  -2.789  1.00 20.00     0.024 C 
HETATM    2  C3  UNL     1     -32.848  14.724  -3.534  1.00 20.00     0.024 C 
HETATM    3  C4  UNL     1     -33.894  16.279  -4.525  1.00 20.00     0.024 C 
HETATM    4  C5  UNL     1     -33.365  16.126  -3.057  1.00 20.00    -0.011 C 
HETATM    5  C6  UNL     1     -34.271  14.809  -4.168  1.00 20.00     0.049 C 
ENDROOT
BRANCH   5   6
HETATM    6  C1  UNL     1     -34.963  13.803  -5.012  1.00 20.00     0.267 C 
HETATM    7  O8  UNL     1     -34.818  12.593  -4.895  1.00 20.00    -0.264 OA
BRANCH   6   8
HETATM    8  O9  UNL     1     -35.764  14.438  -5.914  1.00 20.00    -0.326 OA
HETATM    9  C7  UNL     1     -35.367  14.315  -7.283  1.00 20.00     0.213 C 
ENDBRANCH   6   8
ENDBRANCH   5   6
TORSDOF 2
ENDMDL
MODEL 4
REMARK VINA RESULT:      -3.8     12.132     13.389
REMARK  2 active torsions:
REMARK  status: ('A' for Active; 'I' for Inactive)
REMARK    1  A    between atoms: C1_1  and  C6_6 
REMARK    2  A    between atoms: C1_1  and  O9_9 
ROOT
HETATM    1  C2  UNL     1     -33.584  13.613  -3.839  1.00 20.00     0.024 C 
HETATM    2  C3  UNL     1     -35.533  14.444  -3.736  1.00 20.00     0.024 C 
HETATM    3  C4  UNL     1     -34.510  14.366  -5.592  1.00 20.00     0.024 C 
HETATM    4  C5  UNL     1     -34.928  13.258  -4.565  1.00 20.00    -0.011 C 
HETATM    5  C6  UNL     1     -34.161  15.012  -4.217  1.00 20.00     0.049 C 
ENDROOT
BRANCH   5   6
HETATM    6  C1  UNL     1     -33.576  16.349  -3.948  1.00 20.00     0.267 C 
HETATM    7  O8  UNL     1     -33.620  16.912  -2.862  1.00 20.00    -0.264 OA
BRANCH   6   8
HETATM    8  O9  UNL     1     -32.997  16.830  -5.085  1.00 20.00    -0.326 OA
HETATM    9  C7  UNL     1     -33.605  18.002  -5.637  1.00 20.00     0.213 C 
ENDBRANCH   6   8
ENDBRANCH   5   6
TORSDOF 2
ENDMDL
MODEL 5
REMARK VINA RESULT:      -3.8     12.227     13.112
REMARK  2 active torsions:
REMARK  status: ('A' for Active; 'I' for Inactive)
REMARK    1  A    between atoms: C1_1  and  C6_6 
REMARK    2  A    between atoms: C1_1  and  O9_9 
ROOT
HETATM    1  C2  UNL     1     -35.684  14.460  -3.839  1.00 20.00     0.024 C 
HETATM    2  C3  UNL     1     -34.594  14.224  -5.643  1.00 20.00     0.024 C 
HETATM    3  C4  UNL     1     -33.700  13.712  -3.790  1.00 20.00     0.024 C 
HETATM    4  C5  UNL     1     -35.002  13.218  -4.511  1.00 20.00    -0.011 C 
HETATM    5  C6  UNL     1     -34.321  15.033  -4.337  1.00 20.00     0.049 C 
ENDROOT
BRANCH   5   6
HETATM    6  C1  UNL     1     -33.805  16.418  -4.205  1.00 20.00     0.267 C 
HETATM    7  O8  UNL     1     -32.949  16.904  -4.933  1.00 20.00    -0.264 OA
BRANCH   6   8
HETATM    8  O9  UNL     1     -34.430  17.040  -3.165  1.00 20.00    -0.326 OA
HETATM    9  C7  UNL     1     -33.768  16.936  -1.900  1.00 20.00     0.213 C 
ENDBRANCH   6   8
ENDBRANCH   5   6
TORSDOF 2
ENDMDL
MODEL 6
REMARK VINA RESULT:      -3.7     12.112     13.972
REMARK  2 active torsions:
REMARK  status: ('A' for Active; 'I' for Inactive)
REMARK    1  A    between atoms: C1_1  and  C6_6 
REMARK    2  A    between atoms: C1_1  and  O9_9 
ROOT
HETATM    1  C2  UNL     1     -36.142  15.637  -6.049  1.00 20.00     0.024 C 
HETATM    2  C3  UNL     1     -34.133  15.854  -6.693  1.00 20.00     0.024 C 
HETATM    3  C4  UNL     1     -35.340  14.305  -7.491  1.00 20.00     0.024 C 
HETATM    4  C5  UNL     1     -35.500  15.864  -7.461  1.00 20.00    -0.011 C 
HETATM    5  C6  UNL     1     -34.915  14.674  -6.037  1.00 20.00     0.049 C 
ENDROOT
BRANCH   5   6
HETATM    6  C1  UNL     1     -34.469  13.769  -4.948  1.00 20.00     0.267 C 
HETATM    7  O8  UNL     1     -34.835  12.607  -4.829  1.00 20.00    -0.264 OA
BRANCH   6   8
HETATM    8  O9  UNL     1     -33.607  14.434  -4.127  1.00 20.00    -0.326 OA
HETATM    9  C7  UNL     1     -34.207  15.080  -2.999  1.00 20.00     0.213 C 
ENDBRANCH   6   8
ENDBRANCH   5   6
TORSDOF 2
ENDMDL
MODEL 7
REMARK VINA RESULT:      -3.7      9.728     10.744
REMARK  2 active torsions:
REMARK  status: ('A' for Active; 'I' for Inactive)
REMARK    1  A    between atoms: C1_1  and  C6_6 
REMARK    2  A    between atoms: C1_1  and  O9_9 
ROOT
HETATM    1  C2  UNL     1     -42.510   5.743  -0.110  1.00 20.00     0.024 C 
HETATM    2  C3  UNL     1     -40.960   4.853  -1.252  1.00 20.00     0.024 C 
HETATM    3  C4  UNL     1     -41.021   6.957  -1.007  1.00 20.00     0.024 C 
HETATM    4  C5  UNL     1     -40.947   5.773   0.017  1.00 20.00    -0.011 C 
HETATM    5  C6  UNL     1     -42.039   5.929  -1.586  1.00 20.00     0.049 C 
ENDROOT
BRANCH   5   6
HETATM    6  C1  UNL     1     -42.874   6.045  -2.808  1.00 20.00     0.267 C 
HETATM    7  O8  UNL     1     -43.175   5.100  -3.525  1.00 20.00    -0.264 OA
BRANCH   6   8
HETATM    8  O9  UNL     1     -43.238   7.346  -2.988  1.00 20.00    -0.326 OA
HETATM    9  C7  UNL     1     -42.722   7.972  -4.168  1.00 20.00     0.213 C 
ENDBRANCH   6   8
ENDBRANCH   5   6
TORSDOF 2
ENDMDL
MODEL 8
REMARK VINA RESULT:      -3.6     11.909     13.115
REMARK  2 active torsions:
REMARK  status: ('A' for Active; 'I' for Inactive)
REMARK    1  A    between atoms: C1_1  and  C6_6 
REMARK    2  A    between atoms: C1_1  and  O9_9 
ROOT
HETATM    1  C2  UNL     1     -34.555  13.557  -3.818  1.00 20.00     0.024 C 
HETATM    2  C3  UNL     1     -34.309  15.381  -4.871  1.00 20.00     0.024 C 
HETATM    3  C4  UNL     1     -34.438  15.388  -2.755  1.00 20.00     0.024 C 
HETATM    4  C5  UNL     1     -33.461  14.679  -3.755  1.00 20.00    -0.011 C 
HETATM    5  C6  UNL     1     -35.394  14.871  -3.872  1.00 20.00     0.049 C 
ENDROOT
BRANCH   5   6
HETATM    6  C1  UNL     1     -36.868  15.016  -3.965  1.00 20.00     0.267 C 
HETATM    7  O8  UNL     1     -37.662  14.116  -3.722  1.00 20.00    -0.264 OA
BRANCH   6   8
HETATM    8  O9  UNL     1     -37.178  16.285  -4.354  1.00 20.00    -0.326 OA
HETATM    9  C7  UNL     1     -37.725  17.126  -3.332  1.00 20.00     0.213 C 
ENDBRANCH   6   8
ENDBRANCH   5   6
TORSDOF 2
ENDMDL
MODEL 9
REMARK VINA RESULT:      -3.6     11.778     12.674
REMARK  2 active torsions:
REMARK  status: ('A' for Active; 'I' for Inactive)
REMARK    1  A    between atoms: C1_1  and  C6_6 
REMARK    2  A    between atoms: C1_1  and  O9_9 
ROOT
HETATM    1  C2  UNL     1     -34.360  15.132  -5.090  1.00 20.00     0.024 C 
HETATM    2  C3  UNL     1     -33.800  13.827  -3.514  1.00 20.00     0.024 C 
HETATM    3  C4  UNL     1     -35.785  13.802  -4.256  1.00 20.00     0.024 C 
HETATM    4  C5  UNL     1     -34.395  13.571  -4.942  1.00 20.00    -0.011 C 
HETATM    5  C6  UNL     1     -34.899  14.927  -3.640  1.00 20.00     0.049 C 
ENDROOT
BRANCH   5   6
HETATM    6  C1  UNL     1     -35.281  15.963  -2.648  1.00 20.00     0.267 C 
HETATM    7  O8  UNL     1     -36.287  16.655  -2.731  1.00 20.00    -0.264 OA
BRANCH   6   8
HETATM    8  O9  UNL     1     -34.346  16.010  -1.656  1.00 20.00    -0.326 OA
HETATM    9  C7  UNL     1     -34.667  16.858  -0.549  1.00 20.00     0.213 C 
ENDBRANCH   6   8
ENDBRANCH   5   6
TORSDOF 2
ENDMDL
