MODEL 1
REMARK VINA RESULT:      -4.6      0.000      0.000
REMARK  0 active torsions:
REMARK  status: ('A' for Active; 'I' for Inactive)
ROOT
HETATM    1  C1  UNL     1     -35.052  14.564  -5.661  1.00 20.00     0.045 C 
HETATM    2  C2  UNL     1     -34.695  15.858  -5.779  1.00 20.00     0.011 C 
HETATM    3  C3  UNL     1     -35.113  13.886  -4.342  1.00 20.00     0.028 C 
HETATM    4  C4  UNL     1     -34.306  16.667  -4.545  1.00 20.00     0.059 C 
HETATM    5  C5  UNL     1     -34.840  14.687  -3.089  1.00 20.00     0.067 C 
HETATM    6  C6  UNL     1     -33.834  15.819  -3.339  1.00 20.00    -0.038 C 
HETATM    7  C7  UNL     1     -32.425  15.245  -3.592  1.00 20.00     0.015 C 
HETATM    8  C8  UNL     1     -33.765  16.716  -2.088  1.00 20.00     0.015 C 
HETATM    9  N9  UNL     1     -35.428  12.636  -4.219  1.00 20.00    -0.305 NA
HETATM   10  S10 UNL     1     -34.628  16.762  -7.280  1.00 20.00    -0.085 SA
HETATM   11  H22 UNL     1     -35.405  12.384  -3.227  1.00 20.00     0.186 HD
ENDROOT
TORSDOF 0
ENDMDL
MODEL 2
REMARK VINA RESULT:      -4.5      1.894      3.211
REMARK  0 active torsions:
REMARK  status: ('A' for Active; 'I' for Inactive)
ROOT
HETATM    1  C1  UNL     1     -34.621  14.704  -3.131  1.00 20.00     0.045 C 
HETATM    2  C2  UNL     1     -34.233  15.988  -3.263  1.00 20.00     0.011 C 
HETATM    3  C3  UNL     1     -34.874  13.838  -4.309  1.00 20.00     0.028 C 
HETATM    4  C4  UNL     1     -34.071  16.607  -4.647  1.00 20.00     0.059 C 
HETATM    5  C5  UNL     1     -34.618  14.387  -5.695  1.00 20.00     0.067 C 
HETATM    6  C6  UNL     1     -34.869  15.900  -5.769  1.00 20.00    -0.038 C 
HETATM    7  C7  UNL     1     -36.377  16.205  -5.643  1.00 20.00     0.015 C 
HETATM    8  C8  UNL     1     -34.390  16.422  -7.136  1.00 20.00     0.015 C 
HETATM    9  N9  UNL     1     -35.274  12.612  -4.195  1.00 20.00    -0.305 NA
HETATM   10  S10 UNL     1     -33.872  17.082  -1.941  1.00 20.00    -0.085 SA
HETATM   11  H22 UNL     1     -35.384  12.210  -5.131  1.00 20.00     0.186 HD
ENDROOT
TORSDOF 0
ENDMDL
MODEL 3
REMARK VINA RESULT:      -4.5      2.133      2.704
REMARK  0 active torsions:
REMARK  status: ('A' for Active; 'I' for Inactive)
ROOT
HETATM    1  C1  UNL     1     -35.206  13.929  -3.894  1.00 20.00     0.045 C 
HETATM    2  C2  UNL     1     -36.054  14.956  -4.097  1.00 20.00     0.011 C 
HETATM    3  C3  UNL     1     -33.733  14.107  -3.950  1.00 20.00     0.028 C 
HETATM    4  C4  UNL     1     -35.519  16.346  -4.426  1.00 20.00     0.059 C 
HETATM    5  C5  UNL     1     -33.167  15.492  -4.165  1.00 20.00     0.067 C 
HETATM    6  C6  UNL     1     -34.093  16.363  -5.027  1.00 20.00    -0.038 C 
HETATM    7  C7  UNL     1     -34.107  15.859  -6.485  1.00 20.00     0.015 C 
HETATM    8  C8  UNL     1     -33.563  17.810  -5.029  1.00 20.00     0.015 C 
HETATM    9  N9  UNL     1     -32.909  13.122  -3.784  1.00 20.00    -0.305 NA
HETATM   10  S10 UNL     1     -37.803  14.862  -4.015  1.00 20.00    -0.085 SA
HETATM   11  H22 UNL     1     -31.951  13.474  -3.865  1.00 20.00     0.186 HD
ENDROOT
TORSDOF 0
ENDMDL
MODEL 4
REMARK VINA RESULT:      -4.3      2.999      3.946
REMARK  0 active torsions:
REMARK  status: ('A' for Active; 'I' for Inactive)
ROOT
HETATM    1  C1  UNL     1     -33.855  17.653  -3.112  1.00 20.00     0.045 C 
HETATM    2  C2  UNL     1     -34.344  16.792  -2.197  1.00 20.00     0.011 C 
HETATM    3  C3  UNL     1     -33.677  17.266  -4.534  1.00 20.00     0.028 C 
HETATM    4  C4  UNL     1     -34.704  15.364  -2.595  1.00 20.00     0.059 C 
HETATM    5  C5  UNL     1     -34.126  15.894  -4.986  1.00 20.00     0.067 C 
HETATM    6  C6  UNL     1     -33.990  14.849  -3.868  1.00 20.00    -0.038 C 
HETATM    7  C7  UNL     1     -32.503  14.555  -3.581  1.00 20.00     0.015 C 
HETATM    8  C8  UNL     1     -34.656  13.537  -4.324  1.00 20.00     0.015 C 
HETATM    9  N9  UNL     1     -33.183  18.074  -5.417  1.00 20.00    -0.305 NA
HETATM   10  S10 UNL     1     -34.629  17.160  -0.507  1.00 20.00    -0.085 SA
HETATM   11  H22 UNL     1     -33.152  17.598  -6.322  1.00 20.00     0.186 HD
ENDROOT
TORSDOF 0
ENDMDL
MODEL 5
REMARK VINA RESULT:      -4.3      2.659      3.364
REMARK  0 active torsions:
REMARK  status: ('A' for Active; 'I' for Inactive)
ROOT
HETATM    1  C1  UNL     1     -33.933  16.013  -5.133  1.00 20.00     0.045 C 
HETATM    2  C2  UNL     1     -34.313  14.969  -4.369  1.00 20.00     0.011 C 
HETATM    3  C3  UNL     1     -33.643  17.346  -4.549  1.00 20.00     0.028 C 
HETATM    4  C4  UNL     1     -34.489  15.139  -2.864  1.00 20.00     0.059 C 
HETATM    5  C5  UNL     1     -33.702  17.521  -3.049  1.00 20.00     0.067 C 
HETATM    6  C6  UNL     1     -34.742  16.595  -2.403  1.00 20.00    -0.038 C 
HETATM    7  C7  UNL     1     -36.171  17.045  -2.773  1.00 20.00     0.015 C 
HETATM    8  C8  UNL     1     -34.601  16.671  -0.871  1.00 20.00     0.015 C 
HETATM    9  N9  UNL     1     -33.305  18.363  -5.276  1.00 20.00    -0.305 NA
HETATM   10  S10 UNL     1     -34.640  13.348  -4.952  1.00 20.00    -0.085 SA
HETATM   11  H22 UNL     1     -33.157  19.172  -4.667  1.00 20.00     0.186 HD
ENDROOT
TORSDOF 0
ENDMDL
MODEL 6
REMARK VINA RESULT:      -4.3      1.786      2.179
REMARK  0 active torsions:
REMARK  status: ('A' for Active; 'I' for Inactive)
ROOT
HETATM    1  C1  UNL     1     -36.892  14.916  -5.325  1.00 20.00     0.045 C 
HETATM    2  C2  UNL     1     -35.838  14.961  -6.164  1.00 20.00     0.011 C 
HETATM    3  C3  UNL     1     -36.732  15.079  -3.858  1.00 20.00     0.028 C 
HETATM    4  C4  UNL     1     -34.426  15.152  -5.620  1.00 20.00     0.059 C 
HETATM    5  C5  UNL     1     -35.361  15.380  -3.296  1.00 20.00     0.067 C 
HETATM    6  C6  UNL     1     -34.244  14.747  -4.138  1.00 20.00    -0.038 C 
HETATM    7  C7  UNL     1     -34.256  13.211  -3.985  1.00 20.00     0.015 C 
HETATM    8  C8  UNL     1     -32.882  15.264  -3.636  1.00 20.00     0.015 C 
HETATM    9  N9  UNL     1     -37.733  15.010  -3.040  1.00 20.00    -0.305 NA
HETATM   10  S10 UNL     1     -35.921  14.818  -7.910  1.00 20.00    -0.085 SA
HETATM   11  H22 UNL     1     -37.391  15.150  -2.085  1.00 20.00     0.186 HD
ENDROOT
TORSDOF 0
ENDMDL
MODEL 7
REMARK VINA RESULT:      -4.2      2.002      3.232
REMARK  0 active torsions:
REMARK  status: ('A' for Active; 'I' for Inactive)
ROOT
HETATM    1  C1  UNL     1     -33.440  15.481  -3.414  1.00 20.00     0.045 C 
HETATM    2  C2  UNL     1     -34.158  16.581  -3.712  1.00 20.00     0.011 C 
HETATM    3  C3  UNL     1     -33.644  14.195  -4.128  1.00 20.00     0.028 C 
HETATM    4  C4  UNL     1     -35.241  16.529  -4.785  1.00 20.00     0.059 C 
HETATM    5  C5  UNL     1     -34.633  14.137  -5.271  1.00 20.00     0.067 C 
HETATM    6  C6  UNL     1     -35.800  15.114  -5.070  1.00 20.00    -0.038 C 
HETATM    7  C7  UNL     1     -36.709  14.642  -3.917  1.00 20.00     0.015 C 
HETATM    8  C8  UNL     1     -36.647  15.156  -6.357  1.00 20.00     0.015 C 
HETATM    9  N9  UNL     1     -32.980  13.124  -3.831  1.00 20.00    -0.305 NA
HETATM   10  S10 UNL     1     -33.969  18.154  -2.959  1.00 20.00    -0.085 SA
HETATM   11  H22 UNL     1     -33.284  12.364  -4.446  1.00 20.00     0.186 HD
ENDROOT
TORSDOF 0
ENDMDL
MODEL 8
REMARK VINA RESULT:      -4.1      2.297      2.835
REMARK  0 active torsions:
REMARK  status: ('A' for Active; 'I' for Inactive)
ROOT
HETATM    1  C1  UNL     1     -34.948  16.361  -4.923  1.00 20.00     0.045 C 
HETATM    2  C2  UNL     1     -36.063  16.650  -4.223  1.00 20.00     0.011 C 
HETATM    3  C3  UNL     1     -33.657  16.069  -4.252  1.00 20.00     0.028 C 
HETATM    4  C4  UNL     1     -36.023  16.717  -2.700  1.00 20.00     0.059 C 
HETATM    5  C5  UNL     1     -33.607  16.019  -2.741  1.00 20.00     0.067 C 
HETATM    6  C6  UNL     1     -34.620  16.979  -2.102  1.00 20.00    -0.038 C 
HETATM    7  C7  UNL     1     -34.194  18.445  -2.328  1.00 20.00     0.015 C 
HETATM    8  C8  UNL     1     -34.663  16.726  -0.583  1.00 20.00     0.015 C 
HETATM    9  N9  UNL     1     -32.573  15.817  -4.914  1.00 20.00    -0.305 NA
HETATM   10  S10 UNL     1     -37.642  16.971  -4.914  1.00 20.00    -0.085 SA
HETATM   11  H22 UNL     1     -31.811  15.648  -4.251  1.00 20.00     0.186 HD
ENDROOT
TORSDOF 0
ENDMDL
MODEL 9
REMARK VINA RESULT:      -4.1      1.656      2.150
REMARK  0 active torsions:
REMARK  status: ('A' for Active; 'I' for Inactive)
ROOT
HETATM    1  C1  UNL     1     -36.316  16.223  -4.880  1.00 20.00     0.045 C 
HETATM    2  C2  UNL     1     -35.193  16.376  -5.608  1.00 20.00     0.011 C 
HETATM    3  C3  UNL     1     -36.319  15.491  -3.589  1.00 20.00     0.028 C 
HETATM    4  C4  UNL     1     -33.877  15.765  -5.136  1.00 20.00     0.059 C 
HETATM    5  C5  UNL     1     -35.012  14.966  -3.038  1.00 20.00     0.067 C 
HETATM    6  C6  UNL     1     -34.032  14.578  -4.154  1.00 20.00    -0.038 C 
HETATM    7  C7  UNL     1     -34.526  13.318  -4.894  1.00 20.00     0.015 C 
HETATM    8  C8  UNL     1     -32.661  14.257  -3.530  1.00 20.00     0.015 C 
HETATM    9  N9  UNL     1     -37.397  15.313  -2.895  1.00 20.00    -0.305 NA
HETATM   10  S10 UNL     1     -35.073  17.253  -7.122  1.00 20.00    -0.085 SA
HETATM   11  H22 UNL     1     -37.164  14.784  -2.049  1.00 20.00     0.186 HD
ENDROOT
TORSDOF 0
ENDMDL
