MODEL 1
REMARK VINA RESULT:      -4.7      0.000      0.000
REMARK  4 active torsions:
REMARK  status: ('A' for Active; 'I' for Inactive)
REMARK    1  A    between atoms: C1_1  and  C6_6 
REMARK    2  A    between atoms: C1_1  and  C9_9 
REMARK    3  A    between atoms: C7_7  and  C8_8 
REMARK    4  A    between atoms: C8_8  and  N10_10 
ROOT
HETATM    1  C1  UNL     1     -33.813   6.120   4.376  1.00 20.00     0.009 C 
HETATM    2  N10 UNL     1     -32.726   6.786   4.183  1.00 20.00    -0.298 NA
ENDROOT
BRANCH   1   3
HETATM    3  C6  UNL     1     -34.603   5.402   3.294  1.00 20.00     0.050 C 
HETATM    4  C2  UNL     1     -36.072   5.777   3.370  1.00 20.00     0.011 C 
ENDBRANCH   1   3
BRANCH   1   5
HETATM    5  C9  UNL     1     -34.356   6.024   5.805  1.00 20.00     0.025 C 
HETATM    6  C4  UNL     1     -33.589   6.976   6.718  1.00 20.00     0.016 C 
HETATM    7  C5  UNL     1     -34.292   4.588   6.314  1.00 20.00     0.016 C 
ENDBRANCH   1   5
BRANCH   2   8
HETATM    8  C8  UNL     1     -32.171   6.888   2.844  1.00 20.00     0.148 C 
BRANCH   8   9
HETATM    9  C7  UNL     1     -32.164   8.344   2.397  1.00 20.00     0.017 C 
HETATM   10  C3  UNL     1     -31.793   8.504   0.929  1.00 20.00     0.007 C 
ENDBRANCH   8   9
ENDBRANCH   2   8
TORSDOF 4
ENDMDL
MODEL 2
REMARK VINA RESULT:      -4.0      0.834      2.336
REMARK  4 active torsions:
REMARK  status: ('A' for Active; 'I' for Inactive)
REMARK    1  A    between atoms: C1_1  and  C6_6 
REMARK    2  A    between atoms: C1_1  and  C9_9 
REMARK    3  A    between atoms: C7_7  and  C8_8 
REMARK    4  A    between atoms: C8_8  and  N10_10 
ROOT
HETATM    1  C1  UNL     1     -33.696   6.169   4.582  1.00 20.00     0.009 C 
HETATM    2  N10 UNL     1     -33.273   6.164   3.364  1.00 20.00    -0.298 NA
ENDROOT
BRANCH   1   3
HETATM    3  C6  UNL     1     -33.001   6.856   5.747  1.00 20.00     0.050 C 
HETATM    4  C2  UNL     1     -33.986   7.122   6.871  1.00 20.00     0.011 C 
ENDBRANCH   1   3
BRANCH   1   5
HETATM    5  C9  UNL     1     -35.008   5.442   4.893  1.00 20.00     0.025 C 
HETATM    6  C4  UNL     1     -34.716   4.015   5.345  1.00 20.00     0.016 C 
HETATM    7  C5  UNL     1     -35.941   5.468   3.687  1.00 20.00     0.016 C 
ENDBRANCH   1   5
BRANCH   2   8
HETATM    8  C8  UNL     1     -32.040   6.855   3.026  1.00 20.00     0.148 C 
BRANCH   8   9
HETATM    9  C7  UNL     1     -32.357   8.237   2.469  1.00 20.00     0.017 C 
HETATM   10  C3  UNL     1     -31.771   8.458   1.082  1.00 20.00     0.007 C 
ENDBRANCH   8   9
ENDBRANCH   2   8
TORSDOF 4
ENDMDL
MODEL 3
REMARK VINA RESULT:      -3.9     10.903     12.817
REMARK  4 active torsions:
REMARK  status: ('A' for Active; 'I' for Inactive)
REMARK    1  A    between atoms: C1_1  and  C6_6 
REMARK    2  A    between atoms: C1_1  and  C9_9 
REMARK    3  A    between atoms: C7_7  and  C8_8 
REMARK    4  A    between atoms: C8_8  and  N10_10 
ROOT
HETATM    1  C1  UNL     1     -34.756  15.103  -4.735  1.00 20.00     0.009 C 
HETATM    2  N10 UNL     1     -35.129  16.164  -4.105  1.00 20.00    -0.298 NA
ENDROOT
BRANCH   1   3
HETATM    3  C6  UNL     1     -34.665  13.712  -4.128  1.00 20.00     0.050 C 
HETATM    4  C2  UNL     1     -33.234  13.398  -3.731  1.00 20.00     0.011 C 
ENDBRANCH   1   3
BRANCH   1   5
HETATM    5  C9  UNL     1     -34.388  15.235  -6.216  1.00 20.00     0.025 C 
HETATM    6  C4  UNL     1     -34.385  16.706  -6.621  1.00 20.00     0.016 C 
HETATM    7  C5  UNL     1     -35.336  14.417  -7.086  1.00 20.00     0.016 C 
ENDBRANCH   1   5
BRANCH   2   8
HETATM    8  C8  UNL     1     -35.501  16.078  -2.703  1.00 20.00     0.148 C 
BRANCH   8   9
HETATM    9  C7  UNL     1     -34.306  16.432  -1.827  1.00 20.00     0.017 C 
HETATM   10  C3  UNL     1     -34.717  16.907  -0.441  1.00 20.00     0.007 C 
ENDBRANCH   8   9
ENDBRANCH   2   8
TORSDOF 4
ENDMDL
MODEL 4
REMARK VINA RESULT:      -3.8     11.208     12.766
REMARK  4 active torsions:
REMARK  status: ('A' for Active; 'I' for Inactive)
REMARK    1  A    between atoms: C1_1  and  C6_6 
REMARK    2  A    between atoms: C1_1  and  C9_9 
REMARK    3  A    between atoms: C7_7  and  C8_8 
REMARK    4  A    between atoms: C8_8  and  N10_10 
ROOT
HETATM    1  C1  UNL     1     -34.244  16.144  -3.567  1.00 20.00     0.009 C 
HETATM    2  N10 UNL     1     -34.487  16.976  -4.522  1.00 20.00    -0.298 NA
ENDROOT
BRANCH   1   3
HETATM    3  C6  UNL     1     -33.107  15.135  -3.552  1.00 20.00     0.050 C 
HETATM    4  C2  UNL     1     -33.639  13.732  -3.778  1.00 20.00     0.011 C 
ENDBRANCH   1   3
BRANCH   1   5
HETATM    5  C9  UNL     1     -35.156  16.174  -2.336  1.00 20.00     0.025 C 
HETATM    6  C4  UNL     1     -36.375  17.048  -2.614  1.00 20.00     0.016 C 
HETATM    7  C5  UNL     1     -34.392  16.654  -1.107  1.00 20.00     0.016 C 
ENDBRANCH   1   5
BRANCH   2   8
HETATM    8  C8  UNL     1     -33.636  16.989  -5.700  1.00 20.00     0.148 C 
BRANCH   8   9
HETATM    9  C7  UNL     1     -34.439  16.567  -6.924  1.00 20.00     0.017 C 
HETATM   10  C3  UNL     1     -34.401  15.064  -7.159  1.00 20.00     0.007 C 
ENDBRANCH   8   9
ENDBRANCH   2   8
TORSDOF 4
ENDMDL
MODEL 5
REMARK VINA RESULT:      -3.8     11.153     12.867
REMARK  4 active torsions:
REMARK  status: ('A' for Active; 'I' for Inactive)
REMARK    1  A    between atoms: C1_1  and  C6_6 
REMARK    2  A    between atoms: C1_1  and  C9_9 
REMARK    3  A    between atoms: C7_7  and  C8_8 
REMARK    4  A    between atoms: C8_8  and  N10_10 
ROOT
HETATM    1  C1  UNL     1     -34.065  16.031  -3.453  1.00 20.00     0.009 C 
HETATM    2  N10 UNL     1     -34.030  16.536  -4.640  1.00 20.00    -0.298 NA
ENDROOT
BRANCH   1   3
HETATM    3  C6  UNL     1     -33.687  16.768  -2.178  1.00 20.00     0.050 C 
HETATM    4  C2  UNL     1     -34.694  16.481  -1.080  1.00 20.00     0.011 C 
ENDBRANCH   1   3
BRANCH   1   5
HETATM    5  C9  UNL     1     -34.537  14.583  -3.299  1.00 20.00     0.025 C 
HETATM    6  C4  UNL     1     -33.488  13.631  -3.865  1.00 20.00     0.016 C 
HETATM    7  C5  UNL     1     -35.894  14.381  -3.966  1.00 20.00     0.016 C 
ENDBRANCH   1   5
BRANCH   2   8
HETATM    8  C8  UNL     1     -33.601  17.912  -4.826  1.00 20.00     0.148 C 
BRANCH   8   9
HETATM    9  C7  UNL     1     -33.822  18.331  -6.273  1.00 20.00     0.017 C 
HETATM   10  C3  UNL     1     -34.517  17.255  -7.095  1.00 20.00     0.007 C 
ENDBRANCH   8   9
ENDBRANCH   2   8
TORSDOF 4
ENDMDL
MODEL 6
REMARK VINA RESULT:      -3.7     11.229     12.745
REMARK  4 active torsions:
REMARK  status: ('A' for Active; 'I' for Inactive)
REMARK    1  A    between atoms: C1_1  and  C6_6 
REMARK    2  A    between atoms: C1_1  and  C9_9 
REMARK    3  A    between atoms: C7_7  and  C8_8 
REMARK    4  A    between atoms: C8_8  and  N10_10 
ROOT
HETATM    1  C1  UNL     1     -34.529  15.733  -4.522  1.00 20.00     0.009 C 
HETATM    2  N10 UNL     1     -34.604  16.242  -3.340  1.00 20.00    -0.298 NA
ENDROOT
BRANCH   1   3
HETATM    3  C6  UNL     1     -33.652  16.259  -5.647  1.00 20.00     0.050 C 
HETATM    4  C2  UNL     1     -34.350  16.098  -6.986  1.00 20.00     0.011 C 
ENDBRANCH   1   3
BRANCH   1   5
HETATM    5  C9  UNL     1     -35.373  14.492  -4.828  1.00 20.00     0.025 C 
HETATM    6  C4  UNL     1     -36.664  14.528  -4.016  1.00 20.00     0.016 C 
HETATM    7  C5  UNL     1     -34.580  13.217  -4.561  1.00 20.00     0.016 C 
ENDBRANCH   1   5
BRANCH   2   8
HETATM    8  C8  UNL     1     -33.808  17.411  -3.006  1.00 20.00     0.148 C 
BRANCH   8   9
HETATM    9  C7  UNL     1     -33.708  17.554  -1.493  1.00 20.00     0.017 C 
HETATM   10  C3  UNL     1     -34.663  16.628  -0.753  1.00 20.00     0.007 C 
ENDBRANCH   8   9
ENDBRANCH   2   8
TORSDOF 4
ENDMDL
MODEL 7
REMARK VINA RESULT:      -3.7     11.357     12.662
REMARK  4 active torsions:
REMARK  status: ('A' for Active; 'I' for Inactive)
REMARK    1  A    between atoms: C1_1  and  C6_6 
REMARK    2  A    between atoms: C1_1  and  C9_9 
REMARK    3  A    between atoms: C7_7  and  C8_8 
REMARK    4  A    between atoms: C8_8  and  N10_10 
ROOT
HETATM    1  C1  UNL     1     -35.221  15.662  -4.439  1.00 20.00     0.009 C 
HETATM    2  N10 UNL     1     -34.118  16.179  -4.015  1.00 20.00    -0.298 NA
ENDROOT
BRANCH   1   3
HETATM    3  C6  UNL     1     -36.612  16.181  -4.113  1.00 20.00     0.050 C 
HETATM    4  C2  UNL     1     -37.518  15.040  -3.683  1.00 20.00     0.011 C 
ENDBRANCH   1   3
BRANCH   1   5
HETATM    5  C9  UNL     1     -35.138  14.437  -5.354  1.00 20.00     0.025 C 
HETATM    6  C4  UNL     1     -34.315  13.341  -4.683  1.00 20.00     0.016 C 
HETATM    7  C5  UNL     1     -34.562  14.814  -6.715  1.00 20.00     0.016 C 
ENDBRANCH   1   5
BRANCH   2   8
HETATM    8  C8  UNL     1     -34.155  17.351  -3.156  1.00 20.00     0.148 C 
BRANCH   8   9
HETATM    9  C7  UNL     1     -33.641  16.992  -1.768  1.00 20.00     0.017 C 
HETATM   10  C3  UNL     1     -34.760  16.605  -0.812  1.00 20.00     0.007 C 
ENDBRANCH   8   9
ENDBRANCH   2   8
TORSDOF 4
ENDMDL
MODEL 8
REMARK VINA RESULT:      -3.6     11.138     13.266
REMARK  4 active torsions:
REMARK  status: ('A' for Active; 'I' for Inactive)
REMARK    1  A    between atoms: C1_1  and  C6_6 
REMARK    2  A    between atoms: C1_1  and  C9_9 
REMARK    3  A    between atoms: C7_7  and  C8_8 
REMARK    4  A    between atoms: C8_8  and  N10_10 
ROOT
HETATM    1  C1  UNL     1     -35.399  14.438  -5.291  1.00 20.00     0.009 C 
HETATM    2  N10 UNL     1     -36.417  15.166  -4.978  1.00 20.00    -0.298 NA
ENDROOT
BRANCH   1   3
HETATM    3  C6  UNL     1     -34.849  13.296  -4.451  1.00 20.00     0.050 C 
HETATM    4  C2  UNL     1     -33.523  13.688  -3.824  1.00 20.00     0.011 C 
ENDBRANCH   1   3
BRANCH   1   5
HETATM    5  C9  UNL     1     -34.687  14.724  -6.616  1.00 20.00     0.025 C 
HETATM    6  C4  UNL     1     -34.180  16.163  -6.633  1.00 20.00     0.016 C 
HETATM    7  C5  UNL     1     -35.607  14.442  -7.799  1.00 20.00     0.016 C 
ENDBRANCH   1   5
BRANCH   2   8
HETATM    8  C8  UNL     1     -37.128  14.916  -3.736  1.00 20.00     0.148 C 
BRANCH   8   9
HETATM    9  C7  UNL     1     -38.617  14.759  -4.015  1.00 20.00     0.017 C 
HETATM   10  C3  UNL     1     -38.989  15.145  -5.440  1.00 20.00     0.007 C 
ENDBRANCH   8   9
ENDBRANCH   2   8
TORSDOF 4
ENDMDL
MODEL 9
REMARK VINA RESULT:      -3.6     10.961     12.416
REMARK  4 active torsions:
REMARK  status: ('A' for Active; 'I' for Inactive)
REMARK    1  A    between atoms: C1_1  and  C6_6 
REMARK    2  A    between atoms: C1_1  and  C9_9 
REMARK    3  A    between atoms: C7_7  and  C8_8 
REMARK    4  A    between atoms: C8_8  and  N10_10 
ROOT
HETATM    1  C1  UNL     1     -34.136  17.034  -2.882  1.00 20.00     0.009 C 
HETATM    2  N10 UNL     1     -33.428  15.960  -2.790  1.00 20.00    -0.298 NA
ENDROOT
BRANCH   1   3
HETATM    3  C6  UNL     1     -34.717  17.590  -4.172  1.00 20.00     0.050 C 
HETATM    4  C2  UNL     1     -36.192  17.249  -4.281  1.00 20.00     0.011 C 
ENDBRANCH   1   3
BRANCH   1   5
HETATM    5  C9  UNL     1     -34.436  17.812  -1.598  1.00 20.00     0.025 C 
HETATM    6  C4  UNL     1     -33.289  18.771  -1.292  1.00 20.00     0.016 C 
HETATM    7  C5  UNL     1     -34.695  16.861  -0.435  1.00 20.00     0.016 C 
ENDBRANCH   1   5
BRANCH   2   8
HETATM    8  C8  UNL     1     -33.134  15.185  -3.984  1.00 20.00     0.148 C 
BRANCH   8   9
HETATM    9  C7  UNL     1     -33.554  13.735  -3.776  1.00 20.00     0.017 C 
HETATM   10  C3  UNL     1     -34.779  13.358  -4.596  1.00 20.00     0.007 C 
ENDBRANCH   8   9
ENDBRANCH   2   8
TORSDOF 4
ENDMDL
