MODEL 1
REMARK VINA RESULT:      -3.4      0.000      0.000
REMARK  2 active torsions:
REMARK  status: ('A' for Active; 'I' for Inactive)
REMARK    1  A    between atoms: C2_2  and  C4_4 
REMARK    2  A    between atoms: C4_4  and  S5_5 
ROOT
HETATM    1  C1  UNL     1     -33.981   6.499   5.376  1.00 20.00     0.051 A 
HETATM    2  C2  UNL     1     -33.270   5.661   4.349  1.00 20.00     0.036 A 
HETATM    3  C3  UNL     1     -34.681   5.311   4.767  1.00 20.00     0.118 A 
HETATM    4 CL6  UNL     1     -34.904   3.882   5.777  1.00 20.00    -0.101 Cl
HETATM    5 CL7  UNL     1     -36.034   5.614   3.686  1.00 20.00    -0.101 Cl
ENDROOT
BRANCH   2   6
HETATM    6  C4  UNL     1     -32.943   6.238   3.014  1.00 20.00     0.078 C 
BRANCH   6   7
HETATM    7  S5  UNL     1     -31.749   7.607   3.159  1.00 20.00    -0.182 SA
HETATM    8  H13 UNL     1     -31.563   7.763   1.842  1.00 20.00     0.101 HD
ENDBRANCH   6   7
ENDBRANCH   2   6
TORSDOF 2
ENDMDL
MODEL 2
REMARK VINA RESULT:      -3.0      1.823      2.487
REMARK  2 active torsions:
REMARK  status: ('A' for Active; 'I' for Inactive)
REMARK    1  A    between atoms: C2_2  and  C4_4 
REMARK    2  A    between atoms: C4_4  and  S5_5 
ROOT
HETATM    1  C1  UNL     1     -32.383   5.477   3.251  1.00 20.00     0.051 A 
HETATM    2  C2  UNL     1     -32.889   6.783   2.701  1.00 20.00     0.036 A 
HETATM    3  C3  UNL     1     -33.575   6.146   3.888  1.00 20.00     0.118 A 
HETATM    4 CL6  UNL     1     -35.161   5.421   3.624  1.00 20.00    -0.101 Cl
HETATM    5 CL7  UNL     1     -33.381   6.820   5.501  1.00 20.00    -0.101 Cl
ENDROOT
BRANCH   2   6
HETATM    6  C4  UNL     1     -32.054   8.012   2.815  1.00 20.00     0.078 C 
BRANCH   6   7
HETATM    7  S5  UNL     1     -32.091   8.984   1.275  1.00 20.00    -0.182 SA
HETATM    8  H13 UNL     1     -33.192   8.406   0.777  1.00 20.00     0.101 HD
ENDBRANCH   6   7
ENDBRANCH   2   6
TORSDOF 2
ENDMDL
MODEL 3
REMARK VINA RESULT:      -3.0     11.933     12.713
REMARK  2 active torsions:
REMARK  status: ('A' for Active; 'I' for Inactive)
REMARK    1  A    between atoms: C2_2  and  C4_4 
REMARK    2  A    between atoms: C4_4  and  S5_5 
ROOT
HETATM    1  C1  UNL     1     -32.942  15.099  -3.701  1.00 20.00     0.051 A 
HETATM    2  C2  UNL     1     -34.189  15.911  -3.479  1.00 20.00     0.036 A 
HETATM    3  C3  UNL     1     -34.183  14.798  -4.503  1.00 20.00     0.118 A 
HETATM    4 CL6  UNL     1     -34.189  15.255  -6.207  1.00 20.00    -0.101 Cl
HETATM    5 CL7  UNL     1     -35.026  13.288  -4.188  1.00 20.00    -0.101 Cl
ENDROOT
BRANCH   2   6
HETATM    6  C4  UNL     1     -34.921  15.812  -2.185  1.00 20.00     0.078 C 
BRANCH   6   7
HETATM    7  S5  UNL     1     -34.308  17.036  -0.982  1.00 20.00    -0.182 SA
HETATM    8  H13 UNL     1     -33.013  16.720  -1.115  1.00 20.00     0.101 HD
ENDBRANCH   6   7
ENDBRANCH   2   6
TORSDOF 2
ENDMDL
MODEL 4
REMARK VINA RESULT:      -3.0     11.952     12.635
REMARK  2 active torsions:
REMARK  status: ('A' for Active; 'I' for Inactive)
REMARK    1  A    between atoms: C2_2  and  C4_4 
REMARK    2  A    between atoms: C4_4  and  S5_5 
ROOT
HETATM    1  C1  UNL     1     -35.360  15.452  -3.312  1.00 20.00     0.051 A 
HETATM    2  C2  UNL     1     -34.332  15.747  -2.254  1.00 20.00     0.036 A 
HETATM    3  C3  UNL     1     -33.894  15.285  -3.625  1.00 20.00     0.118 A 
HETATM    4 CL6  UNL     1     -33.269  13.643  -3.775  1.00 20.00    -0.101 Cl
HETATM    5 CL7  UNL     1     -33.157  16.413  -4.755  1.00 20.00    -0.101 Cl
ENDROOT
BRANCH   2   6
HETATM    6  C4  UNL     1     -34.139  17.144  -1.772  1.00 20.00     0.078 C 
BRANCH   6   7
HETATM    7  S5  UNL     1     -34.752  17.349  -0.069  1.00 20.00    -0.182 SA
HETATM    8  H13 UNL     1     -33.701  18.055   0.369  1.00 20.00     0.101 HD
ENDBRANCH   6   7
ENDBRANCH   2   6
TORSDOF 2
ENDMDL
MODEL 5
REMARK VINA RESULT:      -3.0     12.316     12.930
REMARK  2 active torsions:
REMARK  status: ('A' for Active; 'I' for Inactive)
REMARK    1  A    between atoms: C2_2  and  C4_4 
REMARK    2  A    between atoms: C4_4  and  S5_5 
ROOT
HETATM    1  C1  UNL     1     -35.077  13.773  -4.031  1.00 20.00     0.051 A 
HETATM    2  C2  UNL     1     -34.981  15.051  -4.819  1.00 20.00     0.036 A 
HETATM    3  C3  UNL     1     -34.199  14.894  -3.534  1.00 20.00     0.118 A 
HETATM    4 CL6  UNL     1     -34.748  15.805  -2.127  1.00 20.00    -0.101 Cl
HETATM    5 CL7  UNL     1     -32.457  14.659  -3.571  1.00 20.00    -0.101 Cl
ENDROOT
BRANCH   2   6
HETATM    6  C4  UNL     1     -34.336  15.050  -6.162  1.00 20.00     0.078 C 
BRANCH   6   7
HETATM    7  S5  UNL     1     -35.520  14.584  -7.466  1.00 20.00    -0.182 SA
HETATM    8  H13 UNL     1     -34.595  14.231  -8.369  1.00 20.00     0.101 HD
ENDBRANCH   6   7
ENDBRANCH   2   6
TORSDOF 2
ENDMDL
MODEL 6
REMARK VINA RESULT:      -3.0      3.116      3.664
REMARK  2 active torsions:
REMARK  status: ('A' for Active; 'I' for Inactive)
REMARK    1  A    between atoms: C2_2  and  C4_4 
REMARK    2  A    between atoms: C4_4  and  S5_5 
ROOT
HETATM    1  C1  UNL     1     -33.169   6.762   4.851  1.00 20.00     0.051 A 
HETATM    2  C2  UNL     1     -34.276   6.462   3.877  1.00 20.00     0.036 A 
HETATM    3  C3  UNL     1     -32.851   6.589   3.387  1.00 20.00     0.118 A 
HETATM    4 CL6  UNL     1     -32.429   8.030   2.462  1.00 20.00    -0.101 Cl
HETATM    5 CL7  UNL     1     -31.943   5.163   2.902  1.00 20.00    -0.101 Cl
ENDROOT
BRANCH   2   6
HETATM    6  C4  UNL     1     -34.994   5.158   3.945  1.00 20.00     0.078 C 
BRANCH   6   7
HETATM    7  S5  UNL     1     -34.924   4.449   5.622  1.00 20.00    -0.182 SA
HETATM    8  H13 UNL     1     -35.922   3.575   5.441  1.00 20.00     0.101 HD
ENDBRANCH   6   7
ENDBRANCH   2   6
TORSDOF 2
ENDMDL
MODEL 7
REMARK VINA RESULT:      -3.0     12.139     12.943
REMARK  2 active torsions:
REMARK  status: ('A' for Active; 'I' for Inactive)
REMARK    1  A    between atoms: C2_2  and  C4_4 
REMARK    2  A    between atoms: C4_4  and  S5_5 
ROOT
HETATM    1  C1  UNL     1     -33.573  13.696  -3.808  1.00 20.00     0.051 A 
HETATM    2  C2  UNL     1     -34.869  14.135  -4.433  1.00 20.00     0.036 A 
HETATM    3  C3  UNL     1     -33.981  15.146  -3.745  1.00 20.00     0.118 A 
HETATM    4 CL6  UNL     1     -34.517  15.782  -2.189  1.00 20.00    -0.101 Cl
HETATM    5 CL7  UNL     1     -33.053  16.307  -4.685  1.00 20.00    -0.101 Cl
ENDROOT
BRANCH   2   6
HETATM    6  C4  UNL     1     -35.037  14.082  -5.913  1.00 20.00     0.078 C 
BRANCH   6   7
HETATM    7  S5  UNL     1     -36.419  15.135  -6.462  1.00 20.00    -0.182 SA
HETATM    8  H13 UNL     1     -37.013  14.198  -7.212  1.00 20.00     0.101 HD
ENDBRANCH   6   7
ENDBRANCH   2   6
TORSDOF 2
ENDMDL
MODEL 8
REMARK VINA RESULT:      -3.0     11.930     12.602
REMARK  2 active torsions:
REMARK  status: ('A' for Active; 'I' for Inactive)
REMARK    1  A    between atoms: C2_2  and  C4_4 
REMARK    2  A    between atoms: C4_4  and  S5_5 
ROOT
HETATM    1  C1  UNL     1     -35.830  15.164  -3.584  1.00 20.00     0.051 A 
HETATM    2  C2  UNL     1     -34.491  15.117  -2.899  1.00 20.00     0.036 A 
HETATM    3  C3  UNL     1     -34.600  14.784  -4.370  1.00 20.00     0.118 A 
HETATM    4 CL6  UNL     1     -34.417  13.095  -4.843  1.00 20.00    -0.101 Cl
HETATM    5 CL7  UNL     1     -34.017  15.912  -5.587  1.00 20.00    -0.101 Cl
ENDROOT
BRANCH   2   6
HETATM    6  C4  UNL     1     -33.866  16.374  -2.400  1.00 20.00     0.078 C 
BRANCH   6   7
HETATM    7  S5  UNL     1     -34.570  16.872  -0.795  1.00 20.00    -0.182 SA
HETATM    8  H13 UNL     1     -34.190  18.154  -0.872  1.00 20.00     0.101 HD
ENDBRANCH   6   7
ENDBRANCH   2   6
TORSDOF 2
ENDMDL
MODEL 9
REMARK VINA RESULT:      -3.0     11.967     12.551
REMARK  2 active torsions:
REMARK  status: ('A' for Active; 'I' for Inactive)
REMARK    1  A    between atoms: C2_2  and  C4_4 
REMARK    2  A    between atoms: C4_4  and  S5_5 
ROOT
HETATM    1  C1  UNL     1     -33.636  16.133  -2.908  1.00 20.00     0.051 A 
HETATM    2  C2  UNL     1     -34.765  15.161  -2.698  1.00 20.00     0.036 A 
HETATM    3  C3  UNL     1     -34.858  16.561  -2.135  1.00 20.00     0.118 A 
HETATM    4 CL6  UNL     1     -34.699  16.752  -0.388  1.00 20.00    -0.101 Cl
HETATM    5 CL7  UNL     1     -35.924  17.751  -2.868  1.00 20.00    -0.101 Cl
ENDROOT
BRANCH   2   6
HETATM    6  C4  UNL     1     -35.578  14.703  -3.860  1.00 20.00     0.078 C 
BRANCH   6   7
HETATM    7  S5  UNL     1     -34.738  13.368  -4.772  1.00 20.00    -0.182 SA
HETATM    8  H13 UNL     1     -33.892  13.042  -3.786  1.00 20.00     0.101 HD
ENDBRANCH   6   7
ENDBRANCH   2   6
TORSDOF 2
ENDMDL
