MODEL 1
REMARK VINA RESULT:      -3.8      0.000      0.000
REMARK  2 active torsions:
REMARK  status: ('A' for Active; 'I' for Inactive)
REMARK    1  A    between atoms: C1_1  and  C7_7 
REMARK    2  A    between atoms: C6_6  and  N8_8 
ROOT
HETATM    1  C1  UNL     1     -33.272   5.825   4.248  1.00 20.00     0.108 C 
HETATM    2  N8  UNL     1     -33.368   6.798   3.407  1.00 20.00    -0.299 NA
ENDROOT
BRANCH   1   3
HETATM    3  C7  UNL     1     -34.482   5.241   4.951  1.00 20.00     0.063 C 
HETATM    4  C4  UNL     1     -34.637   5.914   6.313  1.00 20.00     0.038 C 
HETATM    5  C5  UNL     1     -34.422   3.722   5.098  1.00 20.00     0.038 C 
HETATM    6 CL9  UNL     1     -35.883   5.672   3.920  1.00 20.00    -0.114 Cl
ENDBRANCH   1   3
BRANCH   2   7
HETATM    7  C6  UNL     1     -32.081   7.205   2.854  1.00 20.00     0.099 C 
HETATM    8  C2  UNL     1     -32.301   8.347   1.874  1.00 20.00     0.034 C 
HETATM    9  C3  UNL     1     -31.160   7.612   3.996  1.00 20.00     0.034 C 
ENDBRANCH   2   7
TORSDOF 2
ENDMDL
MODEL 2
REMARK VINA RESULT:      -3.7      1.096      1.523
REMARK  2 active torsions:
REMARK  status: ('A' for Active; 'I' for Inactive)
REMARK    1  A    between atoms: C1_1  and  C7_7 
REMARK    2  A    between atoms: C6_6  and  N8_8 
ROOT
HETATM    1  C1  UNL     1     -33.281   5.853   4.183  1.00 20.00     0.108 C 
HETATM    2  N8  UNL     1     -33.340   6.814   3.324  1.00 20.00    -0.299 NA
ENDROOT
BRANCH   1   3
HETATM    3  C7  UNL     1     -34.523   5.274   4.834  1.00 20.00     0.063 C 
HETATM    4  C4  UNL     1     -34.328   3.771   5.023  1.00 20.00     0.038 C 
HETATM    5  C5  UNL     1     -35.804   5.563   4.057  1.00 20.00     0.038 C 
HETATM    6 CL9  UNL     1     -34.626   6.059   6.442  1.00 20.00    -0.114 Cl
ENDBRANCH   1   3
BRANCH   2   7
HETATM    7  C6  UNL     1     -32.027   7.218   2.830  1.00 20.00     0.099 C 
HETATM    8  C2  UNL     1     -32.204   8.337   1.816  1.00 20.00     0.034 C 
HETATM    9  C3  UNL     1     -31.170   7.655   4.009  1.00 20.00     0.034 C 
ENDBRANCH   2   7
TORSDOF 2
ENDMDL
MODEL 3
REMARK VINA RESULT:      -3.7     11.726     12.266
REMARK  2 active torsions:
REMARK  status: ('A' for Active; 'I' for Inactive)
REMARK    1  A    between atoms: C1_1  and  C7_7 
REMARK    2  A    between atoms: C6_6  and  N8_8 
ROOT
HETATM    1  C1  UNL     1     -33.906  15.977  -2.852  1.00 20.00     0.108 C 
HETATM    2  N8  UNL     1     -34.588  16.113  -1.766  1.00 20.00    -0.299 NA
ENDROOT
BRANCH   1   3
HETATM    3  C7  UNL     1     -34.310  15.002  -3.943  1.00 20.00     0.063 C 
HETATM    4  C4  UNL     1     -34.057  15.648  -5.303  1.00 20.00     0.038 C 
HETATM    5  C5  UNL     1     -35.757  14.529  -3.826  1.00 20.00     0.038 C 
HETATM    6 CL9  UNL     1     -33.219  13.594  -3.748  1.00 20.00    -0.114 Cl
ENDBRANCH   1   3
BRANCH   2   7
HETATM    7  C6  UNL     1     -34.016  17.100  -0.855  1.00 20.00     0.099 C 
HETATM    8  C2  UNL     1     -33.695  18.365  -1.635  1.00 20.00     0.034 C 
HETATM    9  C3  UNL     1     -35.008  17.367   0.269  1.00 20.00     0.034 C 
ENDBRANCH   2   7
TORSDOF 2
ENDMDL
MODEL 4
REMARK VINA RESULT:      -3.6     11.698     12.625
REMARK  2 active torsions:
REMARK  status: ('A' for Active; 'I' for Inactive)
REMARK    1  A    between atoms: C1_1  and  C7_7 
REMARK    2  A    between atoms: C6_6  and  N8_8 
ROOT
HETATM    1  C1  UNL     1     -34.362  15.622  -4.215  1.00 20.00     0.108 C 
HETATM    2  N8  UNL     1     -34.524  15.457  -2.946  1.00 20.00    -0.299 NA
ENDROOT
BRANCH   1   3
HETATM    3  C7  UNL     1     -34.954  14.669  -5.236  1.00 20.00     0.063 C 
HETATM    4  C4  UNL     1     -34.657  13.234  -4.806  1.00 20.00     0.038 C 
HETATM    5  C5  UNL     1     -34.460  14.923  -6.658  1.00 20.00     0.038 C 
HETATM    6 CL9  UNL     1     -36.723  14.946  -5.175  1.00 20.00    -0.114 Cl
ENDBRANCH   1   3
BRANCH   2   7
HETATM    7  C6  UNL     1     -33.867  16.487  -2.149  1.00 20.00     0.099 C 
HETATM    8  C2  UNL     1     -33.838  17.783  -2.944  1.00 20.00     0.034 C 
HETATM    9  C3  UNL     1     -34.617  16.648  -0.835  1.00 20.00     0.034 C 
ENDBRANCH   2   7
TORSDOF 2
ENDMDL
MODEL 5
REMARK VINA RESULT:      -3.6     11.584     12.440
REMARK  2 active torsions:
REMARK  status: ('A' for Active; 'I' for Inactive)
REMARK    1  A    between atoms: C1_1  and  C7_7 
REMARK    2  A    between atoms: C6_6  and  N8_8 
ROOT
HETATM    1  C1  UNL     1     -34.208  16.041  -2.550  1.00 20.00     0.108 C 
HETATM    2  N8  UNL     1     -33.699  17.221  -2.444  1.00 20.00    -0.299 NA
ENDROOT
BRANCH   1   3
HETATM    3  C7  UNL     1     -33.925  15.142  -3.739  1.00 20.00     0.063 C 
HETATM    4  C4  UNL     1     -34.001  15.973  -5.018  1.00 20.00     0.038 C 
HETATM    5  C5  UNL     1     -34.854  13.934  -3.819  1.00 20.00     0.038 C 
HETATM    6 CL9  UNL     1     -32.242  14.569  -3.511  1.00 20.00    -0.114 Cl
ENDBRANCH   1   3
BRANCH   2   7
HETATM    7  C6  UNL     1     -34.107  17.910  -1.225  1.00 20.00     0.099 C 
HETATM    8  C2  UNL     1     -34.790  16.915  -0.299  1.00 20.00     0.034 C 
HETATM    9  C3  UNL     1     -32.881  18.534  -0.575  1.00 20.00     0.034 C 
ENDBRANCH   2   7
TORSDOF 2
ENDMDL
MODEL 6
REMARK VINA RESULT:      -3.5     11.442     12.288
REMARK  2 active torsions:
REMARK  status: ('A' for Active; 'I' for Inactive)
REMARK    1  A    between atoms: C1_1  and  C7_7 
REMARK    2  A    between atoms: C6_6  and  N8_8 
ROOT
HETATM    1  C1  UNL     1     -34.454  15.682  -2.880  1.00 20.00     0.108 C 
HETATM    2  N8  UNL     1     -35.337  14.862  -3.339  1.00 20.00    -0.299 NA
ENDROOT
BRANCH   1   3
HETATM    3  C7  UNL     1     -34.835  16.949  -2.138  1.00 20.00     0.063 C 
HETATM    4  C4  UNL     1     -34.640  16.724  -0.640  1.00 20.00     0.038 C 
HETATM    5  C5  UNL     1     -36.255  17.422  -2.436  1.00 20.00     0.038 C 
HETATM    6 CL9  UNL     1     -33.676  18.195  -2.700  1.00 20.00    -0.114 Cl
ENDBRANCH   1   3
BRANCH   2   7
HETATM    7  C6  UNL     1     -34.750  13.715  -4.022  1.00 20.00     0.099 C 
HETATM    8  C2  UNL     1     -35.002  13.847  -5.516  1.00 20.00     0.034 C 
HETATM    9  C3  UNL     1     -33.262  13.660  -3.704  1.00 20.00     0.034 C 
ENDBRANCH   2   7
TORSDOF 2
ENDMDL
MODEL 7
REMARK VINA RESULT:      -3.4     10.488     11.284
REMARK  2 active torsions:
REMARK  status: ('A' for Active; 'I' for Inactive)
REMARK    1  A    between atoms: C1_1  and  C7_7 
REMARK    2  A    between atoms: C6_6  and  N8_8 
ROOT
HETATM    1  C1  UNL     1     -42.390   4.624  -2.103  1.00 20.00     0.108 C 
HETATM    2  N8  UNL     1     -41.590   3.632  -2.301  1.00 20.00    -0.299 NA
ENDROOT
BRANCH   1   3
HETATM    3  C7  UNL     1     -41.954   5.882  -1.375  1.00 20.00     0.063 C 
HETATM    4  C4  UNL     1     -41.800   7.013  -2.389  1.00 20.00     0.038 C 
HETATM    5  C5  UNL     1     -40.673   5.699  -0.565  1.00 20.00     0.038 C 
HETATM    6 CL9  UNL     1     -43.300   6.274  -0.258  1.00 20.00    -0.114 Cl
ENDBRANCH   1   3
BRANCH   2   7
HETATM    7  C6  UNL     1     -42.219   2.526  -3.015  1.00 20.00     0.099 C 
HETATM    8  C2  UNL     1     -43.395   3.062  -3.817  1.00 20.00     0.034 C 
HETATM    9  C3  UNL     1     -41.181   1.864  -3.911  1.00 20.00     0.034 C 
ENDBRANCH   2   7
TORSDOF 2
ENDMDL
MODEL 8
REMARK VINA RESULT:      -3.4     11.589     12.960
REMARK  2 active torsions:
REMARK  status: ('A' for Active; 'I' for Inactive)
REMARK    1  A    between atoms: C1_1  and  C7_7 
REMARK    2  A    between atoms: C6_6  and  N8_8 
ROOT
HETATM    1  C1  UNL     1     -36.661  15.012  -4.346  1.00 20.00     0.108 C 
HETATM    2  N8  UNL     1     -37.568  14.292  -3.777  1.00 20.00    -0.299 NA
ENDROOT
BRANCH   1   3
HETATM    3  C7  UNL     1     -35.181  14.796  -4.092  1.00 20.00     0.063 C 
HETATM    4  C4  UNL     1     -34.879  13.301  -4.163  1.00 20.00     0.038 C 
HETATM    5  C5  UNL     1     -34.702  15.387  -2.769  1.00 20.00     0.038 C 
HETATM    6 CL9  UNL     1     -34.343  15.629  -5.440  1.00 20.00    -0.114 Cl
ENDBRANCH   1   3
BRANCH   2   7
HETATM    7  C6  UNL     1     -38.923  14.675  -4.161  1.00 20.00     0.099 C 
HETATM    8  C2  UNL     1     -39.474  15.645  -3.127  1.00 20.00     0.034 C 
HETATM    9  C3  UNL     1     -38.887  15.293  -5.551  1.00 20.00     0.034 C 
ENDBRANCH   2   7
TORSDOF 2
ENDMDL
MODEL 9
REMARK VINA RESULT:      -3.3     10.433     11.326
REMARK  2 active torsions:
REMARK  status: ('A' for Active; 'I' for Inactive)
REMARK    1  A    between atoms: C1_1  and  C7_7 
REMARK    2  A    between atoms: C6_6  and  N8_8 
ROOT
HETATM    1  C1  UNL     1     -42.438   4.473  -2.184  1.00 20.00     0.108 C 
HETATM    2  N8  UNL     1     -41.647   3.513  -2.527  1.00 20.00    -0.299 NA
ENDROOT
BRANCH   1   3
HETATM    3  C7  UNL     1     -41.978   5.627  -1.314  1.00 20.00     0.063 C 
HETATM    4  C4  UNL     1     -40.643   5.260  -0.669  1.00 20.00     0.038 C 
HETATM    5  C5  UNL     1     -43.000   6.031  -0.255  1.00 20.00     0.038 C 
HETATM    6 CL9  UNL     1     -41.729   7.000  -2.439  1.00 20.00    -0.114 Cl
ENDBRANCH   1   3
BRANCH   2   7
HETATM    7  C6  UNL     1     -42.300   2.508  -3.361  1.00 20.00     0.099 C 
HETATM    8  C2  UNL     1     -41.235   1.633  -4.004  1.00 20.00     0.034 C 
HETATM    9  C3  UNL     1     -43.252   1.694  -2.497  1.00 20.00     0.034 C 
ENDBRANCH   2   7
TORSDOF 2
ENDMDL
