MODEL 1
REMARK VINA RESULT:      -4.2      0.000      0.000
REMARK  1 active torsions:
REMARK  status: ('A' for Active; 'I' for Inactive)
REMARK    1  A    between atoms: C4_4  and  C5_5 
ROOT
HETATM    1  C1  UNL     1     -34.740   5.256   5.449  1.00 20.00     0.127 C 
HETATM    2  C2  UNL     1     -33.599   6.293   5.446  1.00 20.00     0.084 C 
HETATM    3  C3  UNL     1     -34.629   5.066   3.922  1.00 20.00     0.084 C 
HETATM    4  C4  UNL     1     -33.806   6.386   3.906  1.00 20.00     0.013 C 
HETATM    5  O6  UNL     1     -35.452   4.785   6.310  1.00 20.00    -0.298 OA
ENDROOT
BRANCH   4   6
HETATM    6  C5  UNL     1     -32.544   6.370   3.065  1.00 20.00     0.120 C 
HETATM    7 CL7  UNL     1     -32.214   7.988   2.411  1.00 20.00    -0.130 Cl
ENDBRANCH   4   6
TORSDOF 1
ENDMDL
MODEL 2
REMARK VINA RESULT:      -3.9      3.206      3.846
REMARK  1 active torsions:
REMARK  status: ('A' for Active; 'I' for Inactive)
REMARK    1  A    between atoms: C4_4  and  C5_5 
ROOT
HETATM    1  C1  UNL     1     -32.964   6.570   3.256  1.00 20.00     0.127 C 
HETATM    2  C2  UNL     1     -33.885   5.457   2.716  1.00 20.00     0.084 C 
HETATM    3  C3  UNL     1     -33.522   6.398   4.684  1.00 20.00     0.084 C 
HETATM    4  C4  UNL     1     -34.697   5.609   4.035  1.00 20.00     0.013 C 
HETATM    5  O6  UNL     1     -32.137   7.301   2.754  1.00 20.00    -0.298 OA
ENDROOT
BRANCH   4   6
HETATM    6  C5  UNL     1     -35.089   4.317   4.726  1.00 20.00     0.120 C 
HETATM    7 CL7  UNL     1     -35.203   4.562   6.480  1.00 20.00    -0.130 Cl
ENDBRANCH   4   6
TORSDOF 1
ENDMDL
MODEL 3
REMARK VINA RESULT:      -3.9      0.812      1.433
REMARK  1 active torsions:
REMARK  status: ('A' for Active; 'I' for Inactive)
REMARK    1  A    between atoms: C4_4  and  C5_5 
ROOT
HETATM    1  C1  UNL     1     -34.974   4.888   5.830  1.00 20.00     0.127 C 
HETATM    2  C2  UNL     1     -34.964   4.872   4.288  1.00 20.00     0.084 C 
HETATM    3  C3  UNL     1     -34.025   6.104   5.866  1.00 20.00     0.084 C 
HETATM    4  C4  UNL     1     -33.712   5.793   4.373  1.00 20.00     0.013 C 
HETATM    5  O6  UNL     1     -35.507   4.207   6.679  1.00 20.00    -0.298 OA
ENDROOT
BRANCH   4   6
HETATM    6  C5  UNL     1     -33.699   6.985   3.437  1.00 20.00     0.120 C 
HETATM    7 CL7  UNL     1     -32.040   7.357   2.928  1.00 20.00    -0.130 Cl
ENDBRANCH   4   6
TORSDOF 1
ENDMDL
MODEL 4
REMARK VINA RESULT:      -3.7      3.302      3.781
REMARK  1 active torsions:
REMARK  status: ('A' for Active; 'I' for Inactive)
REMARK    1  A    between atoms: C4_4  and  C5_5 
ROOT
HETATM    1  C1  UNL     1     -32.798   6.859   3.157  1.00 20.00     0.127 C 
HETATM    2  C2  UNL     1     -33.358   6.762   4.591  1.00 20.00     0.084 C 
HETATM    3  C3  UNL     1     -33.647   5.656   2.698  1.00 20.00     0.084 C 
HETATM    4  C4  UNL     1     -33.852   5.336   4.207  1.00 20.00     0.013 C 
HETATM    5  O6  UNL     1     -31.998   7.587   2.610  1.00 20.00    -0.298 OA
ENDROOT
BRANCH   4   6
HETATM    6  C5  UNL     1     -35.267   4.989   4.626  1.00 20.00     0.120 C 
HETATM    7 CL7  UNL     1     -35.266   4.185   6.209  1.00 20.00    -0.130 Cl
ENDBRANCH   4   6
TORSDOF 1
ENDMDL
MODEL 5
REMARK VINA RESULT:      -3.7     11.711     12.016
REMARK  1 active torsions:
REMARK  status: ('A' for Active; 'I' for Inactive)
REMARK    1  A    between atoms: C4_4  and  C5_5 
ROOT
HETATM    1  C1  UNL     1     -34.676  13.561  -4.223  1.00 20.00     0.127 C 
HETATM    2  C2  UNL     1     -33.399  14.272  -3.731  1.00 20.00     0.084 C 
HETATM    3  C3  UNL     1     -35.569  14.694  -3.674  1.00 20.00     0.084 C 
HETATM    4  C4  UNL     1     -34.332  15.148  -2.845  1.00 20.00     0.013 C 
HETATM    5  O6  UNL     1     -34.894  12.519  -4.802  1.00 20.00    -0.298 OA
ENDROOT
BRANCH   4   6
HETATM    6  C5  UNL     1     -34.044  16.636  -2.846  1.00 20.00     0.120 C 
HETATM    7 CL7  UNL     1     -33.713  17.205  -1.197  1.00 20.00    -0.130 Cl
ENDBRANCH   4   6
TORSDOF 1
ENDMDL
MODEL 6
REMARK VINA RESULT:      -3.5      1.127      1.670
REMARK  1 active torsions:
REMARK  status: ('A' for Active; 'I' for Inactive)
REMARK    1  A    between atoms: C4_4  and  C5_5 
ROOT
HETATM    1  C1  UNL     1     -34.784   5.260   4.309  1.00 20.00     0.127 C 
HETATM    2  C2  UNL     1     -34.185   5.369   2.892  1.00 20.00     0.084 C 
HETATM    3  C3  UNL     1     -33.779   6.293   4.860  1.00 20.00     0.084 C 
HETATM    4  C4  UNL     1     -32.958   6.058   3.559  1.00 20.00     0.013 C 
HETATM    5  O6  UNL     1     -35.682   4.610   4.799  1.00 20.00    -0.298 OA
ENDROOT
BRANCH   4   6
HETATM    6  C5  UNL     1     -32.439   7.304   2.868  1.00 20.00     0.120 C 
HETATM    7 CL7  UNL     1     -31.024   7.946   3.727  1.00 20.00    -0.130 Cl
ENDBRANCH   4   6
TORSDOF 1
ENDMDL
MODEL 7
REMARK VINA RESULT:      -3.4      2.655      3.262
REMARK  1 active torsions:
REMARK  status: ('A' for Active; 'I' for Inactive)
REMARK    1  A    between atoms: C4_4  and  C5_5 
ROOT
HETATM    1  C1  UNL     1     -34.210   5.315   3.065  1.00 20.00     0.127 C 
HETATM    2  C2  UNL     1     -35.184   5.107   4.243  1.00 20.00     0.084 C 
HETATM    3  C3  UNL     1     -33.262   6.160   3.942  1.00 20.00     0.084 C 
HETATM    4  C4  UNL     1     -34.444   6.282   4.948  1.00 20.00     0.013 C 
HETATM    5  O6  UNL     1     -34.199   4.963   1.905  1.00 20.00    -0.298 OA
ENDROOT
BRANCH   4   6
HETATM    6  C5  UNL     1     -34.097   6.066   6.408  1.00 20.00     0.120 C 
HETATM    7 CL7  UNL     1     -33.455   7.561   7.119  1.00 20.00    -0.130 Cl
ENDBRANCH   4   6
TORSDOF 1
ENDMDL
MODEL 8
REMARK VINA RESULT:      -3.3     12.283     13.042
REMARK  1 active torsions:
REMARK  status: ('A' for Active; 'I' for Inactive)
REMARK    1  A    between atoms: C4_4  and  C5_5 
ROOT
HETATM    1  C1  UNL     1     -34.547  13.609  -4.743  1.00 20.00     0.127 C 
HETATM    2  C2  UNL     1     -33.704  14.560  -3.870  1.00 20.00     0.084 C 
HETATM    3  C3  UNL     1     -34.737  14.697  -5.820  1.00 20.00     0.084 C 
HETATM    4  C4  UNL     1     -34.263  15.719  -4.746  1.00 20.00     0.013 C 
HETATM    5  O6  UNL     1     -34.922  12.462  -4.625  1.00 20.00    -0.298 OA
ENDROOT
BRANCH   4   6
HETATM    6  C5  UNL     1     -33.251  16.748  -5.211  1.00 20.00     0.120 C 
HETATM    7 CL7  UNL     1     -33.602  18.333  -4.492  1.00 20.00    -0.130 Cl
ENDBRANCH   4   6
TORSDOF 1
ENDMDL
MODEL 9
REMARK VINA RESULT:      -3.2     11.898     12.178
REMARK  1 active torsions:
REMARK  status: ('A' for Active; 'I' for Inactive)
REMARK    1  A    between atoms: C4_4  and  C5_5 
ROOT
HETATM    1  C1  UNL     1     -36.950  14.484  -3.838  1.00 20.00     0.127 C 
HETATM    2  C2  UNL     1     -35.679  13.805  -4.386  1.00 20.00     0.084 C 
HETATM    3  C3  UNL     1     -36.129  15.661  -3.271  1.00 20.00     0.084 C 
HETATM    4  C4  UNL     1     -34.874  14.760  -3.456  1.00 20.00     0.013 C 
HETATM    5  O6  UNL     1     -38.128  14.200  -3.841  1.00 20.00    -0.298 OA
ENDROOT
BRANCH   4   6
HETATM    6  C5  UNL     1     -33.664  15.429  -4.079  1.00 20.00     0.120 C 
HETATM    7 CL7  UNL     1     -32.168  14.657  -3.513  1.00 20.00    -0.130 Cl
ENDBRANCH   4   6
TORSDOF 1
ENDMDL
