MODEL 1
REMARK VINA RESULT:      -4.6      0.000      0.000
REMARK  1 active torsions:
REMARK  status: ('A' for Active; 'I' for Inactive)
REMARK    1  A    between atoms: C2_2  and  C5_5 
ROOT
HETATM    1  C1  UNL     1     -34.253  15.476  -5.517  1.00 20.00     0.065 A 
HETATM    2  C2  UNL     1     -34.633  14.976  -4.290  1.00 20.00     0.015 A 
HETATM    3  C3  UNL     1     -34.459  15.931  -3.243  1.00 20.00    -0.031 A 
HETATM    4  C4  UNL     1     -33.945  17.119  -3.726  1.00 20.00    -0.010 A 
HETATM    5  C6  UNL     1     -34.750  15.721  -1.789  1.00 20.00     0.040 C 
HETATM    6  C7  UNL     1     -33.666  18.335  -2.898  1.00 20.00     0.046 C 
HETATM    7  C8  UNL     1     -34.811  17.051  -1.023  1.00 20.00     0.005 C 
HETATM    8  C9  UNL     1     -33.647  17.977  -1.403  1.00 20.00     0.005 C 
HETATM    9  S11 UNL     1     -33.687  17.088  -5.408  1.00 20.00    -0.105 SA
ENDROOT
BRANCH   2  10
HETATM   10  C5  UNL     1     -35.139  13.636  -4.138  1.00 20.00     0.271 C 
HETATM   11  O10 UNL     1     -34.744  12.671  -4.811  1.00 20.00    -0.301 OA
ENDBRANCH   2  10
TORSDOF 1
ENDMDL
MODEL 2
REMARK VINA RESULT:      -4.5      2.097      3.909
REMARK  1 active torsions:
REMARK  status: ('A' for Active; 'I' for Inactive)
REMARK    1  A    between atoms: C2_2  and  C5_5 
ROOT
HETATM    1  C1  UNL     1     -33.903  17.828  -3.174  1.00 20.00     0.065 A 
HETATM    2  C2  UNL     1     -34.330  16.601  -2.714  1.00 20.00     0.015 A 
HETATM    3  C3  UNL     1     -34.472  15.649  -3.768  1.00 20.00    -0.031 A 
HETATM    4  C4  UNL     1     -34.148  16.203  -4.992  1.00 20.00    -0.010 A 
HETATM    5  C6  UNL     1     -34.934  14.231  -3.632  1.00 20.00     0.040 C 
HETATM    6  C7  UNL     1     -34.166  15.472  -6.298  1.00 20.00     0.046 C 
HETATM    7  C8  UNL     1     -34.605  13.403  -4.883  1.00 20.00     0.005 C 
HETATM    8  C9  UNL     1     -34.957  14.160  -6.172  1.00 20.00     0.005 C 
HETATM    9  S11 UNL     1     -33.674  17.833  -4.871  1.00 20.00    -0.105 SA
ENDROOT
BRANCH   2  10
HETATM   10  C5  UNL     1     -34.592  16.362  -1.317  1.00 20.00     0.271 C 
HETATM   11  O10 UNL     1     -34.216  17.118  -0.408  1.00 20.00    -0.301 OA
ENDBRANCH   2  10
TORSDOF 1
ENDMDL
MODEL 3
REMARK VINA RESULT:      -4.4      1.869      2.103
REMARK  1 active torsions:
REMARK  status: ('A' for Active; 'I' for Inactive)
REMARK    1  A    between atoms: C2_2  and  C5_5 
ROOT
HETATM    1  C1  UNL     1     -36.650  14.865  -4.673  1.00 20.00     0.065 A 
HETATM    2  C2  UNL     1     -35.547  14.761  -3.855  1.00 20.00     0.015 A 
HETATM    3  C3  UNL     1     -35.484  15.820  -2.900  1.00 20.00    -0.031 A 
HETATM    4  C4  UNL     1     -36.549  16.690  -3.042  1.00 20.00    -0.010 A 
HETATM    5  C6  UNL     1     -34.414  16.031  -1.873  1.00 20.00     0.040 C 
HETATM    6  C7  UNL     1     -36.798  17.891  -2.185  1.00 20.00     0.046 C 
HETATM    7  C8  UNL     1     -34.856  17.025  -0.787  1.00 20.00     0.005 C 
HETATM    8  C9  UNL     1     -35.532  18.262  -1.394  1.00 20.00     0.005 C 
HETATM    9  S11 UNL     1     -37.608  16.233  -4.294  1.00 20.00    -0.105 SA
ENDROOT
BRANCH   2  10
HETATM   10  C5  UNL     1     -34.595  13.689  -3.992  1.00 20.00     0.271 C 
HETATM   11  O10 UNL     1     -34.837  12.627  -4.588  1.00 20.00    -0.301 OA
ENDBRANCH   2  10
TORSDOF 1
ENDMDL
MODEL 4
REMARK VINA RESULT:      -4.2      1.485      1.598
REMARK  1 active torsions:
REMARK  status: ('A' for Active; 'I' for Inactive)
REMARK    1  A    between atoms: C2_2  and  C5_5 
ROOT
HETATM    1  C1  UNL     1     -34.638  16.711  -4.737  1.00 20.00     0.065 A 
HETATM    2  C2  UNL     1     -34.964  16.080  -3.556  1.00 20.00     0.015 A 
HETATM    3  C3  UNL     1     -34.513  16.808  -2.414  1.00 20.00    -0.031 A 
HETATM    4  C4  UNL     1     -33.855  17.966  -2.783  1.00 20.00    -0.010 A 
HETATM    5  C6  UNL     1     -34.677  16.407  -0.980  1.00 20.00     0.040 C 
HETATM    6  C7  UNL     1     -33.280  18.969  -1.832  1.00 20.00     0.046 C 
HETATM    7  C8  UNL     1     -34.420  17.585  -0.027  1.00 20.00     0.005 C 
HETATM    8  C9  UNL     1     -33.161  18.369  -0.422  1.00 20.00     0.005 C 
HETATM    9  S11 UNL     1     -33.791  18.176  -4.471  1.00 20.00    -0.105 SA
ENDROOT
BRANCH   2  10
HETATM   10  C5  UNL     1     -35.677  14.829  -3.533  1.00 20.00     0.271 C 
HETATM   11  O10 UNL     1     -36.897  14.735  -3.324  1.00 20.00    -0.301 OA
ENDBRANCH   2  10
TORSDOF 1
ENDMDL
MODEL 5
REMARK VINA RESULT:      -4.2      1.067      1.192
REMARK  1 active torsions:
REMARK  status: ('A' for Active; 'I' for Inactive)
REMARK    1  A    between atoms: C2_2  and  C5_5 
ROOT
HETATM    1  C1  UNL     1     -34.163  17.223  -5.665  1.00 20.00     0.065 A 
HETATM    2  C2  UNL     1     -34.519  16.238  -4.769  1.00 20.00     0.015 A 
HETATM    3  C3  UNL     1     -34.339  16.651  -3.415  1.00 20.00    -0.031 A 
HETATM    4  C4  UNL     1     -33.844  17.940  -3.344  1.00 20.00    -0.010 A 
HETATM    5  C6  UNL     1     -34.605  15.831  -2.191  1.00 20.00     0.040 C 
HETATM    6  C7  UNL     1     -33.565  18.684  -2.076  1.00 20.00     0.046 C 
HETATM    7  C8  UNL     1     -34.667  16.701  -0.926  1.00 20.00     0.005 C 
HETATM    8  C9  UNL     1     -33.519  17.719  -0.881  1.00 20.00     0.005 C 
HETATM    9  S11 UNL     1     -33.613  18.640  -4.878  1.00 20.00    -0.105 SA
ENDROOT
BRANCH   2  10
HETATM   10  C5  UNL     1     -35.009  14.955  -5.204  1.00 20.00     0.271 C 
HETATM   11  O10 UNL     1     -34.281  13.966  -5.384  1.00 20.00    -0.301 OA
ENDBRANCH   2  10
TORSDOF 1
ENDMDL
MODEL 6
REMARK VINA RESULT:      -4.2      2.546      3.354
REMARK  1 active torsions:
REMARK  status: ('A' for Active; 'I' for Inactive)
REMARK    1  A    between atoms: C2_2  and  C5_5 
ROOT
HETATM    1  C1  UNL     1     -37.354  17.017  -3.085  1.00 20.00     0.065 A 
HETATM    2  C2  UNL     1     -37.187  15.807  -3.723  1.00 20.00     0.015 A 
HETATM    3  C3  UNL     1     -35.836  15.351  -3.667  1.00 20.00    -0.031 A 
HETATM    4  C4  UNL     1     -35.031  16.246  -2.987  1.00 20.00    -0.010 A 
HETATM    5  C6  UNL     1     -35.295  14.091  -4.270  1.00 20.00     0.040 C 
HETATM    6  C7  UNL     1     -33.569  16.060  -2.726  1.00 20.00     0.046 C 
HETATM    7  C8  UNL     1     -33.914  13.734  -3.698  1.00 20.00     0.005 C 
HETATM    8  C9  UNL     1     -32.993  14.960  -3.634  1.00 20.00     0.005 C 
HETATM    9  S11 UNL     1     -35.888  17.602  -2.421  1.00 20.00    -0.105 SA
ENDROOT
BRANCH   2  10
HETATM   10  C5  UNL     1     -38.284  15.125  -4.361  1.00 20.00     0.271 C 
HETATM   11  O10 UNL     1     -38.813  14.098  -3.907  1.00 20.00    -0.301 OA
ENDBRANCH   2  10
TORSDOF 1
ENDMDL
MODEL 7
REMARK VINA RESULT:      -4.1      2.920      4.173
REMARK  1 active torsions:
REMARK  status: ('A' for Active; 'I' for Inactive)
REMARK    1  A    between atoms: C2_2  and  C5_5 
ROOT
HETATM    1  C1  UNL     1     -37.528  16.277  -3.308  1.00 20.00     0.065 A 
HETATM    2  C2  UNL     1     -36.302  16.721  -2.864  1.00 20.00     0.015 A 
HETATM    3  C3  UNL     1     -35.250  15.814  -3.190  1.00 20.00    -0.031 A 
HETATM    4  C4  UNL     1     -35.730  14.709  -3.868  1.00 20.00    -0.010 A 
HETATM    5  C6  UNL     1     -33.801  15.969  -2.845  1.00 20.00     0.040 C 
HETATM    6  C7  UNL     1     -34.890  13.581  -4.378  1.00 20.00     0.046 C 
HETATM    7  C8  UNL     1     -32.915  15.020  -3.667  1.00 20.00     0.005 C 
HETATM    8  C9  UNL     1     -33.500  13.602  -3.719  1.00 20.00     0.005 C 
HETATM    9  S11 UNL     1     -37.413  14.771  -4.115  1.00 20.00    -0.105 SA
ENDROOT
BRANCH   2  10
HETATM   10  C5  UNL     1     -36.156  17.966  -2.154  1.00 20.00     0.271 C 
HETATM   11  O10 UNL     1     -35.996  18.042  -0.925  1.00 20.00    -0.301 OA
ENDBRANCH   2  10
TORSDOF 1
ENDMDL
MODEL 8
REMARK VINA RESULT:      -4.1      1.689      3.367
REMARK  1 active torsions:
REMARK  status: ('A' for Active; 'I' for Inactive)
REMARK    1  A    between atoms: C2_2  and  C5_5 
ROOT
HETATM    1  C1  UNL     1     -34.405  15.356  -2.942  1.00 20.00     0.065 A 
HETATM    2  C2  UNL     1     -34.861  14.829  -4.131  1.00 20.00     0.015 A 
HETATM    3  C3  UNL     1     -34.734  15.750  -5.213  1.00 20.00    -0.031 A 
HETATM    4  C4  UNL     1     -34.187  16.948  -4.792  1.00 20.00    -0.010 A 
HETATM    5  C6  UNL     1     -35.147  15.519  -6.634  1.00 20.00     0.040 C 
HETATM    6  C7  UNL     1     -33.895  18.118  -5.678  1.00 20.00     0.046 C 
HETATM    7  C8  UNL     1     -34.524  16.554  -7.583  1.00 20.00     0.005 C 
HETATM    8  C9  UNL     1     -34.633  17.977  -7.020  1.00 20.00     0.005 C 
HETATM    9  S11 UNL     1     -33.826  16.957  -3.129  1.00 20.00    -0.105 SA
ENDROOT
BRANCH   2  10
HETATM   10  C5  UNL     1     -35.399  13.495  -4.214  1.00 20.00     0.271 C 
HETATM   11  O10 UNL     1     -34.809  12.549  -4.760  1.00 20.00    -0.301 OA
ENDBRANCH   2  10
TORSDOF 1
ENDMDL
MODEL 9
REMARK VINA RESULT:      -4.0      2.381      4.204
REMARK  1 active torsions:
REMARK  status: ('A' for Active; 'I' for Inactive)
REMARK    1  A    between atoms: C2_2  and  C5_5 
ROOT
HETATM    1  C1  UNL     1     -34.297  14.050  -3.382  1.00 20.00     0.065 A 
HETATM    2  C2  UNL     1     -34.230  15.421  -3.502  1.00 20.00     0.015 A 
HETATM    3  C3  UNL     1     -34.451  15.855  -4.844  1.00 20.00    -0.031 A 
HETATM    4  C4  UNL     1     -34.672  14.784  -5.689  1.00 20.00    -0.010 A 
HETATM    5  C6  UNL     1     -34.431  17.269  -5.338  1.00 20.00     0.040 C 
HETATM    6  C7  UNL     1     -34.962  14.890  -7.154  1.00 20.00     0.046 C 
HETATM    7  C8  UNL     1     -35.076  17.396  -6.727  1.00 20.00     0.005 C 
HETATM    8  C9  UNL     1     -34.597  16.289  -7.677  1.00 20.00     0.005 C 
HETATM    9  S11 UNL     1     -34.624  13.287  -4.880  1.00 20.00    -0.105 SA
ENDROOT
BRANCH   2  10
HETATM   10  C5  UNL     1     -33.962  16.272  -2.371  1.00 20.00     0.271 C 
HETATM   11  O10 UNL     1     -34.569  16.192  -1.292  1.00 20.00    -0.301 OA
ENDBRANCH   2  10
TORSDOF 1
ENDMDL
