MODEL 1
REMARK VINA RESULT:      -5.0      0.000      0.000
REMARK  3 active torsions:
REMARK  status: ('A' for Active; 'I' for Inactive)
REMARK    1  A    between atoms: C1_1  and  C3_3 
REMARK       I    between atoms: C1_1  and  N10_10 
REMARK    2  A    between atoms: C8_8  and  C9_9 
REMARK    3  A    between atoms: C8_8  and  N10_10 
ROOT
HETATM    1  C1  UNL     1     -32.561   6.698   3.048  1.00 20.00     0.222 C 
HETATM    2  N10 UNL     1     -33.832   6.849   3.517  1.00 20.00    -0.360 N 
HETATM    3  O11 UNL     1     -31.914   5.662   2.956  1.00 20.00    -0.273 OA
HETATM    4  H28 UNL     1     -34.238   7.763   3.533  1.00 20.00     0.162 HD
ENDROOT
BRANCH   1   5
HETATM    5  C3  UNL     1     -31.950   7.988   2.609  1.00 20.00     0.082 A 
HETATM    6  C2  UNL     1     -31.656   8.179   1.155  1.00 20.00     0.019 A 
HETATM    7  C4  UNL     1     -32.784   8.931   1.802  1.00 20.00    -0.005 A 
HETATM    8  C5  UNL     1     -32.669  10.398   2.035  1.00 20.00     0.011 C 
ENDBRANCH   1   5
BRANCH   2   9
HETATM    9  C8  UNL     1     -34.628   5.699   4.003  1.00 20.00     0.126 C 
BRANCH   9  10
HETATM   10  C9  UNL     1     -34.208   5.273   5.415  1.00 20.00    -0.005 C 
HETATM   11  C6  UNL     1     -34.111   6.458   6.375  1.00 20.00     0.011 C 
HETATM   12  C7  UNL     1     -35.127   4.191   5.984  1.00 20.00     0.011 C 
ENDBRANCH   9  10
ENDBRANCH   2   9
TORSDOF 3
ENDMDL
MODEL 2
REMARK VINA RESULT:      -5.0      0.960      5.136
REMARK  3 active torsions:
REMARK  status: ('A' for Active; 'I' for Inactive)
REMARK    1  A    between atoms: C1_1  and  C3_3 
REMARK       I    between atoms: C1_1  and  N10_10 
REMARK    2  A    between atoms: C8_8  and  C9_9 
REMARK    3  A    between atoms: C8_8  and  N10_10 
ROOT
HETATM    1  C1  UNL     1     -32.913   6.386   3.385  1.00 20.00     0.222 C 
HETATM    2  N10 UNL     1     -32.815   7.625   2.825  1.00 20.00    -0.360 N 
HETATM    3  O11 UNL     1     -32.153   5.436   3.238  1.00 20.00    -0.273 OA
HETATM    4  H28 UNL     1     -33.514   8.309   3.036  1.00 20.00     0.162 HD
ENDROOT
BRANCH   1   5
HETATM    5  C3  UNL     1     -34.108   6.244   4.269  1.00 20.00     0.082 A 
HETATM    6  C2  UNL     1     -35.271   5.447   3.772  1.00 20.00     0.019 A 
HETATM    7  C4  UNL     1     -34.395   4.902   4.864  1.00 20.00    -0.005 A 
HETATM    8  C5  UNL     1     -34.907   4.813   6.261  1.00 20.00     0.011 C 
ENDBRANCH   1   5
BRANCH   2   9
HETATM    9  C8  UNL     1     -31.705   7.988   1.916  1.00 20.00     0.126 C 
BRANCH   9  10
HETATM   10  C9  UNL     1     -32.016   9.261   1.119  1.00 20.00    -0.005 C 
HETATM   11  C6  UNL     1     -32.711   8.960  -0.209  1.00 20.00     0.011 C 
HETATM   12  C7  UNL     1     -32.830  10.265   1.938  1.00 20.00     0.011 C 
ENDBRANCH   9  10
ENDBRANCH   2   9
TORSDOF 3
ENDMDL
MODEL 3
REMARK VINA RESULT:      -4.6      1.054      5.167
REMARK  3 active torsions:
REMARK  status: ('A' for Active; 'I' for Inactive)
REMARK    1  A    between atoms: C1_1  and  C3_3 
REMARK       I    between atoms: C1_1  and  N10_10 
REMARK    2  A    between atoms: C8_8  and  C9_9 
REMARK    3  A    between atoms: C8_8  and  N10_10 
ROOT
HETATM    1  C1  UNL     1     -33.481   6.187   3.360  1.00 20.00     0.222 C 
HETATM    2  N10 UNL     1     -32.758   7.325   3.558  1.00 20.00    -0.360 N 
HETATM    3  O11 UNL     1     -33.383   5.390   2.435  1.00 20.00    -0.273 OA
HETATM    4  H28 UNL     1     -32.946   7.885   4.366  1.00 20.00     0.162 HD
ENDROOT
BRANCH   1   5
HETATM    5  C3  UNL     1     -34.486   5.945   4.437  1.00 20.00     0.082 A 
HETATM    6  C2  UNL     1     -35.787   5.309   4.068  1.00 20.00     0.019 A 
HETATM    7  C4  UNL     1     -34.763   4.534   4.847  1.00 20.00    -0.005 A 
HETATM    8  C5  UNL     1     -34.997   4.219   6.284  1.00 20.00     0.011 C 
ENDBRANCH   1   5
BRANCH   2   9
HETATM    9  C8  UNL     1     -31.703   7.757   2.614  1.00 20.00     0.126 C 
BRANCH   9  10
HETATM   10  C9  UNL     1     -32.278   8.589   1.461  1.00 20.00    -0.005 C 
HETATM   11  C6  UNL     1     -32.631  10.013   1.892  1.00 20.00     0.011 C 
HETATM   12  C7  UNL     1     -31.347   8.608   0.248  1.00 20.00     0.011 C 
ENDBRANCH   9  10
ENDBRANCH   2   9
TORSDOF 3
ENDMDL
MODEL 4
REMARK VINA RESULT:      -4.5     10.642     12.579
REMARK  3 active torsions:
REMARK  status: ('A' for Active; 'I' for Inactive)
REMARK    1  A    between atoms: C1_1  and  C3_3 
REMARK       I    between atoms: C1_1  and  N10_10 
REMARK    2  A    between atoms: C8_8  and  C9_9 
REMARK    3  A    between atoms: C8_8  and  N10_10 
ROOT
HETATM    1  C1  UNL     1     -34.632  13.706  -4.609  1.00 20.00     0.222 C 
HETATM    2  N10 UNL     1     -34.616  14.548  -5.681  1.00 20.00    -0.360 N 
HETATM    3  O11 UNL     1     -35.051  12.556  -4.568  1.00 20.00    -0.273 OA
HETATM    4  H28 UNL     1     -34.239  15.468  -5.569  1.00 20.00     0.162 HD
ENDROOT
BRANCH   1   5
HETATM    5  C3  UNL     1     -34.054  14.324  -3.379  1.00 20.00     0.082 A 
HETATM    6  C2  UNL     1     -32.989  15.362  -3.536  1.00 20.00     0.019 A 
HETATM    7  C4  UNL     1     -34.368  15.756  -3.089  1.00 20.00    -0.005 A 
HETATM    8  C5  UNL     1     -34.603  16.186  -1.681  1.00 20.00     0.011 C 
ENDBRANCH   1   5
BRANCH   2   9
HETATM    9  C8  UNL     1     -35.138  14.141  -7.005  1.00 20.00     0.126 C 
BRANCH   9  10
HETATM   10  C9  UNL     1     -35.721  15.332  -7.776  1.00 20.00    -0.005 C 
HETATM   11  C6  UNL     1     -37.250  15.322  -7.790  1.00 20.00     0.011 C 
HETATM   12  C7  UNL     1     -35.195  16.668  -7.251  1.00 20.00     0.011 C 
ENDBRANCH   9  10
ENDBRANCH   2   9
TORSDOF 3
ENDMDL
MODEL 5
REMARK VINA RESULT:      -4.4     10.714     11.855
REMARK  3 active torsions:
REMARK  status: ('A' for Active; 'I' for Inactive)
REMARK    1  A    between atoms: C1_1  and  C3_3 
REMARK       I    between atoms: C1_1  and  N10_10 
REMARK    2  A    between atoms: C8_8  and  C9_9 
REMARK    3  A    between atoms: C8_8  and  N10_10 
ROOT
HETATM    1  C1  UNL     1     -35.686  16.835  -2.962  1.00 20.00     0.222 C 
HETATM    2  N10 UNL     1     -35.996  15.522  -2.767  1.00 20.00    -0.360 N 
HETATM    3  O11 UNL     1     -35.771  17.477  -4.002  1.00 20.00    -0.273 OA
HETATM    4  H28 UNL     1     -35.877  15.127  -1.855  1.00 20.00     0.162 HD
ENDROOT
BRANCH   1   5
HETATM    5  C3  UNL     1     -35.195  17.505  -1.721  1.00 20.00     0.082 A 
HETATM    6  C2  UNL     1     -34.694  16.651  -0.602  1.00 20.00     0.019 A 
HETATM    7  C4  UNL     1     -33.731  17.461  -1.422  1.00 20.00    -0.005 A 
HETATM    8  C5  UNL     1     -33.066  18.657  -0.832  1.00 20.00     0.011 C 
ENDBRANCH   1   5
BRANCH   2   9
HETATM    9  C8  UNL     1     -36.505  14.666  -3.862  1.00 20.00     0.126 C 
BRANCH   9  10
HETATM   10  C9  UNL     1     -35.402  13.775  -4.445  1.00 20.00    -0.005 C 
HETATM   11  C6  UNL     1     -35.038  14.164  -5.878  1.00 20.00     0.011 C 
HETATM   12  C7  UNL     1     -34.155  13.752  -3.560  1.00 20.00     0.011 C 
ENDBRANCH   9  10
ENDBRANCH   2   9
TORSDOF 3
ENDMDL
MODEL 6
REMARK VINA RESULT:      -4.3     10.979     11.985
REMARK  3 active torsions:
REMARK  status: ('A' for Active; 'I' for Inactive)
REMARK    1  A    between atoms: C1_1  and  C3_3 
REMARK       I    between atoms: C1_1  and  N10_10 
REMARK    2  A    between atoms: C8_8  and  C9_9 
REMARK    3  A    between atoms: C8_8  and  N10_10 
ROOT
HETATM    1  C1  UNL     1     -33.615  15.445  -3.308  1.00 20.00     0.222 C 
HETATM    2  N10 UNL     1     -34.847  14.949  -3.611  1.00 20.00    -0.360 N 
HETATM    3  O11 UNL     1     -32.534  15.100  -3.770  1.00 20.00    -0.273 OA
HETATM    4  H28 UNL     1     -35.650  15.331  -3.152  1.00 20.00     0.162 HD
ENDROOT
BRANCH   1   5
HETATM    5  C3  UNL     1     -33.665  16.536  -2.289  1.00 20.00     0.082 A 
HETATM    6  C2  UNL     1     -34.569  17.701  -2.536  1.00 20.00     0.019 A 
HETATM    7  C4  UNL     1     -34.910  16.692  -1.477  1.00 20.00    -0.005 A 
HETATM    8  C5  UNL     1     -34.806  17.056  -0.035  1.00 20.00     0.011 C 
ENDBRANCH   1   5
BRANCH   2   9
HETATM    9  C8  UNL     1     -35.032  13.863  -4.600  1.00 20.00     0.126 C 
BRANCH   9  10
HETATM   10  C9  UNL     1     -35.588  14.393  -5.928  1.00 20.00    -0.005 C 
HETATM   11  C6  UNL     1     -36.607  15.514  -5.725  1.00 20.00     0.011 C 
HETATM   12  C7  UNL     1     -34.475  14.841  -6.877  1.00 20.00     0.011 C 
ENDBRANCH   9  10
ENDBRANCH   2   9
TORSDOF 3
ENDMDL
MODEL 7
REMARK VINA RESULT:      -4.2     10.884     11.958
REMARK  3 active torsions:
REMARK  status: ('A' for Active; 'I' for Inactive)
REMARK    1  A    between atoms: C1_1  and  C3_3 
REMARK       I    between atoms: C1_1  and  N10_10 
REMARK    2  A    between atoms: C8_8  and  C9_9 
REMARK    3  A    between atoms: C8_8  and  N10_10 
ROOT
HETATM    1  C1  UNL     1     -35.220  16.518  -2.373  1.00 20.00     0.222 C 
HETATM    2  N10 UNL     1     -34.341  16.028  -3.293  1.00 20.00    -0.360 N 
HETATM    3  O11 UNL     1     -36.371  16.891  -2.562  1.00 20.00    -0.273 OA
HETATM    4  H28 UNL     1     -33.425  15.758  -2.993  1.00 20.00     0.162 HD
ENDROOT
BRANCH   1   5
HETATM    5  C3  UNL     1     -34.644  16.573  -0.996  1.00 20.00     0.082 A 
HETATM    6  C2  UNL     1     -33.631  17.629  -0.690  1.00 20.00     0.019 A 
HETATM    7  C4  UNL     1     -35.017  17.724  -0.117  1.00 20.00    -0.005 A 
HETATM    8  C5  UNL     1     -35.243  17.494   1.338  1.00 20.00     0.011 C 
ENDBRANCH   1   5
BRANCH   2   9
HETATM    9  C8  UNL     1     -34.702  15.882  -4.721  1.00 20.00     0.126 C 
BRANCH   9  10
HETATM   10  C9  UNL     1     -34.470  14.452  -5.223  1.00 20.00    -0.005 C 
HETATM   11  C6  UNL     1     -35.000  13.401  -4.248  1.00 20.00     0.011 C 
HETATM   12  C7  UNL     1     -35.051  14.233  -6.620  1.00 20.00     0.011 C 
ENDBRANCH   9  10
ENDBRANCH   2   9
TORSDOF 3
ENDMDL
MODEL 8
REMARK VINA RESULT:      -4.2     10.744     11.927
REMARK  3 active torsions:
REMARK  status: ('A' for Active; 'I' for Inactive)
REMARK    1  A    between atoms: C1_1  and  C3_3 
REMARK       I    between atoms: C1_1  and  N10_10 
REMARK    2  A    between atoms: C8_8  and  C9_9 
REMARK    3  A    between atoms: C8_8  and  N10_10 
ROOT
HETATM    1  C1  UNL     1     -34.822  14.258  -3.900  1.00 20.00     0.222 C 
HETATM    2  N10 UNL     1     -35.204  15.438  -3.334  1.00 20.00    -0.360 N 
HETATM    3  O11 UNL     1     -34.169  13.357  -3.385  1.00 20.00    -0.273 OA
HETATM    4  H28 UNL     1     -35.740  16.084  -3.877  1.00 20.00     0.162 HD
ENDROOT
BRANCH   1   5
HETATM    5  C3  UNL     1     -35.293  14.112  -5.309  1.00 20.00     0.082 A 
HETATM    6  C2  UNL     1     -36.406  14.991  -5.782  1.00 20.00     0.019 A 
HETATM    7  C4  UNL     1     -35.005  15.219  -6.272  1.00 20.00    -0.005 A 
HETATM    8  C5  UNL     1     -34.641  14.892  -7.679  1.00 20.00     0.011 C 
ENDBRANCH   1   5
BRANCH   2   9
HETATM    9  C8  UNL     1     -34.848  15.790  -1.941  1.00 20.00     0.126 C 
BRANCH   9  10
HETATM   10  C9  UNL     1     -33.766  16.876  -1.888  1.00 20.00    -0.005 C 
HETATM   11  C6  UNL     1     -33.826  17.814  -3.094  1.00 20.00     0.011 C 
HETATM   12  C7  UNL     1     -33.817  17.672  -0.583  1.00 20.00     0.011 C 
ENDBRANCH   9  10
ENDBRANCH   2   9
TORSDOF 3
ENDMDL
MODEL 9
REMARK VINA RESULT:      -4.2     10.810     11.619
REMARK  3 active torsions:
REMARK  status: ('A' for Active; 'I' for Inactive)
REMARK    1  A    between atoms: C1_1  and  C3_3 
REMARK       I    between atoms: C1_1  and  N10_10 
REMARK    2  A    between atoms: C8_8  and  C9_9 
REMARK    3  A    between atoms: C8_8  and  N10_10 
ROOT
HETATM    1  C1  UNL     1     -35.294  16.524  -2.344  1.00 20.00     0.222 C 
HETATM    2  N10 UNL     1     -34.514  16.433  -1.230  1.00 20.00    -0.360 N 
HETATM    3  O11 UNL     1     -36.364  17.109  -2.462  1.00 20.00    -0.273 OA
HETATM    4  H28 UNL     1     -33.658  15.918  -1.278  1.00 20.00     0.162 HD
ENDROOT
BRANCH   1   5
HETATM    5  C3  UNL     1     -34.713  15.807  -3.517  1.00 20.00     0.082 A 
HETATM    6  C2  UNL     1     -33.261  15.451  -3.487  1.00 20.00     0.019 A 
HETATM    7  C4  UNL     1     -34.304  14.379  -3.346  1.00 20.00    -0.005 A 
HETATM    8  C5  UNL     1     -34.536  13.411  -4.454  1.00 20.00     0.011 C 
ENDBRANCH   1   5
BRANCH   2   9
HETATM    9  C8  UNL     1     -34.897  17.073   0.049  1.00 20.00     0.126 C 
BRANCH   9  10
HETATM   10  C9  UNL     1     -34.109  18.365   0.296  1.00 20.00    -0.005 C 
HETATM   11  C6  UNL     1     -33.869  18.622   1.784  1.00 20.00     0.011 C 
HETATM   12  C7  UNL     1     -32.789  18.388  -0.475  1.00 20.00     0.011 C 
ENDBRANCH   9  10
ENDBRANCH   2   9
TORSDOF 3
ENDMDL
