MODEL 1
REMARK VINA RESULT:      -4.4      0.000      0.000
REMARK  3 active torsions:
REMARK  status: ('A' for Active; 'I' for Inactive)
REMARK    1  A    between atoms: C1_1  and  C3_3 
REMARK       I    between atoms: C1_1  and  N10_10 
REMARK    2  A    between atoms: C8_8  and  C9_9 
REMARK    3  A    between atoms: C8_8  and  N10_10 
ROOT
HETATM    1  C1  UNL     1     -34.532  13.794  -5.213  1.00 20.00     0.222 C 
HETATM    2  N10 UNL     1     -33.675  14.807  -4.898  1.00 20.00    -0.360 N 
HETATM    3  O11 UNL     1     -34.907  12.878  -4.490  1.00 20.00    -0.273 OA
HETATM    4  H28 UNL     1     -33.455  15.491  -5.593  1.00 20.00     0.162 HD
ENDROOT
BRANCH   1   5
HETATM    5  C3  UNL     1     -35.032  13.876  -6.616  1.00 20.00     0.082 A 
HETATM    6  C2  UNL     1     -34.724  15.103  -7.414  1.00 20.00     0.019 A 
HETATM    7  C4  UNL     1     -36.132  14.831  -6.967  1.00 20.00    -0.005 A 
HETATM    8  C5  UNL     1     -36.782  15.723  -5.965  1.00 20.00     0.011 C 
ENDBRANCH   1   5
BRANCH   2   9
HETATM    9  C8  UNL     1     -33.059  14.921  -3.557  1.00 20.00     0.126 C 
BRANCH   9  10
HETATM   10  C9  UNL     1     -33.538  16.176  -2.816  1.00 20.00    -0.005 C 
HETATM   11  C6  UNL     1     -33.749  17.362  -3.758  1.00 20.00     0.011 C 
HETATM   12  C7  UNL     1     -34.800  15.909  -1.994  1.00 20.00     0.011 C 
ENDBRANCH   9  10
ENDBRANCH   2   9
TORSDOF 3
ENDMDL
MODEL 2
REMARK VINA RESULT:      -4.3     11.619     13.050
REMARK  3 active torsions:
REMARK  status: ('A' for Active; 'I' for Inactive)
REMARK    1  A    between atoms: C1_1  and  C3_3 
REMARK       I    between atoms: C1_1  and  N10_10 
REMARK    2  A    between atoms: C8_8  and  C9_9 
REMARK    3  A    between atoms: C8_8  and  N10_10 
ROOT
HETATM    1  C1  UNL     1     -34.379   5.430   3.926  1.00 20.00     0.222 C 
HETATM    2  N10 UNL     1     -33.179   5.905   3.484  1.00 20.00    -0.360 N 
HETATM    3  O11 UNL     1     -35.483   5.599   3.423  1.00 20.00    -0.273 OA
HETATM    4  H28 UNL     1     -32.351   5.687   3.999  1.00 20.00     0.162 HD
ENDROOT
BRANCH   1   5
HETATM    5  C3  UNL     1     -34.253   4.616   5.171  1.00 20.00     0.082 A 
HETATM    6  C2  UNL     1     -35.366   4.660   6.169  1.00 20.00     0.019 A 
HETATM    7  C4  UNL     1     -34.042   5.290   6.492  1.00 20.00    -0.005 A 
HETATM    8  C5  UNL     1     -33.936   6.770   6.639  1.00 20.00     0.011 C 
ENDBRANCH   1   5
BRANCH   2   9
HETATM    9  C8  UNL     1     -33.070   6.735   2.263  1.00 20.00     0.126 C 
BRANCH   9  10
HETATM   10  C9  UNL     1     -31.920   7.745   2.362  1.00 20.00    -0.005 C 
HETATM   11  C6  UNL     1     -32.287   9.105   1.766  1.00 20.00     0.011 C 
HETATM   12  C7  UNL     1     -31.420   7.904   3.799  1.00 20.00     0.011 C 
ENDBRANCH   9  10
ENDBRANCH   2   9
TORSDOF 3
ENDMDL
MODEL 3
REMARK VINA RESULT:      -4.3     11.003     12.328
REMARK  3 active torsions:
REMARK  status: ('A' for Active; 'I' for Inactive)
REMARK    1  A    between atoms: C1_1  and  C3_3 
REMARK       I    between atoms: C1_1  and  N10_10 
REMARK    2  A    between atoms: C8_8  and  C9_9 
REMARK    3  A    between atoms: C8_8  and  N10_10 
ROOT
HETATM    1  C1  UNL     1     -33.418   6.251   3.980  1.00 20.00     0.222 C 
HETATM    2  N10 UNL     1     -32.850   6.586   2.786  1.00 20.00    -0.360 N 
HETATM    3  O11 UNL     1     -33.277   6.812   5.060  1.00 20.00    -0.273 OA
HETATM    4  H28 UNL     1     -33.056   6.034   1.979  1.00 20.00     0.162 HD
ENDROOT
BRANCH   1   5
HETATM    5  C3  UNL     1     -34.304   5.055   3.882  1.00 20.00     0.082 A 
HETATM    6  C2  UNL     1     -35.773   5.233   4.103  1.00 20.00     0.019 A 
HETATM    7  C4  UNL     1     -34.944   4.490   5.112  1.00 20.00    -0.005 A 
HETATM    8  C5  UNL     1     -34.734   5.064   6.472  1.00 20.00     0.011 C 
ENDBRANCH   1   5
BRANCH   2   9
HETATM    9  C8  UNL     1     -31.936   7.743   2.653  1.00 20.00     0.126 C 
BRANCH   9  10
HETATM   10  C9  UNL     1     -32.348   8.664   1.498  1.00 20.00    -0.005 C 
HETATM   11  C6  UNL     1     -32.660  10.085   1.971  1.00 20.00     0.011 C 
HETATM   12  C7  UNL     1     -31.303   8.686   0.381  1.00 20.00     0.011 C 
ENDBRANCH   9  10
ENDBRANCH   2   9
TORSDOF 3
ENDMDL
MODEL 4
REMARK VINA RESULT:      -4.3      2.201      3.018
REMARK  3 active torsions:
REMARK  status: ('A' for Active; 'I' for Inactive)
REMARK    1  A    between atoms: C1_1  and  C3_3 
REMARK       I    between atoms: C1_1  and  N10_10 
REMARK    2  A    between atoms: C8_8  and  C9_9 
REMARK    3  A    between atoms: C8_8  and  N10_10 
ROOT
HETATM    1  C1  UNL     1     -35.033  15.359  -3.108  1.00 20.00     0.222 C 
HETATM    2  N10 UNL     1     -33.894  16.016  -2.743  1.00 20.00    -0.360 N 
HETATM    3  O11 UNL     1     -36.177  15.798  -3.128  1.00 20.00    -0.273 OA
HETATM    4  H28 UNL     1     -33.022  15.530  -2.776  1.00 20.00     0.162 HD
ENDROOT
BRANCH   1   5
HETATM    5  C3  UNL     1     -34.777  13.949  -3.523  1.00 20.00     0.082 A 
HETATM    6  C2  UNL     1     -33.396  13.570  -3.955  1.00 20.00     0.019 A 
HETATM    7  C4  UNL     1     -34.510  13.625  -4.961  1.00 20.00    -0.005 A 
HETATM    8  C5  UNL     1     -34.493  14.658  -6.035  1.00 20.00     0.011 C 
ENDBRANCH   1   5
BRANCH   2   9
HETATM    9  C8  UNL     1     -33.915  17.428  -2.297  1.00 20.00     0.126 C 
BRANCH   9  10
HETATM   10  C9  UNL     1     -33.585  17.559  -0.805  1.00 20.00    -0.005 C 
HETATM   11  C6  UNL     1     -32.912  18.892  -0.474  1.00 20.00     0.011 C 
HETATM   12  C7  UNL     1     -34.818  17.345   0.075  1.00 20.00     0.011 C 
ENDBRANCH   9  10
ENDBRANCH   2   9
TORSDOF 3
ENDMDL
MODEL 5
REMARK VINA RESULT:      -4.2     10.565     11.799
REMARK  3 active torsions:
REMARK  status: ('A' for Active; 'I' for Inactive)
REMARK    1  A    between atoms: C1_1  and  C3_3 
REMARK       I    between atoms: C1_1  and  N10_10 
REMARK    2  A    between atoms: C8_8  and  C9_9 
REMARK    3  A    between atoms: C8_8  and  N10_10 
ROOT
HETATM    1  C1  UNL     1     -32.171   7.420   2.969  1.00 20.00     0.222 C 
HETATM    2  N10 UNL     1     -33.238   6.678   3.383  1.00 20.00    -0.360 N 
HETATM    3  O11 UNL     1     -31.203   7.773   3.631  1.00 20.00    -0.273 OA
HETATM    4  H28 UNL     1     -33.963   6.463   2.730  1.00 20.00     0.162 HD
ENDROOT
BRANCH   1   5
HETATM    5  C3  UNL     1     -32.261   7.807   1.531  1.00 20.00     0.082 A 
HETATM    6  C2  UNL     1     -31.182   8.666   0.953  1.00 20.00     0.019 A 
HETATM    7  C4  UNL     1     -32.563   9.224   1.151  1.00 20.00    -0.005 A 
HETATM    8  C5  UNL     1     -32.795  10.301   2.156  1.00 20.00     0.011 C 
ENDBRANCH   1   5
BRANCH   2   9
HETATM    9  C8  UNL     1     -33.354   6.184   4.774  1.00 20.00     0.126 C 
BRANCH   9  10
HETATM   10  C9  UNL     1     -34.746   5.607   5.060  1.00 20.00    -0.005 C 
HETATM   11  C6  UNL     1     -35.544   5.357   3.780  1.00 20.00     0.011 C 
HETATM   12  C7  UNL     1     -34.676   4.337   5.908  1.00 20.00     0.011 C 
ENDBRANCH   9  10
ENDBRANCH   2   9
TORSDOF 3
ENDMDL
MODEL 6
REMARK VINA RESULT:      -4.2     11.070     12.537
REMARK  3 active torsions:
REMARK  status: ('A' for Active; 'I' for Inactive)
REMARK    1  A    between atoms: C1_1  and  C3_3 
REMARK       I    between atoms: C1_1  and  N10_10 
REMARK    2  A    between atoms: C8_8  and  C9_9 
REMARK    3  A    between atoms: C8_8  and  N10_10 
ROOT
HETATM    1  C1  UNL     1     -33.864   6.276   3.788  1.00 20.00     0.222 C 
HETATM    2  N10 UNL     1     -32.897   7.238   3.810  1.00 20.00    -0.360 N 
HETATM    3  O11 UNL     1     -34.070   5.442   2.915  1.00 20.00    -0.273 OA
HETATM    4  H28 UNL     1     -32.845   7.856   4.594  1.00 20.00     0.162 HD
ENDROOT
BRANCH   1   5
HETATM    5  C3  UNL     1     -34.730   6.301   5.003  1.00 20.00     0.082 A 
HETATM    6  C2  UNL     1     -34.092   6.101   6.340  1.00 20.00     0.019 A 
HETATM    7  C4  UNL     1     -34.988   5.040   5.769  1.00 20.00    -0.005 A 
HETATM    8  C5  UNL     1     -34.420   3.720   5.371  1.00 20.00     0.011 C 
ENDBRANCH   1   5
BRANCH   2   9
HETATM    9  C8  UNL     1     -31.924   7.394   2.706  1.00 20.00     0.126 C 
BRANCH   9  10
HETATM   10  C9  UNL     1     -32.411   8.399   1.655  1.00 20.00    -0.005 C 
HETATM   11  C6  UNL     1     -32.686   9.779   2.254  1.00 20.00     0.011 C 
HETATM   12  C7  UNL     1     -31.444   8.507   0.474  1.00 20.00     0.011 C 
ENDBRANCH   9  10
ENDBRANCH   2   9
TORSDOF 3
ENDMDL
MODEL 7
REMARK VINA RESULT:      -4.2      2.022      2.729
REMARK  3 active torsions:
REMARK  status: ('A' for Active; 'I' for Inactive)
REMARK    1  A    between atoms: C1_1  and  C3_3 
REMARK       I    between atoms: C1_1  and  N10_10 
REMARK    2  A    between atoms: C8_8  and  C9_9 
REMARK    3  A    between atoms: C8_8  and  N10_10 
ROOT
HETATM    1  C1  UNL     1     -33.821  16.280  -4.830  1.00 20.00     0.222 C 
HETATM    2  N10 UNL     1     -34.577  17.050  -3.997  1.00 20.00    -0.360 N 
HETATM    3  O11 UNL     1     -32.599  16.218  -4.890  1.00 20.00    -0.273 OA
HETATM    4  H28 UNL     1     -35.573  17.000  -4.059  1.00 20.00     0.162 HD
ENDROOT
BRANCH   1   5
HETATM    5  C3  UNL     1     -34.647  15.440  -5.746  1.00 20.00     0.082 A 
HETATM    6  C2  UNL     1     -36.069  15.166  -5.376  1.00 20.00     0.019 A 
HETATM    7  C4  UNL     1     -35.055  14.059  -5.336  1.00 20.00    -0.005 A 
HETATM    8  C5  UNL     1     -34.665  13.452  -4.032  1.00 20.00     0.011 C 
ENDBRANCH   1   5
BRANCH   2   9
HETATM    9  C8  UNL     1     -33.963  17.960  -3.003  1.00 20.00     0.126 C 
BRANCH   9  10
HETATM   10  C9  UNL     1     -33.653  17.238  -1.686  1.00 20.00    -0.005 C 
HETATM   11  C6  UNL     1     -33.269  18.208  -0.568  1.00 20.00     0.011 C 
HETATM   12  C7  UNL     1     -34.805  16.334  -1.242  1.00 20.00     0.011 C 
ENDBRANCH   9  10
ENDBRANCH   2   9
TORSDOF 3
ENDMDL
MODEL 8
REMARK VINA RESULT:      -4.2      1.848      4.318
REMARK  3 active torsions:
REMARK  status: ('A' for Active; 'I' for Inactive)
REMARK    1  A    between atoms: C1_1  and  C3_3 
REMARK       I    between atoms: C1_1  and  N10_10 
REMARK    2  A    between atoms: C8_8  and  C9_9 
REMARK    3  A    between atoms: C8_8  and  N10_10 
ROOT
HETATM    1  C1  UNL     1     -33.468  15.983  -3.330  1.00 20.00     0.222 C 
HETATM    2  N10 UNL     1     -33.954  14.725  -3.130  1.00 20.00    -0.360 N 
HETATM    3  O11 UNL     1     -32.936  16.429  -4.340  1.00 20.00    -0.273 OA
HETATM    4  H28 UNL     1     -34.365  14.498  -2.248  1.00 20.00     0.162 HD
ENDROOT
BRANCH   1   5
HETATM    5  C3  UNL     1     -33.640  16.864  -2.138  1.00 20.00     0.082 A 
HETATM    6  C2  UNL     1     -34.656  16.484  -1.109  1.00 20.00     0.019 A 
HETATM    7  C4  UNL     1     -34.884  17.684  -1.983  1.00 20.00    -0.005 A 
HETATM    8  C5  UNL     1     -35.989  17.678  -2.984  1.00 20.00     0.011 C 
ENDBRANCH   1   5
BRANCH   2   9
HETATM    9  C8  UNL     1     -33.889  13.685  -4.183  1.00 20.00     0.126 C 
BRANCH   9  10
HETATM   10  C9  UNL     1     -35.182  13.627  -5.006  1.00 20.00    -0.005 C 
HETATM   11  C6  UNL     1     -36.384  14.182  -4.240  1.00 20.00     0.011 C 
HETATM   12  C7  UNL     1     -35.033  14.329  -6.356  1.00 20.00     0.011 C 
ENDBRANCH   9  10
ENDBRANCH   2   9
TORSDOF 3
ENDMDL
MODEL 9
REMARK VINA RESULT:      -4.1      1.898      2.890
REMARK  3 active torsions:
REMARK  status: ('A' for Active; 'I' for Inactive)
REMARK    1  A    between atoms: C1_1  and  C3_3 
REMARK       I    between atoms: C1_1  and  N10_10 
REMARK    2  A    between atoms: C8_8  and  C9_9 
REMARK    3  A    between atoms: C8_8  and  N10_10 
ROOT
HETATM    1  C1  UNL     1     -36.256  14.458  -3.734  1.00 20.00     0.222 C 
HETATM    2  N10 UNL     1     -35.616  15.567  -3.265  1.00 20.00    -0.360 N 
HETATM    3  O11 UNL     1     -37.463  14.277  -3.837  1.00 20.00    -0.273 OA
HETATM    4  H28 UNL     1     -34.617  15.576  -3.237  1.00 20.00     0.162 HD
ENDROOT
BRANCH   1   5
HETATM    5  C3  UNL     1     -35.312  13.382  -4.154  1.00 20.00     0.082 A 
HETATM    6  C2  UNL     1     -33.852  13.699  -4.224  1.00 20.00     0.019 A 
HETATM    7  C4  UNL     1     -34.631  13.457  -5.486  1.00 20.00    -0.005 A 
HETATM    8  C5  UNL     1     -34.855  14.572  -6.449  1.00 20.00     0.011 C 
ENDBRANCH   1   5
BRANCH   2   9
HETATM    9  C8  UNL     1     -36.360  16.758  -2.795  1.00 20.00     0.126 C 
BRANCH   9  10
HETATM   10  C9  UNL     1     -35.589  17.519  -1.710  1.00 20.00    -0.005 C 
HETATM   11  C6  UNL     1     -34.638  16.612  -0.928  1.00 20.00     0.011 C 
HETATM   12  C7  UNL     1     -34.838  18.724  -2.279  1.00 20.00     0.011 C 
ENDBRANCH   9  10
ENDBRANCH   2   9
TORSDOF 3
ENDMDL
