MODEL 1
REMARK VINA RESULT:      -3.7      0.000      0.000
REMARK  0 active torsions:
REMARK  status: ('A' for Active; 'I' for Inactive)
ROOT
HETATM    1  C1  UNL     1     -35.251   4.368   6.136  1.00 20.00     0.137 A 
HETATM    2  C2  UNL     1     -34.459   5.470   6.412  1.00 20.00     0.118 A 
HETATM    3  C3  UNL     1     -34.488   4.980   4.276  1.00 20.00     0.177 A 
HETATM    4  C4  UNL     1     -33.155   6.828   4.697  1.00 20.00     0.112 A 
HETATM    5  C5  UNL     1     -33.014   6.730   3.362  1.00 20.00    -0.002 A 
HETATM    6  C6  UNL     1     -32.198   7.623   2.496  1.00 20.00     0.058 C 
HETATM    7  N7  UNL     1     -35.264   4.065   4.786  1.00 20.00    -0.235 NA
HETATM    8  N8  UNL     1     -33.979   5.846   5.194  1.00 20.00    -0.309 N 
HETATM    9  S9  UNL     1     -33.937   5.367   2.676  1.00 20.00    -0.055 SA
ENDROOT
TORSDOF 0
ENDMDL
MODEL 2
REMARK VINA RESULT:      -3.7     12.066     13.666
REMARK  0 active torsions:
REMARK  status: ('A' for Active; 'I' for Inactive)
ROOT
HETATM    1  C1  UNL     1     -34.038  13.266  -3.719  1.00 20.00     0.137 A 
HETATM    2  C2  UNL     1     -33.573  14.568  -3.782  1.00 20.00     0.118 A 
HETATM    3  C3  UNL     1     -34.712  14.004  -5.567  1.00 20.00     0.177 A 
HETATM    4  C4  UNL     1     -33.951  16.188  -5.710  1.00 20.00     0.112 A 
HETATM    5  C5  UNL     1     -34.599  16.082  -6.886  1.00 20.00    -0.002 A 
HETATM    6  C6  UNL     1     -34.726  17.146  -7.918  1.00 20.00     0.058 C 
HETATM    7  N7  UNL     1     -34.756  12.917  -4.849  1.00 20.00    -0.235 NA
HETATM    8  N8  UNL     1     -34.022  15.022  -4.986  1.00 20.00    -0.309 N 
HETATM    9  S9  UNL     1     -35.334  14.474  -7.118  1.00 20.00    -0.055 SA
ENDROOT
TORSDOF 0
ENDMDL
MODEL 3
REMARK VINA RESULT:      -3.6     12.046     13.357
REMARK  0 active torsions:
REMARK  status: ('A' for Active; 'I' for Inactive)
ROOT
HETATM    1  C1  UNL     1     -34.572  13.125  -4.840  1.00 20.00     0.137 A 
HETATM    2  C2  UNL     1     -34.595  14.178  -5.738  1.00 20.00     0.118 A 
HETATM    3  C3  UNL     1     -34.179  14.839  -3.690  1.00 20.00     0.177 A 
HETATM    4  C4  UNL     1     -34.209  16.628  -5.162  1.00 20.00     0.112 A 
HETATM    5  C5  UNL     1     -33.944  17.271  -4.009  1.00 20.00    -0.002 A 
HETATM    6  C6  UNL     1     -33.743  18.736  -3.845  1.00 20.00     0.058 C 
HETATM    7  N7  UNL     1     -34.310  13.549  -3.549  1.00 20.00    -0.235 NA
HETATM    8  N8  UNL     1     -34.338  15.274  -4.970  1.00 20.00    -0.309 N 
HETATM    9  S9  UNL     1     -33.847  16.162  -2.616  1.00 20.00    -0.055 SA
ENDROOT
TORSDOF 0
ENDMDL
MODEL 4
REMARK VINA RESULT:      -3.6     12.627     13.681
REMARK  0 active torsions:
REMARK  status: ('A' for Active; 'I' for Inactive)
ROOT
HETATM    1  C1  UNL     1     -34.442  14.775  -6.624  1.00 20.00     0.137 A 
HETATM    2  C2  UNL     1     -34.806  14.071  -5.489  1.00 20.00     0.118 A 
HETATM    3  C3  UNL     1     -34.183  16.121  -5.031  1.00 20.00     0.177 A 
HETATM    4  C4  UNL     1     -34.784  14.976  -3.109  1.00 20.00     0.112 A 
HETATM    5  C5  UNL     1     -34.450  16.170  -2.583  1.00 20.00    -0.002 A 
HETATM    6  C6  UNL     1     -34.496  16.538  -1.142  1.00 20.00     0.058 C 
HETATM    7  N7  UNL     1     -34.049  16.068  -6.328  1.00 20.00    -0.235 NA
HETATM    8  N8  UNL     1     -34.630  14.963  -4.475  1.00 20.00    -0.309 N 
HETATM    9  S9  UNL     1     -33.920  17.338  -3.822  1.00 20.00    -0.055 SA
ENDROOT
TORSDOF 0
ENDMDL
MODEL 5
REMARK VINA RESULT:      -3.5     12.460     12.829
REMARK  0 active torsions:
REMARK  status: ('A' for Active; 'I' for Inactive)
ROOT
HETATM    1  C1  UNL     1     -38.652  15.472  -3.559  1.00 20.00     0.137 A 
HETATM    2  C2  UNL     1     -37.721  16.460  -3.287  1.00 20.00     0.118 A 
HETATM    3  C3  UNL     1     -36.780  14.564  -3.853  1.00 20.00     0.177 A 
HETATM    4  C4  UNL     1     -35.192  16.191  -3.406  1.00 20.00     0.112 A 
HETATM    5  C5  UNL     1     -34.392  15.154  -3.719  1.00 20.00    -0.002 A 
HETATM    6  C6  UNL     1     -32.904  15.167  -3.739  1.00 20.00     0.058 C 
HETATM    7  N7  UNL     1     -38.051  14.278  -3.915  1.00 20.00    -0.235 NA
HETATM    8  N8  UNL     1     -36.521  15.848  -3.484  1.00 20.00    -0.309 N 
HETATM    9  S9  UNL     1     -35.310  13.682  -4.131  1.00 20.00    -0.055 SA
ENDROOT
TORSDOF 0
ENDMDL
MODEL 6
REMARK VINA RESULT:      -3.5     11.764     12.775
REMARK  0 active torsions:
REMARK  status: ('A' for Active; 'I' for Inactive)
ROOT
HETATM    1  C1  UNL     1     -33.713  13.288  -4.121  1.00 20.00     0.137 A 
HETATM    2  C2  UNL     1     -33.506  14.599  -3.725  1.00 20.00     0.118 A 
HETATM    3  C3  UNL     1     -35.630  14.144  -4.017  1.00 20.00     0.177 A 
HETATM    4  C4  UNL     1     -35.324  16.343  -3.356  1.00 20.00     0.112 A 
HETATM    5  C5  UNL     1     -36.665  16.310  -3.467  1.00 20.00    -0.002 A 
HETATM    6  C6  UNL     1     -37.597  17.441  -3.209  1.00 20.00     0.058 C 
HETATM    7  N7  UNL     1     -35.056  13.008  -4.304  1.00 20.00    -0.235 NA
HETATM    8  N8  UNL     1     -34.759  15.129  -3.666  1.00 20.00    -0.309 N 
HETATM    9  S9  UNL     1     -37.270  14.712  -3.977  1.00 20.00    -0.055 SA
ENDROOT
TORSDOF 0
ENDMDL
MODEL 7
REMARK VINA RESULT:      -3.5     12.324     14.007
REMARK  0 active torsions:
REMARK  status: ('A' for Active; 'I' for Inactive)
ROOT
HETATM    1  C1  UNL     1     -33.722  13.628  -3.691  1.00 20.00     0.137 A 
HETATM    2  C2  UNL     1     -34.368  13.439  -4.902  1.00 20.00     0.118 A 
HETATM    3  C3  UNL     1     -33.643  15.493  -4.656  1.00 20.00     0.177 A 
HETATM    4  C4  UNL     1     -34.715  15.216  -6.691  1.00 20.00     0.112 A 
HETATM    5  C5  UNL     1     -34.374  16.516  -6.774  1.00 20.00    -0.002 A 
HETATM    6  C6  UNL     1     -34.660  17.429  -7.914  1.00 20.00     0.058 C 
HETATM    7  N7  UNL     1     -33.268  14.926  -3.543  1.00 20.00    -0.235 NA
HETATM    8  N8  UNL     1     -34.302  14.658  -5.505  1.00 20.00    -0.309 N 
HETATM    9  S9  UNL     1     -33.502  17.087  -5.327  1.00 20.00    -0.055 SA
ENDROOT
TORSDOF 0
ENDMDL
MODEL 8
REMARK VINA RESULT:      -3.4     12.746     13.812
REMARK  0 active torsions:
REMARK  status: ('A' for Active; 'I' for Inactive)
ROOT
HETATM    1  C1  UNL     1     -33.536  16.124  -5.454  1.00 20.00     0.137 A 
HETATM    2  C2  UNL     1     -34.119  15.280  -4.524  1.00 20.00     0.118 A 
HETATM    3  C3  UNL     1     -33.684  17.260  -3.692  1.00 20.00     0.177 A 
HETATM    4  C4  UNL     1     -34.658  15.877  -2.109  1.00 20.00     0.112 A 
HETATM    5  C5  UNL     1     -34.491  16.997  -1.380  1.00 20.00    -0.002 A 
HETATM    6  C6  UNL     1     -34.869  17.181   0.048  1.00 20.00     0.058 C 
HETATM    7  N7  UNL     1     -33.264  17.372  -4.922  1.00 20.00    -0.235 NA
HETATM    8  N8  UNL     1     -34.203  16.038  -3.396  1.00 20.00    -0.309 N 
HETATM    9  S9  UNL     1     -33.740  18.316  -2.316  1.00 20.00    -0.055 SA
ENDROOT
TORSDOF 0
ENDMDL
MODEL 9
REMARK VINA RESULT:      -3.4     12.532     13.301
REMARK  0 active torsions:
REMARK  status: ('A' for Active; 'I' for Inactive)
ROOT
HETATM    1  C1  UNL     1     -34.014  17.863  -1.066  1.00 20.00     0.137 A 
HETATM    2  C2  UNL     1     -34.530  16.577  -1.059  1.00 20.00     0.118 A 
HETATM    3  C3  UNL     1     -33.824  17.179  -3.044  1.00 20.00     0.177 A 
HETATM    4  C4  UNL     1     -34.677  15.026  -3.072  1.00 20.00     0.112 A 
HETATM    5  C5  UNL     1     -34.322  15.159  -4.364  1.00 20.00    -0.002 A 
HETATM    6  C6  UNL     1     -34.481  14.134  -5.430  1.00 20.00     0.058 C 
HETATM    7  N7  UNL     1     -33.571  18.236  -2.323  1.00 20.00    -0.235 NA
HETATM    8  N8  UNL     1     -34.394  16.159  -2.348  1.00 20.00    -0.309 N 
HETATM    9  S9  UNL     1     -33.604  16.754  -4.713  1.00 20.00    -0.055 SA
ENDROOT
TORSDOF 0
ENDMDL
