MODEL 1
REMARK VINA RESULT:      -3.9      0.000      0.000
REMARK  1 active torsions:
REMARK  status: ('A' for Active; 'I' for Inactive)
REMARK    1  A    between atoms: C1_1  and  C4_4 
ROOT
HETATM    1  C2  UNL     1     -35.665  15.858  -5.587  1.00 20.00     0.023 C 
HETATM    2  C3  UNL     1     -34.810  17.042  -5.998  1.00 20.00     0.075 C 
HETATM    3  C4  UNL     1     -34.718  14.842  -4.955  1.00 20.00     0.066 C 
HETATM    4  C5  UNL     1     -33.883  15.589  -3.897  1.00 20.00     0.010 C 
HETATM    5  C6  UNL     1     -34.615  15.847  -2.573  1.00 20.00     0.027 C 
HETATM    6  C7  UNL     1     -32.550  14.886  -3.632  1.00 20.00     0.027 C 
HETATM    7  S9  UNL     1     -33.566  17.219  -4.689  1.00 20.00    -0.159 SA
ENDROOT
BRANCH   3   8
HETATM    8  C1  UNL     1     -35.481  13.682  -4.389  1.00 20.00     0.237 C 
HETATM    9  O8  UNL     1     -35.058  12.530  -4.389  1.00 20.00    -0.306 OA
ENDBRANCH   3   8
TORSDOF 1
ENDMDL
MODEL 2
REMARK VINA RESULT:      -3.9      1.802      2.718
REMARK  1 active torsions:
REMARK  status: ('A' for Active; 'I' for Inactive)
REMARK    1  A    between atoms: C1_1  and  C4_4 
ROOT
HETATM    1  C2  UNL     1     -35.494  15.523  -2.756  1.00 20.00     0.023 C 
HETATM    2  C3  UNL     1     -34.103  16.107  -2.594  1.00 20.00     0.075 C 
HETATM    3  C4  UNL     1     -35.762  15.459  -4.256  1.00 20.00     0.066 C 
HETATM    4  C5  UNL     1     -34.555  14.759  -4.909  1.00 20.00     0.010 C 
HETATM    5  C6  UNL     1     -34.551  13.231  -4.767  1.00 20.00     0.027 C 
HETATM    6  C7  UNL     1     -34.405  15.150  -6.381  1.00 20.00     0.027 C 
HETATM    7  S9  UNL     1     -33.125  15.414  -3.956  1.00 20.00    -0.159 SA
ENDROOT
BRANCH   3   8
HETATM    8  C1  UNL     1     -37.064  14.770  -4.538  1.00 20.00     0.237 C 
HETATM    9  O8  UNL     1     -37.761  14.259  -3.667  1.00 20.00    -0.306 OA
ENDBRANCH   3   8
TORSDOF 1
ENDMDL
MODEL 3
REMARK VINA RESULT:      -3.9      1.582      2.889
REMARK  1 active torsions:
REMARK  status: ('A' for Active; 'I' for Inactive)
REMARK    1  A    between atoms: C1_1  and  C4_4 
ROOT
HETATM    1  C2  UNL     1     -33.566  15.501  -3.047  1.00 20.00     0.023 C 
HETATM    2  C3  UNL     1     -34.113  16.505  -2.048  1.00 20.00     0.075 C 
HETATM    3  C4  UNL     1     -34.741  14.622  -3.462  1.00 20.00     0.066 C 
HETATM    4  C5  UNL     1     -35.894  15.560  -3.870  1.00 20.00     0.010 C 
HETATM    5  C6  UNL     1     -35.755  16.169  -5.272  1.00 20.00     0.027 C 
HETATM    6  C7  UNL     1     -37.255  14.875  -3.729  1.00 20.00     0.027 C 
HETATM    7  S9  UNL     1     -35.772  16.930  -2.649  1.00 20.00    -0.159 SA
ENDROOT
BRANCH   3   8
HETATM    8  C1  UNL     1     -34.340  13.675  -4.553  1.00 20.00     0.237 C 
HETATM    9  O8  UNL     1     -34.836  12.563  -4.699  1.00 20.00    -0.306 OA
ENDBRANCH   3   8
TORSDOF 1
ENDMDL
MODEL 4
REMARK VINA RESULT:      -3.9      1.950      2.696
REMARK  1 active torsions:
REMARK  status: ('A' for Active; 'I' for Inactive)
REMARK    1  A    between atoms: C1_1  and  C4_4 
ROOT
HETATM    1  C2  UNL     1     -35.368  13.784  -4.688  1.00 20.00     0.023 C 
HETATM    2  C3  UNL     1     -33.895  13.498  -4.465  1.00 20.00     0.075 C 
HETATM    3  C4  UNL     1     -35.840  14.581  -3.476  1.00 20.00     0.066 C 
HETATM    4  C5  UNL     1     -34.852  15.748  -3.280  1.00 20.00     0.010 C 
HETATM    5  C6  UNL     1     -35.065  16.929  -4.236  1.00 20.00     0.027 C 
HETATM    6  C7  UNL     1     -34.841  16.240  -1.831  1.00 20.00     0.027 C 
HETATM    7  S9  UNL     1     -33.225  14.990  -3.679  1.00 20.00    -0.159 SA
ENDROOT
BRANCH   3   8
HETATM    8  C1  UNL     1     -37.258  15.035  -3.654  1.00 20.00     0.237 C 
HETATM    9  O8  UNL     1     -38.217  14.270  -3.668  1.00 20.00    -0.306 OA
ENDBRANCH   3   8
TORSDOF 1
ENDMDL
MODEL 5
REMARK VINA RESULT:      -3.9      1.165      1.565
REMARK  1 active torsions:
REMARK  status: ('A' for Active; 'I' for Inactive)
REMARK    1  A    between atoms: C1_1  and  C4_4 
ROOT
HETATM    1  C2  UNL     1     -34.403  15.127  -5.761  1.00 20.00     0.023 C 
HETATM    2  C3  UNL     1     -34.344  16.634  -5.929  1.00 20.00     0.075 C 
HETATM    3  C4  UNL     1     -34.153  14.849  -4.282  1.00 20.00     0.066 C 
HETATM    4  C5  UNL     1     -35.111  15.749  -3.477  1.00 20.00     0.010 C 
HETATM    5  C6  UNL     1     -36.557  15.240  -3.408  1.00 20.00     0.027 C 
HETATM    6  C7  UNL     1     -34.581  16.017  -2.066  1.00 20.00     0.027 C 
HETATM    7  S9  UNL     1     -35.115  17.318  -4.436  1.00 20.00    -0.159 SA
ENDROOT
BRANCH   3   8
HETATM    8  C1  UNL     1     -34.322  13.391  -3.977  1.00 20.00     0.237 C 
HETATM    9  O8  UNL     1     -34.757  12.576  -4.785  1.00 20.00    -0.306 OA
ENDBRANCH   3   8
TORSDOF 1
ENDMDL
MODEL 6
REMARK VINA RESULT:      -3.9      1.205      2.659
REMARK  1 active torsions:
REMARK  status: ('A' for Active; 'I' for Inactive)
REMARK    1  A    between atoms: C1_1  and  C4_4 
ROOT
HETATM    1  C2  UNL     1     -33.232  15.697  -4.055  1.00 20.00     0.023 C 
HETATM    2  C3  UNL     1     -33.593  17.171  -4.083  1.00 20.00     0.075 C 
HETATM    3  C4  UNL     1     -34.500  14.936  -4.432  1.00 20.00     0.066 C 
HETATM    4  C5  UNL     1     -35.047  15.568  -5.726  1.00 20.00     0.010 C 
HETATM    5  C6  UNL     1     -34.315  15.136  -7.004  1.00 20.00     0.027 C 
HETATM    6  C7  UNL     1     -36.551  15.331  -5.877  1.00 20.00     0.027 C 
HETATM    7  S9  UNL     1     -34.733  17.364  -5.481  1.00 20.00    -0.159 SA
ENDROOT
BRANCH   3   8
HETATM    8  C1  UNL     1     -34.222  13.469  -4.565  1.00 20.00     0.237 C 
HETATM    9  O8  UNL     1     -35.056  12.599  -4.337  1.00 20.00    -0.306 OA
ENDBRANCH   3   8
TORSDOF 1
ENDMDL
MODEL 7
REMARK VINA RESULT:      -3.8      1.621      1.683
REMARK  1 active torsions:
REMARK  status: ('A' for Active; 'I' for Inactive)
REMARK    1  A    between atoms: C1_1  and  C4_4 
ROOT
HETATM    1  C2  UNL     1     -35.917  16.886  -4.944  1.00 20.00     0.023 C 
HETATM    2  C3  UNL     1     -34.587  17.112  -5.638  1.00 20.00     0.075 C 
HETATM    3  C4  UNL     1     -35.895  15.452  -4.425  1.00 20.00     0.066 C 
HETATM    4  C5  UNL     1     -34.580  15.267  -3.643  1.00 20.00     0.010 C 
HETATM    5  C6  UNL     1     -34.591  15.860  -2.228  1.00 20.00     0.027 C 
HETATM    6  C7  UNL     1     -34.156  13.797  -3.593  1.00 20.00     0.027 C 
HETATM    7  S9  UNL     1     -33.362  16.219  -4.640  1.00 20.00    -0.159 SA
ENDROOT
BRANCH   3   8
HETATM    8  C1  UNL     1     -37.114  15.163  -3.602  1.00 20.00     0.237 C 
HETATM    9  O8  UNL     1     -37.812  14.166  -3.754  1.00 20.00    -0.306 OA
ENDBRANCH   3   8
TORSDOF 1
ENDMDL
MODEL 8
REMARK VINA RESULT:      -3.8      2.429      3.105
REMARK  1 active torsions:
REMARK  status: ('A' for Active; 'I' for Inactive)
REMARK    1  A    between atoms: C1_1  and  C4_4 
ROOT
HETATM    1  C2  UNL     1     -36.148  15.572  -3.203  1.00 20.00     0.023 C 
HETATM    2  C3  UNL     1     -36.363  14.480  -4.234  1.00 20.00     0.075 C 
HETATM    3  C4  UNL     1     -34.724  15.399  -2.682  1.00 20.00     0.066 C 
HETATM    4  C5  UNL     1     -33.795  15.307  -3.908  1.00 20.00     0.010 C 
HETATM    5  C6  UNL     1     -33.473  16.656  -4.565  1.00 20.00     0.027 C 
HETATM    6  C7  UNL     1     -32.500  14.561  -3.580  1.00 20.00     0.027 C 
HETATM    7  S9  UNL     1     -34.780  14.321  -5.108  1.00 20.00    -0.159 SA
ENDROOT
BRANCH   3   8
HETATM    8  C1  UNL     1     -34.358  16.513  -1.749  1.00 20.00     0.237 C 
HETATM    9  O8  UNL     1     -34.665  16.530  -0.561  1.00 20.00    -0.306 OA
ENDBRANCH   3   8
TORSDOF 1
ENDMDL
MODEL 9
REMARK VINA RESULT:      -3.8      1.413      2.080
REMARK  1 active torsions:
REMARK  status: ('A' for Active; 'I' for Inactive)
REMARK    1  A    between atoms: C1_1  and  C4_4 
ROOT
HETATM    1  C2  UNL     1     -36.077  15.424  -3.222  1.00 20.00     0.023 C 
HETATM    2  C3  UNL     1     -36.616  16.771  -3.666  1.00 20.00     0.075 C 
HETATM    3  C4  UNL     1     -35.441  14.787  -4.454  1.00 20.00     0.066 C 
HETATM    4  C5  UNL     1     -34.488  15.830  -5.070  1.00 20.00     0.010 C 
HETATM    5  C6  UNL     1     -33.140  15.965  -4.348  1.00 20.00     0.027 C 
HETATM    6  C7  UNL     1     -34.262  15.576  -6.562  1.00 20.00     0.027 C 
HETATM    7  S9  UNL     1     -35.401  17.412  -4.852  1.00 20.00    -0.159 SA
ENDROOT
BRANCH   3   8
HETATM    8  C1  UNL     1     -34.756  13.503  -4.097  1.00 20.00     0.237 C 
HETATM    9  O8  UNL     1     -34.780  12.503  -4.808  1.00 20.00    -0.306 OA
ENDBRANCH   3   8
TORSDOF 1
ENDMDL
