MODEL 1
REMARK VINA RESULT:      -4.2      0.000      0.000
REMARK  2 active torsions:
REMARK  status: ('A' for Active; 'I' for Inactive)
REMARK    1  A    between atoms: C5_5  and  C6_6 
REMARK    2  A    between atoms: C7_7  and  N9_9 
ROOT
HETATM    1  C1  UNL     1     -34.817  16.813  -1.376  1.00 20.00     0.079 C 
HETATM    2  C7  UNL     1     -34.998  16.791  -2.830  1.00 20.00     0.252 C 
HETATM    3  N8  UNL     1     -34.673  16.832  -0.224  1.00 20.00    -0.196 NA
ENDROOT
BRANCH   2   4
HETATM    4  N9  UNL     1     -34.824  15.464  -3.376  1.00 20.00    -0.341 N 
HETATM    5  C4  UNL     1     -33.612  14.846  -3.546  1.00 20.00     0.092 A 
HETATM    6  C2  UNL     1     -33.845  13.601  -4.089  1.00 20.00     0.020 A 
HETATM    7  C3  UNL     1     -35.247  13.466  -4.251  1.00 20.00     0.034 A 
HETATM    8  C5  UNL     1     -35.826  14.632  -3.803  1.00 20.00     0.073 A 
BRANCH   8   9
HETATM    9  C6  UNL     1     -37.220  14.958  -3.771  1.00 20.00     0.288 C 
HETATM   10  O10 UNL     1     -38.134  14.110  -3.764  1.00 20.00    -0.300 OA
ENDBRANCH   8   9
ENDBRANCH   2   4
TORSDOF 2
ENDMDL
MODEL 2
REMARK VINA RESULT:      -4.2      2.529      4.045
REMARK  2 active torsions:
REMARK  status: ('A' for Active; 'I' for Inactive)
REMARK    1  A    between atoms: C5_5  and  C6_6 
REMARK    2  A    between atoms: C7_7  and  N9_9 
ROOT
HETATM    1  C1  UNL     1     -34.020  13.609  -4.123  1.00 20.00     0.079 C 
HETATM    2  C7  UNL     1     -33.008  14.560  -3.653  1.00 20.00     0.252 C 
HETATM    3  N8  UNL     1     -34.820  12.855  -4.494  1.00 20.00    -0.196 NA
ENDROOT
BRANCH   2   4
HETATM    4  N9  UNL     1     -33.329  15.919  -4.027  1.00 20.00    -0.341 N 
HETATM    5  C4  UNL     1     -33.313  16.398  -5.311  1.00 20.00     0.092 A 
HETATM    6  C2  UNL     1     -33.672  17.728  -5.271  1.00 20.00     0.020 A 
HETATM    7  C3  UNL     1     -33.913  18.060  -3.914  1.00 20.00     0.034 A 
HETATM    8  C5  UNL     1     -33.694  16.923  -3.168  1.00 20.00     0.073 A 
BRANCH   8   9
HETATM    9  C6  UNL     1     -33.813  16.775  -1.749  1.00 20.00     0.288 C 
HETATM   10  O10 UNL     1     -34.781  16.230  -1.184  1.00 20.00    -0.300 OA
ENDBRANCH   8   9
ENDBRANCH   2   4
TORSDOF 2
ENDMDL
MODEL 3
REMARK VINA RESULT:      -4.2      2.647      3.557
REMARK  2 active torsions:
REMARK  status: ('A' for Active; 'I' for Inactive)
REMARK    1  A    between atoms: C5_5  and  C6_6 
REMARK    2  A    between atoms: C7_7  and  N9_9 
ROOT
HETATM    1  C1  UNL     1     -37.427  14.956  -3.746  1.00 20.00     0.079 C 
HETATM    2  C7  UNL     1     -36.167  15.704  -3.799  1.00 20.00     0.252 C 
HETATM    3  N8  UNL     1     -38.424  14.363  -3.702  1.00 20.00    -0.196 NA
ENDROOT
BRANCH   2   4
HETATM    4  N9  UNL     1     -35.560  15.648  -5.110  1.00 20.00    -0.341 N 
HETATM    5  C4  UNL     1     -35.775  16.565  -6.106  1.00 20.00     0.092 A 
HETATM    6  C2  UNL     1     -35.031  16.181  -7.201  1.00 20.00     0.020 A 
HETATM    7  C3  UNL     1     -34.345  14.992  -6.850  1.00 20.00     0.034 A 
HETATM    8  C5  UNL     1     -34.691  14.685  -5.553  1.00 20.00     0.073 A 
BRANCH   8   9
HETATM    9  C6  UNL     1     -34.247  13.571  -4.771  1.00 20.00     0.288 C 
HETATM   10  O10 UNL     1     -34.928  12.547  -4.566  1.00 20.00    -0.300 OA
ENDBRANCH   8   9
ENDBRANCH   2   4
TORSDOF 2
ENDMDL
MODEL 4
REMARK VINA RESULT:      -4.1      1.977      3.342
REMARK  2 active torsions:
REMARK  status: ('A' for Active; 'I' for Inactive)
REMARK    1  A    between atoms: C5_5  and  C6_6 
REMARK    2  A    between atoms: C7_7  and  N9_9 
ROOT
HETATM    1  C1  UNL     1     -37.600  14.954  -4.248  1.00 20.00     0.079 C 
HETATM    2  C7  UNL     1     -36.546  15.738  -4.900  1.00 20.00     0.252 C 
HETATM    3  N8  UNL     1     -38.434  14.334  -3.733  1.00 20.00    -0.196 NA
ENDROOT
BRANCH   2   4
HETATM    4  N9  UNL     1     -35.337  15.783  -4.109  1.00 20.00    -0.341 N 
HETATM    5  C4  UNL     1     -35.016  16.790  -3.236  1.00 20.00     0.092 A 
HETATM    6  C2  UNL     1     -33.796  16.486  -2.671  1.00 20.00     0.020 A 
HETATM    7  C3  UNL     1     -33.370  15.253  -3.224  1.00 20.00     0.034 A 
HETATM    8  C5  UNL     1     -34.342  14.841  -4.109  1.00 20.00     0.073 A 
BRANCH   8   9
HETATM    9  C6  UNL     1     -34.349  13.652  -4.906  1.00 20.00     0.288 C 
HETATM   10  O10 UNL     1     -34.917  12.593  -4.574  1.00 20.00    -0.300 OA
ENDBRANCH   8   9
ENDBRANCH   2   4
TORSDOF 2
ENDMDL
MODEL 5
REMARK VINA RESULT:      -4.1      2.242      2.665
REMARK  2 active torsions:
REMARK  status: ('A' for Active; 'I' for Inactive)
REMARK    1  A    between atoms: C5_5  and  C6_6 
REMARK    2  A    between atoms: C7_7  and  N9_9 
ROOT
HETATM    1  C1  UNL     1     -34.134  15.930  -2.488  1.00 20.00     0.079 C 
HETATM    2  C7  UNL     1     -33.194  15.430  -3.496  1.00 20.00     0.252 C 
HETATM    3  N8  UNL     1     -34.877  16.326  -1.690  1.00 20.00    -0.196 NA
ENDROOT
BRANCH   2   4
HETATM    4  N9  UNL     1     -33.755  15.473  -4.827  1.00 20.00    -0.341 N 
HETATM    5  C4  UNL     1     -33.784  16.589  -5.624  1.00 20.00     0.092 A 
HETATM    6  C2  UNL     1     -34.392  16.244  -6.811  1.00 20.00     0.020 A 
HETATM    7  C3  UNL     1     -34.742  14.874  -6.725  1.00 20.00     0.034 A 
HETATM    8  C5  UNL     1     -34.336  14.423  -5.489  1.00 20.00     0.073 A 
BRANCH   8   9
HETATM    9  C6  UNL     1     -34.478  13.104  -4.952  1.00 20.00     0.288 C 
HETATM   10  O10 UNL     1     -35.433  12.741  -4.237  1.00 20.00    -0.300 OA
ENDBRANCH   8   9
ENDBRANCH   2   4
TORSDOF 2
ENDMDL
MODEL 6
REMARK VINA RESULT:      -4.1     11.759     12.302
REMARK  2 active torsions:
REMARK  status: ('A' for Active; 'I' for Inactive)
REMARK    1  A    between atoms: C5_5  and  C6_6 
REMARK    2  A    between atoms: C7_7  and  N9_9 
ROOT
HETATM    1  C1  UNL     1     -32.405   7.371   2.623  1.00 20.00     0.079 C 
HETATM    2  C7  UNL     1     -33.012   6.148   3.156  1.00 20.00     0.252 C 
HETATM    3  N8  UNL     1     -31.924   8.339   2.200  1.00 20.00    -0.196 NA
ENDROOT
BRANCH   2   4
HETATM    4  N9  UNL     1     -33.423   6.305   4.533  1.00 20.00    -0.341 N 
HETATM    5  C4  UNL     1     -32.898   7.226   5.402  1.00 20.00     0.092 A 
HETATM    6  C2  UNL     1     -33.535   7.074   6.614  1.00 20.00     0.020 A 
HETATM    7  C3  UNL     1     -34.477   6.025   6.469  1.00 20.00     0.034 A 
HETATM    8  C5  UNL     1     -34.386   5.568   5.173  1.00 20.00     0.073 A 
BRANCH   8   9
HETATM    9  C6  UNL     1     -35.141   4.516   4.564  1.00 20.00     0.288 C 
HETATM   10  O10 UNL     1     -35.089   3.323   4.923  1.00 20.00    -0.300 OA
ENDBRANCH   8   9
ENDBRANCH   2   4
TORSDOF 2
ENDMDL
MODEL 7
REMARK VINA RESULT:      -4.1     11.252     11.827
REMARK  2 active torsions:
REMARK  status: ('A' for Active; 'I' for Inactive)
REMARK    1  A    between atoms: C5_5  and  C6_6 
REMARK    2  A    between atoms: C7_7  and  N9_9 
ROOT
HETATM    1  C1  UNL     1     -32.112   7.826   2.503  1.00 20.00     0.079 C 
HETATM    2  C7  UNL     1     -32.018   6.909   3.643  1.00 20.00     0.252 C 
HETATM    3  N8  UNL     1     -32.186   8.552   1.600  1.00 20.00    -0.196 NA
ENDROOT
BRANCH   2   4
HETATM    4  N9  UNL     1     -33.274   6.243   3.906  1.00 20.00    -0.341 N 
HETATM    5  C4  UNL     1     -34.038   5.619   2.954  1.00 20.00     0.092 A 
HETATM    6  C2  UNL     1     -35.153   5.104   3.579  1.00 20.00     0.020 A 
HETATM    7  C3  UNL     1     -35.056   5.430   4.955  1.00 20.00     0.034 A 
HETATM    8  C5  UNL     1     -33.884   6.134   5.128  1.00 20.00     0.073 A 
BRANCH   8   9
HETATM    9  C6  UNL     1     -33.363   6.673   6.347  1.00 20.00     0.288 C 
HETATM   10  O10 UNL     1     -33.946   7.536   7.034  1.00 20.00    -0.300 OA
ENDBRANCH   8   9
ENDBRANCH   2   4
TORSDOF 2
ENDMDL
MODEL 8
REMARK VINA RESULT:      -4.0      2.396      4.167
REMARK  2 active torsions:
REMARK  status: ('A' for Active; 'I' for Inactive)
REMARK    1  A    between atoms: C5_5  and  C6_6 
REMARK    2  A    between atoms: C7_7  and  N9_9 
ROOT
HETATM    1  C1  UNL     1     -34.381  14.081  -3.499  1.00 20.00     0.079 C 
HETATM    2  C7  UNL     1     -35.320  15.168  -3.207  1.00 20.00     0.252 C 
HETATM    3  N8  UNL     1     -33.639  13.220  -3.731  1.00 20.00    -0.196 NA
ENDROOT
BRANCH   2   4
HETATM    4  N9  UNL     1     -34.688  16.250  -2.486  1.00 20.00    -0.341 N 
HETATM    5  C4  UNL     1     -34.682  16.376  -1.121  1.00 20.00     0.092 A 
HETATM    6  C2  UNL     1     -33.987  17.524  -0.806  1.00 20.00     0.020 A 
HETATM    7  C3  UNL     1     -33.561  18.107  -2.024  1.00 20.00     0.034 A 
HETATM    8  C5  UNL     1     -34.007  17.299  -3.046  1.00 20.00     0.073 A 
BRANCH   8   9
HETATM    9  C6  UNL     1     -33.818  17.486  -4.452  1.00 20.00     0.288 C 
HETATM   10  O10 UNL     1     -32.953  16.889  -5.125  1.00 20.00    -0.300 OA
ENDBRANCH   8   9
ENDBRANCH   2   4
TORSDOF 2
ENDMDL
MODEL 9
REMARK VINA RESULT:      -4.0      2.214      3.392
REMARK  2 active torsions:
REMARK  status: ('A' for Active; 'I' for Inactive)
REMARK    1  A    between atoms: C5_5  and  C6_6 
REMARK    2  A    between atoms: C7_7  and  N9_9 
ROOT
HETATM    1  C1  UNL     1     -37.966  14.904  -3.803  1.00 20.00     0.079 C 
HETATM    2  C7  UNL     1     -36.763  15.726  -3.640  1.00 20.00     0.252 C 
HETATM    3  N8  UNL     1     -38.918  14.254  -3.931  1.00 20.00    -0.196 NA
ENDROOT
BRANCH   2   4
HETATM    4  N9  UNL     1     -35.553  14.946  -3.777  1.00 20.00    -0.341 N 
HETATM    5  C4  UNL     1     -35.426  13.841  -4.577  1.00 20.00     0.092 A 
HETATM    6  C2  UNL     1     -34.137  13.371  -4.446  1.00 20.00     0.020 A 
HETATM    7  C3  UNL     1     -33.466  14.224  -3.536  1.00 20.00     0.034 A 
HETATM    8  C5  UNL     1     -34.365  15.189  -3.138  1.00 20.00     0.073 A 
BRANCH   8   9
HETATM    9  C6  UNL     1     -34.140  16.267  -2.224  1.00 20.00     0.288 C 
HETATM   10  O10 UNL     1     -34.547  16.279  -1.046  1.00 20.00    -0.300 OA
ENDBRANCH   8   9
ENDBRANCH   2   4
TORSDOF 2
ENDMDL
