MODEL 1
REMARK VINA RESULT:      -3.9      0.000      0.000
REMARK  3 active torsions:
REMARK  status: ('A' for Active; 'I' for Inactive)
REMARK    1  A    between atoms: C1_1  and  N8_8 
REMARK    2  A    between atoms: C6_6  and  C7_7 
REMARK    3  A    between atoms: C6_6  and  N8_8 
ROOT
HETATM    1  C2  UNL     1     -34.925  13.369  -4.189  1.00 20.00     0.033 C 
HETATM    2  C6  UNL     1     -35.148  14.874  -4.040  1.00 20.00     0.087 C 
ENDROOT
BRANCH   2   3
HETATM    3  C7  UNL     1     -33.889  15.685  -3.587  1.00 20.00    -0.031 C 
HETATM    4  C3  UNL     1     -33.583  16.860  -4.536  1.00 20.00     0.016 C 
HETATM    5  C4  UNL     1     -34.093  16.248  -2.166  1.00 20.00     0.016 C 
HETATM    6  C5  UNL     1     -32.655  14.755  -3.548  1.00 20.00     0.016 C 
ENDBRANCH   2   3
BRANCH   2   7
HETATM    7  N8  UNL     1     -36.278  15.095  -3.161  1.00 20.00    -0.363 N 
HETATM    8  H24 UNL     1     -36.101  15.217  -2.170  1.00 20.00     0.162 HD
BRANCH   7   9
HETATM    9  C1  UNL     1     -37.578  15.148  -3.604  1.00 20.00     0.348 C 
HETATM   10  O9  UNL     1     -38.354  14.217  -3.776  1.00 20.00    -0.284 OA
ENDBRANCH   7   9
ENDBRANCH   2   7
TORSDOF 3
ENDMDL
MODEL 2
REMARK VINA RESULT:      -3.9      2.093      3.115
REMARK  3 active torsions:
REMARK  status: ('A' for Active; 'I' for Inactive)
REMARK    1  A    between atoms: C1_1  and  N8_8 
REMARK    2  A    between atoms: C6_6  and  C7_7 
REMARK    3  A    between atoms: C6_6  and  N8_8 
ROOT
HETATM    1  C2  UNL     1     -33.824  16.113  -2.732  1.00 20.00     0.033 C 
HETATM    2  C6  UNL     1     -33.359  15.796  -4.154  1.00 20.00     0.087 C 
ENDROOT
BRANCH   2   3
HETATM    3  C7  UNL     1     -34.174  16.501  -5.287  1.00 20.00    -0.031 C 
HETATM    4  C3  UNL     1     -34.143  15.706  -6.607  1.00 20.00     0.016 C 
HETATM    5  C4  UNL     1     -35.646  16.679  -4.861  1.00 20.00     0.016 C 
HETATM    6  C5  UNL     1     -33.592  17.908  -5.552  1.00 20.00     0.016 C 
ENDBRANCH   2   3
BRANCH   2   7
HETATM    7  N8  UNL     1     -33.327  14.358  -4.325  1.00 20.00    -0.363 N 
HETATM    8  H24 UNL     1     -32.601  13.958  -4.909  1.00 20.00     0.162 HD
BRANCH   7   9
HETATM    9  C1  UNL     1     -34.232  13.509  -3.734  1.00 20.00     0.348 C 
HETATM   10  O9  UNL     1     -35.007  12.734  -4.279  1.00 20.00    -0.284 OA
ENDBRANCH   7   9
ENDBRANCH   2   7
TORSDOF 3
ENDMDL
MODEL 3
REMARK VINA RESULT:      -3.8      0.875      2.121
REMARK  3 active torsions:
REMARK  status: ('A' for Active; 'I' for Inactive)
REMARK    1  A    between atoms: C1_1  and  N8_8 
REMARK    2  A    between atoms: C6_6  and  C7_7 
REMARK    3  A    between atoms: C6_6  and  N8_8 
ROOT
HETATM    1  C2  UNL     1     -34.550  16.086  -2.011  1.00 20.00     0.033 C 
HETATM    2  C6  UNL     1     -35.171  15.194  -3.088  1.00 20.00     0.087 C 
ENDROOT
BRANCH   2   3
HETATM    3  C7  UNL     1     -34.177  14.705  -4.192  1.00 20.00    -0.031 C 
HETATM    4  C3  UNL     1     -34.487  13.270  -4.658  1.00 20.00     0.016 C 
HETATM    5  C4  UNL     1     -34.232  15.639  -5.418  1.00 20.00     0.016 C 
HETATM    6  C5  UNL     1     -32.732  14.738  -3.645  1.00 20.00     0.016 C 
ENDBRANCH   2   3
BRANCH   2   7
HETATM    7  N8  UNL     1     -36.317  15.875  -3.655  1.00 20.00    -0.363 N 
HETATM    8  H24 UNL     1     -36.179  16.793  -4.063  1.00 20.00     0.162 HD
BRANCH   7   9
HETATM    9  C1  UNL     1     -37.581  15.337  -3.669  1.00 20.00     0.348 C 
HETATM   10  O9  UNL     1     -37.898  14.157  -3.752  1.00 20.00    -0.284 OA
ENDBRANCH   7   9
ENDBRANCH   2   7
TORSDOF 3
ENDMDL
MODEL 4
REMARK VINA RESULT:      -3.8      0.874      1.860
REMARK  3 active torsions:
REMARK  status: ('A' for Active; 'I' for Inactive)
REMARK    1  A    between atoms: C1_1  and  N8_8 
REMARK    2  A    between atoms: C6_6  and  C7_7 
REMARK    3  A    between atoms: C6_6  and  N8_8 
ROOT
HETATM    1  C2  UNL     1     -34.625  16.084  -1.981  1.00 20.00     0.033 C 
HETATM    2  C6  UNL     1     -35.216  15.209  -3.088  1.00 20.00     0.087 C 
ENDROOT
BRANCH   2   3
HETATM    3  C7  UNL     1     -34.199  14.763  -4.189  1.00 20.00    -0.031 C 
HETATM    4  C3  UNL     1     -34.281  15.646  -5.449  1.00 20.00     0.016 C 
HETATM    5  C4  UNL     1     -32.756  14.822  -3.646  1.00 20.00     0.016 C 
HETATM    6  C5  UNL     1     -34.482  13.300  -4.600  1.00 20.00     0.016 C 
ENDBRANCH   2   3
BRANCH   2   7
HETATM    7  N8  UNL     1     -36.364  15.885  -3.655  1.00 20.00    -0.363 N 
HETATM    8  H24 UNL     1     -36.232  16.807  -4.056  1.00 20.00     0.162 HD
BRANCH   7   9
HETATM    9  C1  UNL     1     -37.625  15.337  -3.677  1.00 20.00     0.348 C 
HETATM   10  O9  UNL     1     -37.932  14.153  -3.722  1.00 20.00    -0.284 OA
ENDBRANCH   7   9
ENDBRANCH   2   7
TORSDOF 3
ENDMDL
MODEL 5
REMARK VINA RESULT:      -3.7     11.492     12.490
REMARK  3 active torsions:
REMARK  status: ('A' for Active; 'I' for Inactive)
REMARK    1  A    between atoms: C1_1  and  N8_8 
REMARK    2  A    between atoms: C6_6  and  C7_7 
REMARK    3  A    between atoms: C6_6  and  N8_8 
ROOT
HETATM    1  C2  UNL     1     -33.682   5.187   2.373  1.00 20.00     0.033 C 
HETATM    2  C6  UNL     1     -33.308   5.486   3.826  1.00 20.00     0.087 C 
ENDROOT
BRANCH   2   3
HETATM    3  C7  UNL     1     -34.476   5.327   4.854  1.00 20.00    -0.031 C 
HETATM    4  C3  UNL     1     -34.538   3.907   5.448  1.00 20.00     0.016 C 
HETATM    5  C4  UNL     1     -34.316   6.333   6.011  1.00 20.00     0.016 C 
HETATM    6  C5  UNL     1     -35.825   5.624   4.161  1.00 20.00     0.016 C 
ENDBRANCH   2   3
BRANCH   2   7
HETATM    7  N8  UNL     1     -32.705   6.801   3.892  1.00 20.00    -0.363 N 
HETATM    8  H24 UNL     1     -32.828   7.346   4.738  1.00 20.00     0.162 HD
BRANCH   7   9
HETATM    9  C1  UNL     1     -31.973   7.346   2.864  1.00 20.00     0.348 C 
HETATM   10  O9  UNL     1     -32.190   8.384   2.252  1.00 20.00    -0.284 OA
ENDBRANCH   7   9
ENDBRANCH   2   7
TORSDOF 3
ENDMDL
MODEL 6
REMARK VINA RESULT:      -3.7      2.496      3.465
REMARK  3 active torsions:
REMARK  status: ('A' for Active; 'I' for Inactive)
REMARK    1  A    between atoms: C1_1  and  N8_8 
REMARK    2  A    between atoms: C6_6  and  C7_7 
REMARK    3  A    between atoms: C6_6  and  N8_8 
ROOT
HETATM    1  C2  UNL     1     -33.324  16.790  -4.981  1.00 20.00     0.033 C 
HETATM    2  C6  UNL     1     -34.365  15.695  -5.219  1.00 20.00     0.087 C 
ENDROOT
BRANCH   2   3
HETATM    3  C7  UNL     1     -34.650  14.777  -3.986  1.00 20.00    -0.031 C 
HETATM    4  C3  UNL     1     -36.061  14.160  -4.035  1.00 20.00     0.016 C 
HETATM    5  C4  UNL     1     -33.619  13.632  -3.916  1.00 20.00     0.016 C 
HETATM    6  C5  UNL     1     -34.523  15.598  -2.683  1.00 20.00     0.016 C 
ENDBRANCH   2   3
BRANCH   2   7
HETATM    7  N8  UNL     1     -33.979  14.929  -6.386  1.00 20.00    -0.363 N 
HETATM    8  H24 UNL     1     -33.093  14.437  -6.367  1.00 20.00     0.162 HD
BRANCH   7   9
HETATM    9  C1  UNL     1     -34.755  14.836  -7.516  1.00 20.00     0.348 C 
HETATM   10  O9  UNL     1     -35.862  14.325  -7.632  1.00 20.00    -0.284 OA
ENDBRANCH   7   9
ENDBRANCH   2   7
TORSDOF 3
ENDMDL
MODEL 7
REMARK VINA RESULT:      -3.7     11.346     12.391
REMARK  3 active torsions:
REMARK  status: ('A' for Active; 'I' for Inactive)
REMARK    1  A    between atoms: C1_1  and  N8_8 
REMARK    2  A    between atoms: C6_6  and  C7_7 
REMARK    3  A    between atoms: C6_6  and  N8_8 
ROOT
HETATM    1  C2  UNL     1     -33.773   6.504   6.017  1.00 20.00     0.033 C 
HETATM    2  C6  UNL     1     -33.868   6.497   4.491  1.00 20.00     0.087 C 
ENDROOT
BRANCH   2   3
HETATM    3  C7  UNL     1     -34.790   5.384   3.892  1.00 20.00    -0.031 C 
HETATM    4  C3  UNL     1     -34.989   4.209   4.868  1.00 20.00     0.016 C 
HETATM    5  C4  UNL     1     -36.174   5.965   3.539  1.00 20.00     0.016 C 
HETATM    6  C5  UNL     1     -34.168   4.836   2.588  1.00 20.00     0.016 C 
ENDBRANCH   2   3
BRANCH   2   7
HETATM    7  N8  UNL     1     -32.529   6.444   3.940  1.00 20.00    -0.363 N 
HETATM    8  H24 UNL     1     -32.005   5.580   4.029  1.00 20.00     0.162 HD
BRANCH   7   9
HETATM    9  C1  UNL     1     -31.935   7.506   3.301  1.00 20.00     0.348 C 
HETATM   10  O9  UNL     1     -32.167   7.938   2.180  1.00 20.00    -0.284 OA
ENDBRANCH   7   9
ENDBRANCH   2   7
TORSDOF 3
ENDMDL
MODEL 8
REMARK VINA RESULT:      -3.6      1.492      2.506
REMARK  3 active torsions:
REMARK  status: ('A' for Active; 'I' for Inactive)
REMARK    1  A    between atoms: C1_1  and  N8_8 
REMARK    2  A    between atoms: C6_6  and  C7_7 
REMARK    3  A    between atoms: C6_6  and  N8_8 
ROOT
HETATM    1  C2  UNL     1     -35.949  17.209  -4.441  1.00 20.00     0.033 C 
HETATM    2  C6  UNL     1     -35.932  16.853  -2.953  1.00 20.00     0.087 C 
ENDROOT
BRANCH   2   3
HETATM    3  C7  UNL     1     -34.517  16.870  -2.287  1.00 20.00    -0.031 C 
HETATM    4  C3  UNL     1     -34.590  16.661  -0.763  1.00 20.00     0.016 C 
HETATM    5  C4  UNL     1     -33.625  15.765  -2.888  1.00 20.00     0.016 C 
HETATM    6  C5  UNL     1     -33.828  18.226  -2.561  1.00 20.00     0.016 C 
ENDBRANCH   2   3
BRANCH   2   7
HETATM    7  N8  UNL     1     -36.600  15.580  -2.771  1.00 20.00    -0.363 N 
HETATM    8  H24 UNL     1     -36.635  15.184  -1.838  1.00 20.00     0.162 HD
BRANCH   7   9
HETATM    9  C1  UNL     1     -37.189  14.885  -3.799  1.00 20.00     0.348 C 
HETATM   10  O9  UNL     1     -38.187  14.176  -3.757  1.00 20.00    -0.284 OA
ENDBRANCH   7   9
ENDBRANCH   2   7
TORSDOF 3
ENDMDL
MODEL 9
REMARK VINA RESULT:      -3.6      1.464      2.293
REMARK  3 active torsions:
REMARK  status: ('A' for Active; 'I' for Inactive)
REMARK    1  A    between atoms: C1_1  and  N8_8 
REMARK    2  A    between atoms: C6_6  and  C7_7 
REMARK    3  A    between atoms: C6_6  and  N8_8 
ROOT
HETATM    1  C2  UNL     1     -36.024  17.168  -4.456  1.00 20.00     0.033 C 
HETATM    2  C6  UNL     1     -35.935  16.761  -2.984  1.00 20.00     0.087 C 
ENDROOT
BRANCH   2   3
HETATM    3  C7  UNL     1     -34.497  16.815  -2.371  1.00 20.00    -0.031 C 
HETATM    4  C3  UNL     1     -33.583  15.711  -2.935  1.00 20.00     0.016 C 
HETATM    5  C4  UNL     1     -33.843  18.183  -2.653  1.00 20.00     0.016 C 
HETATM    6  C5  UNL     1     -34.577  16.645  -0.837  1.00 20.00     0.016 C 
ENDBRANCH   2   3
BRANCH   2   7
HETATM    7  N8  UNL     1     -36.543  15.456  -2.822  1.00 20.00    -0.363 N 
HETATM    8  H24 UNL     1     -36.485  15.007  -1.915  1.00 20.00     0.162 HD
BRANCH   7   9
HETATM    9  C1  UNL     1     -37.195  14.798  -3.838  1.00 20.00     0.348 C 
HETATM   10  O9  UNL     1     -38.252  14.183  -3.782  1.00 20.00    -0.284 OA
ENDBRANCH   7   9
ENDBRANCH   2   7
TORSDOF 3
ENDMDL
