MODEL 1
REMARK VINA RESULT:      -3.7      0.000      0.000
REMARK  4 active torsions:
REMARK  status: ('A' for Active; 'I' for Inactive)
REMARK    1  A    between atoms: C1_1  and  C6_6 
REMARK    2  A    between atoms: C1_1  and  O8_8 
REMARK    3  A    between atoms: C5_5  and  C6_6 
REMARK    4  A    between atoms: C5_5  and  S9_9 
ROOT
HETATM    1  C2  UNL     1     -32.862  15.218  -3.688  1.00 20.00     0.021 C 
HETATM    2  C6  UNL     1     -34.182  14.481  -3.450  1.00 20.00     0.090 C 
ENDROOT
BRANCH   2   3
HETATM    3  C1  UNL     1     -34.589  13.672  -4.674  1.00 20.00     0.263 C 
HETATM    4  O7  UNL     1     -35.061  12.543  -4.640  1.00 20.00    -0.265 OA
BRANCH   3   5
HETATM    5  O8  UNL     1     -34.338  14.396  -5.805  1.00 20.00    -0.326 OA
HETATM    6  C3  UNL     1     -35.328  14.299  -6.833  1.00 20.00     0.213 C 
ENDBRANCH   3   5
ENDBRANCH   2   3
BRANCH   2   7
HETATM    7  C5  UNL     1     -35.307  15.413  -2.978  1.00 20.00     0.087 C 
BRANCH   7   8
HETATM    8  S9  UNL     1     -34.760  17.072  -2.462  1.00 20.00    -0.173 SA
HETATM    9  C4  UNL     1     -34.614  16.755  -0.690  1.00 20.00     0.089 C 
ENDBRANCH   7   8
ENDBRANCH   2   7
TORSDOF 4
ENDMDL
MODEL 2
REMARK VINA RESULT:      -3.5      2.120      3.429
REMARK  4 active torsions:
REMARK  status: ('A' for Active; 'I' for Inactive)
REMARK    1  A    between atoms: C1_1  and  C6_6 
REMARK    2  A    between atoms: C1_1  and  O8_8 
REMARK    3  A    between atoms: C5_5  and  C6_6 
REMARK    4  A    between atoms: C5_5  and  S9_9 
ROOT
HETATM    1  C2  UNL     1     -34.580  15.524  -2.600  1.00 20.00     0.021 C 
HETATM    2  C6  UNL     1     -35.057  15.203  -4.018  1.00 20.00     0.090 C 
ENDROOT
BRANCH   2   3
HETATM    3  C1  UNL     1     -35.702  13.825  -4.084  1.00 20.00     0.263 C 
HETATM    4  O7  UNL     1     -35.101  12.783  -4.307  1.00 20.00    -0.265 OA
BRANCH   3   5
HETATM    5  O8  UNL     1     -37.045  13.939  -3.863  1.00 20.00    -0.326 OA
HETATM    6  C3  UNL     1     -37.695  15.013  -4.549  1.00 20.00     0.213 C 
ENDBRANCH   3   5
ENDBRANCH   2   3
BRANCH   2   7
HETATM    7  C5  UNL     1     -33.951  15.370  -5.070  1.00 20.00     0.087 C 
BRANCH   7   8
HETATM    8  S9  UNL     1     -34.464  16.238  -6.587  1.00 20.00    -0.173 SA
HETATM    9  C4  UNL     1     -34.856  14.789  -7.592  1.00 20.00     0.089 C 
ENDBRANCH   7   8
ENDBRANCH   2   7
TORSDOF 4
ENDMDL
MODEL 3
REMARK VINA RESULT:      -3.5      1.105      1.656
REMARK  4 active torsions:
REMARK  status: ('A' for Active; 'I' for Inactive)
REMARK    1  A    between atoms: C1_1  and  C6_6 
REMARK    2  A    between atoms: C1_1  and  O8_8 
REMARK    3  A    between atoms: C5_5  and  C6_6 
REMARK    4  A    between atoms: C5_5  and  S9_9 
ROOT
HETATM    1  C2  UNL     1     -36.926  14.709  -3.862  1.00 20.00     0.021 C 
HETATM    2  C6  UNL     1     -35.451  14.801  -4.256  1.00 20.00     0.090 C 
ENDROOT
BRANCH   2   3
HETATM    3  C1  UNL     1     -35.058  13.665  -5.190  1.00 20.00     0.263 C 
HETATM    4  O7  UNL     1     -34.715  12.548  -4.825  1.00 20.00    -0.265 OA
BRANCH   3   5
HETATM    5  O8  UNL     1     -35.143  14.088  -6.486  1.00 20.00    -0.326 OA
HETATM    6  C3  UNL     1     -34.378  15.255  -6.805  1.00 20.00     0.213 C 
ENDBRANCH   3   5
ENDBRANCH   2   3
BRANCH   2   7
HETATM    7  C5  UNL     1     -34.515  14.896  -3.042  1.00 20.00     0.087 C 
BRANCH   7   8
HETATM    8  S9  UNL     1     -33.976  16.584  -2.623  1.00 20.00    -0.173 SA
HETATM    9  C4  UNL     1     -34.598  16.641  -0.928  1.00 20.00     0.089 C 
ENDBRANCH   7   8
ENDBRANCH   2   7
TORSDOF 4
ENDMDL
MODEL 4
REMARK VINA RESULT:      -3.5      1.011      1.544
REMARK  4 active torsions:
REMARK  status: ('A' for Active; 'I' for Inactive)
REMARK    1  A    between atoms: C1_1  and  C6_6 
REMARK    2  A    between atoms: C1_1  and  O8_8 
REMARK    3  A    between atoms: C5_5  and  C6_6 
REMARK    4  A    between atoms: C5_5  and  S9_9 
ROOT
HETATM    1  C2  UNL     1     -32.911  15.252  -3.614  1.00 20.00     0.021 C 
HETATM    2  C6  UNL     1     -34.240  14.522  -3.409  1.00 20.00     0.090 C 
ENDROOT
BRANCH   2   3
HETATM    3  C1  UNL     1     -34.597  13.677  -4.624  1.00 20.00     0.263 C 
HETATM    4  O7  UNL     1     -35.044  12.539  -4.577  1.00 20.00    -0.265 OA
BRANCH   3   5
HETATM    5  O8  UNL     1     -34.333  14.382  -5.765  1.00 20.00    -0.326 OA
HETATM    6  C3  UNL     1     -35.332  14.300  -6.786  1.00 20.00     0.213 C 
ENDBRANCH   3   5
ENDBRANCH   2   3
BRANCH   2   7
HETATM    7  C5  UNL     1     -35.383  15.468  -3.012  1.00 20.00     0.087 C 
BRANCH   7   8
HETATM    8  S9  UNL     1     -35.125  17.212  -3.469  1.00 20.00    -0.173 SA
HETATM    9  C4  UNL     1     -36.327  17.307  -4.814  1.00 20.00     0.089 C 
ENDBRANCH   7   8
ENDBRANCH   2   7
TORSDOF 4
ENDMDL
MODEL 5
REMARK VINA RESULT:      -3.4      1.975      3.107
REMARK  4 active torsions:
REMARK  status: ('A' for Active; 'I' for Inactive)
REMARK    1  A    between atoms: C1_1  and  C6_6 
REMARK    2  A    between atoms: C1_1  and  O8_8 
REMARK    3  A    between atoms: C5_5  and  C6_6 
REMARK    4  A    between atoms: C5_5  and  S9_9 
ROOT
HETATM    1  C2  UNL     1     -34.483  14.838  -6.873  1.00 20.00     0.021 C 
HETATM    2  C6  UNL     1     -34.977  14.881  -5.425  1.00 20.00     0.090 C 
ENDROOT
BRANCH   2   3
HETATM    3  C1  UNL     1     -34.449  13.696  -4.628  1.00 20.00     0.263 C 
HETATM    4  O7  UNL     1     -34.991  12.601  -4.562  1.00 20.00    -0.265 OA
BRANCH   3   5
HETATM    5  O8  UNL     1     -33.288  14.049  -4.000  1.00 20.00    -0.326 OA
HETATM    6  C3  UNL     1     -33.247  15.382  -3.482  1.00 20.00     0.213 C 
ENDBRANCH   3   5
ENDBRANCH   2   3
BRANCH   2   7
HETATM    7  C5  UNL     1     -36.504  15.009  -5.321  1.00 20.00     0.087 C 
BRANCH   7   8
HETATM    8  S9  UNL     1     -37.122  15.449  -3.665  1.00 20.00    -0.173 SA
HETATM    9  C4  UNL     1     -38.806  14.823  -3.844  1.00 20.00     0.089 C 
ENDBRANCH   7   8
ENDBRANCH   2   7
TORSDOF 4
ENDMDL
MODEL 6
REMARK VINA RESULT:      -3.4      1.399      1.945
REMARK  4 active torsions:
REMARK  status: ('A' for Active; 'I' for Inactive)
REMARK    1  A    between atoms: C1_1  and  C6_6 
REMARK    2  A    between atoms: C1_1  and  O8_8 
REMARK    3  A    between atoms: C5_5  and  C6_6 
REMARK    4  A    between atoms: C5_5  and  S9_9 
ROOT
HETATM    1  C2  UNL     1     -34.224  15.744  -5.990  1.00 20.00     0.021 C 
HETATM    2  C6  UNL     1     -33.918  14.655  -4.960  1.00 20.00     0.090 C 
ENDROOT
BRANCH   2   3
HETATM    3  C1  UNL     1     -35.149  13.809  -4.671  1.00 20.00     0.263 C 
HETATM    4  O7  UNL     1     -35.125  12.657  -4.257  1.00 20.00    -0.265 OA
BRANCH   3   5
HETATM    5  O8  UNL     1     -36.276  14.529  -4.953  1.00 20.00    -0.326 OA
HETATM    6  C3  UNL     1     -37.175  14.723  -3.856  1.00 20.00     0.213 C 
ENDBRANCH   3   5
ENDBRANCH   2   3
BRANCH   2   7
HETATM    7  C5  UNL     1     -33.289  15.212  -3.675  1.00 20.00     0.087 C 
BRANCH   7   8
HETATM    8  S9  UNL     1     -33.939  16.827  -3.143  1.00 20.00    -0.173 SA
HETATM    9  C4  UNL     1     -34.663  16.309  -1.571  1.00 20.00     0.089 C 
ENDBRANCH   7   8
ENDBRANCH   2   7
TORSDOF 4
ENDMDL
MODEL 7
REMARK VINA RESULT:      -3.4      2.108      3.075
REMARK  4 active torsions:
REMARK  status: ('A' for Active; 'I' for Inactive)
REMARK    1  A    between atoms: C1_1  and  C6_6 
REMARK    2  A    between atoms: C1_1  and  O8_8 
REMARK    3  A    between atoms: C5_5  and  C6_6 
REMARK    4  A    between atoms: C5_5  and  S9_9 
ROOT
HETATM    1  C2  UNL     1     -34.729  16.032  -1.958  1.00 20.00     0.021 C 
HETATM    2  C6  UNL     1     -34.281  15.772  -3.397  1.00 20.00     0.090 C 
ENDROOT
BRANCH   2   3
HETATM    3  C1  UNL     1     -33.376  14.551  -3.480  1.00 20.00     0.263 C 
HETATM    4  O7  UNL     1     -32.157  14.591  -3.582  1.00 20.00    -0.265 OA
BRANCH   3   5
HETATM    5  O8  UNL     1     -34.134  13.415  -3.432  1.00 20.00    -0.326 OA
HETATM    6  C3  UNL     1     -35.093  13.267  -4.484  1.00 20.00     0.213 C 
ENDBRANCH   3   5
ENDBRANCH   2   3
BRANCH   2   7
HETATM    7  C5  UNL     1     -33.645  17.005  -4.055  1.00 20.00     0.087 C 
BRANCH   7   8
HETATM    8  S9  UNL     1     -34.013  17.202  -5.828  1.00 20.00    -0.173 SA
HETATM    9  C4  UNL     1     -35.752  16.716  -5.785  1.00 20.00     0.089 C 
ENDBRANCH   7   8
ENDBRANCH   2   7
TORSDOF 4
ENDMDL
MODEL 8
REMARK VINA RESULT:      -3.4      2.359      3.379
REMARK  4 active torsions:
REMARK  status: ('A' for Active; 'I' for Inactive)
REMARK    1  A    between atoms: C1_1  and  C6_6 
REMARK    2  A    between atoms: C1_1  and  O8_8 
REMARK    3  A    between atoms: C5_5  and  C6_6 
REMARK    4  A    between atoms: C5_5  and  S9_9 
ROOT
HETATM    1  C2  UNL     1     -34.437  16.664  -1.204  1.00 20.00     0.021 C 
HETATM    2  C6  UNL     1     -34.563  15.645  -2.338  1.00 20.00     0.090 C 
ENDROOT
BRANCH   2   3
HETATM    3  C1  UNL     1     -33.437  15.806  -3.350  1.00 20.00     0.263 C 
HETATM    4  O7  UNL     1     -32.607  14.946  -3.615  1.00 20.00    -0.265 OA
BRANCH   3   5
HETATM    5  O8  UNL     1     -33.495  17.054  -3.904  1.00 20.00    -0.326 OA
HETATM    6  C3  UNL     1     -33.440  17.097  -5.334  1.00 20.00     0.213 C 
ENDBRANCH   3   5
ENDBRANCH   2   3
BRANCH   2   7
HETATM    7  C5  UNL     1     -35.945  15.668  -3.008  1.00 20.00     0.087 C 
BRANCH   7   8
HETATM    8  S9  UNL     1     -36.208  14.370  -4.259  1.00 20.00    -0.173 SA
HETATM    9  C4  UNL     1     -36.814  15.422  -5.597  1.00 20.00     0.089 C 
ENDBRANCH   7   8
ENDBRANCH   2   7
TORSDOF 4
ENDMDL
MODEL 9
REMARK VINA RESULT:      -3.3      2.113      3.488
REMARK  4 active torsions:
REMARK  status: ('A' for Active; 'I' for Inactive)
REMARK    1  A    between atoms: C1_1  and  C6_6 
REMARK    2  A    between atoms: C1_1  and  O8_8 
REMARK    3  A    between atoms: C5_5  and  C6_6 
REMARK    4  A    between atoms: C5_5  and  S9_9 
ROOT
HETATM    1  C2  UNL     1     -36.519  15.022  -6.042  1.00 20.00     0.021 C 
HETATM    2  C6  UNL     1     -35.139  14.398  -6.262  1.00 20.00     0.090 C 
ENDROOT
BRANCH   2   3
HETATM    3  C1  UNL     1     -34.629  13.731  -4.992  1.00 20.00     0.263 C 
HETATM    4  O7  UNL     1     -34.953  12.615  -4.610  1.00 20.00    -0.265 OA
BRANCH   3   5
HETATM    5  O8  UNL     1     -33.764  14.572  -4.350  1.00 20.00    -0.326 OA
HETATM    6  C3  UNL     1     -34.225  15.095  -3.100  1.00 20.00     0.213 C 
ENDBRANCH   3   5
ENDBRANCH   2   3
BRANCH   2   7
HETATM    7  C5  UNL     1     -34.121  15.392  -6.838  1.00 20.00     0.087 C 
BRANCH   7   8
HETATM    8  S9  UNL     1     -34.710  17.112  -6.948  1.00 20.00    -0.173 SA
HETATM    9  C4  UNL     1     -33.655  17.828  -5.669  1.00 20.00     0.089 C 
ENDBRANCH   7   8
ENDBRANCH   2   7
TORSDOF 4
ENDMDL
