MODEL 1
REMARK VINA RESULT:      -4.6      0.000      0.000
REMARK  1 active torsions:
REMARK  status: ('A' for Active; 'I' for Inactive)
REMARK    1  A    between atoms: C3_3  and  C7_7 
ROOT
HETATM    1  C1  UNL     1     -33.845  17.485  -6.081  1.00 20.00    -0.030 C 
HETATM    2  C2  UNL     1     -33.429  17.094  -4.869  1.00 20.00    -0.025 C 
HETATM    3  C4  UNL     1     -34.510  16.567  -7.058  1.00 20.00     0.028 C 
HETATM    4  C5  UNL     1     -34.372  15.093  -6.674  1.00 20.00     0.021 C 
HETATM    5  C6  UNL     1     -33.611  15.693  -4.328  1.00 20.00     0.018 C 
HETATM    6  C7  UNL     1     -34.615  14.841  -5.168  1.00 20.00     0.016 C 
HETATM    7  C8  UNL     1     -33.976  15.771  -2.839  1.00 20.00     0.015 C 
HETATM    8  C9  UNL     1     -36.090  15.100  -4.817  1.00 20.00     0.023 C 
ENDROOT
BRANCH   6   9
HETATM    9  C3  UNL     1     -34.359  13.372  -4.924  1.00 20.00     0.241 C 
HETATM   10  O10 UNL     1     -35.106  12.656  -4.268  1.00 20.00    -0.306 OA
ENDBRANCH   6   9
TORSDOF 1
ENDMDL
MODEL 2
REMARK VINA RESULT:      -4.6      1.247      2.863
REMARK  1 active torsions:
REMARK  status: ('A' for Active; 'I' for Inactive)
REMARK    1  A    between atoms: C3_3  and  C7_7 
ROOT
HETATM    1  C1  UNL     1     -33.937  17.711  -3.154  1.00 20.00    -0.030 C 
HETATM    2  C2  UNL     1     -34.241  17.397  -4.421  1.00 20.00    -0.025 C 
HETATM    3  C4  UNL     1     -34.059  16.747  -2.017  1.00 20.00     0.028 C 
HETATM    4  C5  UNL     1     -34.861  15.497  -2.383  1.00 20.00     0.021 C 
HETATM    5  C6  UNL     1     -34.707  16.028  -4.860  1.00 20.00     0.018 C 
HETATM    6  C7  UNL     1     -34.486  14.929  -3.771  1.00 20.00     0.016 C 
HETATM    7  C8  UNL     1     -34.063  15.685  -6.211  1.00 20.00     0.015 C 
HETATM    8  C9  UNL     1     -33.055  14.365  -3.746  1.00 20.00     0.023 C 
ENDROOT
BRANCH   6   9
HETATM    9  C3  UNL     1     -35.412  13.765  -4.032  1.00 20.00     0.241 C 
HETATM   10  O10 UNL     1     -35.023  12.661  -4.397  1.00 20.00    -0.306 OA
ENDBRANCH   6   9
TORSDOF 1
ENDMDL
MODEL 3
REMARK VINA RESULT:      -4.4      1.523      3.001
REMARK  1 active torsions:
REMARK  status: ('A' for Active; 'I' for Inactive)
REMARK    1  A    between atoms: C3_3  and  C7_7 
ROOT
HETATM    1  C1  UNL     1     -33.110  16.109  -4.563  1.00 20.00    -0.030 C 
HETATM    2  C2  UNL     1     -34.012  16.160  -5.552  1.00 20.00    -0.025 C 
HETATM    3  C4  UNL     1     -33.438  15.661  -3.174  1.00 20.00     0.028 C 
HETATM    4  C5  UNL     1     -34.944  15.583  -2.916  1.00 20.00     0.021 C 
HETATM    5  C6  UNL     1     -35.457  15.739  -5.397  1.00 20.00     0.018 C 
HETATM    6  C7  UNL     1     -35.719  14.933  -4.084  1.00 20.00     0.016 C 
HETATM    7  C8  UNL     1     -35.906  15.001  -6.665  1.00 20.00     0.015 C 
HETATM    8  C9  UNL     1     -35.362  13.441  -4.195  1.00 20.00     0.023 C 
ENDROOT
BRANCH   6   9
HETATM    9  C3  UNL     1     -37.186  15.007  -3.731  1.00 20.00     0.241 C 
HETATM   10  O10 UNL     1     -37.944  14.046  -3.788  1.00 20.00    -0.306 OA
ENDBRANCH   6   9
TORSDOF 1
ENDMDL
MODEL 4
REMARK VINA RESULT:      -4.4      2.063      2.951
REMARK  1 active torsions:
REMARK  status: ('A' for Active; 'I' for Inactive)
REMARK    1  A    between atoms: C3_3  and  C7_7 
ROOT
HETATM    1  C1  UNL     1     -33.231  14.268  -3.782  1.00 20.00    -0.030 C 
HETATM    2  C2  UNL     1     -33.664  15.272  -3.007  1.00 20.00    -0.025 C 
HETATM    3  C4  UNL     1     -34.141  13.420  -4.612  1.00 20.00     0.028 C 
HETATM    4  C5  UNL     1     -35.615  13.594  -4.243  1.00 20.00     0.021 C 
HETATM    5  C6  UNL     1     -35.113  15.691  -2.905  1.00 20.00     0.018 C 
HETATM    6  C7  UNL     1     -36.008  15.073  -4.027  1.00 20.00     0.016 C 
HETATM    7  C8  UNL     1     -35.191  17.223  -2.838  1.00 20.00     0.015 C 
HETATM    8  C9  UNL     1     -35.945  15.841  -5.358  1.00 20.00     0.023 C 
ENDROOT
BRANCH   6   9
HETATM    9  C3  UNL     1     -37.452  15.082  -3.584  1.00 20.00     0.241 C 
HETATM   10  O10 UNL     1     -38.224  14.151  -3.778  1.00 20.00    -0.306 OA
ENDBRANCH   6   9
TORSDOF 1
ENDMDL
MODEL 5
REMARK VINA RESULT:      -4.3      1.506      1.974
REMARK  1 active torsions:
REMARK  status: ('A' for Active; 'I' for Inactive)
REMARK    1  A    between atoms: C3_3  and  C7_7 
ROOT
HETATM    1  C1  UNL     1     -33.713  18.554  -3.983  1.00 20.00    -0.030 C 
HETATM    2  C2  UNL     1     -33.767  18.029  -2.751  1.00 20.00    -0.025 C 
HETATM    3  C4  UNL     1     -33.608  17.727  -5.225  1.00 20.00     0.028 C 
HETATM    4  C5  UNL     1     -33.243  16.269  -4.937  1.00 20.00     0.021 C 
HETATM    5  C6  UNL     1     -33.764  16.543  -2.469  1.00 20.00     0.018 C 
HETATM    6  C7  UNL     1     -34.028  15.679  -3.744  1.00 20.00     0.016 C 
HETATM    7  C8  UNL     1     -34.739  16.247  -1.320  1.00 20.00     0.015 C 
HETATM    8  C9  UNL     1     -35.518  15.545  -4.100  1.00 20.00     0.023 C 
ENDROOT
BRANCH   6   9
HETATM    9  C3  UNL     1     -33.502  14.280  -3.523  1.00 20.00     0.241 C 
HETATM   10  O10 UNL     1     -34.218  13.285  -3.502  1.00 20.00    -0.306 OA
ENDBRANCH   6   9
TORSDOF 1
ENDMDL
MODEL 6
REMARK VINA RESULT:      -4.2      1.166      2.964
REMARK  1 active torsions:
REMARK  status: ('A' for Active; 'I' for Inactive)
REMARK    1  A    between atoms: C3_3  and  C7_7 
ROOT
HETATM    1  C1  UNL     1     -35.105  16.802  -2.347  1.00 20.00    -0.030 C 
HETATM    2  C2  UNL     1     -36.166  16.287  -2.985  1.00 20.00    -0.025 C 
HETATM    3  C4  UNL     1     -33.708  16.301  -2.541  1.00 20.00     0.028 C 
HETATM    4  C5  UNL     1     -33.655  14.958  -3.270  1.00 20.00     0.021 C 
HETATM    5  C6  UNL     1     -36.078  15.168  -3.998  1.00 20.00     0.018 C 
HETATM    6  C7  UNL     1     -34.617  14.894  -4.479  1.00 20.00     0.016 C 
HETATM    7  C8  UNL     1     -37.054  15.452  -5.148  1.00 20.00     0.015 C 
HETATM    8  C9  UNL     1     -34.142  15.850  -5.587  1.00 20.00     0.023 C 
ENDROOT
BRANCH   6   9
HETATM    9  C3  UNL     1     -34.523  13.495  -5.039  1.00 20.00     0.241 C 
HETATM   10  O10 UNL     1     -35.015  12.514  -4.492  1.00 20.00    -0.306 OA
ENDBRANCH   6   9
TORSDOF 1
ENDMDL
MODEL 7
REMARK VINA RESULT:      -4.2      2.337      3.754
REMARK  1 active torsions:
REMARK  status: ('A' for Active; 'I' for Inactive)
REMARK    1  A    between atoms: C3_3  and  C7_7 
ROOT
HETATM    1  C1  UNL     1     -34.573  13.344  -4.484  1.00 20.00    -0.030 C 
HETATM    2  C2  UNL     1     -35.435  14.267  -4.932  1.00 20.00    -0.025 C 
HETATM    3  C4  UNL     1     -33.346  13.680  -3.698  1.00 20.00     0.028 C 
HETATM    4  C5  UNL     1     -33.004  15.170  -3.739  1.00 20.00     0.021 C 
HETATM    5  C6  UNL     1     -35.293  15.749  -4.670  1.00 20.00     0.018 C 
HETATM    6  C7  UNL     1     -34.245  16.075  -3.558  1.00 20.00     0.016 C 
HETATM    7  C8  UNL     1     -36.680  16.347  -4.393  1.00 20.00     0.015 C 
HETATM    8  C9  UNL     1     -34.798  15.939  -2.130  1.00 20.00     0.023 C 
ENDROOT
BRANCH   6   9
HETATM    9  C3  UNL     1     -33.772  17.501  -3.711  1.00 20.00     0.241 C 
HETATM   10  O10 UNL     1     -33.402  17.980  -4.778  1.00 20.00    -0.306 OA
ENDBRANCH   6   9
TORSDOF 1
ENDMDL
MODEL 8
REMARK VINA RESULT:      -4.1      1.887      3.186
REMARK  1 active torsions:
REMARK  status: ('A' for Active; 'I' for Inactive)
REMARK    1  A    between atoms: C3_3  and  C7_7 
ROOT
HETATM    1  C1  UNL     1     -34.778  13.992  -5.917  1.00 20.00    -0.030 C 
HETATM    2  C2  UNL     1     -34.506  15.302  -5.990  1.00 20.00    -0.025 C 
HETATM    3  C4  UNL     1     -34.887  13.247  -4.624  1.00 20.00     0.028 C 
HETATM    4  C5  UNL     1     -34.342  14.040  -3.435  1.00 20.00     0.021 C 
HETATM    5  C6  UNL     1     -34.311  16.190  -4.782  1.00 20.00     0.018 C 
HETATM    6  C7  UNL     1     -34.781  15.521  -3.451  1.00 20.00     0.016 C 
HETATM    7  C8  UNL     1     -34.971  17.552  -5.046  1.00 20.00     0.015 C 
HETATM    8  C9  UNL     1     -36.296  15.630  -3.207  1.00 20.00     0.023 C 
ENDROOT
BRANCH   6   9
HETATM    9  C3  UNL     1     -34.101  16.192  -2.281  1.00 20.00     0.241 C 
HETATM   10  O10 UNL     1     -34.578  16.229  -1.152  1.00 20.00    -0.306 OA
ENDBRANCH   6   9
TORSDOF 1
ENDMDL
MODEL 9
REMARK VINA RESULT:      -4.1      1.296      2.820
REMARK  1 active torsions:
REMARK  status: ('A' for Active; 'I' for Inactive)
REMARK    1  A    between atoms: C3_3  and  C7_7 
ROOT
HETATM    1  C1  UNL     1     -36.489  17.121  -4.792  1.00 20.00    -0.030 C 
HETATM    2  C2  UNL     1     -36.159  16.398  -5.871  1.00 20.00    -0.025 C 
HETATM    3  C4  UNL     1     -36.070  16.761  -3.402  1.00 20.00     0.028 C 
HETATM    4  C5  UNL     1     -35.519  15.337  -3.299  1.00 20.00     0.021 C 
HETATM    5  C6  UNL     1     -35.297  15.156  -5.821  1.00 20.00     0.018 C 
HETATM    6  C7  UNL     1     -34.557  14.982  -4.456  1.00 20.00     0.016 C 
HETATM    7  C8  UNL     1     -34.352  15.149  -7.031  1.00 20.00     0.015 C 
HETATM    8  C9  UNL     1     -33.264  15.808  -4.345  1.00 20.00     0.023 C 
ENDROOT
BRANCH   6   9
HETATM    9  C3  UNL     1     -34.169  13.534  -4.273  1.00 20.00     0.241 C 
HETATM   10  O10 UNL     1     -34.952  12.601  -4.413  1.00 20.00    -0.306 OA
ENDBRANCH   6   9
TORSDOF 1
ENDMDL
