MODEL 1
REMARK VINA RESULT:      -4.5      0.000      0.000
REMARK  1 active torsions:
REMARK  status: ('A' for Active; 'I' for Inactive)
REMARK    1  A    between atoms: C3_3  and  C7_7 
ROOT
HETATM    1  C1  UNL     1     -33.871  17.489  -6.069  1.00 20.00    -0.030 C 
HETATM    2  C2  UNL     1     -34.261  16.531  -6.922  1.00 20.00    -0.025 C 
HETATM    3  C4  UNL     1     -33.542  17.229  -4.632  1.00 20.00     0.028 C 
HETATM    4  C5  UNL     1     -33.403  15.739  -4.312  1.00 20.00     0.021 C 
HETATM    5  C6  UNL     1     -34.443  15.083  -6.526  1.00 20.00     0.018 C 
HETATM    6  C7  UNL     1     -34.500  14.881  -4.979  1.00 20.00     0.016 C 
HETATM    7  C8  UNL     1     -35.658  14.496  -7.256  1.00 20.00     0.015 C 
HETATM    8  C9  UNL     1     -35.876  15.204  -4.369  1.00 20.00     0.023 C 
ENDROOT
BRANCH   6   9
HETATM    9  C3  UNL     1     -34.183  13.442  -4.653  1.00 20.00     0.241 C 
HETATM   10  O10 UNL     1     -35.031  12.618  -4.326  1.00 20.00    -0.306 OA
ENDBRANCH   6   9
TORSDOF 1
ENDMDL
MODEL 2
REMARK VINA RESULT:      -4.5      1.047      1.685
REMARK  1 active torsions:
REMARK  status: ('A' for Active; 'I' for Inactive)
REMARK    1  A    between atoms: C3_3  and  C7_7 
ROOT
HETATM    1  C1  UNL     1     -33.749  17.555  -3.466  1.00 20.00    -0.030 C 
HETATM    2  C2  UNL     1     -33.516  17.261  -4.754  1.00 20.00    -0.025 C 
HETATM    3  C4  UNL     1     -34.229  16.550  -2.467  1.00 20.00     0.028 C 
HETATM    4  C5  UNL     1     -34.140  15.109  -2.978  1.00 20.00     0.021 C 
HETATM    5  C6  UNL     1     -33.739  15.892  -5.353  1.00 20.00     0.018 C 
HETATM    6  C7  UNL     1     -34.608  14.967  -4.443  1.00 20.00     0.016 C 
HETATM    7  C8  UNL     1     -34.298  16.033  -6.775  1.00 20.00     0.015 C 
HETATM    8  C9  UNL     1     -36.118  15.244  -4.551  1.00 20.00     0.023 C 
ENDROOT
BRANCH   6   9
HETATM    9  C3  UNL     1     -34.378  13.527  -4.832  1.00 20.00     0.241 C 
HETATM   10  O10 UNL     1     -35.064  12.597  -4.422  1.00 20.00    -0.306 OA
ENDBRANCH   6   9
TORSDOF 1
ENDMDL
MODEL 3
REMARK VINA RESULT:      -4.4      1.359      2.709
REMARK  1 active torsions:
REMARK  status: ('A' for Active; 'I' for Inactive)
REMARK    1  A    between atoms: C3_3  and  C7_7 
ROOT
HETATM    1  C1  UNL     1     -34.001  17.604  -5.133  1.00 20.00    -0.030 C 
HETATM    2  C2  UNL     1     -34.569  17.432  -3.931  1.00 20.00    -0.025 C 
HETATM    3  C4  UNL     1     -33.651  16.472  -6.048  1.00 20.00     0.028 C 
HETATM    4  C5  UNL     1     -34.273  15.142  -5.616  1.00 20.00     0.021 C 
HETATM    5  C6  UNL     1     -34.898  16.077  -3.346  1.00 20.00     0.018 C 
HETATM    6  C7  UNL     1     -34.180  14.907  -4.092  1.00 20.00     0.016 C 
HETATM    7  C8  UNL     1     -34.626  16.085  -1.836  1.00 20.00     0.015 C 
HETATM    8  C9  UNL     1     -32.713  14.718  -3.669  1.00 20.00     0.023 C 
ENDROOT
BRANCH   6   9
HETATM    9  C3  UNL     1     -34.908  13.615  -3.808  1.00 20.00     0.241 C 
HETATM   10  O10 UNL     1     -34.893  12.650  -4.565  1.00 20.00    -0.306 OA
ENDBRANCH   6   9
TORSDOF 1
ENDMDL
MODEL 4
REMARK VINA RESULT:      -4.4      1.668      3.068
REMARK  1 active torsions:
REMARK  status: ('A' for Active; 'I' for Inactive)
REMARK    1  A    between atoms: C3_3  and  C7_7 
ROOT
HETATM    1  C1  UNL     1     -33.299  16.554  -5.269  1.00 20.00    -0.030 C 
HETATM    2  C2  UNL     1     -33.617  16.878  -4.007  1.00 20.00    -0.025 C 
HETATM    3  C4  UNL     1     -34.162  15.699  -6.142  1.00 20.00     0.028 C 
HETATM    4  C5  UNL     1     -35.566  15.484  -5.569  1.00 20.00     0.021 C 
HETATM    5  C6  UNL     1     -34.869  16.396  -3.310  1.00 20.00     0.018 C 
HETATM    6  C7  UNL     1     -35.552  15.202  -4.050  1.00 20.00     0.016 C 
HETATM    7  C8  UNL     1     -34.558  16.093  -1.838  1.00 20.00     0.015 C 
HETATM    8  C9  UNL     1     -34.888  13.843  -3.765  1.00 20.00     0.023 C 
ENDROOT
BRANCH   6   9
HETATM    9  C3  UNL     1     -36.994  15.106  -3.615  1.00 20.00     0.241 C 
HETATM   10  O10 UNL     1     -37.686  14.107  -3.780  1.00 20.00    -0.306 OA
ENDBRANCH   6   9
TORSDOF 1
ENDMDL
MODEL 5
REMARK VINA RESULT:      -4.4      1.499      3.147
REMARK  1 active torsions:
REMARK  status: ('A' for Active; 'I' for Inactive)
REMARK    1  A    between atoms: C3_3  and  C7_7 
ROOT
HETATM    1  C1  UNL     1     -35.435  16.663  -2.303  1.00 20.00    -0.030 C 
HETATM    2  C2  UNL     1     -34.324  15.913  -2.278  1.00 20.00    -0.025 C 
HETATM    3  C4  UNL     1     -36.517  16.498  -3.325  1.00 20.00     0.028 C 
HETATM    4  C5  UNL     1     -36.376  15.211  -4.141  1.00 20.00     0.021 C 
HETATM    5  C6  UNL     1     -34.019  14.835  -3.293  1.00 20.00     0.018 C 
HETATM    6  C7  UNL     1     -34.918  14.931  -4.567  1.00 20.00     0.016 C 
HETATM    7  C8  UNL     1     -32.518  14.835  -3.614  1.00 20.00     0.015 C 
HETATM    8  C9  UNL     1     -34.442  15.993  -5.574  1.00 20.00     0.023 C 
ENDROOT
BRANCH   6   9
HETATM    9  C3  UNL     1     -34.922  13.598  -5.275  1.00 20.00     0.241 C 
HETATM   10  O10 UNL     1     -34.844  12.522  -4.692  1.00 20.00    -0.306 OA
ENDBRANCH   6   9
TORSDOF 1
ENDMDL
MODEL 6
REMARK VINA RESULT:      -4.3      2.249      3.903
REMARK  1 active torsions:
REMARK  status: ('A' for Active; 'I' for Inactive)
REMARK    1  A    between atoms: C3_3  and  C7_7 
ROOT
HETATM    1  C1  UNL     1     -34.720  13.406  -4.602  1.00 20.00    -0.030 C 
HETATM    2  C2  UNL     1     -34.302  13.991  -3.470  1.00 20.00    -0.025 C 
HETATM    3  C4  UNL     1     -34.849  14.132  -5.905  1.00 20.00     0.028 C 
HETATM    4  C5  UNL     1     -34.180  15.509  -5.890  1.00 20.00     0.021 C 
HETATM    5  C6  UNL     1     -33.941  15.456  -3.369  1.00 20.00     0.018 C 
HETATM    6  C7  UNL     1     -34.453  16.290  -4.586  1.00 20.00     0.016 C 
HETATM    7  C8  UNL     1     -34.410  16.012  -2.017  1.00 20.00     0.015 C 
HETATM    8  C9  UNL     1     -35.942  16.665  -4.489  1.00 20.00     0.023 C 
ENDROOT
BRANCH   6   9
HETATM    9  C3  UNL     1     -33.663  17.573  -4.676  1.00 20.00     0.241 C 
HETATM   10  O10 UNL     1     -33.401  18.133  -5.736  1.00 20.00    -0.306 OA
ENDBRANCH   6   9
TORSDOF 1
ENDMDL
MODEL 7
REMARK VINA RESULT:      -4.3      1.581      3.331
REMARK  1 active torsions:
REMARK  status: ('A' for Active; 'I' for Inactive)
REMARK    1  A    between atoms: C3_3  and  C7_7 
ROOT
HETATM    1  C1  UNL     1     -36.784  15.577  -4.756  1.00 20.00    -0.030 C 
HETATM    2  C2  UNL     1     -36.421  15.653  -3.467  1.00 20.00    -0.025 C 
HETATM    3  C4  UNL     1     -35.902  15.018  -5.828  1.00 20.00     0.028 C 
HETATM    4  C5  UNL     1     -34.684  14.274  -5.272  1.00 20.00     0.021 C 
HETATM    5  C6  UNL     1     -35.071  15.210  -2.951  1.00 20.00     0.018 C 
HETATM    6  C7  UNL     1     -34.021  15.015  -4.091  1.00 20.00     0.016 C 
HETATM    7  C8  UNL     1     -34.596  16.172  -1.853  1.00 20.00     0.015 C 
HETATM    8  C9  UNL     1     -33.389  16.332  -4.574  1.00 20.00     0.023 C 
ENDROOT
BRANCH   6   9
HETATM    9  C3  UNL     1     -32.906  14.128  -3.594  1.00 20.00     0.241 C 
HETATM   10  O10 UNL     1     -32.886  12.912  -3.754  1.00 20.00    -0.306 OA
ENDBRANCH   6   9
TORSDOF 1
ENDMDL
MODEL 8
REMARK VINA RESULT:      -4.2     11.707     13.026
REMARK  1 active torsions:
REMARK  status: ('A' for Active; 'I' for Inactive)
REMARK    1  A    between atoms: C3_3  and  C7_7 
ROOT
HETATM    1  C1  UNL     1     -40.910   7.122  -0.711  1.00 20.00    -0.030 C 
HETATM    2  C2  UNL     1     -41.548   7.198  -1.887  1.00 20.00    -0.025 C 
HETATM    3  C4  UNL     1     -40.622   5.830  -0.011  1.00 20.00     0.028 C 
HETATM    4  C5  UNL     1     -40.854   4.606  -0.901  1.00 20.00     0.021 C 
HETATM    5  C6  UNL     1     -42.076   5.993  -2.632  1.00 20.00     0.018 C 
HETATM    6  C7  UNL     1     -42.147   4.713  -1.739  1.00 20.00     0.016 C 
HETATM    7  C8  UNL     1     -43.417   6.340  -3.292  1.00 20.00     0.015 C 
HETATM    8  C9  UNL     1     -43.382   4.672  -0.823  1.00 20.00     0.023 C 
ENDROOT
BRANCH   6   9
HETATM    9  C3  UNL     1     -42.192   3.491  -2.623  1.00 20.00     0.241 C 
HETATM   10  O10 UNL     1     -41.194   2.863  -2.962  1.00 20.00    -0.306 OA
ENDBRANCH   6   9
TORSDOF 1
ENDMDL
MODEL 9
REMARK VINA RESULT:      -4.2      1.941      3.257
REMARK  1 active torsions:
REMARK  status: ('A' for Active; 'I' for Inactive)
REMARK    1  A    between atoms: C3_3  and  C7_7 
ROOT
HETATM    1  C1  UNL     1     -34.709  14.331  -6.346  1.00 20.00    -0.030 C 
HETATM    2  C2  UNL     1     -34.583  15.661  -6.232  1.00 20.00    -0.025 C 
HETATM    3  C4  UNL     1     -34.844  13.413  -5.171  1.00 20.00     0.028 C 
HETATM    4  C5  UNL     1     -35.125  14.156  -3.862  1.00 20.00     0.021 C 
HETATM    5  C6  UNL     1     -34.532  16.387  -4.907  1.00 20.00     0.018 C 
HETATM    6  C7  UNL     1     -34.264  15.429  -3.703  1.00 20.00     0.016 C 
HETATM    7  C8  UNL     1     -33.530  17.546  -4.989  1.00 20.00     0.015 C 
HETATM    8  C9  UNL     1     -32.781  15.053  -3.537  1.00 20.00     0.023 C 
ENDROOT
BRANCH   6   9
HETATM    9  C3  UNL     1     -34.712  16.097  -2.426  1.00 20.00     0.241 C 
HETATM   10  O10 UNL     1     -33.937  16.497  -1.563  1.00 20.00    -0.306 OA
ENDBRANCH   6   9
TORSDOF 1
ENDMDL
