MODEL 1
REMARK VINA RESULT:      -3.6      0.000      0.000
REMARK  4 active torsions:
REMARK  status: ('A' for Active; 'I' for Inactive)
REMARK    1  A    between atoms: C3_3  and  C4_4 
REMARK    2  A    between atoms: C4_4  and  N7_7 
REMARK    3  A    between atoms: C5_5  and  C6_6 
REMARK    4  A    between atoms: C5_5  and  N7_7 
ROOT
HETATM    1  C2  UNL     1     -34.327   5.356   2.649  1.00 20.00     0.309 C 
HETATM    2  N7  UNL     1     -33.676   6.347   3.505  1.00 20.00     0.085 N 
ENDROOT
BRANCH   2   3
HETATM    3  C4  UNL     1     -34.038   6.129   4.905  1.00 20.00     0.271 C 
BRANCH   3   4
HETATM    4  C3  UNL     1     -35.130   5.077   5.064  1.00 20.00     0.026 C 
HETATM    5  C1  UNL     1     -34.756   3.987   6.058  1.00 20.00     0.007 C 
ENDBRANCH   3   4
ENDBRANCH   2   3
BRANCH   2   6
HETATM    6  C5  UNL     1     -32.225   6.292   3.338  1.00 20.00     0.286 C 
BRANCH   6   7
HETATM    7  C6  UNL     1     -31.601   7.671   3.195  1.00 20.00     0.144 C 
HETATM    8 CL8  UNL     1     -32.045   8.425   1.643  1.00 20.00    -0.129 Cl
ENDBRANCH   6   7
ENDBRANCH   2   6
TORSDOF 4
ENDMDL
MODEL 2
REMARK VINA RESULT:      -3.6      2.648      4.145
REMARK  4 active torsions:
REMARK  status: ('A' for Active; 'I' for Inactive)
REMARK    1  A    between atoms: C3_3  and  C4_4 
REMARK    2  A    between atoms: C4_4  and  N7_7 
REMARK    3  A    between atoms: C5_5  and  C6_6 
REMARK    4  A    between atoms: C5_5  and  N7_7 
ROOT
HETATM    1  C2  UNL     1     -35.205   5.742   3.302  1.00 20.00     0.309 C 
HETATM    2  N7  UNL     1     -33.909   5.559   3.955  1.00 20.00     0.085 N 
ENDROOT
BRANCH   2   3
HETATM    3  C4  UNL     1     -32.822   5.865   3.025  1.00 20.00     0.271 C 
BRANCH   3   4
HETATM    4  C3  UNL     1     -32.121   7.176   3.362  1.00 20.00     0.026 C 
HETATM    5  C1  UNL     1     -32.059   8.130   2.179  1.00 20.00     0.007 C 
ENDBRANCH   3   4
ENDBRANCH   2   3
BRANCH   2   6
HETATM    6  C5  UNL     1     -33.814   6.398   5.147  1.00 20.00     0.286 C 
BRANCH   6   7
HETATM    7  C6  UNL     1     -34.458   5.758   6.366  1.00 20.00     0.144 C 
HETATM    8 CL8  UNL     1     -34.850   4.046   6.066  1.00 20.00    -0.129 Cl
ENDBRANCH   6   7
ENDBRANCH   2   6
TORSDOF 4
ENDMDL
MODEL 3
REMARK VINA RESULT:      -3.6      1.255      1.638
REMARK  4 active torsions:
REMARK  status: ('A' for Active; 'I' for Inactive)
REMARK    1  A    between atoms: C3_3  and  C4_4 
REMARK    2  A    between atoms: C4_4  and  N7_7 
REMARK    3  A    between atoms: C5_5  and  C6_6 
REMARK    4  A    between atoms: C5_5  and  N7_7 
ROOT
HETATM    1  C2  UNL     1     -35.803   5.810   3.420  1.00 20.00     0.309 C 
HETATM    2  N7  UNL     1     -34.489   5.921   4.053  1.00 20.00     0.085 N 
ENDROOT
BRANCH   2   3
HETATM    3  C4  UNL     1     -34.336   4.902   5.092  1.00 20.00     0.271 C 
BRANCH   3   4
HETATM    4  C3  UNL     1     -34.484   5.479   6.495  1.00 20.00     0.026 C 
HETATM    5  C1  UNL     1     -33.887   6.872   6.625  1.00 20.00     0.007 C 
ENDBRANCH   3   4
ENDBRANCH   2   3
BRANCH   2   6
HETATM    6  C5  UNL     1     -33.429   5.796   3.054  1.00 20.00     0.286 C 
BRANCH   6   7
HETATM    7  C6  UNL     1     -32.226   6.671   3.367  1.00 20.00     0.144 C 
HETATM    8 CL8  UNL     1     -32.073   8.005   2.197  1.00 20.00    -0.129 Cl
ENDBRANCH   6   7
ENDBRANCH   2   6
TORSDOF 4
ENDMDL
MODEL 4
REMARK VINA RESULT:      -3.5      2.519      4.451
REMARK  4 active torsions:
REMARK  status: ('A' for Active; 'I' for Inactive)
REMARK    1  A    between atoms: C3_3  and  C4_4 
REMARK    2  A    between atoms: C4_4  and  N7_7 
REMARK    3  A    between atoms: C5_5  and  C6_6 
REMARK    4  A    between atoms: C5_5  and  N7_7 
ROOT
HETATM    1  C2  UNL     1     -33.648   6.622   5.297  1.00 20.00     0.309 C 
HETATM    2  N7  UNL     1     -33.719   6.528   3.840  1.00 20.00     0.085 N 
ENDROOT
BRANCH   2   3
HETATM    3  C4  UNL     1     -32.381   6.354   3.274  1.00 20.00     0.271 C 
BRANCH   3   4
HETATM    4  C3  UNL     1     -31.662   7.682   3.067  1.00 20.00     0.026 C 
HETATM    5  C1  UNL     1     -32.012   8.339   1.739  1.00 20.00     0.007 C 
ENDBRANCH   3   4
ENDBRANCH   2   3
BRANCH   2   6
HETATM    6  C5  UNL     1     -34.591   5.426   3.440  1.00 20.00     0.286 C 
BRANCH   6   7
HETATM    7  C6  UNL     1     -35.519   4.980   4.558  1.00 20.00     0.144 C 
HETATM    8 CL8  UNL     1     -34.780   3.687   5.536  1.00 20.00    -0.129 Cl
ENDBRANCH   6   7
ENDBRANCH   2   6
TORSDOF 4
ENDMDL
MODEL 5
REMARK VINA RESULT:      -3.3     11.625     11.998
REMARK  4 active torsions:
REMARK  status: ('A' for Active; 'I' for Inactive)
REMARK    1  A    between atoms: C3_3  and  C4_4 
REMARK    2  A    between atoms: C4_4  and  N7_7 
REMARK    3  A    between atoms: C5_5  and  C6_6 
REMARK    4  A    between atoms: C5_5  and  N7_7 
ROOT
HETATM    1  C2  UNL     1     -32.664  14.652  -3.692  1.00 20.00     0.309 C 
HETATM    2  N7  UNL     1     -34.008  14.131  -3.443  1.00 20.00     0.085 N 
ENDROOT
BRANCH   2   3
HETATM    3  C4  UNL     1     -34.895  15.203  -2.991  1.00 20.00     0.271 C 
BRANCH   3   4
HETATM    4  C3  UNL     1     -34.137  16.328  -2.294  1.00 20.00     0.026 C 
HETATM    5  C1  UNL     1     -34.646  16.596  -0.886  1.00 20.00     0.007 C 
ENDBRANCH   3   4
ENDBRANCH   2   3
BRANCH   2   6
HETATM    6  C5  UNL     1     -34.543  13.499  -4.648  1.00 20.00     0.286 C 
BRANCH   6   7
HETATM    7  C6  UNL     1     -35.301  14.475  -5.533  1.00 20.00     0.144 C 
HETATM    8 CL8  UNL     1     -34.346  14.922  -6.969  1.00 20.00    -0.129 Cl
ENDBRANCH   6   7
ENDBRANCH   2   6
TORSDOF 4
ENDMDL
MODEL 6
REMARK VINA RESULT:      -3.3     11.298     12.110
REMARK  4 active torsions:
REMARK  status: ('A' for Active; 'I' for Inactive)
REMARK    1  A    between atoms: C3_3  and  C4_4 
REMARK    2  A    between atoms: C4_4  and  N7_7 
REMARK    3  A    between atoms: C5_5  and  C6_6 
REMARK    4  A    between atoms: C5_5  and  N7_7 
ROOT
HETATM    1  C2  UNL     1     -35.616  16.560  -5.057  1.00 20.00     0.309 C 
HETATM    2  N7  UNL     1     -35.247  15.768  -3.884  1.00 20.00     0.085 N 
ENDROOT
BRANCH   2   3
HETATM    3  C4  UNL     1     -35.534  16.511  -2.657  1.00 20.00     0.271 C 
BRANCH   3   4
HETATM    4  C3  UNL     1     -34.436  16.352  -1.611  1.00 20.00     0.026 C 
HETATM    5  C1  UNL     1     -34.794  16.995  -0.280  1.00 20.00     0.007 C 
ENDBRANCH   3   4
ENDBRANCH   2   3
BRANCH   2   6
HETATM    6  C5  UNL     1     -35.954  14.490  -3.886  1.00 20.00     0.286 C 
BRANCH   6   7
HETATM    7  C6  UNL     1     -35.064  13.330  -4.300  1.00 20.00     0.144 C 
HETATM    8 CL8  UNL     1     -33.369  13.617  -3.834  1.00 20.00    -0.129 Cl
ENDBRANCH   6   7
ENDBRANCH   2   6
TORSDOF 4
ENDMDL
MODEL 7
REMARK VINA RESULT:      -3.2     11.335     12.345
REMARK  4 active torsions:
REMARK  status: ('A' for Active; 'I' for Inactive)
REMARK    1  A    between atoms: C3_3  and  C4_4 
REMARK    2  A    between atoms: C4_4  and  N7_7 
REMARK    3  A    between atoms: C5_5  and  C6_6 
REMARK    4  A    between atoms: C5_5  and  N7_7 
ROOT
HETATM    1  C2  UNL     1     -33.350  16.700  -5.320  1.00 20.00     0.309 C 
HETATM    2  N7  UNL     1     -33.889  16.124  -4.089  1.00 20.00     0.085 N 
ENDROOT
BRANCH   2   3
HETATM    3  C4  UNL     1     -32.988  15.094  -3.571  1.00 20.00     0.271 C 
BRANCH   3   4
HETATM    4  C3  UNL     1     -33.485  13.684  -3.871  1.00 20.00     0.026 C 
HETATM    5  C1  UNL     1     -34.997  13.614  -4.023  1.00 20.00     0.007 C 
ENDBRANCH   3   4
ENDBRANCH   2   3
BRANCH   2   6
HETATM    6  C5  UNL     1     -34.104  17.167  -3.088  1.00 20.00     0.286 C 
BRANCH   6   7
HETATM    7  C6  UNL     1     -35.233  16.831  -2.128  1.00 20.00     0.144 C 
HETATM    8 CL8  UNL     1     -34.646  16.725  -0.449  1.00 20.00    -0.129 Cl
ENDBRANCH   6   7
ENDBRANCH   2   6
TORSDOF 4
ENDMDL
MODEL 8
REMARK VINA RESULT:      -3.2     11.858     12.420
REMARK  4 active torsions:
REMARK  status: ('A' for Active; 'I' for Inactive)
REMARK    1  A    between atoms: C3_3  and  C4_4 
REMARK    2  A    between atoms: C4_4  and  N7_7 
REMARK    3  A    between atoms: C5_5  and  C6_6 
REMARK    4  A    between atoms: C5_5  and  N7_7 
ROOT
HETATM    1  C2  UNL     1     -33.712  16.957  -5.263  1.00 20.00     0.309 C 
HETATM    2  N7  UNL     1     -33.346  16.555  -3.906  1.00 20.00     0.085 N 
ENDROOT
BRANCH   2   3
HETATM    3  C4  UNL     1     -34.275  17.133  -2.935  1.00 20.00     0.271 C 
BRANCH   3   4
HETATM    4  C3  UNL     1     -34.558  16.191  -1.770  1.00 20.00     0.026 C 
HETATM    5  C1  UNL     1     -34.674  16.920  -0.439  1.00 20.00     0.007 C 
ENDBRANCH   3   4
ENDBRANCH   2   3
BRANCH   2   6
HETATM    6  C5  UNL     1     -33.329  15.097  -3.792  1.00 20.00     0.286 C 
BRANCH   6   7
HETATM    7  C6  UNL     1     -34.118  14.416  -4.898  1.00 20.00     0.144 C 
HETATM    8 CL8  UNL     1     -35.256  13.216  -4.235  1.00 20.00    -0.129 Cl
ENDBRANCH   6   7
ENDBRANCH   2   6
TORSDOF 4
ENDMDL
MODEL 9
REMARK VINA RESULT:      -3.2     11.270     12.393
REMARK  4 active torsions:
REMARK  status: ('A' for Active; 'I' for Inactive)
REMARK    1  A    between atoms: C3_3  and  C4_4 
REMARK    2  A    between atoms: C4_4  and  N7_7 
REMARK    3  A    between atoms: C5_5  and  C6_6 
REMARK    4  A    between atoms: C5_5  and  N7_7 
ROOT
HETATM    1  C2  UNL     1     -36.539  14.449  -4.053  1.00 20.00     0.309 C 
HETATM    2  N7  UNL     1     -35.250  13.764  -3.956  1.00 20.00     0.085 N 
ENDROOT
BRANCH   2   3
HETATM    3  C4  UNL     1     -34.730  13.465  -5.290  1.00 20.00     0.271 C 
BRANCH   3   4
HETATM    4  C3  UNL     1     -35.350  14.349  -6.366  1.00 20.00     0.026 C 
HETATM    5  C1  UNL     1     -34.332  15.258  -7.039  1.00 20.00     0.007 C 
ENDBRANCH   3   4
ENDBRANCH   2   3
BRANCH   2   6
HETATM    6  C5  UNL     1     -34.295  14.576  -3.204  1.00 20.00     0.286 C 
BRANCH   6   7
HETATM    7  C6  UNL     1     -34.830  15.964  -2.888  1.00 20.00     0.144 C 
HETATM    8 CL8  UNL     1     -34.625  16.358  -1.163  1.00 20.00    -0.129 Cl
ENDBRANCH   6   7
ENDBRANCH   2   6
TORSDOF 4
ENDMDL
