MODEL 1
REMARK VINA RESULT:      -4.3      0.000      0.000
REMARK  3 active torsions:
REMARK  status: ('A' for Active; 'I' for Inactive)
REMARK    1  A    between atoms: C1_1  and  C3_3 
REMARK    2  A    between atoms: C2_2  and  C8_8 
REMARK    3  A    between atoms: C3_3  and  O10_10 
ROOT
HETATM    1  C1  UNL     1     -33.304   6.698   3.383  1.00 20.00     0.079 C 
HETATM    2  C2  UNL     1     -33.362   5.931   4.482  1.00 20.00    -0.012 C 
ENDROOT
BRANCH   1   3
HETATM    3  C3  UNL     1     -32.049   7.407   3.046  1.00 20.00     0.282 C 
HETATM    4  O9  UNL     1     -31.134   7.635   3.821  1.00 20.00    -0.260 OA
BRANCH   3   5
HETATM    5  O10 UNL     1     -32.111   7.749   1.731  1.00 20.00    -0.323 OA
HETATM    6  C7  UNL     1     -32.231   9.150   1.464  1.00 20.00     0.213 C 
ENDBRANCH   3   5
ENDBRANCH   1   3
BRANCH   2   7
HETATM    7  C8  UNL     1     -34.559   5.132   4.981  1.00 20.00    -0.034 C 
HETATM    8  C4  UNL     1     -34.345   3.608   4.992  1.00 20.00     0.018 C 
HETATM    9  C5  UNL     1     -34.879   5.592   6.416  1.00 20.00     0.018 C 
HETATM   10  C6  UNL     1     -35.761   5.450   4.074  1.00 20.00     0.018 C 
ENDBRANCH   2   7
TORSDOF 3
ENDMDL
MODEL 2
REMARK VINA RESULT:      -4.3     10.744     11.887
REMARK  3 active torsions:
REMARK  status: ('A' for Active; 'I' for Inactive)
REMARK    1  A    between atoms: C1_1  and  C3_3 
REMARK    2  A    between atoms: C2_2  and  C8_8 
REMARK    3  A    between atoms: C3_3  and  O10_10 
ROOT
HETATM    1  C1  UNL     1     -34.733  14.569  -3.402  1.00 20.00     0.079 C 
HETATM    2  C2  UNL     1     -34.039  15.583  -2.863  1.00 20.00    -0.012 C 
ENDROOT
BRANCH   1   3
HETATM    3  C3  UNL     1     -34.015  13.445  -4.044  1.00 20.00     0.282 C 
HETATM    4  O9  UNL     1     -32.921  13.019  -3.709  1.00 20.00    -0.260 OA
BRANCH   3   5
HETATM    5  O10 UNL     1     -34.794  12.986  -5.060  1.00 20.00    -0.323 OA
HETATM    6  C7  UNL     1     -35.167  13.961  -6.039  1.00 20.00     0.213 C 
ENDBRANCH   3   5
ENDBRANCH   1   3
BRANCH   2   7
HETATM    7  C8  UNL     1     -34.605  16.813  -2.165  1.00 20.00    -0.034 C 
HETATM    8  C4  UNL     1     -34.608  16.725  -0.628  1.00 20.00     0.018 C 
HETATM    9  C5  UNL     1     -33.762  18.033  -2.583  1.00 20.00     0.018 C 
HETATM   10  C6  UNL     1     -36.053  17.015  -2.646  1.00 20.00     0.018 C 
ENDBRANCH   2   7
TORSDOF 3
ENDMDL
MODEL 3
REMARK VINA RESULT:      -4.2     10.627     11.844
REMARK  3 active torsions:
REMARK  status: ('A' for Active; 'I' for Inactive)
REMARK    1  A    between atoms: C1_1  and  C3_3 
REMARK    2  A    between atoms: C2_2  and  C8_8 
REMARK    3  A    between atoms: C3_3  and  O10_10 
ROOT
HETATM    1  C1  UNL     1     -34.712  14.691  -3.314  1.00 20.00     0.079 C 
HETATM    2  C2  UNL     1     -34.061  15.651  -2.642  1.00 20.00    -0.012 C 
ENDROOT
BRANCH   1   3
HETATM    3  C3  UNL     1     -33.970  13.512  -3.816  1.00 20.00     0.282 C 
HETATM    4  O9  UNL     1     -32.852  13.173  -3.459  1.00 20.00    -0.260 OA
BRANCH   3   5
HETATM    5  O10 UNL     1     -34.757  12.890  -4.733  1.00 20.00    -0.323 OA
HETATM    6  C7  UNL     1     -35.129  13.683  -5.865  1.00 20.00     0.213 C 
ENDBRANCH   3   5
ENDBRANCH   1   3
BRANCH   2   7
HETATM    7  C8  UNL     1     -34.657  16.925  -2.055  1.00 20.00    -0.034 C 
HETATM    8  C4  UNL     1     -36.097  17.220  -2.512  1.00 20.00     0.018 C 
HETATM    9  C5  UNL     1     -34.648  16.797  -0.520  1.00 20.00     0.018 C 
HETATM   10  C6  UNL     1     -33.762  18.108  -2.465  1.00 20.00     0.018 C 
ENDBRANCH   2   7
TORSDOF 3
ENDMDL
MODEL 4
REMARK VINA RESULT:      -4.0     11.070     11.983
REMARK  3 active torsions:
REMARK  status: ('A' for Active; 'I' for Inactive)
REMARK    1  A    between atoms: C1_1  and  C3_3 
REMARK    2  A    between atoms: C2_2  and  C8_8 
REMARK    3  A    between atoms: C3_3  and  O10_10 
ROOT
HETATM    1  C1  UNL     1     -34.787  16.198  -1.550  1.00 20.00     0.079 C 
HETATM    2  C2  UNL     1     -33.956  15.963  -2.577  1.00 20.00    -0.012 C 
ENDROOT
BRANCH   1   3
HETATM    3  C3  UNL     1     -34.386  17.138  -0.479  1.00 20.00     0.282 C 
HETATM    4  O9  UNL     1     -34.978  17.305   0.576  1.00 20.00    -0.260 OA
BRANCH   3   5
HETATM    5  O10 UNL     1     -33.252  17.768  -0.888  1.00 20.00    -0.323 OA
HETATM    6  C7  UNL     1     -32.694  18.699   0.044  1.00 20.00     0.213 C 
ENDBRANCH   3   5
ENDBRANCH   1   3
BRANCH   2   7
HETATM    7  C8  UNL     1     -34.201  15.036  -3.760  1.00 20.00    -0.034 C 
HETATM    8  C4  UNL     1     -33.360  13.746  -3.739  1.00 20.00     0.018 C 
HETATM    9  C5  UNL     1     -35.691  14.647  -3.767  1.00 20.00     0.018 C 
HETATM   10  C6  UNL     1     -33.878  15.808  -5.052  1.00 20.00     0.018 C 
ENDBRANCH   2   7
TORSDOF 3
ENDMDL
MODEL 5
REMARK VINA RESULT:      -4.0     11.082     12.018
REMARK  3 active torsions:
REMARK  status: ('A' for Active; 'I' for Inactive)
REMARK    1  A    between atoms: C1_1  and  C3_3 
REMARK    2  A    between atoms: C2_2  and  C8_8 
REMARK    3  A    between atoms: C3_3  and  O10_10 
ROOT
HETATM    1  C1  UNL     1     -34.784  16.158  -1.601  1.00 20.00     0.079 C 
HETATM    2  C2  UNL     1     -33.975  15.966  -2.653  1.00 20.00    -0.012 C 
ENDROOT
BRANCH   1   3
HETATM    3  C3  UNL     1     -34.387  17.098  -0.529  1.00 20.00     0.282 C 
HETATM    4  O9  UNL     1     -34.963  17.239   0.539  1.00 20.00    -0.260 OA
BRANCH   3   5
HETATM    5  O10 UNL     1     -33.277  17.760  -0.952  1.00 20.00    -0.323 OA
HETATM    6  C7  UNL     1     -32.692  18.654  -0.000  1.00 20.00     0.213 C 
ENDBRANCH   3   5
ENDBRANCH   1   3
BRANCH   2   7
HETATM    7  C8  UNL     1     -34.219  15.046  -3.842  1.00 20.00    -0.034 C 
HETATM    8  C4  UNL     1     -33.962  15.698  -5.213  1.00 20.00     0.018 C 
HETATM    9  C5  UNL     1     -33.294  13.823  -3.702  1.00 20.00     0.018 C 
HETATM   10  C6  UNL     1     -35.684  14.575  -3.793  1.00 20.00     0.018 C 
ENDBRANCH   2   7
TORSDOF 3
ENDMDL
MODEL 6
REMARK VINA RESULT:      -4.0     11.102     12.004
REMARK  3 active torsions:
REMARK  status: ('A' for Active; 'I' for Inactive)
REMARK    1  A    between atoms: C1_1  and  C3_3 
REMARK    2  A    between atoms: C2_2  and  C8_8 
REMARK    3  A    between atoms: C3_3  and  O10_10 
ROOT
HETATM    1  C1  UNL     1     -33.856  16.470  -2.545  1.00 20.00     0.079 C 
HETATM    2  C2  UNL     1     -34.353  16.507  -1.300  1.00 20.00    -0.012 C 
ENDROOT
BRANCH   1   3
HETATM    3  C3  UNL     1     -33.737  15.175  -3.252  1.00 20.00     0.282 C 
HETATM    4  O9  UNL     1     -32.693  14.674  -3.640  1.00 20.00    -0.260 OA
BRANCH   3   5
HETATM    5  O10 UNL     1     -34.989  14.661  -3.383  1.00 20.00    -0.323 OA
HETATM    6  C7  UNL     1     -35.098  13.515  -4.232  1.00 20.00     0.213 C 
ENDBRANCH   3   5
ENDBRANCH   1   3
BRANCH   2   7
HETATM    7  C8  UNL     1     -34.549  17.739  -0.426  1.00 20.00    -0.034 C 
HETATM    8  C4  UNL     1     -35.190  17.451   0.943  1.00 20.00     0.018 C 
HETATM    9  C5  UNL     1     -33.171  18.387  -0.193  1.00 20.00     0.018 C 
HETATM   10  C6  UNL     1     -35.447  18.731  -1.187  1.00 20.00     0.018 C 
ENDBRANCH   2   7
TORSDOF 3
ENDMDL
MODEL 7
REMARK VINA RESULT:      -4.0     11.048     12.018
REMARK  3 active torsions:
REMARK  status: ('A' for Active; 'I' for Inactive)
REMARK    1  A    between atoms: C1_1  and  C3_3 
REMARK    2  A    between atoms: C2_2  and  C8_8 
REMARK    3  A    between atoms: C3_3  and  O10_10 
ROOT
HETATM    1  C1  UNL     1     -34.694  16.304  -1.529  1.00 20.00     0.079 C 
HETATM    2  C2  UNL     1     -33.892  16.013  -2.563  1.00 20.00    -0.012 C 
ENDROOT
BRANCH   1   3
HETATM    3  C3  UNL     1     -34.234  17.244  -0.482  1.00 20.00     0.282 C 
HETATM    4  O9  UNL     1     -33.266  17.983  -0.569  1.00 20.00    -0.260 OA
BRANCH   3   5
HETATM    5  O10 UNL     1     -35.081  17.128   0.576  1.00 20.00    -0.323 OA
HETATM    6  C7  UNL     1     -36.025  18.193   0.728  1.00 20.00     0.213 C 
ENDBRANCH   3   5
ENDBRANCH   1   3
BRANCH   2   7
HETATM    7  C8  UNL     1     -34.197  15.077  -3.725  1.00 20.00    -0.034 C 
HETATM    8  C4  UNL     1     -33.380  13.772  -3.720  1.00 20.00     0.018 C 
HETATM    9  C5  UNL     1     -35.693  14.716  -3.672  1.00 20.00     0.018 C 
HETATM   10  C6  UNL     1     -33.908  15.828  -5.037  1.00 20.00     0.018 C 
ENDBRANCH   2   7
TORSDOF 3
ENDMDL
MODEL 8
REMARK VINA RESULT:      -4.0     10.964     11.974
REMARK  3 active torsions:
REMARK  status: ('A' for Active; 'I' for Inactive)
REMARK    1  A    between atoms: C1_1  and  C3_3 
REMARK    2  A    between atoms: C2_2  and  C8_8 
REMARK    3  A    between atoms: C3_3  and  O10_10 
ROOT
HETATM    1  C1  UNL     1     -33.720  16.625  -2.354  1.00 20.00     0.079 C 
HETATM    2  C2  UNL     1     -34.511  15.569  -2.594  1.00 20.00    -0.012 C 
ENDROOT
BRANCH   1   3
HETATM    3  C3  UNL     1     -33.793  17.318  -1.048  1.00 20.00     0.282 C 
HETATM    4  O9  UNL     1     -33.067  18.232  -0.689  1.00 20.00    -0.260 OA
BRANCH   3   5
HETATM    5  O10 UNL     1     -34.805  16.751  -0.338  1.00 20.00    -0.323 OA
HETATM    6  C7  UNL     1     -35.176  17.439   0.861  1.00 20.00     0.213 C 
ENDBRANCH   3   5
ENDBRANCH   1   3
BRANCH   2   7
HETATM    7  C8  UNL     1     -34.571  14.738  -3.870  1.00 20.00    -0.034 C 
HETATM    8  C4  UNL     1     -35.936  14.078  -4.133  1.00 20.00     0.018 C 
HETATM    9  C5  UNL     1     -34.236  15.659  -5.058  1.00 20.00     0.018 C 
HETATM   10  C6  UNL     1     -33.503  13.634  -3.775  1.00 20.00     0.018 C 
ENDBRANCH   2   7
TORSDOF 3
ENDMDL
MODEL 9
REMARK VINA RESULT:      -3.8     10.980     12.257
REMARK  3 active torsions:
REMARK  status: ('A' for Active; 'I' for Inactive)
REMARK    1  A    between atoms: C1_1  and  C3_3 
REMARK    2  A    between atoms: C2_2  and  C8_8 
REMARK    3  A    between atoms: C3_3  and  O10_10 
ROOT
HETATM    1  C1  UNL     1     -34.179  16.184  -2.402  1.00 20.00     0.079 C 
HETATM    2  C2  UNL     1     -33.527  17.120  -1.696  1.00 20.00    -0.012 C 
ENDROOT
BRANCH   1   3
HETATM    3  C3  UNL     1     -33.447  15.375  -3.403  1.00 20.00     0.282 C 
HETATM    4  O9  UNL     1     -32.660  15.812  -4.229  1.00 20.00    -0.260 OA
BRANCH   3   5
HETATM    5  O10 UNL     1     -33.812  14.077  -3.229  1.00 20.00    -0.323 OA
HETATM    6  C7  UNL     1     -34.822  13.596  -4.121  1.00 20.00     0.213 C 
ENDBRANCH   3   5
ENDBRANCH   1   3
BRANCH   2   7
HETATM    7  C8  UNL     1     -34.113  18.038  -0.631  1.00 20.00    -0.034 C 
HETATM    8  C4  UNL     1     -34.992  19.174  -1.187  1.00 20.00     0.018 C 
HETATM    9  C5  UNL     1     -34.966  17.184   0.325  1.00 20.00     0.018 C 
HETATM   10  C6  UNL     1     -32.949  18.663   0.159  1.00 20.00     0.018 C 
ENDBRANCH   2   7
TORSDOF 3
ENDMDL
