MODEL 1
REMARK VINA RESULT:      -4.5      0.000      0.000
REMARK  1 active torsions:
REMARK  status: ('A' for Active; 'I' for Inactive)
REMARK    1  A    between atoms: C1_1  and  C2_2 
ROOT
HETATM    1  C2  UNL     1     -34.952   5.582   3.609  1.00 20.00     0.462 C 
HETATM    2  F4  UNL     1     -34.311   4.978   2.577  1.00 20.00    -0.163 F 
HETATM    3  F5  UNL     1     -36.223   5.817   3.199  1.00 20.00    -0.163 F 
HETATM    4  F6  UNL     1     -34.363   6.792   3.782  1.00 20.00    -0.163 F 
ENDROOT
BRANCH   1   5
HETATM    5  C1  UNL     1     -34.910   4.759   4.853  1.00 20.00     0.300 C 
HETATM    6  O3  UNL     1     -35.154   3.563   4.906  1.00 20.00    -0.275 OA
HETATM    7 BR7  UNL     1     -34.439   5.611   6.490  1.00 20.00     0.001 Br
ENDBRANCH   1   5
TORSDOF 1
ENDMDL
MODEL 2
REMARK VINA RESULT:      -4.5      2.715      3.053
REMARK  1 active torsions:
REMARK  status: ('A' for Active; 'I' for Inactive)
REMARK    1  A    between atoms: C1_1  and  C2_2 
ROOT
HETATM    1  C2  UNL     1     -34.519   5.043   5.914  1.00 20.00     0.462 C 
HETATM    2  F4  UNL     1     -33.717   3.958   6.055  1.00 20.00    -0.163 F 
HETATM    3  F5  UNL     1     -33.986   6.027   6.681  1.00 20.00    -0.163 F 
HETATM    4  F6  UNL     1     -35.716   4.721   6.463  1.00 20.00    -0.163 F 
ENDROOT
BRANCH   1   5
HETATM    5  C1  UNL     1     -34.654   5.459   4.487  1.00 20.00     0.300 C 
HETATM    6  O3  UNL     1     -35.666   5.326   3.815  1.00 20.00    -0.275 OA
HETATM    7 BR7  UNL     1     -33.153   6.259   3.629  1.00 20.00     0.001 Br
ENDBRANCH   1   5
TORSDOF 1
ENDMDL
MODEL 3
REMARK VINA RESULT:      -4.4      2.722      2.916
REMARK  1 active torsions:
REMARK  status: ('A' for Active; 'I' for Inactive)
REMARK    1  A    between atoms: C1_1  and  C2_2 
ROOT
HETATM    1  C2  UNL     1     -34.982   4.795   5.475  1.00 20.00     0.462 C 
HETATM    2  F4  UNL     1     -34.335   3.605   5.389  1.00 20.00    -0.163 F 
HETATM    3  F5  UNL     1     -35.687   4.775   6.634  1.00 20.00    -0.163 F 
HETATM    4  F6  UNL     1     -35.887   4.823   4.464  1.00 20.00    -0.163 F 
ENDROOT
BRANCH   1   5
HETATM    5  C1  UNL     1     -34.041   5.950   5.413  1.00 20.00     0.300 C 
HETATM    6  O3  UNL     1     -33.774   6.683   6.354  1.00 20.00    -0.275 OA
HETATM    7 BR7  UNL     1     -33.176   6.329   3.759  1.00 20.00     0.001 Br
ENDBRANCH   1   5
TORSDOF 1
ENDMDL
MODEL 4
REMARK VINA RESULT:      -4.4      2.747      3.024
REMARK  1 active torsions:
REMARK  status: ('A' for Active; 'I' for Inactive)
REMARK    1  A    between atoms: C1_1  and  C2_2 
ROOT
HETATM    1  C2  UNL     1     -34.958   4.773   5.510  1.00 20.00     0.462 C 
HETATM    2  F4  UNL     1     -35.833   4.734   4.474  1.00 20.00    -0.163 F 
HETATM    3  F5  UNL     1     -34.276   3.600   5.491  1.00 20.00    -0.163 F 
HETATM    4  F6  UNL     1     -35.697   4.780   6.647  1.00 20.00    -0.163 F 
ENDROOT
BRANCH   1   5
HETATM    5  C1  UNL     1     -34.046   5.951   5.429  1.00 20.00     0.300 C 
HETATM    6  O3  UNL     1     -33.790   6.698   6.361  1.00 20.00    -0.275 OA
HETATM    7 BR7  UNL     1     -33.206   6.336   3.764  1.00 20.00     0.001 Br
ENDBRANCH   1   5
TORSDOF 1
ENDMDL
MODEL 5
REMARK VINA RESULT:      -4.4      2.716      3.009
REMARK  1 active torsions:
REMARK  status: ('A' for Active; 'I' for Inactive)
REMARK    1  A    between atoms: C1_1  and  C2_2 
ROOT
HETATM    1  C2  UNL     1     -35.002   4.860   5.457  1.00 20.00     0.462 C 
HETATM    2  F4  UNL     1     -35.694   4.855   6.624  1.00 20.00    -0.163 F 
HETATM    3  F5  UNL     1     -35.919   4.921   4.458  1.00 20.00    -0.163 F 
HETATM    4  F6  UNL     1     -34.391   3.653   5.358  1.00 20.00    -0.163 F 
ENDROOT
BRANCH   1   5
HETATM    5  C1  UNL     1     -34.026   5.987   5.389  1.00 20.00     0.300 C 
HETATM    6  O3  UNL     1     -33.736   6.715   6.326  1.00 20.00    -0.275 OA
HETATM    7 BR7  UNL     1     -33.154   6.332   3.731  1.00 20.00     0.001 Br
ENDBRANCH   1   5
TORSDOF 1
ENDMDL
MODEL 6
REMARK VINA RESULT:      -4.4      1.806      2.296
REMARK  1 active torsions:
REMARK  status: ('A' for Active; 'I' for Inactive)
REMARK    1  A    between atoms: C1_1  and  C2_2 
ROOT
HETATM    1  C2  UNL     1     -34.811   5.250   3.656  1.00 20.00     0.462 C 
HETATM    2  F4  UNL     1     -36.014   5.861   3.508  1.00 20.00    -0.163 F 
HETATM    3  F5  UNL     1     -34.350   4.984   2.409  1.00 20.00    -0.163 F 
HETATM    4  F6  UNL     1     -35.050   4.054   4.251  1.00 20.00    -0.163 F 
ENDROOT
BRANCH   1   5
HETATM    5  C1  UNL     1     -33.853   6.082   4.441  1.00 20.00     0.300 C 
HETATM    6  O3  UNL     1     -32.887   6.664   3.969  1.00 20.00    -0.275 OA
HETATM    7 BR7  UNL     1     -34.136   6.268   6.315  1.00 20.00     0.001 Br
ENDBRANCH   1   5
TORSDOF 1
ENDMDL
MODEL 7
REMARK VINA RESULT:      -4.3      1.913      2.060
REMARK  1 active torsions:
REMARK  status: ('A' for Active; 'I' for Inactive)
REMARK    1  A    between atoms: C1_1  and  C2_2 
ROOT
HETATM    1  C2  UNL     1     -33.650   6.053   3.815  1.00 20.00     0.462 C 
HETATM    2  F4  UNL     1     -32.337   5.774   3.620  1.00 20.00    -0.163 F 
HETATM    3  F5  UNL     1     -34.350   5.260   2.965  1.00 20.00    -0.163 F 
HETATM    4  F6  UNL     1     -33.843   7.333   3.408  1.00 20.00    -0.163 F 
ENDROOT
BRANCH   1   5
HETATM    5  C1  UNL     1     -34.061   5.850   5.235  1.00 20.00     0.300 C 
HETATM    6  O3  UNL     1     -33.874   6.654   6.136  1.00 20.00    -0.275 OA
HETATM    7 BR7  UNL     1     -34.946   4.229   5.700  1.00 20.00     0.001 Br
ENDBRANCH   1   5
TORSDOF 1
ENDMDL
MODEL 8
REMARK VINA RESULT:      -4.3      1.918      2.517
REMARK  1 active torsions:
REMARK  status: ('A' for Active; 'I' for Inactive)
REMARK    1  A    between atoms: C1_1  and  C2_2 
ROOT
HETATM    1  C2  UNL     1     -33.643   6.055   3.809  1.00 20.00     0.462 C 
HETATM    2  F4  UNL     1     -33.821   7.336   3.400  1.00 20.00    -0.163 F 
HETATM    3  F5  UNL     1     -32.333   5.759   3.618  1.00 20.00    -0.163 F 
HETATM    4  F6  UNL     1     -34.352   5.270   2.960  1.00 20.00    -0.163 F 
ENDROOT
BRANCH   1   5
HETATM    5  C1  UNL     1     -34.058   5.857   5.229  1.00 20.00     0.300 C 
HETATM    6  O3  UNL     1     -33.877   6.666   6.127  1.00 20.00    -0.275 OA
HETATM    7 BR7  UNL     1     -34.940   4.236   5.699  1.00 20.00     0.001 Br
ENDBRANCH   1   5
TORSDOF 1
ENDMDL
MODEL 9
REMARK VINA RESULT:      -4.1      2.654      3.124
REMARK  1 active torsions:
REMARK  status: ('A' for Active; 'I' for Inactive)
REMARK    1  A    between atoms: C1_1  and  C2_2 
ROOT
HETATM    1  C2  UNL     1     -34.564   5.215   6.311  1.00 20.00     0.462 C 
HETATM    2  F4  UNL     1     -35.682   5.213   7.079  1.00 20.00    -0.163 F 
HETATM    3  F5  UNL     1     -33.626   4.499   6.982  1.00 20.00    -0.163 F 
HETATM    4  F6  UNL     1     -34.122   6.497   6.266  1.00 20.00    -0.163 F 
ENDROOT
BRANCH   1   5
HETATM    5  C1  UNL     1     -34.818   4.664   4.949  1.00 20.00     0.300 C 
HETATM    6  O3  UNL     1     -35.269   3.552   4.720  1.00 20.00    -0.275 OA
HETATM    7 BR7  UNL     1     -34.422   5.756   3.440  1.00 20.00     0.001 Br
ENDBRANCH   1   5
TORSDOF 1
ENDMDL
