MODEL 1
REMARK VINA RESULT:      -4.1      0.000      0.000
REMARK  2 active torsions:
REMARK  status: ('A' for Active; 'I' for Inactive)
REMARK    1  A    between atoms: C1_1  and  C8_8 
REMARK    2  A    between atoms: C2_2  and  C3_3 
ROOT
HETATM    1  C1  UNL     1     -35.375  15.492  -3.061  1.00 20.00    -0.009 C 
HETATM    2  C3  UNL     1     -34.571  14.530  -3.549  1.00 20.00    -0.027 C 
HETATM    3  C4  UNL     1     -33.078  14.452  -3.524  1.00 20.00     0.051 C 
ENDROOT
BRANCH   1   4
HETATM    4  C8  UNL     1     -35.024  16.807  -2.368  1.00 20.00    -0.033 C 
HETATM    5  C5  UNL     1     -36.303  17.673  -2.301  1.00 20.00     0.018 C 
HETATM    6  C6  UNL     1     -34.553  16.562  -0.924  1.00 20.00     0.018 C 
HETATM    7  C7  UNL     1     -33.971  17.611  -3.151  1.00 20.00     0.018 C 
ENDBRANCH   1   4
BRANCH   2   8
HETATM    8  C2  UNL     1     -35.270  13.378  -4.192  1.00 20.00     0.265 C 
HETATM    9  O9  UNL     1     -34.708  12.587  -4.942  1.00 20.00    -0.302 OA
ENDBRANCH   2   8
TORSDOF 2
ENDMDL
MODEL 2
REMARK VINA RESULT:      -4.0      0.981      1.747
REMARK  2 active torsions:
REMARK  status: ('A' for Active; 'I' for Inactive)
REMARK    1  A    between atoms: C1_1  and  C8_8 
REMARK    2  A    between atoms: C2_2  and  C3_3 
ROOT
HETATM    1  C1  UNL     1     -34.458  15.376  -2.801  1.00 20.00    -0.009 C 
HETATM    2  C3  UNL     1     -34.358  14.965  -4.078  1.00 20.00    -0.027 C 
HETATM    3  C4  UNL     1     -34.492  15.765  -5.336  1.00 20.00     0.051 C 
ENDROOT
BRANCH   1   4
HETATM    4  C8  UNL     1     -34.770  16.760  -2.237  1.00 20.00    -0.033 C 
HETATM    5  C5  UNL     1     -34.660  16.689  -0.696  1.00 20.00     0.018 C 
HETATM    6  C6  UNL     1     -33.748  17.801  -2.727  1.00 20.00     0.018 C 
HETATM    7  C7  UNL     1     -36.203  17.213  -2.570  1.00 20.00     0.018 C 
ENDBRANCH   1   4
BRANCH   2   8
HETATM    8  C2  UNL     1     -34.059  13.514  -4.263  1.00 20.00     0.265 C 
HETATM    9  O9  UNL     1     -34.926  12.671  -4.461  1.00 20.00    -0.302 OA
ENDBRANCH   2   8
TORSDOF 2
ENDMDL
MODEL 3
REMARK VINA RESULT:      -4.0      0.067      1.436
REMARK  2 active torsions:
REMARK  status: ('A' for Active; 'I' for Inactive)
REMARK    1  A    between atoms: C1_1  and  C8_8 
REMARK    2  A    between atoms: C2_2  and  C3_3 
ROOT
HETATM    1  C1  UNL     1     -35.430  15.501  -3.062  1.00 20.00    -0.009 C 
HETATM    2  C3  UNL     1     -34.600  14.563  -3.555  1.00 20.00    -0.027 C 
HETATM    3  C4  UNL     1     -33.105  14.522  -3.525  1.00 20.00     0.051 C 
ENDROOT
BRANCH   1   4
HETATM    4  C8  UNL     1     -35.114  16.818  -2.357  1.00 20.00    -0.033 C 
HETATM    5  C5  UNL     1     -34.043  17.564  -3.188  1.00 20.00     0.018 C 
HETATM    6  C6  UNL     1     -36.358  17.720  -2.288  1.00 20.00     0.018 C 
HETATM    7  C7  UNL     1     -34.526  16.598  -0.952  1.00 20.00     0.018 C 
ENDBRANCH   1   4
BRANCH   2   8
HETATM    8  C2  UNL     1     -35.267  13.399  -4.209  1.00 20.00     0.265 C 
HETATM    9  O9  UNL     1     -34.667  12.584  -4.901  1.00 20.00    -0.302 OA
ENDBRANCH   2   8
TORSDOF 2
ENDMDL
MODEL 4
REMARK VINA RESULT:      -3.7      2.789      3.603
REMARK  2 active torsions:
REMARK  status: ('A' for Active; 'I' for Inactive)
REMARK    1  A    between atoms: C1_1  and  C8_8 
REMARK    2  A    between atoms: C2_2  and  C3_3 
ROOT
HETATM    1  C1  UNL     1     -35.732  15.935  -5.165  1.00 20.00    -0.009 C 
HETATM    2  C3  UNL     1     -36.039  14.874  -4.396  1.00 20.00    -0.027 C 
HETATM    3  C4  UNL     1     -35.256  13.620  -4.169  1.00 20.00     0.051 C 
ENDROOT
BRANCH   1   4
HETATM    4  C8  UNL     1     -34.521  16.178  -6.063  1.00 20.00    -0.033 C 
HETATM    5  C5  UNL     1     -34.754  17.493  -6.841  1.00 20.00     0.018 C 
HETATM    6  C6  UNL     1     -33.240  16.354  -5.229  1.00 20.00     0.018 C 
HETATM    7  C7  UNL     1     -34.338  15.060  -7.105  1.00 20.00     0.018 C 
ENDBRANCH   1   4
BRANCH   2   8
HETATM    8  C2  UNL     1     -37.335  14.970  -3.661  1.00 20.00     0.265 C 
HETATM    9  O9  UNL     1     -38.236  14.148  -3.782  1.00 20.00    -0.302 OA
ENDBRANCH   2   8
TORSDOF 2
ENDMDL
MODEL 5
REMARK VINA RESULT:      -3.7      2.108      2.806
REMARK  2 active torsions:
REMARK  status: ('A' for Active; 'I' for Inactive)
REMARK    1  A    between atoms: C1_1  and  C8_8 
REMARK    2  A    between atoms: C2_2  and  C3_3 
ROOT
HETATM    1  C1  UNL     1     -35.469  15.502  -3.719  1.00 20.00    -0.009 C 
HETATM    2  C3  UNL     1     -36.174  14.983  -4.742  1.00 20.00    -0.027 C 
HETATM    3  C4  UNL     1     -35.680  14.467  -6.056  1.00 20.00     0.051 C 
ENDROOT
BRANCH   1   4
HETATM    4  C8  UNL     1     -33.969  15.758  -3.591  1.00 20.00    -0.033 C 
HETATM    5  C5  UNL     1     -33.714  16.462  -2.239  1.00 20.00     0.018 C 
HETATM    6  C6  UNL     1     -33.182  14.436  -3.582  1.00 20.00     0.018 C 
HETATM    7  C7  UNL     1     -33.444  16.692  -4.696  1.00 20.00     0.018 C 
ENDBRANCH   1   4
BRANCH   2   8
HETATM    8  C2  UNL     1     -37.648  14.901  -4.526  1.00 20.00     0.265 C 
HETATM    9  O9  UNL     1     -38.162  14.186  -3.672  1.00 20.00    -0.302 OA
ENDBRANCH   2   8
TORSDOF 2
ENDMDL
MODEL 6
REMARK VINA RESULT:      -3.7     11.473     12.483
REMARK  2 active torsions:
REMARK  status: ('A' for Active; 'I' for Inactive)
REMARK    1  A    between atoms: C1_1  and  C8_8 
REMARK    2  A    between atoms: C2_2  and  C3_3 
ROOT
HETATM    1  C1  UNL     1     -33.443   6.143   4.592  1.00 20.00    -0.009 C 
HETATM    2  C3  UNL     1     -32.946   6.207   3.344  1.00 20.00    -0.027 C 
HETATM    3  C4  UNL     1     -33.314   5.395   2.142  1.00 20.00     0.051 C 
ENDROOT
BRANCH   1   4
HETATM    4  C8  UNL     1     -34.501   5.211   5.180  1.00 20.00    -0.033 C 
HETATM    5  C5  UNL     1     -34.835   5.702   6.608  1.00 20.00     0.018 C 
HETATM    6  C6  UNL     1     -35.799   5.260   4.357  1.00 20.00     0.018 C 
HETATM    7  C7  UNL     1     -33.994   3.763   5.305  1.00 20.00     0.018 C 
ENDBRANCH   1   4
BRANCH   2   8
HETATM    8  C2  UNL     1     -31.890   7.240   3.128  1.00 20.00     0.265 C 
HETATM    9  O9  UNL     1     -31.934   8.063   2.220  1.00 20.00    -0.302 OA
ENDBRANCH   2   8
TORSDOF 2
ENDMDL
MODEL 7
REMARK VINA RESULT:      -3.6      2.206      2.907
REMARK  2 active torsions:
REMARK  status: ('A' for Active; 'I' for Inactive)
REMARK    1  A    between atoms: C1_1  and  C8_8 
REMARK    2  A    between atoms: C2_2  and  C3_3 
ROOT
HETATM    1  C1  UNL     1     -34.518  15.399  -5.140  1.00 20.00    -0.009 C 
HETATM    2  C3  UNL     1     -34.452  14.936  -3.878  1.00 20.00    -0.027 C 
HETATM    3  C4  UNL     1     -34.522  15.699  -2.593  1.00 20.00     0.051 C 
ENDROOT
BRANCH   1   4
HETATM    4  C8  UNL     1     -34.648  16.831  -5.654  1.00 20.00    -0.033 C 
HETATM    5  C5  UNL     1     -34.582  16.796  -7.198  1.00 20.00     0.018 C 
HETATM    6  C6  UNL     1     -36.006  17.438  -5.262  1.00 20.00     0.018 C 
HETATM    7  C7  UNL     1     -33.495  17.728  -5.170  1.00 20.00     0.018 C 
ENDBRANCH   1   4
BRANCH   2   8
HETATM    8  C2  UNL     1     -34.301  13.457  -3.746  1.00 20.00     0.265 C 
HETATM    9  O9  UNL     1     -34.985  12.655  -4.372  1.00 20.00    -0.302 OA
ENDBRANCH   2   8
TORSDOF 2
ENDMDL
MODEL 8
REMARK VINA RESULT:      -3.6      2.648      4.256
REMARK  2 active torsions:
REMARK  status: ('A' for Active; 'I' for Inactive)
REMARK    1  A    between atoms: C1_1  and  C8_8 
REMARK    2  A    between atoms: C2_2  and  C3_3 
ROOT
HETATM    1  C1  UNL     1     -34.151  16.174  -4.064  1.00 20.00    -0.009 C 
HETATM    2  C3  UNL     1     -34.158  16.822  -2.885  1.00 20.00    -0.027 C 
HETATM    3  C4  UNL     1     -34.513  16.302  -1.528  1.00 20.00     0.051 C 
ENDROOT
BRANCH   1   4
HETATM    4  C8  UNL     1     -34.530  14.731  -4.393  1.00 20.00    -0.033 C 
HETATM    5  C5  UNL     1     -34.502  14.564  -5.930  1.00 20.00     0.018 C 
HETATM    6  C6  UNL     1     -33.511  13.743  -3.800  1.00 20.00     0.018 C 
HETATM    7  C7  UNL     1     -35.955  14.385  -3.924  1.00 20.00     0.018 C 
ENDBRANCH   1   4
BRANCH   2   8
HETATM    8  C2  UNL     1     -33.743  18.255  -2.941  1.00 20.00     0.265 C 
HETATM    9  O9  UNL     1     -33.263  18.851  -1.983  1.00 20.00    -0.302 OA
ENDBRANCH   2   8
TORSDOF 2
ENDMDL
MODEL 9
REMARK VINA RESULT:      -3.6      2.456      3.755
REMARK  2 active torsions:
REMARK  status: ('A' for Active; 'I' for Inactive)
REMARK    1  A    between atoms: C1_1  and  C8_8 
REMARK    2  A    between atoms: C2_2  and  C3_3 
ROOT
HETATM    1  C1  UNL     1     -35.509  15.606  -2.965  1.00 20.00    -0.009 C 
HETATM    2  C3  UNL     1     -34.236  15.921  -2.666  1.00 20.00    -0.027 C 
HETATM    3  C4  UNL     1     -32.987  15.615  -3.431  1.00 20.00     0.051 C 
ENDROOT
BRANCH   1   4
HETATM    4  C8  UNL     1     -36.073  14.817  -4.144  1.00 20.00    -0.033 C 
HETATM    5  C5  UNL     1     -37.590  14.623  -3.913  1.00 20.00     0.018 C 
HETATM    6  C6  UNL     1     -35.900  15.592  -5.462  1.00 20.00     0.018 C 
HETATM    7  C7  UNL     1     -35.449  13.414  -4.256  1.00 20.00     0.018 C 
ENDBRANCH   1   4
BRANCH   2   8
HETATM    8  C2  UNL     1     -34.048  16.694  -1.403  1.00 20.00     0.265 C 
HETATM    9  O9  UNL     1     -34.781  16.574  -0.428  1.00 20.00    -0.302 OA
ENDBRANCH   2   8
TORSDOF 2
ENDMDL
