MODEL 1
REMARK VINA RESULT:      -4.8      0.000      0.000
REMARK  0 active torsions:
REMARK  status: ('A' for Active; 'I' for Inactive)
ROOT
HETATM    1  C1  UNL     1     -34.196  16.365  -3.034  1.00 20.00     0.037 C 
HETATM    2  C2  UNL     1     -34.273  15.755  -5.088  1.00 20.00     0.017 C 
HETATM    3  C3  UNL     1     -34.105  17.201  -1.993  1.00 20.00    -0.063 C 
HETATM    4  C4  UNL     1     -34.718  14.961  -2.939  1.00 20.00     0.074 C 
HETATM    5  C5  UNL     1     -35.027  14.628  -4.406  1.00 20.00    -0.002 C 
HETATM    6  C6  UNL     1     -34.064  15.789  -6.570  1.00 20.00     0.066 C 
HETATM    7  C7  UNL     1     -33.575  18.599  -2.139  1.00 20.00     0.045 C 
HETATM    8  C8  UNL     1     -34.525  16.799  -0.609  1.00 20.00     0.045 C 
HETATM    9  C9  UNL     1     -34.494  13.252  -4.793  1.00 20.00     0.021 C 
HETATM   10  C10 UNL     1     -36.523  14.744  -4.706  1.00 20.00     0.021 C 
HETATM   11  N11 UNL     1     -33.848  16.706  -4.316  1.00 20.00    -0.262 NA
ENDROOT
TORSDOF 0
ENDMDL
MODEL 2
REMARK VINA RESULT:      -4.6      1.339      2.456
REMARK  0 active torsions:
REMARK  status: ('A' for Active; 'I' for Inactive)
ROOT
HETATM    1  C1  UNL     1     -34.473  16.619  -2.091  1.00 20.00     0.037 C 
HETATM    2  C2  UNL     1     -35.445  15.231  -3.405  1.00 20.00     0.017 C 
HETATM    3  C3  UNL     1     -34.228  17.287  -0.958  1.00 20.00    -0.063 C 
HETATM    4  C4  UNL     1     -33.497  16.504  -3.225  1.00 20.00     0.074 C 
HETATM    5  C5  UNL     1     -34.061  15.318  -4.021  1.00 20.00    -0.002 C 
HETATM    6  C6  UNL     1     -36.515  14.354  -3.975  1.00 20.00     0.066 C 
HETATM    7  C7  UNL     1     -35.239  17.374   0.150  1.00 20.00     0.045 C 
HETATM    8  C8  UNL     1     -32.927  17.997  -0.717  1.00 20.00     0.045 C 
HETATM    9  C9  UNL     1     -34.106  15.617  -5.516  1.00 20.00     0.021 C 
HETATM   10  C10 UNL     1     -33.282  14.031  -3.740  1.00 20.00     0.021 C 
HETATM   11  N11 UNL     1     -35.638  15.937  -2.334  1.00 20.00    -0.262 NA
ENDROOT
TORSDOF 0
ENDMDL
MODEL 3
REMARK VINA RESULT:      -4.4      1.290      4.385
REMARK  0 active torsions:
REMARK  status: ('A' for Active; 'I' for Inactive)
ROOT
HETATM    1  C1  UNL     1     -34.353  15.634  -4.209  1.00 20.00     0.037 C 
HETATM    2  C2  UNL     1     -34.521  16.533  -2.270  1.00 20.00     0.017 C 
HETATM    3  C3  UNL     1     -34.441  14.680  -5.143  1.00 20.00    -0.063 C 
HETATM    4  C4  UNL     1     -34.216  17.097  -4.514  1.00 20.00     0.074 C 
HETATM    5  C5  UNL     1     -34.605  17.746  -3.178  1.00 20.00    -0.002 C 
HETATM    6  C6  UNL     1     -34.604  16.648  -0.780  1.00 20.00     0.066 C 
HETATM    7  C7  UNL     1     -34.577  13.227  -4.787  1.00 20.00     0.045 C 
HETATM    8  C8  UNL     1     -34.410  14.996  -6.611  1.00 20.00     0.045 C 
HETATM    9  C9  UNL     1     -33.623  18.843  -2.780  1.00 20.00     0.021 C 
HETATM   10  C10 UNL     1     -36.040  18.277  -3.208  1.00 20.00     0.021 C 
HETATM   11  N11 UNL     1     -34.405  15.385  -2.862  1.00 20.00    -0.262 NA
ENDROOT
TORSDOF 0
ENDMDL
MODEL 4
REMARK VINA RESULT:      -4.2      1.585      4.384
REMARK  0 active torsions:
REMARK  status: ('A' for Active; 'I' for Inactive)
ROOT
HETATM    1  C1  UNL     1     -35.187  15.662  -3.066  1.00 20.00     0.037 C 
HETATM    2  C2  UNL     1     -36.023  17.415  -2.159  1.00 20.00     0.017 C 
HETATM    3  C3  UNL     1     -34.966  14.744  -4.014  1.00 20.00    -0.063 C 
HETATM    4  C4  UNL     1     -34.296  15.873  -1.877  1.00 20.00     0.074 C 
HETATM    5  C5  UNL     1     -34.723  17.265  -1.393  1.00 20.00    -0.002 C 
HETATM    6  C6  UNL     1     -36.981  18.534  -1.890  1.00 20.00     0.066 C 
HETATM    7  C7  UNL     1     -35.889  14.571  -5.186  1.00 20.00     0.045 C 
HETATM    8  C8  UNL     1     -33.780  13.824  -3.971  1.00 20.00     0.045 C 
HETATM    9  C9  UNL     1     -34.929  17.294   0.118  1.00 20.00     0.021 C 
HETATM   10  C10 UNL     1     -33.729  18.343  -1.833  1.00 20.00     0.021 C 
HETATM   11  N11 UNL     1     -36.243  16.536  -3.087  1.00 20.00    -0.262 NA
ENDROOT
TORSDOF 0
ENDMDL
MODEL 5
REMARK VINA RESULT:      -4.2      1.653      3.858
REMARK  0 active torsions:
REMARK  status: ('A' for Active; 'I' for Inactive)
ROOT
HETATM    1  C1  UNL     1     -36.768  15.544  -4.710  1.00 20.00     0.037 C 
HETATM    2  C2  UNL     1     -34.669  15.977  -4.759  1.00 20.00     0.017 C 
HETATM    3  C3  UNL     1     -37.996  15.311  -5.188  1.00 20.00    -0.063 C 
HETATM    4  C4  UNL     1     -36.328  15.189  -3.320  1.00 20.00     0.074 C 
HETATM    5  C5  UNL     1     -34.798  15.240  -3.440  1.00 20.00    -0.002 C 
HETATM    6  C6  UNL     1     -33.354  16.489  -5.259  1.00 20.00     0.066 C 
HETATM    7  C7  UNL     1     -38.389  15.685  -6.588  1.00 20.00     0.045 C 
HETATM    8  C8  UNL     1     -39.064  14.660  -4.357  1.00 20.00     0.045 C 
HETATM    9  C9  UNL     1     -34.169  16.005  -2.280  1.00 20.00     0.021 C 
HETATM   10  C10 UNL     1     -34.197  13.838  -3.564  1.00 20.00     0.021 C 
HETATM   11  N11 UNL     1     -35.761  16.111  -5.447  1.00 20.00    -0.262 NA
ENDROOT
TORSDOF 0
ENDMDL
MODEL 6
REMARK VINA RESULT:      -4.2      1.477      2.440
REMARK  0 active torsions:
REMARK  status: ('A' for Active; 'I' for Inactive)
ROOT
HETATM    1  C1  UNL     1     -35.048  16.674  -2.493  1.00 20.00     0.037 C 
HETATM    2  C2  UNL     1     -34.217  15.033  -3.594  1.00 20.00     0.017 C 
HETATM    3  C3  UNL     1     -35.239  17.500  -1.459  1.00 20.00    -0.063 C 
HETATM    4  C4  UNL     1     -35.450  16.989  -3.904  1.00 20.00     0.074 C 
HETATM    5  C5  UNL     1     -34.631  15.971  -4.712  1.00 20.00    -0.002 C 
HETATM    6  C6  UNL     1     -33.559  13.715  -3.865  1.00 20.00     0.066 C 
HETATM    7  C7  UNL     1     -34.818  17.138  -0.062  1.00 20.00     0.045 C 
HETATM    8  C8  UNL     1     -35.886  18.845  -1.622  1.00 20.00     0.045 C 
HETATM    9  C9  UNL     1     -35.484  15.279  -5.770  1.00 20.00     0.021 C 
HETATM   10  C10 UNL     1     -33.393  16.616  -5.338  1.00 20.00     0.021 C 
HETATM   11  N11 UNL     1     -34.436  15.451  -2.386  1.00 20.00    -0.262 NA
ENDROOT
TORSDOF 0
ENDMDL
MODEL 7
REMARK VINA RESULT:      -4.1      1.780      4.202
REMARK  0 active torsions:
REMARK  status: ('A' for Active; 'I' for Inactive)
ROOT
HETATM    1  C1  UNL     1     -36.301  15.344  -5.116  1.00 20.00     0.037 C 
HETATM    2  C2  UNL     1     -35.126  15.617  -3.343  1.00 20.00     0.017 C 
HETATM    3  C3  UNL     1     -37.296  15.550  -5.985  1.00 20.00    -0.063 C 
HETATM    4  C4  UNL     1     -35.024  14.632  -5.456  1.00 20.00     0.074 C 
HETATM    5  C5  UNL     1     -34.097  15.058  -4.308  1.00 20.00    -0.002 C 
HETATM    6  C6  UNL     1     -34.776  15.989  -1.936  1.00 20.00     0.066 C 
HETATM    7  C7  UNL     1     -38.557  16.269  -5.595  1.00 20.00     0.045 C 
HETATM    8  C8  UNL     1     -37.224  15.077  -7.408  1.00 20.00     0.045 C 
HETATM    9  C9  UNL     1     -33.339  13.868  -3.728  1.00 20.00     0.021 C 
HETATM   10  C10 UNL     1     -33.135  16.164  -4.744  1.00 20.00     0.021 C 
HETATM   11  N11 UNL     1     -36.321  15.785  -3.817  1.00 20.00    -0.262 NA
ENDROOT
TORSDOF 0
ENDMDL
MODEL 8
REMARK VINA RESULT:      -4.0      1.870      3.676
REMARK  0 active torsions:
REMARK  status: ('A' for Active; 'I' for Inactive)
ROOT
HETATM    1  C1  UNL     1     -36.979  15.314  -3.551  1.00 20.00     0.037 C 
HETATM    2  C2  UNL     1     -34.927  15.759  -3.118  1.00 20.00     0.017 C 
HETATM    3  C3  UNL     1     -38.295  15.527  -3.662  1.00 20.00    -0.063 C 
HETATM    4  C4  UNL     1     -36.250  14.193  -4.232  1.00 20.00     0.074 C 
HETATM    5  C5  UNL     1     -34.789  14.658  -4.153  1.00 20.00    -0.002 C 
HETATM    6  C6  UNL     1     -33.736  16.423  -2.500  1.00 20.00     0.066 C 
HETATM    7  C7  UNL     1     -38.980  16.665  -2.960  1.00 20.00     0.045 C 
HETATM    8  C8  UNL     1     -39.178  14.644  -4.495  1.00 20.00     0.045 C 
HETATM    9  C9  UNL     1     -33.867  13.535  -3.691  1.00 20.00     0.021 C 
HETATM   10  C10 UNL     1     -34.315  15.248  -5.483  1.00 20.00     0.021 C 
HETATM   11  N11 UNL     1     -36.138  16.116  -2.822  1.00 20.00    -0.262 NA
ENDROOT
TORSDOF 0
ENDMDL
MODEL 9
REMARK VINA RESULT:      -3.9      1.894      2.839
REMARK  0 active torsions:
REMARK  status: ('A' for Active; 'I' for Inactive)
ROOT
HETATM    1  C1  UNL     1     -34.927  15.217  -4.467  1.00 20.00     0.037 C 
HETATM    2  C2  UNL     1     -35.590  14.947  -6.488  1.00 20.00     0.017 C 
HETATM    3  C3  UNL     1     -34.067  15.279  -3.445  1.00 20.00    -0.063 C 
HETATM    4  C4  UNL     1     -36.306  15.809  -4.441  1.00 20.00     0.074 C 
HETATM    5  C5  UNL     1     -36.667  15.861  -5.932  1.00 20.00    -0.002 C 
HETATM    6  C6  UNL     1     -35.606  14.472  -7.908  1.00 20.00     0.066 C 
HETATM    7  C7  UNL     1     -32.695  14.671  -3.520  1.00 20.00     0.045 C 
HETATM    8  C8  UNL     1     -34.412  15.961  -2.152  1.00 20.00     0.045 C 
HETATM    9  C9  UNL     1     -38.073  15.328  -6.188  1.00 20.00     0.021 C 
HETATM   10  C10 UNL     1     -36.500  17.271  -6.502  1.00 20.00     0.021 C 
HETATM   11  N11 UNL     1     -34.636  14.628  -5.671  1.00 20.00    -0.262 NA
ENDROOT
TORSDOF 0
ENDMDL
