MODEL 1
REMARK VINA RESULT:      -4.9      0.000      0.000
REMARK  2 active torsions:
REMARK  status: ('A' for Active; 'I' for Inactive)
REMARK    1  A    between atoms: C2_2  and  C7_7 
REMARK    2  A    between atoms: C3_3  and  C7_7 
ROOT
HETATM    1  C6  UNL     1     -35.560   5.438   3.601  1.00 20.00     0.022 C 
HETATM    2  C7  UNL     1     -34.249   5.413   4.382  1.00 20.00     0.073 C 
ENDROOT
BRANCH   2   3
HETATM    3  C2  UNL     1     -33.374   6.581   4.021  1.00 20.00    -0.019 C 
HETATM    4  C1  UNL     1     -32.707   6.678   2.862  1.00 20.00    -0.034 C 
HETATM    5  C4  UNL     1     -31.839   7.836   2.497  1.00 20.00     0.036 C 
ENDBRANCH   2   3
BRANCH   2   6
HETATM    6  C3  UNL     1     -34.507   5.489   5.882  1.00 20.00     0.130 C 
HETATM    7  C5  UNL     1     -33.931   6.679   6.610  1.00 20.00     0.091 C 
HETATM    8  O8  UNL     1     -35.118   4.612   6.492  1.00 20.00    -0.298 OA
ENDBRANCH   2   6
TORSDOF 2
ENDMDL
MODEL 2
REMARK VINA RESULT:      -4.8      0.962      1.202
REMARK  2 active torsions:
REMARK  status: ('A' for Active; 'I' for Inactive)
REMARK    1  A    between atoms: C2_2  and  C7_7 
REMARK    2  A    between atoms: C3_3  and  C7_7 
ROOT
HETATM    1  C6  UNL     1     -35.535   5.409   3.652  1.00 20.00     0.022 C 
HETATM    2  C7  UNL     1     -34.182   5.533   4.346  1.00 20.00     0.073 C 
ENDROOT
BRANCH   2   3
HETATM    3  C2  UNL     1     -33.441   6.757   3.886  1.00 20.00    -0.019 C 
HETATM    4  C1  UNL     1     -32.597   6.765   2.843  1.00 20.00    -0.034 C 
HETATM    5  C4  UNL     1     -31.860   7.977   2.380  1.00 20.00     0.036 C 
ENDBRANCH   2   3
BRANCH   2   6
HETATM    6  C3  UNL     1     -34.353   5.651   5.856  1.00 20.00     0.130 C 
HETATM    7  C5  UNL     1     -35.079   4.523   6.548  1.00 20.00     0.091 C 
HETATM    8  O8  UNL     1     -33.960   6.631   6.490  1.00 20.00    -0.298 OA
ENDBRANCH   2   6
TORSDOF 2
ENDMDL
MODEL 3
REMARK VINA RESULT:      -4.3     11.550     12.344
REMARK  2 active torsions:
REMARK  status: ('A' for Active; 'I' for Inactive)
REMARK    1  A    between atoms: C2_2  and  C7_7 
REMARK    2  A    between atoms: C3_3  and  C7_7 
ROOT
HETATM    1  C6  UNL     1     -33.306  16.228  -4.692  1.00 20.00     0.022 C 
HETATM    2  C7  UNL     1     -33.316  15.341  -3.450  1.00 20.00     0.073 C 
ENDROOT
BRANCH   2   3
HETATM    3  C2  UNL     1     -34.296  15.843  -2.427  1.00 20.00    -0.019 C 
HETATM    4  C1  UNL     1     -33.980  16.724  -1.466  1.00 20.00    -0.034 C 
HETATM    5  C4  UNL     1     -34.949  17.228  -0.449  1.00 20.00     0.036 C 
ENDBRANCH   2   3
BRANCH   2   6
HETATM    6  C3  UNL     1     -33.724  13.915  -3.802  1.00 20.00     0.130 C 
HETATM    7  C5  UNL     1     -35.174  13.690  -4.150  1.00 20.00     0.091 C 
HETATM    8  O8  UNL     1     -32.929  12.975  -3.770  1.00 20.00    -0.298 OA
ENDBRANCH   2   6
TORSDOF 2
ENDMDL
MODEL 4
REMARK VINA RESULT:      -4.2     11.842     12.680
REMARK  2 active torsions:
REMARK  status: ('A' for Active; 'I' for Inactive)
REMARK    1  A    between atoms: C2_2  and  C7_7 
REMARK    2  A    between atoms: C3_3  and  C7_7 
ROOT
HETATM    1  C6  UNL     1     -33.283  16.089  -4.941  1.00 20.00     0.022 C 
HETATM    2  C7  UNL     1     -33.590  14.871  -4.075  1.00 20.00     0.073 C 
ENDROOT
BRANCH   2   3
HETATM    3  C2  UNL     1     -34.317  15.262  -2.818  1.00 20.00    -0.019 C 
HETATM    4  C1  UNL     1     -33.999  16.338  -2.082  1.00 20.00    -0.034 C 
HETATM    5  C4  UNL     1     -34.718  16.732  -0.835  1.00 20.00     0.036 C 
ENDBRANCH   2   3
BRANCH   2   6
HETATM    6  C3  UNL     1     -34.479  13.883  -4.820  1.00 20.00     0.130 C 
HETATM    7  C5  UNL     1     -34.952  14.297  -6.192  1.00 20.00     0.091 C 
HETATM    8  O8  UNL     1     -34.837  12.814  -4.326  1.00 20.00    -0.298 OA
ENDBRANCH   2   6
TORSDOF 2
ENDMDL
MODEL 5
REMARK VINA RESULT:      -4.1     11.330     12.032
REMARK  2 active torsions:
REMARK  status: ('A' for Active; 'I' for Inactive)
REMARK    1  A    between atoms: C2_2  and  C7_7 
REMARK    2  A    between atoms: C3_3  and  C7_7 
ROOT
HETATM    1  C6  UNL     1     -36.654  14.924  -3.549  1.00 20.00     0.022 C 
HETATM    2  C7  UNL     1     -35.174  15.058  -3.899  1.00 20.00     0.073 C 
ENDROOT
BRANCH   2   3
HETATM    3  C2  UNL     1     -34.439  15.866  -2.866  1.00 20.00    -0.019 C 
HETATM    4  C1  UNL     1     -34.983  16.256  -1.704  1.00 20.00    -0.034 C 
HETATM    5  C4  UNL     1     -34.258  17.057  -0.675  1.00 20.00     0.036 C 
ENDBRANCH   2   3
BRANCH   2   6
HETATM    6  C3  UNL     1     -34.504  13.691  -3.963  1.00 20.00     0.130 C 
HETATM    7  C5  UNL     1     -33.031  13.640  -3.640  1.00 20.00     0.091 C 
HETATM    8  O8  UNL     1     -35.112  12.674  -4.299  1.00 20.00    -0.298 OA
ENDBRANCH   2   6
TORSDOF 2
ENDMDL
MODEL 6
REMARK VINA RESULT:      -4.1      1.287      2.008
REMARK  2 active torsions:
REMARK  status: ('A' for Active; 'I' for Inactive)
REMARK    1  A    between atoms: C2_2  and  C7_7 
REMARK    2  A    between atoms: C3_3  and  C7_7 
ROOT
HETATM    1  C6  UNL     1     -33.689   6.635   6.428  1.00 20.00     0.022 C 
HETATM    2  C7  UNL     1     -34.160   6.457   4.987  1.00 20.00     0.073 C 
ENDROOT
BRANCH   2   3
HETATM    3  C2  UNL     1     -33.013   6.551   4.020  1.00 20.00    -0.019 C 
HETATM    4  C1  UNL     1     -32.872   7.545   3.130  1.00 20.00    -0.034 C 
HETATM    5  C4  UNL     1     -31.735   7.645   2.170  1.00 20.00     0.036 C 
ENDBRANCH   2   3
BRANCH   2   6
HETATM    6  C3  UNL     1     -34.804   5.090   4.790  1.00 20.00     0.130 C 
HETATM    7  C5  UNL     1     -34.974   4.235   6.022  1.00 20.00     0.091 C 
HETATM    8  O8  UNL     1     -35.138   4.671   3.681  1.00 20.00    -0.298 OA
ENDBRANCH   2   6
TORSDOF 2
ENDMDL
MODEL 7
REMARK VINA RESULT:      -4.1      1.990      3.802
REMARK  2 active torsions:
REMARK  status: ('A' for Active; 'I' for Inactive)
REMARK    1  A    between atoms: C2_2  and  C7_7 
REMARK    2  A    between atoms: C3_3  and  C7_7 
ROOT
HETATM    1  C6  UNL     1     -34.568   5.361   2.429  1.00 20.00     0.022 C 
HETATM    2  C7  UNL     1     -34.003   6.426   3.365  1.00 20.00     0.073 C 
ENDROOT
BRANCH   2   3
HETATM    3  C2  UNL     1     -34.134   6.013   4.805  1.00 20.00    -0.019 C 
HETATM    4  C1  UNL     1     -34.863   4.964   5.213  1.00 20.00    -0.034 C 
HETATM    5  C4  UNL     1     -34.996   4.550   6.640  1.00 20.00     0.036 C 
ENDBRANCH   2   3
BRANCH   2   6
HETATM    6  C3  UNL     1     -32.521   6.657   3.095  1.00 20.00     0.130 C 
HETATM    7  C5  UNL     1     -32.149   7.947   2.407  1.00 20.00     0.091 C 
HETATM    8  O8  UNL     1     -31.660   5.824   3.381  1.00 20.00    -0.298 OA
ENDBRANCH   2   6
TORSDOF 2
ENDMDL
MODEL 8
REMARK VINA RESULT:      -3.9     11.955     13.186
REMARK  2 active torsions:
REMARK  status: ('A' for Active; 'I' for Inactive)
REMARK    1  A    between atoms: C2_2  and  C7_7 
REMARK    2  A    between atoms: C3_3  and  C7_7 
ROOT
HETATM    1  C6  UNL     1     -33.838  13.627  -3.832  1.00 20.00     0.022 C 
HETATM    2  C7  UNL     1     -34.356  15.060  -3.916  1.00 20.00     0.073 C 
ENDROOT
BRANCH   2   3
HETATM    3  C2  UNL     1     -33.981  15.851  -2.694  1.00 20.00    -0.019 C 
HETATM    4  C1  UNL     1     -34.854  16.192  -1.734  1.00 20.00    -0.034 C 
HETATM    5  C4  UNL     1     -34.488  16.975  -0.518  1.00 20.00     0.036 C 
ENDBRANCH   2   3
BRANCH   2   6
HETATM    6  C3  UNL     1     -33.763  15.783  -5.120  1.00 20.00     0.130 C 
HETATM    7  C5  UNL     1     -34.305  15.403  -6.475  1.00 20.00     0.091 C 
HETATM    8  O8  UNL     1     -32.857  16.610  -5.012  1.00 20.00    -0.298 OA
ENDBRANCH   2   6
TORSDOF 2
ENDMDL
MODEL 9
REMARK VINA RESULT:      -3.9     11.735     12.423
REMARK  2 active torsions:
REMARK  status: ('A' for Active; 'I' for Inactive)
REMARK    1  A    between atoms: C2_2  and  C7_7 
REMARK    2  A    between atoms: C3_3  and  C7_7 
ROOT
HETATM    1  C6  UNL     1     -34.374  13.340  -4.814  1.00 20.00     0.022 C 
HETATM    2  C7  UNL     1     -35.158  14.020  -3.695  1.00 20.00     0.073 C 
ENDROOT
BRANCH   2   3
HETATM    3  C2  UNL     1     -34.404  15.192  -3.132  1.00 20.00    -0.019 C 
HETATM    4  C1  UNL     1     -34.759  15.834  -2.009  1.00 20.00    -0.034 C 
HETATM    5  C4  UNL     1     -34.014  16.997  -1.446  1.00 20.00     0.036 C 
ENDBRANCH   2   3
BRANCH   2   6
HETATM    6  C3  UNL     1     -36.493  14.547  -4.208  1.00 20.00     0.130 C 
HETATM    7  C5  UNL     1     -36.439  15.578  -5.307  1.00 20.00     0.091 C 
HETATM    8  O8  UNL     1     -37.570  14.189  -3.731  1.00 20.00    -0.298 OA
ENDBRANCH   2   6
TORSDOF 2
ENDMDL
