MODEL 1
REMARK VINA RESULT:      -3.9      0.000      0.000
REMARK  5 active torsions:
REMARK  status: ('A' for Active; 'I' for Inactive)
REMARK    1  A    between atoms: C2_2  and  C4_4 
REMARK    2  A    between atoms: C4_4  and  N7_7 
REMARK    3  A    between atoms: C5_5  and  C6_6 
REMARK    4  A    between atoms: C5_5  and  N7_7 
REMARK    5  A    between atoms: C6_6  and  S8_8 
ROOT
HETATM    1  C1  UNL     1     -32.239   8.551   1.830  1.00 20.00    -0.109 C 
HETATM    2  C2  UNL     1     -32.230   7.560   2.508  1.00 20.00    -0.077 C 
HETATM    3  C3  UNL     1     -32.249   9.759   1.005  1.00 20.00     0.112 C 
ENDROOT
BRANCH   2   4
HETATM    4  C4  UNL     1     -32.226   6.349   3.333  1.00 20.00     0.362 C 
BRANCH   4   5
HETATM    5  N7  UNL     1     -33.384   6.318   4.217  1.00 20.00     0.095 N 
HETATM    6  H18 UNL     1     -33.680   7.274   4.415  1.00 20.00     0.317 HD
BRANCH   5   7
HETATM    7  C5  UNL     1     -34.488   5.592   3.604  1.00 20.00     0.280 C 
BRANCH   7   8
HETATM    8  C6  UNL     1     -35.223   4.687   4.585  1.00 20.00     0.100 C 
BRANCH   8   9
HETATM    9  S8  UNL     1     -34.710   4.977   6.305  1.00 20.00    -0.180 SA
HETATM   10  H19 UNL     1     -35.645   5.897   6.575  1.00 20.00     0.101 HD
ENDBRANCH   8   9
ENDBRANCH   7   8
ENDBRANCH   5   7
ENDBRANCH   4   5
ENDBRANCH   2   4
TORSDOF 5
ENDMDL
MODEL 2
REMARK VINA RESULT:      -3.5      3.133      4.299
REMARK  5 active torsions:
REMARK  status: ('A' for Active; 'I' for Inactive)
REMARK    1  A    between atoms: C2_2  and  C4_4 
REMARK    2  A    between atoms: C4_4  and  N7_7 
REMARK    3  A    between atoms: C5_5  and  C6_6 
REMARK    4  A    between atoms: C5_5  and  N7_7 
REMARK    5  A    between atoms: C6_6  and  S8_8 
ROOT
HETATM    1  C1  UNL     1     -33.984   6.448   6.648  1.00 20.00    -0.109 C 
HETATM    2  C2  UNL     1     -34.545   5.437   6.324  1.00 20.00    -0.077 C 
HETATM    3  C3  UNL     1     -33.301   7.681   7.043  1.00 20.00     0.112 C 
ENDROOT
BRANCH   2   4
HETATM    4  C4  UNL     1     -35.223   4.201   5.925  1.00 20.00     0.362 C 
BRANCH   4   5
HETATM    5  N7  UNL     1     -35.274   4.081   4.474  1.00 20.00     0.095 N 
HETATM    6  H18 UNL     1     -36.170   3.675   4.202  1.00 20.00     0.317 HD
BRANCH   5   7
HETATM    7  C5  UNL     1     -35.125   5.383   3.839  1.00 20.00     0.280 C 
BRANCH   7   8
HETATM    8  C6  UNL     1     -34.058   5.397   2.752  1.00 20.00     0.100 C 
BRANCH   8   9
HETATM    9  S8  UNL     1     -32.651   6.466   3.185  1.00 20.00    -0.180 SA
HETATM   10  H19 UNL     1     -32.988   6.623   4.472  1.00 20.00     0.101 HD
ENDBRANCH   8   9
ENDBRANCH   7   8
ENDBRANCH   5   7
ENDBRANCH   4   5
ENDBRANCH   2   4
TORSDOF 5
ENDMDL
MODEL 3
REMARK VINA RESULT:      -3.5     10.567     11.293
REMARK  5 active torsions:
REMARK  status: ('A' for Active; 'I' for Inactive)
REMARK    1  A    between atoms: C2_2  and  C4_4 
REMARK    2  A    between atoms: C4_4  and  N7_7 
REMARK    3  A    between atoms: C5_5  and  C6_6 
REMARK    4  A    between atoms: C5_5  and  N7_7 
REMARK    5  A    between atoms: C6_6  and  S8_8 
ROOT
HETATM    1  C1  UNL     1     -34.158  16.677  -1.516  1.00 20.00    -0.109 C 
HETATM    2  C2  UNL     1     -33.742  16.327  -2.587  1.00 20.00    -0.077 C 
HETATM    3  C3  UNL     1     -34.665  17.103  -0.211  1.00 20.00     0.112 C 
ENDROOT
BRANCH   2   4
HETATM    4  C4  UNL     1     -33.239  15.905  -3.897  1.00 20.00     0.362 C 
BRANCH   4   5
HETATM    5  N7  UNL     1     -32.881  14.493  -3.887  1.00 20.00     0.095 N 
HETATM    6  H18 UNL     1     -32.231  14.317  -3.120  1.00 20.00     0.317 HD
BRANCH   5   7
HETATM    7  C5  UNL     1     -34.062  13.658  -3.714  1.00 20.00     0.280 C 
BRANCH   7   8
HETATM    8  C6  UNL     1     -35.085  13.835  -4.828  1.00 20.00     0.100 C 
BRANCH   8   9
HETATM    9  S8  UNL     1     -36.674  14.468  -4.209  1.00 20.00    -0.180 SA
HETATM   10  H19 UNL     1     -37.138  13.284  -3.787  1.00 20.00     0.101 HD
ENDBRANCH   8   9
ENDBRANCH   7   8
ENDBRANCH   5   7
ENDBRANCH   4   5
ENDBRANCH   2   4
TORSDOF 5
ENDMDL
MODEL 4
REMARK VINA RESULT:      -3.4     11.137     11.513
REMARK  5 active torsions:
REMARK  status: ('A' for Active; 'I' for Inactive)
REMARK    1  A    between atoms: C2_2  and  C4_4 
REMARK    2  A    between atoms: C4_4  and  N7_7 
REMARK    3  A    between atoms: C5_5  and  C6_6 
REMARK    4  A    between atoms: C5_5  and  N7_7 
REMARK    5  A    between atoms: C6_6  and  S8_8 
ROOT
HETATM    1  C1  UNL     1     -34.264  16.271  -1.724  1.00 20.00    -0.109 C 
HETATM    2  C2  UNL     1     -33.830  15.669  -2.668  1.00 20.00    -0.077 C 
HETATM    3  C3  UNL     1     -34.793  17.005  -0.574  1.00 20.00     0.112 C 
ENDROOT
BRANCH   2   4
HETATM    4  C4  UNL     1     -33.297  14.928  -3.815  1.00 20.00     0.362 C 
BRANCH   4   5
HETATM    5  N7  UNL     1     -33.697  13.528  -3.761  1.00 20.00     0.095 N 
HETATM    6  H18 UNL     1     -33.973  13.295  -2.807  1.00 20.00     0.317 HD
BRANCH   5   7
HETATM    7  C5  UNL     1     -34.813  13.270  -4.659  1.00 20.00     0.280 C 
BRANCH   7   8
HETATM    8  C6  UNL     1     -34.793  14.149  -5.903  1.00 20.00     0.100 C 
BRANCH   8   9
HETATM    9  S8  UNL     1     -36.310  15.138  -6.071  1.00 20.00    -0.180 SA
HETATM   10  H19 UNL     1     -36.668  14.640  -7.262  1.00 20.00     0.101 HD
ENDBRANCH   8   9
ENDBRANCH   7   8
ENDBRANCH   5   7
ENDBRANCH   4   5
ENDBRANCH   2   4
TORSDOF 5
ENDMDL
MODEL 5
REMARK VINA RESULT:      -3.4     10.874     11.427
REMARK  5 active torsions:
REMARK  status: ('A' for Active; 'I' for Inactive)
REMARK    1  A    between atoms: C2_2  and  C4_4 
REMARK    2  A    between atoms: C4_4  and  N7_7 
REMARK    3  A    between atoms: C5_5  and  C6_6 
REMARK    4  A    between atoms: C5_5  and  N7_7 
REMARK    5  A    between atoms: C6_6  and  S8_8 
ROOT
HETATM    1  C1  UNL     1     -34.707  16.953  -0.373  1.00 20.00    -0.109 C 
HETATM    2  C2  UNL     1     -34.359  16.517  -1.436  1.00 20.00    -0.077 C 
HETATM    3  C3  UNL     1     -35.130  17.484   0.923  1.00 20.00     0.112 C 
ENDROOT
BRANCH   2   4
HETATM    4  C4  UNL     1     -33.938  15.979  -2.733  1.00 20.00     0.362 C 
BRANCH   4   5
HETATM    5  N7  UNL     1     -34.771  14.848  -3.121  1.00 20.00     0.095 N 
HETATM    6  H18 UNL     1     -35.485  15.167  -3.776  1.00 20.00     0.317 HD
BRANCH   5   7
HETATM    7  C5  UNL     1     -33.973  13.806  -3.754  1.00 20.00     0.280 C 
BRANCH   7   8
HETATM    8  C6  UNL     1     -34.641  13.208  -4.985  1.00 20.00     0.100 C 
BRANCH   8   9
HETATM    9  S8  UNL     1     -35.043  14.471  -6.230  1.00 20.00    -0.180 SA
HETATM   10  H19 UNL     1     -35.736  15.265  -5.404  1.00 20.00     0.101 HD
ENDBRANCH   8   9
ENDBRANCH   7   8
ENDBRANCH   5   7
ENDBRANCH   4   5
ENDBRANCH   2   4
TORSDOF 5
ENDMDL
MODEL 6
REMARK VINA RESULT:      -3.3      2.749      5.104
REMARK  5 active torsions:
REMARK  status: ('A' for Active; 'I' for Inactive)
REMARK    1  A    between atoms: C2_2  and  C4_4 
REMARK    2  A    between atoms: C4_4  and  N7_7 
REMARK    3  A    between atoms: C5_5  and  C6_6 
REMARK    4  A    between atoms: C5_5  and  N7_7 
REMARK    5  A    between atoms: C6_6  and  S8_8 
ROOT
HETATM    1  C1  UNL     1     -34.680   4.958   5.214  1.00 20.00    -0.109 C 
HETATM    2  C2  UNL     1     -34.220   5.445   4.217  1.00 20.00    -0.077 C 
HETATM    3  C3  UNL     1     -35.240   4.365   6.428  1.00 20.00     0.112 C 
ENDROOT
BRANCH   2   4
HETATM    4  C4  UNL     1     -33.663   6.045   3.001  1.00 20.00     0.362 C 
BRANCH   4   5
HETATM    5  N7  UNL     1     -32.218   6.200   3.114  1.00 20.00     0.095 N 
HETATM    6  H18 UNL     1     -31.766   5.685   2.359  1.00 20.00     0.317 HD
BRANCH   5   7
HETATM    7  C5  UNL     1     -31.837   7.604   3.030  1.00 20.00     0.280 C 
BRANCH   7   8
HETATM    8  C6  UNL     1     -31.859   8.143   1.606  1.00 20.00     0.100 C 
BRANCH   8   9
HETATM    9  S8  UNL     1     -32.578   9.811   1.513  1.00 20.00    -0.180 SA
HETATM   10  H19 UNL     1     -31.636  10.409   2.254  1.00 20.00     0.101 HD
ENDBRANCH   8   9
ENDBRANCH   7   8
ENDBRANCH   5   7
ENDBRANCH   4   5
ENDBRANCH   2   4
TORSDOF 5
ENDMDL
MODEL 7
REMARK VINA RESULT:      -3.3     11.637     12.409
REMARK  5 active torsions:
REMARK  status: ('A' for Active; 'I' for Inactive)
REMARK    1  A    between atoms: C2_2  and  C4_4 
REMARK    2  A    between atoms: C4_4  and  N7_7 
REMARK    3  A    between atoms: C5_5  and  C6_6 
REMARK    4  A    between atoms: C5_5  and  N7_7 
REMARK    5  A    between atoms: C6_6  and  S8_8 
ROOT
HETATM    1  C1  UNL     1     -34.489  16.528  -1.210  1.00 20.00    -0.109 C 
HETATM    2  C2  UNL     1     -34.343  15.838  -2.181  1.00 20.00    -0.077 C 
HETATM    3  C3  UNL     1     -34.668  17.368  -0.025  1.00 20.00     0.112 C 
ENDROOT
BRANCH   2   4
HETATM    4  C4  UNL     1     -34.166  15.001  -3.372  1.00 20.00     0.362 C 
BRANCH   4   5
HETATM    5  N7  UNL     1     -32.970  15.390  -4.108  1.00 20.00     0.095 N 
HETATM    6  H18 UNL     1     -32.597  14.576  -4.595  1.00 20.00     0.317 HD
BRANCH   5   7
HETATM    7  C5  UNL     1     -33.272  16.433  -5.078  1.00 20.00     0.280 C 
BRANCH   7   8
HETATM    8  C6  UNL     1     -34.620  16.240  -5.760  1.00 20.00     0.100 C 
BRANCH   8   9
HETATM    9  S8  UNL     1     -34.522  15.086  -7.162  1.00 20.00    -0.180 SA
HETATM   10  H19 UNL     1     -35.827  14.787  -7.187  1.00 20.00     0.101 HD
ENDBRANCH   8   9
ENDBRANCH   7   8
ENDBRANCH   5   7
ENDBRANCH   4   5
ENDBRANCH   2   4
TORSDOF 5
ENDMDL
MODEL 8
REMARK VINA RESULT:      -3.2      1.783      2.230
REMARK  5 active torsions:
REMARK  status: ('A' for Active; 'I' for Inactive)
REMARK    1  A    between atoms: C2_2  and  C4_4 
REMARK    2  A    between atoms: C4_4  and  N7_7 
REMARK    3  A    between atoms: C5_5  and  C6_6 
REMARK    4  A    between atoms: C5_5  and  N7_7 
REMARK    5  A    between atoms: C6_6  and  S8_8 
ROOT
HETATM    1  C1  UNL     1     -32.333   6.867   3.265  1.00 20.00    -0.109 C 
HETATM    2  C2  UNL     1     -33.264   6.138   3.056  1.00 20.00    -0.077 C 
HETATM    3  C3  UNL     1     -31.198   7.756   3.518  1.00 20.00     0.112 C 
ENDROOT
BRANCH   2   4
HETATM    4  C4  UNL     1     -34.397   5.243   2.807  1.00 20.00     0.362 C 
BRANCH   4   5
HETATM    5  N7  UNL     1     -35.333   5.265   3.924  1.00 20.00     0.095 N 
HETATM    6  H18 UNL     1     -36.283   5.169   3.568  1.00 20.00     0.317 HD
BRANCH   5   7
HETATM    7  C5  UNL     1     -35.057   4.180   4.855  1.00 20.00     0.280 C 
BRANCH   7   8
HETATM    8  C6  UNL     1     -34.982   4.643   6.304  1.00 20.00     0.100 C 
BRANCH   8   9
HETATM    9  S8  UNL     1     -34.187   6.270   6.466  1.00 20.00    -0.180 SA
HETATM   10  H19 UNL     1     -33.779   6.100   7.730  1.00 20.00     0.101 HD
ENDBRANCH   8   9
ENDBRANCH   7   8
ENDBRANCH   5   7
ENDBRANCH   4   5
ENDBRANCH   2   4
TORSDOF 5
ENDMDL
MODEL 9
REMARK VINA RESULT:      -3.0      9.906     11.092
REMARK  5 active torsions:
REMARK  status: ('A' for Active; 'I' for Inactive)
REMARK    1  A    between atoms: C2_2  and  C4_4 
REMARK    2  A    between atoms: C4_4  and  N7_7 
REMARK    3  A    between atoms: C5_5  and  C6_6 
REMARK    4  A    between atoms: C5_5  and  N7_7 
REMARK    5  A    between atoms: C6_6  and  S8_8 
ROOT
HETATM    1  C1  UNL     1     -41.722   1.646  -3.504  1.00 20.00    -0.109 C 
HETATM    2  C2  UNL     1     -41.780   2.729  -2.988  1.00 20.00    -0.077 C 
HETATM    3  C3  UNL     1     -41.651   0.327  -4.133  1.00 20.00     0.112 C 
ENDROOT
BRANCH   2   4
HETATM    4  C4  UNL     1     -41.849   4.047  -2.351  1.00 20.00     0.362 C 
BRANCH   4   5
HETATM    5  N7  UNL     1     -40.841   4.173  -1.306  1.00 20.00     0.095 N 
HETATM    6  H18 UNL     1     -39.947   4.415  -1.730  1.00 20.00     0.317 HD
BRANCH   5   7
HETATM    7  C5  UNL     1     -41.212   5.204  -0.346  1.00 20.00     0.280 C 
BRANCH   7   8
HETATM    8  C6  UNL     1     -40.957   6.615  -0.861  1.00 20.00     0.100 C 
BRANCH   8   9
HETATM    9  S8  UNL     1     -42.496   7.563  -1.062  1.00 20.00    -0.180 SA
HETATM   10  H19 UNL     1     -42.669   7.272  -2.358  1.00 20.00     0.101 HD
ENDBRANCH   8   9
ENDBRANCH   7   8
ENDBRANCH   5   7
ENDBRANCH   4   5
ENDBRANCH   2   4
TORSDOF 5
ENDMDL
