MODEL 1
REMARK VINA RESULT:      -5.3      0.000      0.000
REMARK  2 active torsions:
REMARK  status: ('A' for Active; 'I' for Inactive)
REMARK    1  A    between atoms: C2_2  and  C3_3 
REMARK    2  A    between atoms: C4_4  and  C5_5 
ROOT
HETATM    1  C1  UNL     1     -34.802   5.028   4.009  1.00 20.00    -0.020 C 
HETATM    2  C2  UNL     1     -34.179   6.184   4.266  1.00 20.00    -0.062 C 
HETATM    3  C6  UNL     1     -35.099   4.272   5.261  1.00 20.00     0.028 C 
HETATM    4  C7  UNL     1     -33.961   6.383   5.732  1.00 20.00     0.038 C 
HETATM    5  C8  UNL     1     -34.248   4.995   6.304  1.00 20.00     0.008 C 
ENDROOT
BRANCH   2   6
HETATM    6  C3  UNL     1     -33.768   7.155   3.302  1.00 20.00     0.010 C 
HETATM    7  C4  UNL     1     -32.489   7.326   2.929  1.00 20.00     0.050 C 
BRANCH   7   8
HETATM    8  C5  UNL     1     -32.122   8.356   1.918  1.00 20.00     0.145 C 
HETATM    9  C9  UNL     1     -32.745   9.717   2.083  1.00 20.00     0.096 C 
HETATM   10  O10 UNL     1     -31.334   8.125   1.005  1.00 20.00    -0.294 OA
ENDBRANCH   7   8
ENDBRANCH   2   6
TORSDOF 2
ENDMDL
MODEL 2
REMARK VINA RESULT:      -4.8     10.966     11.716
REMARK  2 active torsions:
REMARK  status: ('A' for Active; 'I' for Inactive)
REMARK    1  A    between atoms: C2_2  and  C3_3 
REMARK    2  A    between atoms: C4_4  and  C5_5 
ROOT
HETATM    1  C1  UNL     1     -34.786  16.652  -0.464  1.00 20.00    -0.020 C 
HETATM    2  C2  UNL     1     -34.481  16.550  -1.763  1.00 20.00    -0.062 C 
HETATM    3  C6  UNL     1     -34.195  17.878   0.146  1.00 20.00     0.028 C 
HETATM    4  C7  UNL     1     -33.636  17.694  -2.226  1.00 20.00     0.038 C 
HETATM    5  C8  UNL     1     -33.190  18.333  -0.911  1.00 20.00     0.008 C 
ENDROOT
BRANCH   2   6
HETATM    6  C3  UNL     1     -34.898  15.511  -2.651  1.00 20.00     0.010 C 
HETATM    7  C4  UNL     1     -34.110  15.005  -3.613  1.00 20.00     0.050 C 
BRANCH   7   8
HETATM    8  C5  UNL     1     -34.602  13.921  -4.508  1.00 20.00     0.145 C 
HETATM    9  C9  UNL     1     -34.761  14.268  -5.965  1.00 20.00     0.096 C 
HETATM   10  O10 UNL     1     -34.846  12.790  -4.094  1.00 20.00    -0.294 OA
ENDBRANCH   7   8
ENDBRANCH   2   6
TORSDOF 2
ENDMDL
MODEL 3
REMARK VINA RESULT:      -4.7     10.691     11.778
REMARK  2 active torsions:
REMARK  status: ('A' for Active; 'I' for Inactive)
REMARK    1  A    between atoms: C2_2  and  C3_3 
REMARK    2  A    between atoms: C4_4  and  C5_5 
ROOT
HETATM    1  C1  UNL     1     -34.302  13.929  -3.512  1.00 20.00    -0.020 C 
HETATM    2  C2  UNL     1     -34.056  15.239  -3.627  1.00 20.00    -0.062 C 
HETATM    3  C6  UNL     1     -34.423  13.272  -4.846  1.00 20.00     0.028 C 
HETATM    4  C7  UNL     1     -33.973  15.664  -5.059  1.00 20.00     0.038 C 
HETATM    5  C8  UNL     1     -34.552  14.458  -5.800  1.00 20.00     0.008 C 
ENDROOT
BRANCH   2   6
HETATM    6  C3  UNL     1     -33.866  16.162  -2.553  1.00 20.00     0.010 C 
HETATM    7  C4  UNL     1     -34.674  16.222  -1.483  1.00 20.00     0.050 C 
BRANCH   7   8
HETATM    8  C5  UNL     1     -34.424  17.206  -0.394  1.00 20.00     0.145 C 
HETATM    9  C9  UNL     1     -33.225  18.103  -0.555  1.00 20.00     0.096 C 
HETATM   10  O10 UNL     1     -35.166  17.308   0.580  1.00 20.00    -0.294 OA
ENDBRANCH   7   8
ENDBRANCH   2   6
TORSDOF 2
ENDMDL
MODEL 4
REMARK VINA RESULT:      -4.6     11.021     11.453
REMARK  2 active torsions:
REMARK  status: ('A' for Active; 'I' for Inactive)
REMARK    1  A    between atoms: C2_2  and  C3_3 
REMARK    2  A    between atoms: C4_4  and  C5_5 
ROOT
HETATM    1  C1  UNL     1     -33.442  14.505  -3.650  1.00 20.00    -0.020 C 
HETATM    2  C2  UNL     1     -34.317  15.297  -3.018  1.00 20.00    -0.062 C 
HETATM    3  C6  UNL     1     -34.127  13.547  -4.565  1.00 20.00     0.028 C 
HETATM    4  C7  UNL     1     -35.727  14.991  -3.413  1.00 20.00     0.038 C 
HETATM    5  C8  UNL     1     -35.589  13.649  -4.133  1.00 20.00     0.008 C 
ENDROOT
BRANCH   2   6
HETATM    6  C3  UNL     1     -34.001  16.335  -2.088  1.00 20.00     0.010 C 
HETATM    7  C4  UNL     1     -34.689  16.540  -0.954  1.00 20.00     0.050 C 
BRANCH   7   8
HETATM    8  C5  UNL     1     -34.310  17.639  -0.023  1.00 20.00     0.145 C 
HETATM    9  C9  UNL     1     -35.117  17.761   1.243  1.00 20.00     0.096 C 
HETATM   10  O10 UNL     1     -33.374  18.401  -0.255  1.00 20.00    -0.294 OA
ENDBRANCH   7   8
ENDBRANCH   2   6
TORSDOF 2
ENDMDL
MODEL 5
REMARK VINA RESULT:      -4.6     10.690     11.810
REMARK  2 active torsions:
REMARK  status: ('A' for Active; 'I' for Inactive)
REMARK    1  A    between atoms: C2_2  and  C3_3 
REMARK    2  A    between atoms: C4_4  and  C5_5 
ROOT
HETATM    1  C1  UNL     1     -34.156  15.675  -5.001  1.00 20.00    -0.020 C 
HETATM    2  C2  UNL     1     -34.202  15.318  -3.713  1.00 20.00    -0.062 C 
HETATM    3  C6  UNL     1     -34.512  14.540  -5.901  1.00 20.00     0.028 C 
HETATM    4  C7  UNL     1     -34.596  13.884  -3.548  1.00 20.00     0.038 C 
HETATM    5  C8  UNL     1     -34.449  13.333  -4.967  1.00 20.00     0.008 C 
ENDROOT
BRANCH   2   6
HETATM    6  C3  UNL     1     -33.936  16.161  -2.590  1.00 20.00     0.010 C 
HETATM    7  C4  UNL     1     -34.763  16.268  -1.538  1.00 20.00     0.050 C 
BRANCH   7   8
HETATM    8  C5  UNL     1     -34.431  17.165  -0.397  1.00 20.00     0.145 C 
HETATM    9  C9  UNL     1     -33.265  18.098  -0.587  1.00 20.00     0.096 C 
HETATM   10  O10 UNL     1     -35.084  17.169   0.645  1.00 20.00    -0.294 OA
ENDBRANCH   7   8
ENDBRANCH   2   6
TORSDOF 2
ENDMDL
MODEL 6
REMARK VINA RESULT:      -4.5     10.824     11.669
REMARK  2 active torsions:
REMARK  status: ('A' for Active; 'I' for Inactive)
REMARK    1  A    between atoms: C2_2  and  C3_3 
REMARK    2  A    between atoms: C4_4  and  C5_5 
ROOT
HETATM    1  C1  UNL     1     -34.925  17.010  -0.096  1.00 20.00    -0.020 C 
HETATM    2  C2  UNL     1     -33.964  17.243  -0.997  1.00 20.00    -0.062 C 
HETATM    3  C6  UNL     1     -34.816  17.926   1.076  1.00 20.00     0.028 C 
HETATM    4  C7  UNL     1     -33.058  18.353  -0.567  1.00 20.00     0.038 C 
HETATM    5  C8  UNL     1     -33.423  18.530   0.907  1.00 20.00     0.008 C 
ENDROOT
BRANCH   2   6
HETATM    6  C3  UNL     1     -33.786  16.562  -2.240  1.00 20.00     0.010 C 
HETATM    7  C4  UNL     1     -34.520  15.500  -2.610  1.00 20.00     0.050 C 
BRANCH   7   8
HETATM    8  C5  UNL     1     -34.287  14.832  -3.920  1.00 20.00     0.145 C 
HETATM    9  C9  UNL     1     -34.920  13.480  -4.111  1.00 20.00     0.096 C 
HETATM   10  O10 UNL     1     -33.633  15.360  -4.817  1.00 20.00    -0.294 OA
ENDBRANCH   7   8
ENDBRANCH   2   6
TORSDOF 2
ENDMDL
MODEL 7
REMARK VINA RESULT:      -4.5     10.110     11.403
REMARK  2 active torsions:
REMARK  status: ('A' for Active; 'I' for Inactive)
REMARK    1  A    between atoms: C2_2  and  C3_3 
REMARK    2  A    between atoms: C4_4  and  C5_5 
ROOT
HETATM    1  C1  UNL     1     -41.947   6.141  -2.184  1.00 20.00    -0.020 C 
HETATM    2  C2  UNL     1     -41.698   4.842  -1.982  1.00 20.00    -0.062 C 
HETATM    3  C6  UNL     1     -41.195   7.002  -1.225  1.00 20.00     0.028 C 
HETATM    4  C7  UNL     1     -40.739   4.630  -0.854  1.00 20.00     0.038 C 
HETATM    5  C8  UNL     1     -40.709   6.001  -0.178  1.00 20.00     0.008 C 
ENDROOT
BRANCH   2   6
HETATM    6  C3  UNL     1     -42.236   3.750  -2.730  1.00 20.00     0.010 C 
HETATM    7  C4  UNL     1     -41.505   2.694  -3.120  1.00 20.00     0.050 C 
BRANCH   7   8
HETATM    8  C5  UNL     1     -42.124   1.585  -3.898  1.00 20.00     0.145 C 
HETATM    9  C9  UNL     1     -42.845   0.525  -3.109  1.00 20.00     0.096 C 
HETATM   10  O10 UNL     1     -42.076   1.541  -5.126  1.00 20.00    -0.294 OA
ENDBRANCH   7   8
ENDBRANCH   2   6
TORSDOF 2
ENDMDL
MODEL 8
REMARK VINA RESULT:      -4.5     10.562     11.672
REMARK  2 active torsions:
REMARK  status: ('A' for Active; 'I' for Inactive)
REMARK    1  A    between atoms: C2_2  and  C3_3 
REMARK    2  A    between atoms: C4_4  and  C5_5 
ROOT
HETATM    1  C1  UNL     1     -35.022  15.539  -4.750  1.00 20.00    -0.020 C 
HETATM    2  C2  UNL     1     -34.414  15.198  -3.608  1.00 20.00    -0.062 C 
HETATM    3  C6  UNL     1     -35.337  14.344  -5.585  1.00 20.00     0.028 C 
HETATM    4  C7  UNL     1     -34.226  13.718  -3.500  1.00 20.00     0.038 C 
HETATM    5  C8  UNL     1     -34.513  13.240  -4.924  1.00 20.00     0.008 C 
ENDROOT
BRANCH   2   6
HETATM    6  C3  UNL     1     -33.991  16.090  -2.575  1.00 20.00     0.010 C 
HETATM    7  C4  UNL     1     -34.733  16.364  -1.490  1.00 20.00     0.050 C 
BRANCH   7   8
HETATM    8  C5  UNL     1     -34.237  17.302  -0.446  1.00 20.00     0.145 C 
HETATM    9  C9  UNL     1     -35.094  17.461   0.782  1.00 20.00     0.096 C 
HETATM   10  O10 UNL     1     -33.172  17.905  -0.559  1.00 20.00    -0.294 OA
ENDBRANCH   7   8
ENDBRANCH   2   6
TORSDOF 2
ENDMDL
MODEL 9
REMARK VINA RESULT:      -4.4     10.187     11.405
REMARK  2 active torsions:
REMARK  status: ('A' for Active; 'I' for Inactive)
REMARK    1  A    between atoms: C2_2  and  C3_3 
REMARK    2  A    between atoms: C4_4  and  C5_5 
ROOT
HETATM    1  C1  UNL     1     -40.936   4.624  -0.851  1.00 20.00    -0.020 C 
HETATM    2  C2  UNL     1     -41.726   4.718  -1.926  1.00 20.00    -0.062 C 
HETATM    3  C6  UNL     1     -40.684   5.958  -0.233  1.00 20.00     0.028 C 
HETATM    4  C7  UNL     1     -42.127   6.134  -2.197  1.00 20.00     0.038 C 
HETATM    5  C8  UNL     1     -41.170   6.928  -1.308  1.00 20.00     0.008 C 
ENDROOT
BRANCH   2   6
HETATM    6  C3  UNL     1     -42.179   3.636  -2.741  1.00 20.00     0.010 C 
HETATM    7  C4  UNL     1     -41.387   2.624  -3.128  1.00 20.00     0.050 C 
BRANCH   7   8
HETATM    8  C5  UNL     1     -41.918   1.522  -3.977  1.00 20.00     0.145 C 
HETATM    9  C9  UNL     1     -42.975   1.894  -4.983  1.00 20.00     0.096 C 
HETATM   10  O10 UNL     1     -41.505   0.368  -3.888  1.00 20.00    -0.294 OA
ENDBRANCH   7   8
ENDBRANCH   2   6
TORSDOF 2
ENDMDL
