MODEL 1
REMARK VINA RESULT:      -3.9      0.000      0.000
REMARK  2 active torsions:
REMARK  status: ('A' for Active; 'I' for Inactive)
REMARK    1  A    between atoms: C2_2  and  C6_6 
REMARK    2  A    between atoms: C3_3  and  C7_7 
ROOT
HETATM    1  C1  UNL     1     -32.984   5.775   2.580  1.00 20.00     0.100 A 
HETATM    2  C2  UNL     1     -32.296   6.505   3.708  1.00 20.00     0.089 A 
HETATM    3  C3  UNL     1     -34.765   5.756   3.971  1.00 20.00     0.168 A 
HETATM    4  N8  UNL     1     -34.216   5.381   2.655  1.00 20.00    -0.289 NA
HETATM    5  S9  UNL     1     -33.519   6.537   5.031  1.00 20.00    -0.132 SA
ENDROOT
BRANCH   2   6
HETATM    6  C6  UNL     1     -31.919   7.910   3.271  1.00 20.00     0.016 C 
HETATM    7  C4  UNL     1     -32.026   8.083   1.787  1.00 20.00     0.006 C 
ENDBRANCH   2   6
BRANCH   3   8
HETATM    8  C7  UNL     1     -35.310   4.505   4.643  1.00 20.00     0.033 C 
HETATM    9  C5  UNL     1     -34.835   4.379   6.055  1.00 20.00     0.008 C 
ENDBRANCH   3   8
TORSDOF 2
ENDMDL
MODEL 2
REMARK VINA RESULT:      -3.9      0.626      4.050
REMARK  2 active torsions:
REMARK  status: ('A' for Active; 'I' for Inactive)
REMARK    1  A    between atoms: C2_2  and  C6_6 
REMARK    2  A    between atoms: C3_3  and  C7_7 
ROOT
HETATM    1  C1  UNL     1     -34.241   5.462   2.744  1.00 20.00     0.100 A 
HETATM    2  C2  UNL     1     -34.874   5.675   4.098  1.00 20.00     0.089 A 
HETATM    3  C3  UNL     1     -32.411   6.381   3.699  1.00 20.00     0.168 A 
HETATM    4  N8  UNL     1     -33.015   5.792   2.490  1.00 20.00    -0.289 NA
HETATM    5  S9  UNL     1     -33.603   6.517   5.058  1.00 20.00    -0.132 SA
ENDROOT
BRANCH   2   6
HETATM    6  C6  UNL     1     -35.242   4.339   4.720  1.00 20.00     0.016 C 
HETATM    7  C4  UNL     1     -34.909   4.289   6.179  1.00 20.00     0.006 C 
ENDBRANCH   2   6
BRANCH   3   8
HETATM    8  C7  UNL     1     -31.864   7.756   3.347  1.00 20.00     0.033 C 
HETATM    9  C5  UNL     1     -32.028   8.065   1.894  1.00 20.00     0.008 C 
ENDBRANCH   3   8
TORSDOF 2
ENDMDL
MODEL 3
REMARK VINA RESULT:      -3.8     11.331     12.147
REMARK  2 active torsions:
REMARK  status: ('A' for Active; 'I' for Inactive)
REMARK    1  A    between atoms: C2_2  and  C6_6 
REMARK    2  A    between atoms: C3_3  and  C7_7 
ROOT
HETATM    1  C1  UNL     1     -35.529  16.047  -3.047  1.00 20.00     0.100 A 
HETATM    2  C2  UNL     1     -34.118  16.582  -3.085  1.00 20.00     0.089 A 
HETATM    3  C3  UNL     1     -34.574  14.105  -3.699  1.00 20.00     0.168 A 
HETATM    4  N8  UNL     1     -35.814  14.817  -3.340  1.00 20.00    -0.289 NA
HETATM    5  S9  UNL     1     -33.132  15.203  -3.693  1.00 20.00    -0.132 SA
ENDROOT
BRANCH   2   6
HETATM    6  C6  UNL     1     -33.679  17.003  -1.693  1.00 20.00     0.016 C 
HETATM    7  C4  UNL     1     -34.732  16.727  -0.665  1.00 20.00     0.006 C 
ENDBRANCH   2   6
BRANCH   3   8
HETATM    8  C7  UNL     1     -34.753  13.487  -5.078  1.00 20.00     0.033 C 
HETATM    9  C5  UNL     1     -34.658  14.510  -6.163  1.00 20.00     0.008 C 
ENDBRANCH   3   8
TORSDOF 2
ENDMDL
MODEL 4
REMARK VINA RESULT:      -3.8     11.763     12.517
REMARK  2 active torsions:
REMARK  status: ('A' for Active; 'I' for Inactive)
REMARK    1  A    between atoms: C2_2  and  C6_6 
REMARK    2  A    between atoms: C3_3  and  C7_7 
ROOT
HETATM    1  C1  UNL     1     -35.408  14.417  -3.745  1.00 20.00     0.100 A 
HETATM    2  C2  UNL     1     -34.327  14.390  -4.798  1.00 20.00     0.089 A 
HETATM    3  C3  UNL     1     -34.563  16.452  -3.245  1.00 20.00     0.168 A 
HETATM    4  N8  UNL     1     -35.574  15.422  -2.945  1.00 20.00    -0.289 NA
HETATM    5  S9  UNL     1     -33.411  15.920  -4.539  1.00 20.00    -0.132 SA
ENDROOT
BRANCH   2   6
HETATM    6  C6  UNL     1     -34.946  14.346  -6.184  1.00 20.00     0.016 C 
HETATM    7  C4  UNL     1     -34.320  15.343  -7.111  1.00 20.00     0.006 C 
ENDBRANCH   2   6
BRANCH   3   8
HETATM    8  C7  UNL     1     -33.801  16.770  -1.966  1.00 20.00     0.033 C 
HETATM    9  C5  UNL     1     -34.673  16.661  -0.757  1.00 20.00     0.008 C 
ENDBRANCH   3   8
TORSDOF 2
ENDMDL
MODEL 5
REMARK VINA RESULT:      -3.8     12.022     13.088
REMARK  2 active torsions:
REMARK  status: ('A' for Active; 'I' for Inactive)
REMARK    1  A    between atoms: C2_2  and  C6_6 
REMARK    2  A    between atoms: C3_3  and  C7_7 
ROOT
HETATM    1  C1  UNL     1     -33.081  15.731  -3.683  1.00 20.00     0.100 A 
HETATM    2  C2  UNL     1     -34.398  15.229  -3.142  1.00 20.00     0.089 A 
HETATM    3  C3  UNL     1     -34.290  16.270  -5.514  1.00 20.00     0.168 A 
HETATM    4  N8  UNL     1     -32.969  16.264  -4.858  1.00 20.00    -0.289 NA
HETATM    5  S9  UNL     1     -35.557  15.462  -4.501  1.00 20.00    -0.132 SA
ENDROOT
BRANCH   2   6
HETATM    6  C6  UNL     1     -34.806  16.035  -1.923  1.00 20.00     0.016 C 
HETATM    7  C4  UNL     1     -33.750  17.019  -1.521  1.00 20.00     0.006 C 
ENDBRANCH   2   6
BRANCH   3   8
HETATM    8  C7  UNL     1     -34.167  15.562  -6.856  1.00 20.00     0.033 C 
HETATM    9  C5  UNL     1     -35.191  14.485  -7.013  1.00 20.00     0.008 C 
ENDBRANCH   3   8
TORSDOF 2
ENDMDL
MODEL 6
REMARK VINA RESULT:      -3.8     11.955     12.936
REMARK  2 active torsions:
REMARK  status: ('A' for Active; 'I' for Inactive)
REMARK    1  A    between atoms: C2_2  and  C6_6 
REMARK    2  A    between atoms: C3_3  and  C7_7 
ROOT
HETATM    1  C1  UNL     1     -33.779  16.197  -5.547  1.00 20.00     0.100 A 
HETATM    2  C2  UNL     1     -35.074  15.431  -5.417  1.00 20.00     0.089 A 
HETATM    3  C3  UNL     1     -33.530  15.713  -3.353  1.00 20.00     0.168 A 
HETATM    4  N8  UNL     1     -32.968  16.365  -4.551  1.00 20.00    -0.289 NA
HETATM    5  S9  UNL     1     -35.166  15.001  -3.670  1.00 20.00    -0.132 SA
ENDROOT
BRANCH   2   6
HETATM    6  C6  UNL     1     -35.038  14.189  -6.290  1.00 20.00     0.016 C 
HETATM    7  C4  UNL     1     -35.442  14.485  -7.702  1.00 20.00     0.006 C 
ENDBRANCH   2   6
BRANCH   3   8
HETATM    8  C7  UNL     1     -33.617  16.743  -2.237  1.00 20.00     0.033 C 
HETATM    9  C5  UNL     1     -34.698  16.413  -1.258  1.00 20.00     0.008 C 
ENDBRANCH   3   8
TORSDOF 2
ENDMDL
MODEL 7
REMARK VINA RESULT:      -3.7     11.974     12.991
REMARK  2 active torsions:
REMARK  status: ('A' for Active; 'I' for Inactive)
REMARK    1  A    between atoms: C2_2  and  C6_6 
REMARK    2  A    between atoms: C3_3  and  C7_7 
ROOT
HETATM    1  C1  UNL     1     -33.133  16.077  -4.367  1.00 20.00     0.100 A 
HETATM    2  C2  UNL     1     -33.799  15.656  -3.080  1.00 20.00     0.089 A 
HETATM    3  C3  UNL     1     -35.182  15.769  -5.270  1.00 20.00     0.168 A 
HETATM    4  N8  UNL     1     -33.776  16.155  -5.489  1.00 20.00    -0.289 NA
HETATM    5  S9  UNL     1     -35.485  15.243  -3.562  1.00 20.00    -0.132 SA
ENDROOT
BRANCH   2   6
HETATM    6  C6  UNL     1     -33.775  16.797  -2.078  1.00 20.00     0.016 C 
HETATM    7  C4  UNL     1     -34.677  16.538  -0.911  1.00 20.00     0.006 C 
ENDBRANCH   2   6
BRANCH   3   8
HETATM    8  C7  UNL     1     -35.530  14.642  -6.232  1.00 20.00     0.033 C 
HETATM    9  C5  UNL     1     -34.806  14.777  -7.532  1.00 20.00     0.008 C 
ENDBRANCH   3   8
TORSDOF 2
ENDMDL
MODEL 8
REMARK VINA RESULT:      -3.7     11.942     12.797
REMARK  2 active torsions:
REMARK  status: ('A' for Active; 'I' for Inactive)
REMARK    1  A    between atoms: C2_2  and  C6_6 
REMARK    2  A    between atoms: C3_3  and  C7_7 
ROOT
HETATM    1  C1  UNL     1     -33.806  15.091  -4.071  1.00 20.00     0.100 A 
HETATM    2  C2  UNL     1     -33.402  16.423  -4.656  1.00 20.00     0.089 A 
HETATM    3  C3  UNL     1     -34.969  16.344  -2.593  1.00 20.00     0.168 A 
HETATM    4  N8  UNL     1     -34.590  14.992  -3.044  1.00 20.00    -0.289 NA
HETATM    5  S9  UNL     1     -34.148  17.640  -3.558  1.00 20.00    -0.132 SA
ENDROOT
BRANCH   2   6
HETATM    6  C6  UNL     1     -33.934  16.557  -6.072  1.00 20.00     0.016 C 
HETATM    7  C4  UNL     1     -34.302  15.230  -6.662  1.00 20.00     0.006 C 
ENDBRANCH   2   6
BRANCH   3   8
HETATM    8  C7  UNL     1     -34.608  16.482  -1.121  1.00 20.00     0.033 C 
HETATM    9  C5  UNL     1     -33.626  17.586  -0.890  1.00 20.00     0.008 C 
ENDBRANCH   3   8
TORSDOF 2
ENDMDL
MODEL 9
REMARK VINA RESULT:      -3.4      9.484     10.399
REMARK  2 active torsions:
REMARK  status: ('A' for Active; 'I' for Inactive)
REMARK    1  A    between atoms: C2_2  and  C6_6 
REMARK    2  A    between atoms: C3_3  and  C7_7 
ROOT
HETATM    1  C1  UNL     1     -40.731   4.444  -1.105  1.00 20.00     0.100 A 
HETATM    2  C2  UNL     1     -41.973   4.722  -0.293  1.00 20.00     0.089 A 
HETATM    3  C3  UNL     1     -42.181   3.627  -2.634  1.00 20.00     0.168 A 
HETATM    4  N8  UNL     1     -40.776   3.902  -2.281  1.00 20.00    -0.289 NA
HETATM    5  S9  UNL     1     -43.317   4.050  -1.286  1.00 20.00    -0.132 SA
ENDROOT
BRANCH   2   6
HETATM    6  C6  UNL     1     -42.137   6.217  -0.082  1.00 20.00     0.016 C 
HETATM    7  C4  UNL     1     -41.084   7.004  -0.801  1.00 20.00     0.006 C 
ENDBRANCH   2   6
BRANCH   3   8
HETATM    8  C7  UNL     1     -42.312   2.151  -2.983  1.00 20.00     0.033 C 
HETATM    9  C5  UNL     1     -41.279   1.719  -3.973  1.00 20.00     0.008 C 
ENDBRANCH   3   8
TORSDOF 2
ENDMDL
