MODEL 1
REMARK VINA RESULT:      -4.0      0.000      0.000
REMARK  2 active torsions:
REMARK  status: ('A' for Active; 'I' for Inactive)
REMARK    1  A    between atoms: C2_2  and  C6_6 
REMARK    2  A    between atoms: C3_3  and  C7_7 
ROOT
HETATM    1  C1  UNL     1     -34.357  13.307  -4.867  1.00 20.00     0.100 C 
HETATM    2  C2  UNL     1     -35.233  14.178  -5.733  1.00 20.00     0.089 C 
HETATM    3  C3  UNL     1     -35.011  14.685  -3.201  1.00 20.00     0.168 C 
HETATM    4  N8  UNL     1     -34.201  13.521  -3.599  1.00 20.00    -0.289 NA
HETATM    5  S9  UNL     1     -36.019  15.311  -4.573  1.00 20.00    -0.132 SA
ENDROOT
BRANCH   2   6
HETATM    6  C6  UNL     1     -34.389  14.925  -6.750  1.00 20.00     0.016 C 
HETATM    7  C4  UNL     1     -34.263  16.379  -6.416  1.00 20.00     0.006 C 
ENDBRANCH   2   6
BRANCH   3   8
HETATM    8  C7  UNL     1     -34.079  15.777  -2.697  1.00 20.00     0.033 C 
HETATM    9  C5  UNL     1     -34.574  16.388  -1.424  1.00 20.00     0.008 C 
ENDBRANCH   3   8
TORSDOF 2
ENDMDL
MODEL 2
REMARK VINA RESULT:      -3.8      1.936      2.503
REMARK  2 active torsions:
REMARK  status: ('A' for Active; 'I' for Inactive)
REMARK    1  A    between atoms: C2_2  and  C6_6 
REMARK    2  A    between atoms: C3_3  and  C7_7 
ROOT
HETATM    1  C1  UNL     1     -36.343  15.145  -3.588  1.00 20.00     0.100 C 
HETATM    2  C2  UNL     1     -35.371  14.746  -4.673  1.00 20.00     0.089 C 
HETATM    3  C3  UNL     1     -34.856  16.794  -3.171  1.00 20.00     0.168 C 
HETATM    4  N8  UNL     1     -36.130  16.152  -2.803  1.00 20.00    -0.289 NA
HETATM    5  S9  UNL     1     -34.119  16.040  -4.646  1.00 20.00    -0.132 SA
ENDROOT
BRANCH   2   6
HETATM    6  C6  UNL     1     -34.770  13.387  -4.364  1.00 20.00     0.016 C 
HETATM    7  C4  UNL     1     -33.384  13.500  -3.807  1.00 20.00     0.006 C 
ENDBRANCH   2   6
BRANCH   3   8
HETATM    8  C7  UNL     1     -33.898  16.684  -1.993  1.00 20.00     0.033 C 
HETATM    9  C5  UNL     1     -34.619  16.738  -0.684  1.00 20.00     0.008 C 
ENDBRANCH   3   8
TORSDOF 2
ENDMDL
MODEL 3
REMARK VINA RESULT:      -3.8      1.930      2.633
REMARK  2 active torsions:
REMARK  status: ('A' for Active; 'I' for Inactive)
REMARK    1  A    between atoms: C2_2  and  C6_6 
REMARK    2  A    between atoms: C3_3  and  C7_7 
ROOT
HETATM    1  C1  UNL     1     -34.953  16.642  -5.067  1.00 20.00     0.100 C 
HETATM    2  C2  UNL     1     -34.087  15.429  -5.304  1.00 20.00     0.089 C 
HETATM    3  C3  UNL     1     -34.022  16.630  -3.008  1.00 20.00     0.168 C 
HETATM    4  N8  UNL     1     -34.968  17.274  -3.936  1.00 20.00    -0.289 NA
HETATM    5  S9  UNL     1     -33.096  15.290  -3.806  1.00 20.00    -0.132 SA
ENDROOT
BRANCH   2   6
HETATM    6  C6  UNL     1     -34.953  14.199  -5.511  1.00 20.00     0.016 C 
HETATM    7  C4  UNL     1     -34.964  13.311  -4.305  1.00 20.00     0.006 C 
ENDBRANCH   2   6
BRANCH   3   8
HETATM    8  C7  UNL     1     -34.800  16.091  -1.817  1.00 20.00     0.033 C 
HETATM    9  C5  UNL     1     -34.551  16.896  -0.581  1.00 20.00     0.008 C 
ENDBRANCH   3   8
TORSDOF 2
ENDMDL
MODEL 4
REMARK VINA RESULT:      -3.7      1.379      3.873
REMARK  2 active torsions:
REMARK  status: ('A' for Active; 'I' for Inactive)
REMARK    1  A    between atoms: C2_2  and  C6_6 
REMARK    2  A    between atoms: C3_3  and  C7_7 
ROOT
HETATM    1  C1  UNL     1     -34.257  13.779  -3.582  1.00 20.00     0.100 C 
HETATM    2  C2  UNL     1     -33.960  15.234  -3.311  1.00 20.00     0.089 C 
HETATM    3  C3  UNL     1     -34.382  14.435  -5.740  1.00 20.00     0.168 C 
HETATM    4  N8  UNL     1     -34.485  13.327  -4.774  1.00 20.00    -0.289 NA
HETATM    5  S9  UNL     1     -33.853  15.978  -4.947  1.00 20.00    -0.132 SA
ENDROOT
BRANCH   2   6
HETATM    6  C6  UNL     1     -35.079  15.853  -2.493  1.00 20.00     0.016 C 
HETATM    7  C4  UNL     1     -34.577  16.445  -1.213  1.00 20.00     0.006 C 
ENDBRANCH   2   6
BRANCH   3   8
HETATM    8  C7  UNL     1     -35.736  14.627  -6.407  1.00 20.00     0.033 C 
HETATM    9  C5  UNL     1     -35.636  14.559  -7.897  1.00 20.00     0.008 C 
ENDBRANCH   3   8
TORSDOF 2
ENDMDL
MODEL 5
REMARK VINA RESULT:      -3.7      1.553      3.878
REMARK  2 active torsions:
REMARK  status: ('A' for Active; 'I' for Inactive)
REMARK    1  A    between atoms: C2_2  and  C6_6 
REMARK    2  A    between atoms: C3_3  and  C7_7 
ROOT
HETATM    1  C1  UNL     1     -33.631  16.983  -3.981  1.00 20.00     0.100 C 
HETATM    2  C2  UNL     1     -34.823  16.860  -3.063  1.00 20.00     0.089 C 
HETATM    3  C3  UNL     1     -34.821  15.634  -5.346  1.00 20.00     0.168 C 
HETATM    4  N8  UNL     1     -33.572  16.384  -5.127  1.00 20.00    -0.289 NA
HETATM    5  S9  UNL     1     -36.024  15.918  -4.019  1.00 20.00    -0.132 SA
ENDROOT
BRANCH   2   6
HETATM    6  C6  UNL     1     -34.432  16.130  -1.791  1.00 20.00     0.016 C 
HETATM    7  C4  UNL     1     -34.692  16.955  -0.568  1.00 20.00     0.006 C 
ENDBRANCH   2   6
BRANCH   3   8
HETATM    8  C7  UNL     1     -34.488  14.152  -5.443  1.00 20.00     0.033 C 
HETATM    9  C5  UNL     1     -35.096  13.372  -4.321  1.00 20.00     0.008 C 
ENDBRANCH   3   8
TORSDOF 2
ENDMDL
MODEL 6
REMARK VINA RESULT:      -3.7      1.449      3.975
REMARK  2 active torsions:
REMARK  status: ('A' for Active; 'I' for Inactive)
REMARK    1  A    between atoms: C2_2  and  C6_6 
REMARK    2  A    between atoms: C3_3  and  C7_7 
ROOT
HETATM    1  C1  UNL     1     -36.121  15.085  -3.683  1.00 20.00     0.100 C 
HETATM    2  C2  UNL     1     -34.846  14.799  -2.927  1.00 20.00     0.089 C 
HETATM    3  C3  UNL     1     -35.068  14.067  -5.403  1.00 20.00     0.168 C 
HETATM    4  N8  UNL     1     -36.282  14.752  -4.924  1.00 20.00    -0.289 NA
HETATM    5  S9  UNL     1     -33.858  13.824  -4.076  1.00 20.00    -0.132 SA
ENDROOT
BRANCH   2   6
HETATM    6  C6  UNL     1     -34.150  16.098  -2.562  1.00 20.00     0.016 C 
HETATM    7  C4  UNL     1     -34.515  16.561  -1.185  1.00 20.00     0.006 C 
ENDBRANCH   2   6
BRANCH   3   8
HETATM    8  C7  UNL     1     -34.456  14.894  -6.525  1.00 20.00     0.033 C 
HETATM    9  C5  UNL     1     -35.172  14.687  -7.822  1.00 20.00     0.008 C 
ENDBRANCH   3   8
TORSDOF 2
ENDMDL
MODEL 7
REMARK VINA RESULT:      -3.6      1.734      2.390
REMARK  2 active torsions:
REMARK  status: ('A' for Active; 'I' for Inactive)
REMARK    1  A    between atoms: C2_2  and  C6_6 
REMARK    2  A    between atoms: C3_3  and  C7_7 
ROOT
HETATM    1  C1  UNL     1     -34.042  15.758  -5.717  1.00 20.00     0.100 C 
HETATM    2  C2  UNL     1     -34.926  14.622  -5.263  1.00 20.00     0.089 C 
HETATM    3  C3  UNL     1     -33.234  15.680  -3.609  1.00 20.00     0.168 C 
HETATM    4  N8  UNL     1     -33.188  16.330  -4.931  1.00 20.00    -0.289 NA
HETATM    5  S9  UNL     1     -34.355  14.254  -3.594  1.00 20.00    -0.132 SA
ENDROOT
BRANCH   2   6
HETATM    6  C6  UNL     1     -36.381  15.055  -5.267  1.00 20.00     0.016 C 
HETATM    7  C4  UNL     1     -37.104  14.606  -4.034  1.00 20.00     0.006 C 
ENDBRANCH   2   6
BRANCH   3   8
HETATM    8  C7  UNL     1     -33.680  16.707  -2.578  1.00 20.00     0.033 C 
HETATM    9  C5  UNL     1     -34.708  16.147  -1.646  1.00 20.00     0.008 C 
ENDBRANCH   3   8
TORSDOF 2
ENDMDL
MODEL 8
REMARK VINA RESULT:      -3.5      1.721      3.847
REMARK  2 active torsions:
REMARK  status: ('A' for Active; 'I' for Inactive)
REMARK    1  A    between atoms: C2_2  and  C6_6 
REMARK    2  A    between atoms: C3_3  and  C7_7 
ROOT
HETATM    1  C1  UNL     1     -33.319  16.193  -4.200  1.00 20.00     0.100 C 
HETATM    2  C2  UNL     1     -34.577  15.556  -3.662  1.00 20.00     0.089 C 
HETATM    3  C3  UNL     1     -34.505  16.401  -6.111  1.00 20.00     0.168 C 
HETATM    4  N8  UNL     1     -33.224  16.623  -5.418  1.00 20.00    -0.289 NA
HETATM    5  S9  UNL     1     -35.773  15.739  -4.997  1.00 20.00    -0.132 SA
ENDROOT
BRANCH   2   6
HETATM    6  C6  UNL     1     -34.327  14.094  -3.339  1.00 20.00     0.016 C 
HETATM    7  C4  UNL     1     -35.024  13.180  -4.300  1.00 20.00     0.006 C 
ENDBRANCH   2   6
BRANCH   3   8
HETATM    8  C7  UNL     1     -34.271  15.440  -7.268  1.00 20.00     0.033 C 
HETATM    9  C5  UNL     1     -35.507  14.669  -7.608  1.00 20.00     0.008 C 
ENDBRANCH   3   8
TORSDOF 2
ENDMDL
MODEL 9
REMARK VINA RESULT:      -3.4      1.892      2.620
REMARK  2 active torsions:
REMARK  status: ('A' for Active; 'I' for Inactive)
REMARK    1  A    between atoms: C2_2  and  C6_6 
REMARK    2  A    between atoms: C3_3  and  C7_7 
ROOT
HETATM    1  C1  UNL     1     -35.847  16.382  -5.676  1.00 20.00     0.100 C 
HETATM    2  C2  UNL     1     -34.486  16.428  -6.328  1.00 20.00     0.089 C 
HETATM    3  C3  UNL     1     -34.678  16.106  -3.763  1.00 20.00     0.168 C 
HETATM    4  N8  UNL     1     -36.001  16.213  -4.402  1.00 20.00    -0.289 NA
HETATM    5  S9  UNL     1     -33.330  16.375  -4.947  1.00 20.00    -0.132 SA
ENDROOT
BRANCH   2   6
HETATM    6  C6  UNL     1     -34.305  15.234  -7.248  1.00 20.00     0.016 C 
HETATM    7  C4  UNL     1     -35.552  14.411  -7.351  1.00 20.00     0.006 C 
ENDBRANCH   2   6
BRANCH   3   8
HETATM    8  C7  UNL     1     -34.553  14.726  -3.133  1.00 20.00     0.033 C 
HETATM    9  C5  UNL     1     -33.523  13.890  -3.824  1.00 20.00     0.008 C 
ENDBRANCH   3   8
TORSDOF 2
ENDMDL
