MODEL 1
REMARK VINA RESULT:      -4.4      0.000      0.000
REMARK  0 active torsions:
REMARK  status: ('A' for Active; 'I' for Inactive)
ROOT
HETATM    1  C1  UNL     1     -33.543   6.548   5.451  1.00 20.00     0.149 C 
HETATM    2  C2  UNL     1     -33.485   6.292   4.138  1.00 20.00     0.010 C 
HETATM    3  C3  UNL     1     -34.381   5.278   3.495  1.00 20.00     0.050 C 
HETATM    4  C4  UNL     1     -35.518   4.896   4.442  1.00 20.00     0.032 C 
HETATM    5  C5  UNL     1     -34.984   4.725   5.858  1.00 20.00     0.174 C 
HETATM    6  O6  UNL     1     -34.356   5.914   6.357  1.00 20.00    -0.362 OA
HETATM    7 BR7  UNL     1     -32.331   7.204   2.992  1.00 20.00    -0.054 Br
ENDROOT
TORSDOF 0
ENDMDL
MODEL 2
REMARK VINA RESULT:      -3.8      1.119      1.903
REMARK  0 active torsions:
REMARK  status: ('A' for Active; 'I' for Inactive)
ROOT
HETATM    1  C1  UNL     1     -34.251   5.164   3.606  1.00 20.00     0.149 C 
HETATM    2  C2  UNL     1     -33.537   6.196   4.074  1.00 20.00     0.010 C 
HETATM    3  C3  UNL     1     -33.547   6.562   5.528  1.00 20.00     0.050 C 
HETATM    4  C4  UNL     1     -34.157   5.433   6.357  1.00 20.00     0.032 C 
HETATM    5  C5  UNL     1     -35.387   4.873   5.653  1.00 20.00     0.174 C 
HETATM    6  O6  UNL     1     -35.089   4.367   4.345  1.00 20.00    -0.362 OA
HETATM    7 BR7  UNL     1     -32.436   7.228   2.981  1.00 20.00    -0.054 Br
ENDROOT
TORSDOF 0
ENDMDL
MODEL 3
REMARK VINA RESULT:      -3.7      2.016      2.498
REMARK  0 active torsions:
REMARK  status: ('A' for Active; 'I' for Inactive)
ROOT
HETATM    1  C1  UNL     1     -33.784   6.358   4.518  1.00 20.00     0.149 C 
HETATM    2  C2  UNL     1     -34.011   6.294   5.836  1.00 20.00     0.010 C 
HETATM    3  C3  UNL     1     -34.811   5.181   6.443  1.00 20.00     0.050 C 
HETATM    4  C4  UNL     1     -34.985   4.043   5.438  1.00 20.00     0.032 C 
HETATM    5  C5  UNL     1     -35.297   4.607   4.057  1.00 20.00     0.174 C 
HETATM    6  O6  UNL     1     -34.269   5.485   3.577  1.00 20.00    -0.362 OA
HETATM    7 BR7  UNL     1     -33.315   7.543   7.032  1.00 20.00    -0.054 Br
ENDROOT
TORSDOF 0
ENDMDL
MODEL 4
REMARK VINA RESULT:      -3.4      9.550     10.302
REMARK  0 active torsions:
REMARK  status: ('A' for Active; 'I' for Inactive)
ROOT
HETATM    1  C1  UNL     1     -42.443   5.572  -2.530  1.00 20.00     0.149 C 
HETATM    2  C2  UNL     1     -41.735   4.498  -2.158  1.00 20.00     0.010 C 
HETATM    3  C3  UNL     1     -40.725   4.568  -1.053  1.00 20.00     0.050 C 
HETATM    4  C4  UNL     1     -40.899   5.859  -0.254  1.00 20.00     0.032 C 
HETATM    5  C5  UNL     1     -41.151   7.028  -1.198  1.00 20.00     0.174 C 
HETATM    6  O6  UNL     1     -42.316   6.836  -2.013  1.00 20.00    -0.362 OA
HETATM    7 BR7  UNL     1     -41.975   2.822  -2.937  1.00 20.00    -0.054 Br
ENDROOT
TORSDOF 0
ENDMDL
MODEL 5
REMARK VINA RESULT:      -3.4     11.975     12.263
REMARK  0 active torsions:
REMARK  status: ('A' for Active; 'I' for Inactive)
ROOT
HETATM    1  C1  UNL     1     -33.410  14.315  -3.352  1.00 20.00     0.149 C 
HETATM    2  C2  UNL     1     -34.311  15.273  -3.098  1.00 20.00     0.010 C 
HETATM    3  C3  UNL     1     -35.696  15.219  -3.669  1.00 20.00     0.050 C 
HETATM    4  C4  UNL     1     -35.987  13.828  -4.229  1.00 20.00     0.032 C 
HETATM    5  C5  UNL     1     -34.775  13.306  -4.991  1.00 20.00     0.174 C 
HETATM    6  O6  UNL     1     -33.601  13.231  -4.170  1.00 20.00    -0.362 OA
HETATM    7 BR7  UNL     1     -33.946  16.718  -1.979  1.00 20.00    -0.054 Br
ENDROOT
TORSDOF 0
ENDMDL
MODEL 6
REMARK VINA RESULT:      -3.3     11.868     12.422
REMARK  0 active torsions:
REMARK  status: ('A' for Active; 'I' for Inactive)
ROOT
HETATM    1  C1  UNL     1     -35.501  13.385  -4.469  1.00 20.00     0.149 C 
HETATM    2  C2  UNL     1     -35.858  14.510  -3.836  1.00 20.00     0.010 C 
HETATM    3  C3  UNL     1     -34.843  15.398  -3.181  1.00 20.00     0.050 C 
HETATM    4  C4  UNL     1     -33.434  15.026  -3.642  1.00 20.00     0.032 C 
HETATM    5  C5  UNL     1     -33.280  13.511  -3.684  1.00 20.00     0.174 C 
HETATM    6  O6  UNL     1     -34.227  12.886  -4.561  1.00 20.00    -0.362 OA
HETATM    7 BR7  UNL     1     -37.625  15.095  -3.757  1.00 20.00    -0.054 Br
ENDROOT
TORSDOF 0
ENDMDL
MODEL 7
REMARK VINA RESULT:      -3.3     10.352     11.090
REMARK  0 active torsions:
REMARK  status: ('A' for Active; 'I' for Inactive)
ROOT
HETATM    1  C1  UNL     1     -42.817   5.758  -2.930  1.00 20.00     0.149 C 
HETATM    2  C2  UNL     1     -41.896   5.599  -1.970  1.00 20.00     0.010 C 
HETATM    3  C3  UNL     1     -41.332   4.251  -1.639  1.00 20.00     0.050 C 
HETATM    4  C4  UNL     1     -41.682   3.244  -2.734  1.00 20.00     0.032 C 
HETATM    5  C5  UNL     1     -43.128   3.432  -3.175  1.00 20.00     0.174 C 
HETATM    6  O6  UNL     1     -43.383   4.753  -3.672  1.00 20.00    -0.362 OA
HETATM    7 BR7  UNL     1     -41.198   7.034  -1.007  1.00 20.00    -0.054 Br
ENDROOT
TORSDOF 0
ENDMDL
MODEL 8
REMARK VINA RESULT:      -3.3     12.948     13.603
REMARK  0 active torsions:
REMARK  status: ('A' for Active; 'I' for Inactive)
ROOT
HETATM    1  C1  UNL     1     -33.667  16.008  -5.677  1.00 20.00     0.149 C 
HETATM    2  C2  UNL     1     -34.376  14.908  -5.965  1.00 20.00     0.010 C 
HETATM    3  C3  UNL     1     -34.487  13.769  -4.997  1.00 20.00     0.050 C 
HETATM    4  C4  UNL     1     -34.008  14.200  -3.611  1.00 20.00     0.032 C 
HETATM    5  C5  UNL     1     -32.743  15.041  -3.733  1.00 20.00     0.174 C 
HETATM    6  O6  UNL     1     -32.939  16.215  -4.533  1.00 20.00    -0.362 OA
HETATM    7 BR7  UNL     1     -35.323  14.719  -7.559  1.00 20.00    -0.054 Br
ENDROOT
TORSDOF 0
ENDMDL
MODEL 9
REMARK VINA RESULT:      -3.3     12.153     12.398
REMARK  0 active torsions:
REMARK  status: ('A' for Active; 'I' for Inactive)
ROOT
HETATM    1  C1  UNL     1     -36.047  15.271  -3.136  1.00 20.00     0.149 C 
HETATM    2  C2  UNL     1     -34.796  15.505  -2.718  1.00 20.00     0.010 C 
HETATM    3  C3  UNL     1     -33.623  14.781  -3.306  1.00 20.00     0.050 C 
HETATM    4  C4  UNL     1     -34.028  14.073  -4.598  1.00 20.00     0.032 C 
HETATM    5  C5  UNL     1     -35.389  13.409  -4.426  1.00 20.00     0.174 C 
HETATM    6  O6  UNL     1     -36.418  14.346  -4.078  1.00 20.00    -0.362 OA
HETATM    7 BR7  UNL     1     -34.399  16.779  -1.417  1.00 20.00    -0.054 Br
ENDROOT
TORSDOF 0
ENDMDL
