MODEL 1
REMARK VINA RESULT:      -4.8      0.000      0.000
REMARK  0 active torsions:
REMARK  status: ('A' for Active; 'I' for Inactive)
ROOT
HETATM    1  C1  UNL     1     -32.835   6.789   3.646  1.00 20.00     0.099 C 
HETATM    2  C2  UNL     1     -35.223   4.271   4.365  1.00 20.00    -0.026 C 
HETATM    3  C3  UNL     1     -34.763   5.352   3.723  1.00 20.00     0.019 C 
HETATM    4  C4  UNL     1     -35.095   4.130   5.849  1.00 20.00     0.057 C 
HETATM    5  C5  UNL     1     -34.765   5.463   6.532  1.00 20.00     0.277 C 
HETATM    6  C6  UNL     1     -34.043   6.475   4.435  1.00 20.00     0.350 C 
HETATM    7  C7  UNL     1     -33.286   7.357   6.580  1.00 20.00     0.312 C 
HETATM    8  N8  UNL     1     -31.887   7.035   3.025  1.00 20.00    -0.195 NA
HETATM    9  N9  UNL     1     -33.671   6.154   5.833  1.00 20.00     0.106 N 
ENDROOT
TORSDOF 0
ENDMDL
MODEL 2
REMARK VINA RESULT:      -4.2     11.983     13.363
REMARK  0 active torsions:
REMARK  status: ('A' for Active; 'I' for Inactive)
ROOT
HETATM    1  C1  UNL     1     -33.974  14.333  -3.647  1.00 20.00     0.099 C 
HETATM    2  C2  UNL     1     -34.502  16.760  -1.120  1.00 20.00    -0.026 C 
HETATM    3  C3  UNL     1     -34.866  15.750  -1.921  1.00 20.00     0.019 C 
HETATM    4  C4  UNL     1     -33.729  17.930  -1.640  1.00 20.00     0.057 C 
HETATM    5  C5  UNL     1     -33.761  18.012  -3.171  1.00 20.00     0.277 C 
HETATM    6  C6  UNL     1     -34.483  15.694  -3.382  1.00 20.00     0.350 C 
HETATM    7  C7  UNL     1     -33.377  16.836  -5.232  1.00 20.00     0.312 C 
HETATM    8  N8  UNL     1     -33.575  13.264  -3.855  1.00 20.00    -0.195 NA
HETATM    9  N9  UNL     1     -33.471  16.702  -3.774  1.00 20.00     0.106 N 
ENDROOT
TORSDOF 0
ENDMDL
MODEL 3
REMARK VINA RESULT:      -4.1     11.996     12.628
REMARK  0 active torsions:
REMARK  status: ('A' for Active; 'I' for Inactive)
ROOT
HETATM    1  C1  UNL     1     -34.703  16.336  -1.615  1.00 20.00     0.099 C 
HETATM    2  C2  UNL     1     -33.721  13.771  -3.854  1.00 20.00    -0.026 C 
HETATM    3  C3  UNL     1     -33.605  14.965  -3.258  1.00 20.00     0.019 C 
HETATM    4  C4  UNL     1     -35.038  13.275  -4.363  1.00 20.00     0.057 C 
HETATM    5  C5  UNL     1     -36.077  14.398  -4.473  1.00 20.00     0.277 C 
HETATM    6  C6  UNL     1     -34.793  15.868  -3.013  1.00 20.00     0.350 C 
HETATM    7  C7  UNL     1     -37.190  16.194  -3.326  1.00 20.00     0.312 C 
HETATM    8  N8  UNL     1     -34.631  16.704  -0.518  1.00 20.00    -0.195 NA
HETATM    9  N9  UNL     1     -36.101  15.214  -3.249  1.00 20.00     0.106 N 
ENDROOT
TORSDOF 0
ENDMDL
MODEL 4
REMARK VINA RESULT:      -4.1     11.961     13.363
REMARK  0 active torsions:
REMARK  status: ('A' for Active; 'I' for Inactive)
ROOT
HETATM    1  C1  UNL     1     -34.142  15.933  -2.373  1.00 20.00     0.099 C 
HETATM    2  C2  UNL     1     -34.814  13.306  -4.655  1.00 20.00    -0.026 C 
HETATM    3  C3  UNL     1     -34.183  13.877  -3.620  1.00 20.00     0.019 C 
HETATM    4  C4  UNL     1     -35.057  14.051  -5.930  1.00 20.00     0.057 C 
HETATM    5  C5  UNL     1     -34.195  15.314  -6.037  1.00 20.00     0.277 C 
HETATM    6  C6  UNL     1     -33.719  15.316  -3.646  1.00 20.00     0.350 C 
HETATM    7  C7  UNL     1     -33.524  17.359  -4.965  1.00 20.00     0.312 C 
HETATM    8  N8  UNL     1     -34.475  16.416  -1.372  1.00 20.00    -0.195 NA
HETATM    9  N9  UNL     1     -34.247  16.094  -4.791  1.00 20.00     0.106 N 
ENDROOT
TORSDOF 0
ENDMDL
MODEL 5
REMARK VINA RESULT:      -4.0     12.629     13.685
REMARK  0 active torsions:
REMARK  status: ('A' for Active; 'I' for Inactive)
ROOT
HETATM    1  C1  UNL     1     -36.813  14.433  -3.984  1.00 20.00     0.099 C 
HETATM    2  C2  UNL     1     -34.447  15.116  -6.533  1.00 20.00    -0.026 C 
HETATM    3  C3  UNL     1     -35.203  14.318  -5.767  1.00 20.00     0.019 C 
HETATM    4  C4  UNL     1     -33.675  16.256  -5.949  1.00 20.00     0.057 C 
HETATM    5  C5  UNL     1     -33.546  16.150  -4.425  1.00 20.00     0.277 C 
HETATM    6  C6  UNL     1     -35.370  14.539  -4.281  1.00 20.00     0.350 C 
HETATM    7  C7  UNL     1     -34.722  15.875  -2.346  1.00 20.00     0.312 C 
HETATM    8  N8  UNL     1     -37.946  14.350  -3.752  1.00 20.00    -0.195 NA
HETATM    9  N9  UNL     1     -34.845  15.841  -3.808  1.00 20.00     0.106 N 
ENDROOT
TORSDOF 0
ENDMDL
MODEL 6
REMARK VINA RESULT:      -3.9     12.195     13.184
REMARK  0 active torsions:
REMARK  status: ('A' for Active; 'I' for Inactive)
ROOT
HETATM    1  C1  UNL     1     -37.284  14.789  -3.902  1.00 20.00     0.099 C 
HETATM    2  C2  UNL     1     -35.067  17.179  -2.515  1.00 20.00    -0.026 C 
HETATM    3  C3  UNL     1     -36.025  16.763  -3.352  1.00 20.00     0.019 C 
HETATM    4  C4  UNL     1     -33.839  16.362  -2.263  1.00 20.00     0.057 C 
HETATM    5  C5  UNL     1     -33.645  15.267  -3.319  1.00 20.00     0.277 C 
HETATM    6  C6  UNL     1     -35.962  15.427  -4.059  1.00 20.00     0.350 C 
HETATM    7  C7  UNL     1     -34.655  13.408  -4.461  1.00 20.00     0.312 C 
HETATM    8  N8  UNL     1     -38.323  14.287  -3.778  1.00 20.00    -0.195 NA
HETATM    9  N9  UNL     1     -34.898  14.531  -3.550  1.00 20.00     0.106 N 
ENDROOT
TORSDOF 0
ENDMDL
MODEL 7
REMARK VINA RESULT:      -3.9     12.456     13.894
REMARK  0 active torsions:
REMARK  status: ('A' for Active; 'I' for Inactive)
ROOT
HETATM    1  C1  UNL     1     -33.643  17.260  -3.923  1.00 20.00     0.099 C 
HETATM    2  C2  UNL     1     -33.554  13.721  -3.773  1.00 20.00    -0.026 C 
HETATM    3  C3  UNL     1     -33.012  14.946  -3.754  1.00 20.00     0.019 C 
HETATM    4  C4  UNL     1     -34.580  13.336  -4.792  1.00 20.00     0.057 C 
HETATM    5  C5  UNL     1     -34.625  14.318  -5.969  1.00 20.00     0.277 C 
HETATM    6  C6  UNL     1     -33.429  16.034  -4.717  1.00 20.00     0.350 C 
HETATM    7  C7  UNL     1     -34.824  16.620  -6.630  1.00 20.00     0.312 C 
HETATM    8  N8  UNL     1     -33.810  18.223  -3.299  1.00 20.00    -0.195 NA
HETATM    9  N9  UNL     1     -34.648  15.709  -5.493  1.00 20.00     0.106 N 
ENDROOT
TORSDOF 0
ENDMDL
MODEL 8
REMARK VINA RESULT:      -3.9     12.676     13.618
REMARK  0 active torsions:
REMARK  status: ('A' for Active; 'I' for Inactive)
ROOT
HETATM    1  C1  UNL     1     -37.258  14.943  -3.867  1.00 20.00     0.099 C 
HETATM    2  C2  UNL     1     -34.142  15.816  -2.423  1.00 20.00    -0.026 C 
HETATM    3  C3  UNL     1     -35.447  15.982  -2.672  1.00 20.00     0.019 C 
HETATM    4  C4  UNL     1     -33.179  15.454  -3.510  1.00 20.00     0.057 C 
HETATM    5  C5  UNL     1     -33.768  15.682  -4.907  1.00 20.00     0.277 C 
HETATM    6  C6  UNL     1     -36.046  15.767  -4.044  1.00 20.00     0.350 C 
HETATM    7  C7  UNL     1     -35.610  15.232  -6.384  1.00 20.00     0.312 C 
HETATM    8  N8  UNL     1     -38.210  14.295  -3.727  1.00 20.00    -0.195 NA
HETATM    9  N9  UNL     1     -35.123  15.119  -5.004  1.00 20.00     0.106 N 
ENDROOT
TORSDOF 0
ENDMDL
MODEL 9
REMARK VINA RESULT:      -3.8     12.458     13.938
REMARK  0 active torsions:
REMARK  status: ('A' for Active; 'I' for Inactive)
ROOT
HETATM    1  C1  UNL     1     -35.300  14.592  -6.834  1.00 20.00     0.099 C 
HETATM    2  C2  UNL     1     -33.630  13.599  -3.870  1.00 20.00    -0.026 C 
HETATM    3  C3  UNL     1     -34.696  13.735  -4.669  1.00 20.00     0.019 C 
HETATM    4  C4  UNL     1     -32.661  14.720  -3.664  1.00 20.00     0.057 C 
HETATM    5  C5  UNL     1     -33.225  16.068  -4.126  1.00 20.00     0.277 C 
HETATM    6  C6  UNL     1     -34.968  14.999  -5.453  1.00 20.00     0.350 C 
HETATM    7  C7  UNL     1     -34.248  17.279  -5.934  1.00 20.00     0.312 C 
HETATM    8  N8  UNL     1     -35.560  14.272  -7.918  1.00 20.00    -0.195 NA
HETATM    9  N9  UNL     1     -33.835  15.953  -5.460  1.00 20.00     0.106 N 
ENDROOT
TORSDOF 0
ENDMDL
