MODEL 1
REMARK VINA RESULT:      -5.3      0.000      0.000
REMARK  1 active torsions:
REMARK  status: ('A' for Active; 'I' for Inactive)
REMARK    1  A    between atoms: C3_3  and  C6_6 
ROOT
HETATM    1  C1  UNL     1     -34.484   5.033   6.211  1.00 20.00    -0.030 C 
HETATM    2  C2  UNL     1     -35.088   4.398   5.203  1.00 20.00    -0.030 C 
HETATM    3  C4  UNL     1     -33.974   6.375   5.805  1.00 20.00     0.038 C 
HETATM    4  C5  UNL     1     -35.085   5.209   3.950  1.00 20.00     0.038 C 
HETATM    5  C6  UNL     1     -34.166   6.383   4.289  1.00 20.00     0.054 C 
ENDROOT
BRANCH   5   6
HETATM    6  C3  UNL     1     -32.839   6.228   3.602  1.00 20.00     0.236 C 
HETATM    7  O7  UNL     1     -32.369   7.068   2.842  1.00 20.00    -0.306 OA
ENDBRANCH   5   6
TORSDOF 1
ENDMDL
MODEL 2
REMARK VINA RESULT:      -4.5      2.116      3.263
REMARK  1 active torsions:
REMARK  status: ('A' for Active; 'I' for Inactive)
REMARK    1  A    between atoms: C3_3  and  C6_6 
ROOT
HETATM    1  C1  UNL     1     -33.826   5.697   2.913  1.00 20.00    -0.030 C 
HETATM    2  C2  UNL     1     -32.923   6.253   3.725  1.00 20.00    -0.030 C 
HETATM    3  C4  UNL     1     -35.132   5.469   3.598  1.00 20.00     0.038 C 
HETATM    4  C5  UNL     1     -33.473   6.493   5.092  1.00 20.00     0.038 C 
HETATM    5  C6  UNL     1     -34.822   5.775   5.063  1.00 20.00     0.054 C 
ENDROOT
BRANCH   5   6
HETATM    6  C3  UNL     1     -34.758   4.499   5.852  1.00 20.00     0.236 C 
HETATM    7  O7  UNL     1     -34.985   3.394   5.370  1.00 20.00    -0.306 OA
ENDBRANCH   5   6
TORSDOF 1
ENDMDL
MODEL 3
REMARK VINA RESULT:      -4.4      1.750      2.550
REMARK  1 active torsions:
REMARK  status: ('A' for Active; 'I' for Inactive)
REMARK    1  A    between atoms: C3_3  and  C6_6 
ROOT
HETATM    1  C1  UNL     1     -34.947   5.405   3.646  1.00 20.00    -0.030 C 
HETATM    2  C2  UNL     1     -35.523   4.585   4.528  1.00 20.00    -0.030 C 
HETATM    3  C4  UNL     1     -33.685   6.002   4.174  1.00 20.00     0.038 C 
HETATM    4  C5  UNL     1     -34.743   4.493   5.798  1.00 20.00     0.038 C 
HETATM    5  C6  UNL     1     -33.684   5.585   5.644  1.00 20.00     0.054 C 
ENDROOT
BRANCH   5   6
HETATM    6  C3  UNL     1     -34.014   6.764   6.513  1.00 20.00     0.236 C 
HETATM    7  O7  UNL     1     -33.165   7.501   7.004  1.00 20.00    -0.306 OA
ENDBRANCH   5   6
TORSDOF 1
ENDMDL
MODEL 4
REMARK VINA RESULT:      -4.2      1.768      2.419
REMARK  1 active torsions:
REMARK  status: ('A' for Active; 'I' for Inactive)
REMARK    1  A    between atoms: C3_3  and  C6_6 
ROOT
HETATM    1  C1  UNL     1     -34.781   5.394   6.615  1.00 20.00    -0.030 C 
HETATM    2  C2  UNL     1     -34.094   6.504   6.334  1.00 20.00    -0.030 C 
HETATM    3  C4  UNL     1     -34.704   4.391   5.513  1.00 20.00     0.038 C 
HETATM    4  C5  UNL     1     -33.438   6.431   4.994  1.00 20.00     0.038 C 
HETATM    5  C6  UNL     1     -34.026   5.161   4.380  1.00 20.00     0.054 C 
ENDROOT
BRANCH   5   6
HETATM    6  C3  UNL     1     -35.032   5.504   3.319  1.00 20.00     0.236 C 
HETATM    7  O7  UNL     1     -36.214   5.731   3.555  1.00 20.00    -0.306 OA
ENDBRANCH   5   6
TORSDOF 1
ENDMDL
MODEL 5
REMARK VINA RESULT:      -3.7      1.092      2.063
REMARK  1 active torsions:
REMARK  status: ('A' for Active; 'I' for Inactive)
REMARK    1  A    between atoms: C3_3  and  C6_6 
ROOT
HETATM    1  C1  UNL     1     -35.110   5.335   3.755  1.00 20.00    -0.030 C 
HETATM    2  C2  UNL     1     -34.760   5.821   4.949  1.00 20.00    -0.030 C 
HETATM    3  C4  UNL     1     -33.973   5.350   2.788  1.00 20.00     0.038 C 
HETATM    4  C5  UNL     1     -33.328   6.243   4.984  1.00 20.00     0.038 C 
HETATM    5  C6  UNL     1     -32.895   6.147   3.521  1.00 20.00     0.054 C 
ENDROOT
BRANCH   5   6
HETATM    6  C3  UNL     1     -32.768   7.516   2.917  1.00 20.00     0.236 C 
HETATM    7  O7  UNL     1     -31.870   7.834   2.145  1.00 20.00    -0.306 OA
ENDBRANCH   5   6
TORSDOF 1
ENDMDL
MODEL 6
REMARK VINA RESULT:      -3.7     11.863     12.443
REMARK  1 active torsions:
REMARK  status: ('A' for Active; 'I' for Inactive)
REMARK    1  A    between atoms: C3_3  and  C6_6 
ROOT
HETATM    1  C1  UNL     1     -33.632  16.275  -2.514  1.00 20.00    -0.030 C 
HETATM    2  C2  UNL     1     -34.865  15.941  -2.124  1.00 20.00    -0.030 C 
HETATM    3  C4  UNL     1     -33.358  15.864  -3.922  1.00 20.00     0.038 C 
HETATM    4  C5  UNL     1     -35.626  15.249  -3.207  1.00 20.00     0.038 C 
HETATM    5  C6  UNL     1     -34.567  15.003  -4.282  1.00 20.00     0.054 C 
ENDROOT
BRANCH   5   6
HETATM    6  C3  UNL     1     -34.175  13.553  -4.313  1.00 20.00     0.236 C 
HETATM    7  O7  UNL     1     -34.985  12.636  -4.401  1.00 20.00    -0.306 OA
ENDBRANCH   5   6
TORSDOF 1
ENDMDL
MODEL 7
REMARK VINA RESULT:      -3.7     12.068     12.539
REMARK  1 active torsions:
REMARK  status: ('A' for Active; 'I' for Inactive)
REMARK    1  A    between atoms: C3_3  and  C6_6 
ROOT
HETATM    1  C1  UNL     1     -34.713  13.324  -4.509  1.00 20.00    -0.030 C 
HETATM    2  C2  UNL     1     -35.829  13.992  -4.208  1.00 20.00    -0.030 C 
HETATM    3  C4  UNL     1     -33.520  13.877  -3.804  1.00 20.00     0.038 C 
HETATM    4  C5  UNL     1     -35.572  15.106  -3.248  1.00 20.00     0.038 C 
HETATM    5  C6  UNL     1     -34.047  15.165  -3.172  1.00 20.00     0.054 C 
ENDROOT
BRANCH   5   6
HETATM    6  C3  UNL     1     -33.527  16.356  -3.925  1.00 20.00     0.236 C 
HETATM    7  O7  UNL     1     -32.747  16.273  -4.868  1.00 20.00    -0.306 OA
ENDBRANCH   5   6
TORSDOF 1
ENDMDL
MODEL 8
REMARK VINA RESULT:      -3.6     11.718     12.648
REMARK  1 active torsions:
REMARK  status: ('A' for Active; 'I' for Inactive)
REMARK    1  A    between atoms: C3_3  and  C6_6 
ROOT
HETATM    1  C1  UNL     1     -34.465  16.725  -3.588  1.00 20.00    -0.030 C 
HETATM    2  C2  UNL     1     -33.321  16.279  -4.112  1.00 20.00    -0.030 C 
HETATM    3  C4  UNL     1     -35.214  15.649  -2.876  1.00 20.00     0.038 C 
HETATM    4  C5  UNL     1     -33.109  14.827  -3.839  1.00 20.00     0.038 C 
HETATM    5  C6  UNL     1     -34.443  14.381  -3.239  1.00 20.00     0.054 C 
ENDROOT
BRANCH   5   6
HETATM    6  C3  UNL     1     -35.224  13.572  -4.234  1.00 20.00     0.236 C 
HETATM    7  O7  UNL     1     -34.783  12.569  -4.786  1.00 20.00    -0.306 OA
ENDBRANCH   5   6
TORSDOF 1
ENDMDL
MODEL 9
REMARK VINA RESULT:      -3.5     11.806     12.680
REMARK  1 active torsions:
REMARK  status: ('A' for Active; 'I' for Inactive)
REMARK    1  A    between atoms: C3_3  and  C6_6 
ROOT
HETATM    1  C1  UNL     1     -33.594  13.676  -3.790  1.00 20.00    -0.030 C 
HETATM    2  C2  UNL     1     -33.375  14.993  -3.763  1.00 20.00    -0.030 C 
HETATM    3  C4  UNL     1     -34.868  13.333  -4.488  1.00 20.00     0.038 C 
HETATM    4  C5  UNL     1     -34.465  15.756  -4.439  1.00 20.00     0.038 C 
HETATM    5  C6  UNL     1     -35.532  14.693  -4.701  1.00 20.00     0.054 C 
ENDROOT
BRANCH   5   6
HETATM    6  C3  UNL     1     -36.684  14.857  -3.751  1.00 20.00     0.236 C 
HETATM    7  O7  UNL     1     -37.684  14.148  -3.772  1.00 20.00    -0.306 OA
ENDBRANCH   5   6
TORSDOF 1
ENDMDL
