MODEL 1
REMARK VINA RESULT:      -3.6      0.000      0.000
REMARK  3 active torsions:
REMARK  status: ('A' for Active; 'I' for Inactive)
REMARK    1  A    between atoms: C1_1  and  C7_7 
REMARK    2  A    between atoms: C7_7  and  C8_8 
REMARK    3  A    between atoms: N9_9  and  N10_10 
ROOT
HETATM    1  C1  UNL     1     -34.429  14.719  -4.055  1.00 20.00     0.023 C 
HETATM    2  C2  UNL     1     -33.316  13.757  -3.697  1.00 20.00     0.067 C 
HETATM    3  N9  UNL     1     -34.841  14.973  -5.262  1.00 20.00    -0.209 NA
ENDROOT
BRANCH   1   4
HETATM    4  C7  UNL     1     -35.091  15.479  -2.916  1.00 20.00     0.059 C 
BRANCH   4   5
HETATM    5  C8  UNL     1     -34.088  16.350  -2.146  1.00 20.00    -0.017 C 
HETATM    6  C3  UNL     1     -33.795  17.659  -2.882  1.00 20.00     0.010 C 
HETATM    7  C4  UNL     1     -34.626  16.652  -0.746  1.00 20.00     0.010 C 
ENDBRANCH   4   5
ENDBRANCH   1   4
BRANCH   3   8
HETATM    8  N10 UNL     1     -35.854  15.869  -5.353  1.00 20.00    -0.217 NA
HETATM    9  C5  UNL     1     -37.114  15.303  -5.848  1.00 20.00     0.138 C 
HETATM   10  C6  UNL     1     -35.522  17.051  -6.152  1.00 20.00     0.138 C 
ENDBRANCH   3   8
TORSDOF 3
ENDMDL
MODEL 2
REMARK VINA RESULT:      -3.5      1.138      1.223
REMARK  3 active torsions:
REMARK  status: ('A' for Active; 'I' for Inactive)
REMARK    1  A    between atoms: C1_1  and  C7_7 
REMARK    2  A    between atoms: C7_7  and  C8_8 
REMARK    3  A    between atoms: N9_9  and  N10_10 
ROOT
HETATM    1  C1  UNL     1     -34.893  14.527  -3.722  1.00 20.00     0.023 C 
HETATM    2  C2  UNL     1     -33.652  13.666  -3.819  1.00 20.00     0.067 C 
HETATM    3  N9  UNL     1     -35.866  14.538  -4.585  1.00 20.00    -0.209 NA
ENDROOT
BRANCH   1   4
HETATM    4  C7  UNL     1     -34.991  15.483  -2.544  1.00 20.00     0.059 C 
BRANCH   4   5
HETATM    5  C8  UNL     1     -33.785  16.431  -2.470  1.00 20.00    -0.017 C 
HETATM    6  C3  UNL     1     -33.772  17.419  -3.637  1.00 20.00     0.010 C 
HETATM    7  C4  UNL     1     -33.802  17.195  -1.144  1.00 20.00     0.010 C 
ENDBRANCH   4   5
ENDBRANCH   1   4
BRANCH   3   8
HETATM    8  N10 UNL     1     -36.884  15.388  -4.299  1.00 20.00    -0.217 NA
HETATM    9  C5  UNL     1     -38.166  14.723  -4.043  1.00 20.00     0.138 C 
HETATM   10  C6  UNL     1     -37.085  16.425  -5.315  1.00 20.00     0.138 C 
ENDBRANCH   3   8
TORSDOF 3
ENDMDL
MODEL 3
REMARK VINA RESULT:      -3.5      2.138      3.429
REMARK  3 active torsions:
REMARK  status: ('A' for Active; 'I' for Inactive)
REMARK    1  A    between atoms: C1_1  and  C7_7 
REMARK    2  A    between atoms: C7_7  and  C8_8 
REMARK    3  A    between atoms: N9_9  and  N10_10 
ROOT
HETATM    1  C1  UNL     1     -35.541  16.642  -2.463  1.00 20.00     0.023 C 
HETATM    2  C2  UNL     1     -36.686  17.631  -2.400  1.00 20.00     0.067 C 
HETATM    3  N9  UNL     1     -35.225  15.927  -3.502  1.00 20.00    -0.209 NA
ENDROOT
BRANCH   1   4
HETATM    4  C7  UNL     1     -34.723  16.437  -1.198  1.00 20.00     0.059 C 
BRANCH   4   5
HETATM    5  C8  UNL     1     -34.610  17.726  -0.370  1.00 20.00    -0.017 C 
HETATM    6  C3  UNL     1     -35.067  17.510   1.074  1.00 20.00     0.010 C 
HETATM    7  C4  UNL     1     -33.166  18.232  -0.387  1.00 20.00     0.010 C 
ENDBRANCH   4   5
ENDBRANCH   1   4
BRANCH   3   8
HETATM    8  N10 UNL     1     -34.160  15.105  -3.337  1.00 20.00    -0.217 NA
HETATM    9  C5  UNL     1     -32.956  15.530  -4.061  1.00 20.00     0.138 C 
HETATM   10  C6  UNL     1     -34.441  13.706  -3.672  1.00 20.00     0.138 C 
ENDBRANCH   3   8
TORSDOF 3
ENDMDL
MODEL 4
REMARK VINA RESULT:      -3.4      1.948      3.389
REMARK  3 active torsions:
REMARK  status: ('A' for Active; 'I' for Inactive)
REMARK    1  A    between atoms: C1_1  and  C7_7 
REMARK    2  A    between atoms: C7_7  and  C8_8 
REMARK    3  A    between atoms: N9_9  and  N10_10 
ROOT
HETATM    1  C1  UNL     1     -34.784  16.835  -2.435  1.00 20.00     0.023 C 
HETATM    2  C2  UNL     1     -34.628  16.533  -0.960  1.00 20.00     0.067 C 
HETATM    3  N9  UNL     1     -34.563  17.991  -2.990  1.00 20.00    -0.209 NA
ENDROOT
BRANCH   1   4
HETATM    4  C7  UNL     1     -35.278  15.712  -3.332  1.00 20.00     0.059 C 
BRANCH   4   5
HETATM    5  C8  UNL     1     -34.345  14.492  -3.294  1.00 20.00    -0.017 C 
HETATM    6  C3  UNL     1     -34.862  13.359  -4.182  1.00 20.00     0.010 C 
HETATM    7  C4  UNL     1     -32.938  14.898  -3.737  1.00 20.00     0.010 C 
ENDBRANCH   4   5
ENDBRANCH   1   4
BRANCH   3   8
HETATM    8  N10 UNL     1     -34.765  18.038  -4.330  1.00 20.00    -0.217 NA
HETATM    9  C5  UNL     1     -33.554  18.319  -5.109  1.00 20.00     0.138 C 
HETATM   10  C6  UNL     1     -35.814  18.979  -4.732  1.00 20.00     0.138 C 
ENDBRANCH   3   8
TORSDOF 3
ENDMDL
MODEL 5
REMARK VINA RESULT:      -3.4      1.490      2.550
REMARK  3 active torsions:
REMARK  status: ('A' for Active; 'I' for Inactive)
REMARK    1  A    between atoms: C1_1  and  C7_7 
REMARK    2  A    between atoms: C7_7  and  C8_8 
REMARK    3  A    between atoms: N9_9  and  N10_10 
ROOT
HETATM    1  C1  UNL     1     -34.055  16.534  -4.508  1.00 20.00     0.023 C 
HETATM    2  C2  UNL     1     -33.522  17.740  -5.252  1.00 20.00     0.067 C 
HETATM    3  N9  UNL     1     -34.907  15.676  -4.987  1.00 20.00    -0.209 NA
ENDROOT
BRANCH   1   4
HETATM    4  C7  UNL     1     -33.591  16.334  -3.075  1.00 20.00     0.059 C 
BRANCH   4   5
HETATM    5  C8  UNL     1     -34.300  17.287  -2.101  1.00 20.00    -0.017 C 
HETATM    6  C3  UNL     1     -34.731  16.569  -0.821  1.00 20.00     0.010 C 
HETATM    7  C4  UNL     1     -33.380  18.459  -1.755  1.00 20.00     0.010 C 
ENDBRANCH   4   5
ENDBRANCH   1   4
BRANCH   3   8
HETATM    8  N10 UNL     1     -35.249  14.669  -4.146  1.00 20.00    -0.217 NA
HETATM    9  C5  UNL     1     -34.843  13.337  -4.609  1.00 20.00     0.138 C 
HETATM   10  C6  UNL     1     -36.677  14.638  -3.817  1.00 20.00     0.138 C 
ENDBRANCH   3   8
TORSDOF 3
ENDMDL
MODEL 6
REMARK VINA RESULT:      -3.4     13.300     14.270
REMARK  3 active torsions:
REMARK  status: ('A' for Active; 'I' for Inactive)
REMARK    1  A    between atoms: C1_1  and  C7_7 
REMARK    2  A    between atoms: C7_7  and  C8_8 
REMARK    3  A    between atoms: N9_9  and  N10_10 
ROOT
HETATM    1  C1  UNL     1     -42.524   4.588  -2.825  1.00 20.00     0.023 C 
HETATM    2  C2  UNL     1     -43.012   5.981  -3.161  1.00 20.00     0.067 C 
HETATM    3  N9  UNL     1     -42.900   3.498  -3.425  1.00 20.00    -0.209 NA
ENDROOT
BRANCH   1   4
HETATM    4  C7  UNL     1     -41.549   4.448  -1.666  1.00 20.00     0.059 C 
BRANCH   4   5
HETATM    5  C8  UNL     1     -41.892   5.396  -0.507  1.00 20.00    -0.017 C 
HETATM    6  C3  UNL     1     -42.522   4.646   0.668  1.00 20.00     0.010 C 
HETATM    7  C4  UNL     1     -40.631   6.127  -0.041  1.00 20.00     0.010 C 
ENDBRANCH   4   5
ENDBRANCH   1   4
BRANCH   3   8
HETATM    8  N10 UNL     1     -42.334   2.356  -2.961  1.00 20.00    -0.217 NA
HETATM    9  C5  UNL     1     -41.442   1.696  -3.921  1.00 20.00     0.138 C 
HETATM   10  C6  UNL     1     -43.307   1.376  -2.471  1.00 20.00     0.138 C 
ENDBRANCH   3   8
TORSDOF 3
ENDMDL
MODEL 7
REMARK VINA RESULT:      -3.4      1.518      2.093
REMARK  3 active torsions:
REMARK  status: ('A' for Active; 'I' for Inactive)
REMARK    1  A    between atoms: C1_1  and  C7_7 
REMARK    2  A    between atoms: C7_7  and  C8_8 
REMARK    3  A    between atoms: N9_9  and  N10_10 
ROOT
HETATM    1  C1  UNL     1     -33.256  16.008  -4.059  1.00 20.00     0.023 C 
HETATM    2  C2  UNL     1     -32.463  14.762  -3.725  1.00 20.00     0.067 C 
HETATM    3  N9  UNL     1     -33.544  16.413  -5.261  1.00 20.00    -0.209 NA
ENDROOT
BRANCH   1   4
HETATM    4  C7  UNL     1     -33.715  16.877  -2.899  1.00 20.00     0.059 C 
BRANCH   4   5
HETATM    5  C8  UNL     1     -34.622  16.109  -1.927  1.00 20.00    -0.017 C 
HETATM    6  C3  UNL     1     -34.746  16.828  -0.582  1.00 20.00     0.010 C 
HETATM    7  C4  UNL     1     -36.009  15.922  -2.545  1.00 20.00     0.010 C 
ENDBRANCH   4   5
ENDBRANCH   1   4
BRANCH   3   8
HETATM    8  N10 UNL     1     -34.267  17.559  -5.328  1.00 20.00    -0.217 NA
HETATM    9  C5  UNL     1     -35.594  17.395  -5.931  1.00 20.00     0.138 C 
HETATM   10  C6  UNL     1     -33.570  18.652  -6.011  1.00 20.00     0.138 C 
ENDBRANCH   3   8
TORSDOF 3
ENDMDL
MODEL 8
REMARK VINA RESULT:      -3.4      2.807      3.852
REMARK  3 active torsions:
REMARK  status: ('A' for Active; 'I' for Inactive)
REMARK    1  A    between atoms: C1_1  and  C7_7 
REMARK    2  A    between atoms: C7_7  and  C8_8 
REMARK    3  A    between atoms: N9_9  and  N10_10 
ROOT
HETATM    1  C1  UNL     1     -36.250  14.256  -4.407  1.00 20.00     0.023 C 
HETATM    2  C2  UNL     1     -35.072  13.357  -4.098  1.00 20.00     0.067 C 
HETATM    3  N9  UNL     1     -37.378  14.263  -3.759  1.00 20.00    -0.209 NA
ENDROOT
BRANCH   1   4
HETATM    4  C7  UNL     1     -36.120  15.196  -5.595  1.00 20.00     0.059 C 
BRANCH   4   5
HETATM    5  C8  UNL     1     -34.752  15.072  -6.281  1.00 20.00    -0.017 C 
HETATM    6  C3  UNL     1     -34.895  14.807  -7.781  1.00 20.00     0.010 C 
HETATM    7  C4  UNL     1     -33.937  16.347  -6.055  1.00 20.00     0.010 C 
ENDBRANCH   4   5
ENDBRANCH   1   4
BRANCH   3   8
HETATM    8  N10 UNL     1     -38.298  15.152  -4.207  1.00 20.00    -0.217 NA
HETATM    9  C5  UNL     1     -38.592  16.237  -3.263  1.00 20.00     0.138 C 
HETATM   10  C6  UNL     1     -39.560  14.533  -4.621  1.00 20.00     0.138 C 
ENDBRANCH   3   8
TORSDOF 3
ENDMDL
MODEL 9
REMARK VINA RESULT:      -3.4      1.893      3.245
REMARK  3 active torsions:
REMARK  status: ('A' for Active; 'I' for Inactive)
REMARK    1  A    between atoms: C1_1  and  C7_7 
REMARK    2  A    between atoms: C7_7  and  C8_8 
REMARK    3  A    between atoms: N9_9  and  N10_10 
ROOT
HETATM    1  C1  UNL     1     -35.329  16.574  -2.135  1.00 20.00     0.023 C 
HETATM    2  C2  UNL     1     -34.541  16.685  -0.846  1.00 20.00     0.067 C 
HETATM    3  N9  UNL     1     -36.214  17.433  -2.548  1.00 20.00    -0.209 NA
ENDROOT
BRANCH   1   4
HETATM    4  C7  UNL     1     -35.098  15.341  -2.993  1.00 20.00     0.059 C 
BRANCH   4   5
HETATM    5  C8  UNL     1     -33.614  15.152  -3.343  1.00 20.00    -0.017 C 
HETATM    6  C3  UNL     1     -33.313  13.713  -3.765  1.00 20.00     0.010 C 
HETATM    7  C4  UNL     1     -33.216  16.116  -4.462  1.00 20.00     0.010 C 
ENDBRANCH   4   5
ENDBRANCH   1   4
BRANCH   3   8
HETATM    8  N10 UNL     1     -36.800  17.136  -3.734  1.00 20.00    -0.217 NA
HETATM    9  C5  UNL     1     -36.495  18.087  -4.809  1.00 20.00     0.138 C 
HETATM   10  C6  UNL     1     -38.254  16.975  -3.646  1.00 20.00     0.138 C 
ENDBRANCH   3   8
TORSDOF 3
ENDMDL
