MODEL 1
REMARK VINA RESULT:      -4.8      0.000      0.000
REMARK  3 active torsions:
REMARK  status: ('A' for Active; 'I' for Inactive)
REMARK    1  A    between atoms: C1_1  and  C5_5 
REMARK    2  A    between atoms: C6_6  and  C8_8 
REMARK    3  A    between atoms: C8_8  and  C9_9 
ROOT
HETATM    1  C2  UNL     1     -34.359  16.300  -4.447  1.00 20.00     0.028 C 
HETATM    2  C3  UNL     1     -33.162  14.911  -3.370  1.00 20.00     0.028 C 
HETATM    3  C4  UNL     1     -35.248  15.045  -2.979  1.00 20.00     0.028 C 
HETATM    4  C5  UNL     1     -34.422  14.764  -4.258  1.00 20.00     0.038 C 
HETATM    5  C6  UNL     1     -34.081  16.113  -2.899  1.00 20.00    -0.037 C 
ENDROOT
BRANCH   4   6
HETATM    6  C1  UNL     1     -34.680  13.733  -5.299  1.00 20.00     0.227 C 
HETATM    7  O10 UNL     1     -34.724  12.538  -5.027  1.00 20.00    -0.279 OA
HETATM    8 CL11 UNL     1     -34.899  14.436  -6.873  1.00 20.00    -0.043 Cl
ENDBRANCH   4   6
BRANCH   5   9
HETATM    9  C8  UNL     1     -33.822  17.137  -1.866  1.00 20.00     0.009 C 
BRANCH   9  10
HETATM   10  C9  UNL     1     -34.608  16.889  -0.562  1.00 20.00    -0.004 C 
HETATM   11  C7  UNL     1     -34.330  17.934   0.506  1.00 20.00     0.005 C 
ENDBRANCH   9  10
ENDBRANCH   5   9
TORSDOF 3
ENDMDL
MODEL 2
REMARK VINA RESULT:      -4.5     11.260     11.906
REMARK  3 active torsions:
REMARK  status: ('A' for Active; 'I' for Inactive)
REMARK    1  A    between atoms: C1_1  and  C5_5 
REMARK    2  A    between atoms: C6_6  and  C8_8 
REMARK    3  A    between atoms: C8_8  and  C9_9 
ROOT
HETATM    1  C2  UNL     1     -32.856   6.939   4.674  1.00 20.00     0.028 C 
HETATM    2  C3  UNL     1     -34.230   6.801   3.056  1.00 20.00     0.028 C 
HETATM    3  C4  UNL     1     -32.640   5.399   3.223  1.00 20.00     0.028 C 
HETATM    4  C5  UNL     1     -33.794   5.815   4.168  1.00 20.00     0.038 C 
HETATM    5  C6  UNL     1     -32.656   6.978   3.102  1.00 20.00    -0.037 C 
ENDROOT
BRANCH   4   6
HETATM    6  C1  UNL     1     -34.666   4.929   4.984  1.00 20.00     0.227 C 
HETATM    7  O10 UNL     1     -35.199   3.931   4.507  1.00 20.00    -0.279 OA
HETATM    8 CL11 UNL     1     -34.810   5.485   6.624  1.00 20.00    -0.043 Cl
ENDBRANCH   4   6
BRANCH   5   9
HETATM    9  C8  UNL     1     -31.791   7.861   2.293  1.00 20.00     0.009 C 
BRANCH   9  10
HETATM   10  C9  UNL     1     -32.519   9.129   1.799  1.00 20.00    -0.004 C 
HETATM   11  C7  UNL     1     -32.484   9.282   0.287  1.00 20.00     0.005 C 
ENDBRANCH   9  10
ENDBRANCH   5   9
TORSDOF 3
ENDMDL
MODEL 3
REMARK VINA RESULT:      -4.5     11.272     11.897
REMARK  3 active torsions:
REMARK  status: ('A' for Active; 'I' for Inactive)
REMARK    1  A    between atoms: C1_1  and  C5_5 
REMARK    2  A    between atoms: C6_6  and  C8_8 
REMARK    3  A    between atoms: C8_8  and  C9_9 
ROOT
HETATM    1  C2  UNL     1     -32.614   5.379   3.239  1.00 20.00     0.028 C 
HETATM    2  C3  UNL     1     -32.873   6.942   4.658  1.00 20.00     0.028 C 
HETATM    3  C4  UNL     1     -34.222   6.754   3.025  1.00 20.00     0.028 C 
HETATM    4  C5  UNL     1     -33.787   5.795   4.160  1.00 20.00     0.038 C 
HETATM    5  C6  UNL     1     -32.652   6.956   3.090  1.00 20.00    -0.037 C 
ENDROOT
BRANCH   4   6
HETATM    6  C1  UNL     1     -34.652   4.906   4.982  1.00 20.00     0.227 C 
HETATM    7  O10 UNL     1     -35.188   3.910   4.507  1.00 20.00    -0.279 OA
HETATM    8 CL11 UNL     1     -34.783   5.458   6.624  1.00 20.00    -0.043 Cl
ENDBRANCH   4   6
BRANCH   5   9
HETATM    9  C8  UNL     1     -31.790   7.838   2.276  1.00 20.00     0.009 C 
BRANCH   9  10
HETATM   10  C9  UNL     1     -32.512   9.119   1.807  1.00 20.00    -0.004 C 
HETATM   11  C7  UNL     1     -32.490   9.293   0.297  1.00 20.00     0.005 C 
ENDBRANCH   9  10
ENDBRANCH   5   9
TORSDOF 3
ENDMDL
MODEL 4
REMARK VINA RESULT:      -4.4      1.268      1.268
REMARK  3 active torsions:
REMARK  status: ('A' for Active; 'I' for Inactive)
REMARK    1  A    between atoms: C1_1  and  C5_5 
REMARK    2  A    between atoms: C6_6  and  C8_8 
REMARK    3  A    between atoms: C8_8  and  C9_9 
ROOT
HETATM    1  C2  UNL     1     -34.201  16.936  -4.077  1.00 20.00     0.028 C 
HETATM    2  C3  UNL     1     -32.912  15.404  -3.360  1.00 20.00     0.028 C 
HETATM    3  C4  UNL     1     -34.996  15.321  -2.946  1.00 20.00     0.028 C 
HETATM    4  C5  UNL     1     -34.175  15.398  -4.256  1.00 20.00     0.038 C 
HETATM    5  C6  UNL     1     -33.889  16.405  -2.617  1.00 20.00    -0.037 C 
ENDROOT
BRANCH   4   6
HETATM    6  C1  UNL     1     -34.390  14.629  -5.511  1.00 20.00     0.227 C 
HETATM    7  O10 UNL     1     -34.247  15.144  -6.616  1.00 20.00    -0.279 OA
HETATM    8 CL11 UNL     1     -34.848  12.983  -5.198  1.00 20.00    -0.043 Cl
ENDBRANCH   4   6
BRANCH   5   9
HETATM    9  C8  UNL     1     -33.673  17.170  -1.371  1.00 20.00     0.009 C 
BRANCH   9  10
HETATM   10  C9  UNL     1     -34.786  16.945  -0.326  1.00 20.00    -0.004 C 
HETATM   11  C7  UNL     1     -34.679  17.883   0.864  1.00 20.00     0.005 C 
ENDBRANCH   9  10
ENDBRANCH   5   9
TORSDOF 3
ENDMDL
MODEL 5
REMARK VINA RESULT:      -4.3      1.662      1.779
REMARK  3 active torsions:
REMARK  status: ('A' for Active; 'I' for Inactive)
REMARK    1  A    between atoms: C1_1  and  C5_5 
REMARK    2  A    between atoms: C6_6  and  C8_8 
REMARK    3  A    between atoms: C8_8  and  C9_9 
ROOT
HETATM    1  C2  UNL     1     -35.287  16.912  -3.668  1.00 20.00     0.028 C 
HETATM    2  C3  UNL     1     -33.465  15.856  -3.373  1.00 20.00     0.028 C 
HETATM    3  C4  UNL     1     -34.947  15.867  -1.849  1.00 20.00     0.028 C 
HETATM    4  C5  UNL     1     -34.955  15.437  -3.335  1.00 20.00     0.038 C 
HETATM    5  C6  UNL     1     -34.154  17.034  -2.568  1.00 20.00    -0.037 C 
ENDROOT
BRANCH   4   6
HETATM    6  C1  UNL     1     -35.567  14.216  -3.926  1.00 20.00     0.227 C 
HETATM    7  O10 UNL     1     -36.767  13.982  -3.824  1.00 20.00    -0.279 OA
HETATM    8 CL11 UNL     1     -34.394  13.226  -4.740  1.00 20.00    -0.043 Cl
ENDBRANCH   4   6
BRANCH   5   9
HETATM    9  C8  UNL     1     -33.545  18.247  -1.984  1.00 20.00     0.009 C 
BRANCH   9  10
HETATM   10  C9  UNL     1     -33.328  18.137  -0.460  1.00 20.00    -0.004 C 
HETATM   11  C7  UNL     1     -32.165  18.981   0.035  1.00 20.00     0.005 C 
ENDBRANCH   9  10
ENDBRANCH   5   9
TORSDOF 3
ENDMDL
MODEL 6
REMARK VINA RESULT:      -4.2      1.289      1.758
REMARK  3 active torsions:
REMARK  status: ('A' for Active; 'I' for Inactive)
REMARK    1  A    between atoms: C1_1  and  C5_5 
REMARK    2  A    between atoms: C6_6  and  C8_8 
REMARK    3  A    between atoms: C8_8  and  C9_9 
ROOT
HETATM    1  C2  UNL     1     -34.926  14.588  -3.442  1.00 20.00     0.028 C 
HETATM    2  C3  UNL     1     -35.510  16.575  -3.925  1.00 20.00     0.028 C 
HETATM    3  C4  UNL     1     -33.448  16.062  -3.846  1.00 20.00     0.028 C 
HETATM    4  C5  UNL     1     -34.650  15.513  -4.653  1.00 20.00     0.038 C 
HETATM    5  C6  UNL     1     -34.605  15.985  -2.767  1.00 20.00    -0.037 C 
ENDROOT
BRANCH   4   6
HETATM    6  C1  UNL     1     -34.688  15.151  -6.095  1.00 20.00     0.227 C 
HETATM    7  O10 UNL     1     -34.998  14.024  -6.470  1.00 20.00    -0.279 OA
HETATM    8 CL11 UNL     1     -34.255  16.489  -7.116  1.00 20.00    -0.043 Cl
ENDBRANCH   4   6
BRANCH   5   9
HETATM    9  C8  UNL     1     -34.570  16.343  -1.334  1.00 20.00     0.009 C 
BRANCH   9  10
HETATM   10  C9  UNL     1     -33.623  17.524  -1.032  1.00 20.00    -0.004 C 
HETATM   11  C7  UNL     1     -33.877  18.154   0.328  1.00 20.00     0.005 C 
ENDBRANCH   9  10
ENDBRANCH   5   9
TORSDOF 3
ENDMDL
MODEL 7
REMARK VINA RESULT:      -4.2     12.534     14.291
REMARK  3 active torsions:
REMARK  status: ('A' for Active; 'I' for Inactive)
REMARK    1  A    between atoms: C1_1  and  C5_5 
REMARK    2  A    between atoms: C6_6  and  C8_8 
REMARK    3  A    between atoms: C8_8  and  C9_9 
ROOT
HETATM    1  C2  UNL     1     -42.323   5.117  -2.648  1.00 20.00     0.028 C 
HETATM    2  C3  UNL     1     -42.655   4.131  -0.794  1.00 20.00     0.028 C 
HETATM    3  C4  UNL     1     -40.758   3.998  -1.745  1.00 20.00     0.028 C 
HETATM    4  C5  UNL     1     -41.626   5.187  -1.267  1.00 20.00     0.038 C 
HETATM    5  C6  UNL     1     -42.215   3.597  -2.218  1.00 20.00    -0.037 C 
ENDROOT
BRANCH   4   6
HETATM    6  C1  UNL     1     -41.180   6.405  -0.539  1.00 20.00     0.227 C 
HETATM    7  O10 UNL     1     -40.390   6.345   0.397  1.00 20.00    -0.279 OA
HETATM    8 CL11 UNL     1     -41.905   7.850  -1.178  1.00 20.00    -0.043 Cl
ENDBRANCH   4   6
BRANCH   5   9
HETATM    9  C8  UNL     1     -42.661   2.387  -2.942  1.00 20.00     0.009 C 
BRANCH   9  10
HETATM   10  C9  UNL     1     -41.570   1.799  -3.861  1.00 20.00    -0.004 C 
HETATM   11  C7  UNL     1     -41.634   0.284  -3.962  1.00 20.00     0.005 C 
ENDBRANCH   9  10
ENDBRANCH   5   9
TORSDOF 3
ENDMDL
MODEL 8
REMARK VINA RESULT:      -4.1     11.618     12.205
REMARK  3 active torsions:
REMARK  status: ('A' for Active; 'I' for Inactive)
REMARK    1  A    between atoms: C1_1  and  C5_5 
REMARK    2  A    between atoms: C6_6  and  C8_8 
REMARK    3  A    between atoms: C8_8  and  C9_9 
ROOT
HETATM    1  C2  UNL     1     -34.345   7.144   3.092  1.00 20.00     0.028 C 
HETATM    2  C3  UNL     1     -33.259   6.463   4.789  1.00 20.00     0.028 C 
HETATM    3  C4  UNL     1     -33.071   5.449   2.929  1.00 20.00     0.028 C 
HETATM    4  C5  UNL     1     -32.839   6.915   3.369  1.00 20.00     0.038 C 
HETATM    5  C6  UNL     1     -34.322   5.754   3.852  1.00 20.00    -0.037 C 
ENDROOT
BRANCH   4   6
HETATM    6  C1  UNL     1     -31.706   7.806   3.002  1.00 20.00     0.227 C 
HETATM    7  O10 UNL     1     -30.785   8.035   3.781  1.00 20.00    -0.279 OA
HETATM    8 CL11 UNL     1     -31.869   8.441   1.393  1.00 20.00    -0.043 Cl
ENDBRANCH   4   6
BRANCH   5   9
HETATM    9  C8  UNL     1     -35.449   4.871   4.219  1.00 20.00     0.009 C 
BRANCH   9  10
HETATM   10  C9  UNL     1     -35.097   3.887   5.354  1.00 20.00    -0.004 C 
HETATM   11  C7  UNL     1     -35.131   4.532   6.729  1.00 20.00     0.005 C 
ENDBRANCH   9  10
ENDBRANCH   5   9
TORSDOF 3
ENDMDL
MODEL 9
REMARK VINA RESULT:      -4.0      2.889      4.917
REMARK  3 active torsions:
REMARK  status: ('A' for Active; 'I' for Inactive)
REMARK    1  A    between atoms: C1_1  and  C5_5 
REMARK    2  A    between atoms: C6_6  and  C8_8 
REMARK    3  A    between atoms: C8_8  and  C9_9 
ROOT
HETATM    1  C2  UNL     1     -33.669  16.183  -4.412  1.00 20.00     0.028 C 
HETATM    2  C3  UNL     1     -35.667  15.670  -3.892  1.00 20.00     0.028 C 
HETATM    3  C4  UNL     1     -34.052  14.445  -3.249  1.00 20.00     0.028 C 
HETATM    4  C5  UNL     1     -34.389  15.944  -3.061  1.00 20.00     0.038 C 
HETATM    5  C6  UNL     1     -34.541  14.890  -4.688  1.00 20.00    -0.037 C 
ENDROOT
BRANCH   4   6
HETATM    6  C1  UNL     1     -34.274  16.754  -1.819  1.00 20.00     0.227 C 
HETATM    7  O10 UNL     1     -34.691  16.343  -0.740  1.00 20.00    -0.279 OA
HETATM    8 CL11 UNL     1     -33.503  18.284  -2.106  1.00 20.00    -0.043 Cl
ENDBRANCH   4   6
BRANCH   5   9
HETATM    9  C8  UNL     1     -34.656  14.088  -5.924  1.00 20.00     0.009 C 
BRANCH   9  10
HETATM   10  C9  UNL     1     -34.528  14.937  -7.207  1.00 20.00    -0.004 C 
HETATM   11  C7  UNL     1     -35.862  15.176  -7.895  1.00 20.00     0.005 C 
ENDBRANCH   9  10
ENDBRANCH   5   9
TORSDOF 3
ENDMDL
