MODEL 1
REMARK VINA RESULT:      -4.5      0.000      0.000
REMARK  0 active torsions:
REMARK  status: ('A' for Active; 'I' for Inactive)
ROOT
HETATM    1  C1  UNL     1     -33.835  17.764  -2.819  1.00 20.00     0.143 A 
HETATM    2  C2  UNL     1     -34.097  16.754  -4.824  1.00 20.00     0.059 A 
HETATM    3  C3  UNL     1     -34.676  15.662  -4.203  1.00 20.00     0.063 A 
HETATM    4  C4  UNL     1     -34.421  16.672  -2.194  1.00 20.00     0.048 A 
HETATM    5  C5  UNL     1     -34.072  16.585  -6.313  1.00 20.00     0.062 C 
HETATM    6  C6  UNL     1     -34.268  15.065  -6.431  1.00 20.00     0.016 C 
HETATM    7  C7  UNL     1     -35.116  14.636  -5.212  1.00 20.00     0.036 C 
HETATM    8  C8  UNL     1     -34.586  16.659  -0.714  1.00 20.00     0.072 C 
HETATM    9  C9  UNL     1     -34.853  13.199  -4.794  1.00 20.00     0.016 C 
HETATM   10  N10 UNL     1     -33.664  17.832  -4.158  1.00 20.00    -0.261 NA
HETATM   11  N11 UNL     1     -34.864  15.593  -2.878  1.00 20.00    -0.254 NA
ENDROOT
TORSDOF 0
ENDMDL
MODEL 2
REMARK VINA RESULT:      -4.4      1.057      3.692
REMARK  0 active torsions:
REMARK  status: ('A' for Active; 'I' for Inactive)
ROOT
HETATM    1  C1  UNL     1     -34.068  15.587  -5.424  1.00 20.00     0.143 A 
HETATM    2  C2  UNL     1     -33.791  17.317  -3.995  1.00 20.00     0.059 A 
HETATM    3  C3  UNL     1     -33.929  16.457  -2.921  1.00 20.00     0.063 A 
HETATM    4  C4  UNL     1     -34.202  14.721  -4.347  1.00 20.00     0.048 A 
HETATM    5  C5  UNL     1     -33.519  18.718  -3.540  1.00 20.00     0.062 C 
HETATM    6  C6  UNL     1     -33.992  18.642  -2.080  1.00 20.00     0.016 C 
HETATM    7  C7  UNL     1     -33.754  17.187  -1.616  1.00 20.00     0.036 C 
HETATM    8  C8  UNL     1     -34.432  13.268  -4.581  1.00 20.00     0.072 C 
HETATM    9  C9  UNL     1     -34.719  16.755  -0.526  1.00 20.00     0.016 C 
HETATM   10  N10 UNL     1     -33.853  16.912  -5.270  1.00 20.00    -0.261 NA
HETATM   11  N11 UNL     1     -34.127  15.139  -3.063  1.00 20.00    -0.254 NA
ENDROOT
TORSDOF 0
ENDMDL
MODEL 3
REMARK VINA RESULT:      -4.4      1.372      2.726
REMARK  0 active torsions:
REMARK  status: ('A' for Active; 'I' for Inactive)
ROOT
HETATM    1  C1  UNL     1     -33.665  17.334  -3.221  1.00 20.00     0.143 A 
HETATM    2  C2  UNL     1     -34.117  15.186  -3.763  1.00 20.00     0.059 A 
HETATM    3  C3  UNL     1     -34.207  15.538  -5.097  1.00 20.00     0.063 A 
HETATM    4  C4  UNL     1     -33.750  17.688  -4.560  1.00 20.00     0.048 A 
HETATM    5  C5  UNL     1     -34.313  13.713  -3.572  1.00 20.00     0.062 C 
HETATM    6  C6  UNL     1     -34.998  13.342  -4.897  1.00 20.00     0.016 C 
HETATM    7  C7  UNL     1     -34.466  14.330  -5.959  1.00 20.00     0.036 C 
HETATM    8  C8  UNL     1     -33.539  19.103  -4.973  1.00 20.00     0.072 C 
HETATM    9  C9  UNL     1     -35.458  14.570  -7.084  1.00 20.00     0.016 C 
HETATM   10  N10 UNL     1     -33.843  16.065  -2.790  1.00 20.00    -0.261 NA
HETATM   11  N11 UNL     1     -34.017  16.790  -5.535  1.00 20.00    -0.254 NA
ENDROOT
TORSDOF 0
ENDMDL
MODEL 4
REMARK VINA RESULT:      -4.4     12.435     13.910
REMARK  0 active torsions:
REMARK  status: ('A' for Active; 'I' for Inactive)
ROOT
HETATM    1  C1  UNL     1     -43.159   3.978  -3.664  1.00 20.00     0.143 A 
HETATM    2  C2  UNL     1     -42.653   5.960  -2.701  1.00 20.00     0.059 A 
HETATM    3  C3  UNL     1     -41.678   5.344  -1.938  1.00 20.00     0.063 A 
HETATM    4  C4  UNL     1     -42.177   3.359  -2.902  1.00 20.00     0.048 A 
HETATM    5  C5  UNL     1     -42.697   7.435  -2.445  1.00 20.00     0.062 C 
HETATM    6  C6  UNL     1     -41.959   7.514  -1.099  1.00 20.00     0.016 C 
HETATM    7  C7  UNL     1     -40.946   6.346  -1.085  1.00 20.00     0.036 C 
HETATM    8  C8  UNL     1     -41.936   1.896  -3.040  1.00 20.00     0.072 C 
HETATM    9  C9  UNL     1     -40.634   5.859   0.319  1.00 20.00     0.016 C 
HETATM   10  N10 UNL     1     -43.417   5.302  -3.583  1.00 20.00    -0.261 NA
HETATM   11  N11 UNL     1     -41.405   4.035  -2.023  1.00 20.00    -0.254 NA
ENDROOT
TORSDOF 0
ENDMDL
MODEL 5
REMARK VINA RESULT:      -4.3      1.766      4.013
REMARK  0 active torsions:
REMARK  status: ('A' for Active; 'I' for Inactive)
ROOT
HETATM    1  C1  UNL     1     -34.773  15.652  -7.584  1.00 20.00     0.143 A 
HETATM    2  C2  UNL     1     -34.731  14.424  -5.686  1.00 20.00     0.059 A 
HETATM    3  C3  UNL     1     -34.661  15.582  -4.934  1.00 20.00     0.063 A 
HETATM    4  C4  UNL     1     -34.708  16.816  -6.830  1.00 20.00     0.048 A 
HETATM    5  C5  UNL     1     -34.780  13.208  -4.813  1.00 20.00     0.062 C 
HETATM    6  C6  UNL     1     -34.248  13.784  -3.491  1.00 20.00     0.016 C 
HETATM    7  C7  UNL     1     -34.665  15.272  -3.461  1.00 20.00     0.036 C 
HETATM    8  C8  UNL     1     -34.697  18.143  -7.506  1.00 20.00     0.072 C 
HETATM    9  C9  UNL     1     -33.716  16.129  -2.641  1.00 20.00     0.016 C 
HETATM   10  N10 UNL     1     -34.791  14.422  -7.025  1.00 20.00    -0.261 NA
HETATM   11  N11 UNL     1     -34.658  16.806  -5.479  1.00 20.00    -0.254 NA
ENDROOT
TORSDOF 0
ENDMDL
MODEL 6
REMARK VINA RESULT:      -4.3     12.153     13.945
REMARK  0 active torsions:
REMARK  status: ('A' for Active; 'I' for Inactive)
ROOT
HETATM    1  C1  UNL     1     -41.592   3.159  -2.505  1.00 20.00     0.143 A 
HETATM    2  C2  UNL     1     -41.345   5.168  -1.500  1.00 20.00     0.059 A 
HETATM    3  C3  UNL     1     -42.427   5.660  -2.208  1.00 20.00     0.063 A 
HETATM    4  C4  UNL     1     -42.681   3.649  -3.213  1.00 20.00     0.048 A 
HETATM    5  C5  UNL     1     -40.793   6.199  -0.563  1.00 20.00     0.062 C 
HETATM    6  C6  UNL     1     -41.385   7.482  -1.168  1.00 20.00     0.016 C 
HETATM    7  C7  UNL     1     -42.729   7.082  -1.816  1.00 20.00     0.036 C 
HETATM    8  C8  UNL     1     -43.408   2.767  -4.168  1.00 20.00     0.072 C 
HETATM    9  C9  UNL     1     -43.108   7.981  -2.981  1.00 20.00     0.016 C 
HETATM   10  N10 UNL     1     -40.899   3.912  -1.623  1.00 20.00    -0.261 NA
HETATM   11  N11 UNL     1     -43.130   4.916  -3.073  1.00 20.00    -0.254 NA
ENDROOT
TORSDOF 0
ENDMDL
MODEL 7
REMARK VINA RESULT:      -4.2      1.785      1.924
REMARK  0 active torsions:
REMARK  status: ('A' for Active; 'I' for Inactive)
ROOT
HETATM    1  C1  UNL     1     -35.933  17.701  -2.203  1.00 20.00     0.143 A 
HETATM    2  C2  UNL     1     -36.071  16.118  -3.811  1.00 20.00     0.059 A 
HETATM    3  C3  UNL     1     -35.150  15.342  -3.131  1.00 20.00     0.063 A 
HETATM    4  C4  UNL     1     -35.012  16.922  -1.517  1.00 20.00     0.048 A 
HETATM    5  C5  UNL     1     -36.558  15.429  -5.048  1.00 20.00     0.062 C 
HETATM    6  C6  UNL     1     -35.452  14.379  -5.245  1.00 20.00     0.016 C 
HETATM    7  C7  UNL     1     -34.921  14.032  -3.836  1.00 20.00     0.036 C 
HETATM    8  C8  UNL     1     -34.436  17.404  -0.231  1.00 20.00     0.072 C 
HETATM    9  C9  UNL     1     -33.471  13.579  -3.853  1.00 20.00     0.016 C 
HETATM   10  N10 UNL     1     -36.490  17.312  -3.370  1.00 20.00    -0.261 NA
HETATM   11  N11 UNL     1     -34.604  15.713  -1.965  1.00 20.00    -0.254 NA
ENDROOT
TORSDOF 0
ENDMDL
MODEL 8
REMARK VINA RESULT:      -4.2      1.175      4.306
REMARK  0 active torsions:
REMARK  status: ('A' for Active; 'I' for Inactive)
ROOT
HETATM    1  C1  UNL     1     -34.424  14.197  -4.647  1.00 20.00     0.143 A 
HETATM    2  C2  UNL     1     -34.443  15.701  -2.960  1.00 20.00     0.059 A 
HETATM    3  C3  UNL     1     -34.428  16.736  -3.878  1.00 20.00     0.063 A 
HETATM    4  C4  UNL     1     -34.414  15.234  -5.570  1.00 20.00     0.048 A 
HETATM    5  C5  UNL     1     -34.508  16.218  -1.555  1.00 20.00     0.062 C 
HETATM    6  C6  UNL     1     -34.047  17.670  -1.763  1.00 20.00     0.016 C 
HETATM    7  C7  UNL     1     -34.493  18.072  -3.188  1.00 20.00     0.036 C 
HETATM    8  C8  UNL     1     -34.398  14.935  -7.029  1.00 20.00     0.072 C 
HETATM    9  C9  UNL     1     -33.597  19.134  -3.802  1.00 20.00     0.016 C 
HETATM   10  N10 UNL     1     -34.443  14.409  -3.313  1.00 20.00    -0.261 NA
HETATM   11  N11 UNL     1     -34.424  16.535  -5.203  1.00 20.00    -0.254 NA
ENDROOT
TORSDOF 0
ENDMDL
MODEL 9
REMARK VINA RESULT:      -4.2      0.966      2.501
REMARK  0 active torsions:
REMARK  status: ('A' for Active; 'I' for Inactive)
ROOT
HETATM    1  C1  UNL     1     -34.397  15.908  -2.415  1.00 20.00     0.143 A 
HETATM    2  C2  UNL     1     -34.586  14.835  -4.396  1.00 20.00     0.059 A 
HETATM    3  C3  UNL     1     -34.188  15.981  -5.059  1.00 20.00     0.063 A 
HETATM    4  C4  UNL     1     -33.992  17.058  -3.079  1.00 20.00     0.048 A 
HETATM    5  C5  UNL     1     -34.816  13.703  -5.351  1.00 20.00     0.062 C 
HETATM    6  C6  UNL     1     -34.964  14.472  -6.674  1.00 20.00     0.016 C 
HETATM    7  C7  UNL     1     -34.095  15.743  -6.543  1.00 20.00     0.036 C 
HETATM    8  C8  UNL     1     -33.666  18.289  -2.307  1.00 20.00     0.072 C 
HETATM    9  C9  UNL     1     -34.611  16.893  -7.391  1.00 20.00     0.016 C 
HETATM   10  N10 UNL     1     -34.700  14.761  -3.063  1.00 20.00    -0.261 NA
HETATM   11  N11 UNL     1     -33.870  17.117  -4.424  1.00 20.00    -0.254 NA
ENDROOT
TORSDOF 0
ENDMDL
