MODEL 1
REMARK VINA RESULT:      -5.1      0.000      0.000
REMARK  1 active torsions:
REMARK  status: ('A' for Active; 'I' for Inactive)
REMARK    1  A    between atoms: C1_1  and  C5_5 
ROOT
HETATM    1  C2  UNL     1     -33.478  13.650  -3.811  1.00 20.00     0.006 C 
HETATM    2  C3  UNL     1     -32.680  14.944  -3.596  1.00 20.00     0.006 C 
HETATM    3  C4  UNL     1     -34.242  15.318  -5.318  1.00 20.00     0.011 C 
HETATM    4  C5  UNL     1     -35.639  14.856  -3.412  1.00 20.00     0.059 C 
HETATM    5  C6  UNL     1     -34.770  14.150  -4.482  1.00 20.00    -0.003 C 
HETATM    6  C7  UNL     1     -33.643  16.036  -4.104  1.00 20.00    -0.006 C 
HETATM    7  C8  UNL     1     -34.889  16.203  -3.171  1.00 20.00    -0.034 C 
HETATM    8  C9  UNL     1     -35.686  17.459  -3.584  1.00 20.00     0.016 C 
HETATM    9  C10 UNL     1     -34.524  16.371  -1.687  1.00 20.00     0.016 C 
ENDROOT
BRANCH   4  10
HETATM   10  C1  UNL     1     -37.056  14.993  -3.886  1.00 20.00     0.236 C 
HETATM   11  O11 UNL     1     -37.918  14.141  -3.696  1.00 20.00    -0.306 OA
ENDBRANCH   4  10
TORSDOF 1
ENDMDL
MODEL 2
REMARK VINA RESULT:      -5.0      1.506      2.613
REMARK  1 active torsions:
REMARK  status: ('A' for Active; 'I' for Inactive)
REMARK    1  A    between atoms: C1_1  and  C5_5 
ROOT
HETATM    1  C2  UNL     1     -34.508  16.053  -2.064  1.00 20.00     0.006 C 
HETATM    2  C3  UNL     1     -33.911  17.245  -2.825  1.00 20.00     0.006 C 
HETATM    3  C4  UNL     1     -32.909  15.274  -3.636  1.00 20.00     0.011 C 
HETATM    4  C5  UNL     1     -35.227  14.977  -4.211  1.00 20.00     0.059 C 
HETATM    5  C6  UNL     1     -34.248  14.872  -3.016  1.00 20.00    -0.003 C 
HETATM    6  C7  UNL     1     -33.446  16.614  -4.152  1.00 20.00    -0.006 C 
HETATM    7  C8  UNL     1     -34.650  16.164  -5.045  1.00 20.00    -0.034 C 
HETATM    8  C9  UNL     1     -34.143  15.769  -6.448  1.00 20.00     0.016 C 
HETATM    9  C10 UNL     1     -35.709  17.262  -5.243  1.00 20.00     0.016 C 
ENDROOT
BRANCH   4  10
HETATM   10  C1  UNL     1     -35.315  13.670  -4.942  1.00 20.00     0.236 C 
HETATM   11  O11 UNL     1     -35.030  12.591  -4.433  1.00 20.00    -0.306 OA
ENDBRANCH   4  10
TORSDOF 1
ENDMDL
MODEL 3
REMARK VINA RESULT:      -4.8      1.453      3.144
REMARK  1 active torsions:
REMARK  status: ('A' for Active; 'I' for Inactive)
REMARK    1  A    between atoms: C1_1  and  C5_5 
ROOT
HETATM    1  C2  UNL     1     -36.328  16.967  -3.485  1.00 20.00     0.006 C 
HETATM    2  C3  UNL     1     -35.058  17.823  -3.374  1.00 20.00     0.006 C 
HETATM    3  C4  UNL     1     -34.826  15.967  -1.943  1.00 20.00     0.011 C 
HETATM    4  C5  UNL     1     -34.978  14.953  -4.121  1.00 20.00     0.059 C 
HETATM    5  C6  UNL     1     -35.852  15.582  -3.009  1.00 20.00    -0.003 C 
HETATM    6  C7  UNL     1     -33.992  16.806  -2.918  1.00 20.00    -0.006 C 
HETATM    7  C8  UNL     1     -33.649  15.768  -4.037  1.00 20.00    -0.034 C 
HETATM    8  C9  UNL     1     -32.416  14.937  -3.620  1.00 20.00     0.016 C 
HETATM    9  C10 UNL     1     -33.316  16.417  -5.391  1.00 20.00     0.016 C 
ENDROOT
BRANCH   4  10
HETATM   10  C1  UNL     1     -34.831  13.475  -3.909  1.00 20.00     0.236 C 
HETATM   11  O11 UNL     1     -34.844  12.657  -4.822  1.00 20.00    -0.306 OA
ENDBRANCH   4  10
TORSDOF 1
ENDMDL
MODEL 4
REMARK VINA RESULT:      -4.7      1.091      2.431
REMARK  1 active torsions:
REMARK  status: ('A' for Active; 'I' for Inactive)
REMARK    1  A    between atoms: C1_1  and  C5_5 
ROOT
HETATM    1  C2  UNL     1     -34.172  15.756  -2.707  1.00 20.00     0.006 C 
HETATM    2  C3  UNL     1     -33.111  15.525  -3.793  1.00 20.00     0.006 C 
HETATM    3  C4  UNL     1     -34.579  13.684  -3.791  1.00 20.00     0.011 C 
HETATM    4  C5  UNL     1     -36.017  15.520  -4.386  1.00 20.00     0.059 C 
HETATM    5  C6  UNL     1     -35.335  14.858  -3.165  1.00 20.00    -0.003 C 
HETATM    6  C7  UNL     1     -33.824  14.579  -4.780  1.00 20.00    -0.006 C 
HETATM    7  C8  UNL     1     -34.992  15.290  -5.540  1.00 20.00    -0.034 C 
HETATM    8  C9  UNL     1     -35.506  14.381  -6.678  1.00 20.00     0.016 C 
HETATM    9  C10 UNL     1     -34.580  16.624  -6.184  1.00 20.00     0.016 C 
ENDROOT
BRANCH   4  10
HETATM   10  C1  UNL     1     -37.378  14.931  -4.618  1.00 20.00     0.236 C 
HETATM   11  O11 UNL     1     -37.983  14.277  -3.775  1.00 20.00    -0.306 OA
ENDBRANCH   4  10
TORSDOF 1
ENDMDL
MODEL 5
REMARK VINA RESULT:      -4.6      2.159      3.353
REMARK  1 active torsions:
REMARK  status: ('A' for Active; 'I' for Inactive)
REMARK    1  A    between atoms: C1_1  and  C5_5 
ROOT
HETATM    1  C2  UNL     1     -33.422  13.749  -3.767  1.00 20.00     0.006 C 
HETATM    2  C3  UNL     1     -34.594  13.232  -4.613  1.00 20.00     0.006 C 
HETATM    3  C4  UNL     1     -35.352  15.064  -3.342  1.00 20.00     0.011 C 
HETATM    4  C5  UNL     1     -33.660  16.044  -4.747  1.00 20.00     0.059 C 
HETATM    5  C6  UNL     1     -33.833  15.201  -3.460  1.00 20.00    -0.003 C 
HETATM    6  C7  UNL     1     -35.500  14.472  -4.749  1.00 20.00    -0.006 C 
HETATM    7  C8  UNL     1     -34.852  15.581  -5.643  1.00 20.00    -0.034 C 
HETATM    8  C9  UNL     1     -35.890  16.684  -5.943  1.00 20.00     0.016 C 
HETATM    9  C10 UNL     1     -34.349  15.057  -6.998  1.00 20.00     0.016 C 
ENDROOT
BRANCH   4  10
HETATM   10  C1  UNL     1     -33.641  17.509  -4.422  1.00 20.00     0.236 C 
HETATM   11  O11 UNL     1     -33.587  17.947  -3.278  1.00 20.00    -0.306 OA
ENDBRANCH   4  10
TORSDOF 1
ENDMDL
MODEL 6
REMARK VINA RESULT:      -4.6      1.326      2.430
REMARK  1 active torsions:
REMARK  status: ('A' for Active; 'I' for Inactive)
REMARK    1  A    between atoms: C1_1  and  C5_5 
ROOT
HETATM    1  C2  UNL     1     -35.520  14.768  -7.126  1.00 20.00     0.006 C 
HETATM    2  C3  UNL     1     -34.079  15.128  -6.738  1.00 20.00     0.006 C 
HETATM    3  C4  UNL     1     -35.533  16.635  -5.660  1.00 20.00     0.011 C 
HETATM    4  C5  UNL     1     -36.160  14.511  -4.717  1.00 20.00     0.059 C 
HETATM    5  C6  UNL     1     -36.348  15.381  -5.983  1.00 20.00    -0.003 C 
HETATM    6  C7  UNL     1     -34.252  15.841  -5.381  1.00 20.00    -0.006 C 
HETATM    7  C8  UNL     1     -34.711  14.858  -4.253  1.00 20.00    -0.034 C 
HETATM    8  C9  UNL     1     -34.632  15.563  -2.882  1.00 20.00     0.016 C 
HETATM    9  C10 UNL     1     -33.846  13.590  -4.157  1.00 20.00     0.016 C 
ENDROOT
BRANCH   4  10
HETATM   10  C1  UNL     1     -37.236  14.798  -3.711  1.00 20.00     0.236 C 
HETATM   11  O11 UNL     1     -38.326  14.236  -3.708  1.00 20.00    -0.306 OA
ENDBRANCH   4  10
TORSDOF 1
ENDMDL
MODEL 7
REMARK VINA RESULT:      -4.5      1.023      2.878
REMARK  1 active torsions:
REMARK  status: ('A' for Active; 'I' for Inactive)
REMARK    1  A    between atoms: C1_1  and  C5_5 
ROOT
HETATM    1  C2  UNL     1     -34.508  17.665  -4.503  1.00 20.00     0.006 C 
HETATM    2  C3  UNL     1     -33.299  16.938  -5.109  1.00 20.00     0.006 C 
HETATM    3  C4  UNL     1     -33.822  15.915  -3.053  1.00 20.00     0.011 C 
HETATM    4  C5  UNL     1     -35.798  15.521  -4.370  1.00 20.00     0.059 C 
HETATM    5  C6  UNL     1     -35.092  16.618  -3.538  1.00 20.00    -0.003 C 
HETATM    6  C7  UNL     1     -33.381  15.536  -4.471  1.00 20.00    -0.006 C 
HETATM    7  C8  UNL     1     -34.611  14.721  -4.993  1.00 20.00    -0.034 C 
HETATM    8  C9  UNL     1     -34.509  13.256  -4.516  1.00 20.00     0.016 C 
HETATM    9  C10 UNL     1     -34.716  14.687  -6.527  1.00 20.00     0.016 C 
ENDROOT
BRANCH   4  10
HETATM   10  C1  UNL     1     -36.725  14.714  -3.508  1.00 20.00     0.236 C 
HETATM   11  O11 UNL     1     -37.782  14.241  -3.911  1.00 20.00    -0.306 OA
ENDBRANCH   4  10
TORSDOF 1
ENDMDL
MODEL 8
REMARK VINA RESULT:      -4.5      2.114      3.008
REMARK  1 active torsions:
REMARK  status: ('A' for Active; 'I' for Inactive)
REMARK    1  A    between atoms: C1_1  and  C5_5 
ROOT
HETATM    1  C2  UNL     1     -34.569  14.255  -5.735  1.00 20.00     0.006 C 
HETATM    2  C3  UNL     1     -35.052  13.418  -4.541  1.00 20.00     0.006 C 
HETATM    3  C4  UNL     1     -33.127  14.603  -3.882  1.00 20.00     0.011 C 
HETATM    4  C5  UNL     1     -34.697  16.359  -4.379  1.00 20.00     0.059 C 
HETATM    5  C6  UNL     1     -33.733  15.360  -5.065  1.00 20.00    -0.003 C 
HETATM    6  C7  UNL     1     -34.495  14.189  -3.328  1.00 20.00    -0.006 C 
HETATM    7  C8  UNL     1     -35.203  15.571  -3.130  1.00 20.00    -0.034 C 
HETATM    8  C9  UNL     1     -34.784  16.185  -1.777  1.00 20.00     0.016 C 
HETATM    9  C10 UNL     1     -36.737  15.476  -3.125  1.00 20.00     0.016 C 
ENDROOT
BRANCH   4  10
HETATM   10  C1  UNL     1     -33.995  17.650  -4.075  1.00 20.00     0.236 C 
HETATM   11  O11 UNL     1     -33.348  18.279  -4.906  1.00 20.00    -0.306 OA
ENDBRANCH   4  10
TORSDOF 1
ENDMDL
MODEL 9
REMARK VINA RESULT:      -4.5      1.968      3.107
REMARK  1 active torsions:
REMARK  status: ('A' for Active; 'I' for Inactive)
REMARK    1  A    between atoms: C1_1  and  C5_5 
ROOT
HETATM    1  C2  UNL     1     -34.796  14.944  -7.814  1.00 20.00     0.006 C 
HETATM    2  C3  UNL     1     -35.094  16.434  -7.593  1.00 20.00     0.006 C 
HETATM    3  C4  UNL     1     -36.538  15.179  -6.220  1.00 20.00     0.011 C 
HETATM    4  C5  UNL     1     -34.358  14.615  -5.369  1.00 20.00     0.059 C 
HETATM    5  C6  UNL     1     -35.332  14.291  -6.528  1.00 20.00    -0.003 C 
HETATM    6  C7  UNL     1     -35.698  16.461  -6.175  1.00 20.00    -0.006 C 
HETATM    7  C8  UNL     1     -34.638  16.122  -5.075  1.00 20.00    -0.034 C 
HETATM    8  C9  UNL     1     -35.228  16.400  -3.675  1.00 20.00     0.016 C 
HETATM    9  C10 UNL     1     -33.349  16.953  -5.191  1.00 20.00     0.016 C 
ENDROOT
BRANCH   4  10
HETATM   10  C1  UNL     1     -34.586  13.688  -4.210  1.00 20.00     0.236 C 
HETATM   11  O11 UNL     1     -35.077  12.571  -4.325  1.00 20.00    -0.306 OA
ENDBRANCH   4  10
TORSDOF 1
ENDMDL
