MODEL 1
REMARK VINA RESULT:      -4.0      0.000      0.000
REMARK  2 active torsions:
REMARK  status: ('A' for Active; 'I' for Inactive)
REMARK       I    between atoms: C1_1  and  N9_9 
REMARK    1  A    between atoms: C7_7  and  C8_8 
REMARK    2  A    between atoms: C7_7  and  N9_9 
ROOT
HETATM    1  C3  UNL     1     -34.662  16.031  -2.049  1.00 20.00     0.033 C 
HETATM    2  C7  UNL     1     -35.215  15.178  -3.192  1.00 20.00     0.087 C 
ENDROOT
BRANCH   2   3
HETATM    3  C8  UNL     1     -34.152  14.711  -4.240  1.00 20.00    -0.031 C 
HETATM    4  C4  UNL     1     -34.151  15.596  -5.501  1.00 20.00     0.016 C 
HETATM    5  C5  UNL     1     -32.739  14.742  -3.621  1.00 20.00     0.016 C 
HETATM    6  C6  UNL     1     -34.442  13.254  -4.666  1.00 20.00     0.016 C 
ENDBRANCH   2   3
BRANCH   2   7
HETATM    7  N9  UNL     1     -36.313  15.887  -3.815  1.00 20.00    -0.356 N 
HETATM    8  C1  UNL     1     -37.556  15.321  -4.016  1.00 20.00     0.213 C 
HETATM    9  C2  UNL     1     -38.537  16.234  -4.674  1.00 20.00     0.117 C 
HETATM   10  O10 UNL     1     -37.899  14.185  -3.711  1.00 20.00    -0.274 OA
HETATM   11  H27 UNL     1     -36.162  16.843  -4.118  1.00 20.00     0.162 HD
ENDBRANCH   2   7
TORSDOF 2
ENDMDL
MODEL 2
REMARK VINA RESULT:      -4.0      0.044      1.382
REMARK  2 active torsions:
REMARK  status: ('A' for Active; 'I' for Inactive)
REMARK       I    between atoms: C1_1  and  N9_9 
REMARK    1  A    between atoms: C7_7  and  C8_8 
REMARK    2  A    between atoms: C7_7  and  N9_9 
ROOT
HETATM    1  C3  UNL     1     -34.678  16.028  -2.055  1.00 20.00     0.033 C 
HETATM    2  C7  UNL     1     -35.211  15.160  -3.197  1.00 20.00     0.087 C 
ENDROOT
BRANCH   2   3
HETATM    3  C8  UNL     1     -34.132  14.690  -4.226  1.00 20.00    -0.031 C 
HETATM    4  C4  UNL     1     -32.714  14.690  -3.623  1.00 20.00     0.016 C 
HETATM    5  C5  UNL     1     -34.449  13.265  -4.724  1.00 20.00     0.016 C 
HETATM    6  C6  UNL     1     -34.139  15.626  -5.456  1.00 20.00     0.016 C 
ENDBRANCH   2   3
BRANCH   2   7
HETATM    7  N9  UNL     1     -36.305  15.856  -3.840  1.00 20.00    -0.356 N 
HETATM    8  C1  UNL     1     -37.550  15.289  -4.031  1.00 20.00     0.213 C 
HETATM    9  C2  UNL     1     -38.526  16.188  -4.714  1.00 20.00     0.117 C 
HETATM   10  O10 UNL     1     -37.895  14.161  -3.700  1.00 20.00    -0.274 OA
HETATM   11  H27 UNL     1     -36.152  16.805  -4.166  1.00 20.00     0.162 HD
ENDBRANCH   2   7
TORSDOF 2
ENDMDL
MODEL 3
REMARK VINA RESULT:      -3.9      2.044      3.342
REMARK  2 active torsions:
REMARK  status: ('A' for Active; 'I' for Inactive)
REMARK       I    between atoms: C1_1  and  N9_9 
REMARK    1  A    between atoms: C7_7  and  C8_8 
REMARK    2  A    between atoms: C7_7  and  N9_9 
ROOT
HETATM    1  C3  UNL     1     -36.790  14.701  -3.818  1.00 20.00     0.033 C 
HETATM    2  C7  UNL     1     -35.512  15.536  -3.708  1.00 20.00     0.087 C 
ENDROOT
BRANCH   2   3
HETATM    3  C8  UNL     1     -34.288  14.975  -4.504  1.00 20.00    -0.031 C 
HETATM    4  C4  UNL     1     -33.565  13.849  -3.741  1.00 20.00     0.016 C 
HETATM    5  C5  UNL     1     -34.744  14.423  -5.871  1.00 20.00     0.016 C 
HETATM    6  C6  UNL     1     -33.275  16.111  -4.774  1.00 20.00     0.016 C 
ENDBRANCH   2   3
BRANCH   2   7
HETATM    7  N9  UNL     1     -35.202  15.733  -2.307  1.00 20.00    -0.356 N 
HETATM    8  C1  UNL     1     -35.060  16.982  -1.736  1.00 20.00     0.213 C 
HETATM    9  C2  UNL     1     -34.743  16.949  -0.278  1.00 20.00     0.117 C 
HETATM   10  O10 UNL     1     -35.170  18.061  -2.306  1.00 20.00    -0.274 OA
HETATM   11  H27 UNL     1     -35.084  14.916  -1.718  1.00 20.00     0.162 HD
ENDBRANCH   2   7
TORSDOF 2
ENDMDL
MODEL 4
REMARK VINA RESULT:      -3.9      2.047      3.045
REMARK  2 active torsions:
REMARK  status: ('A' for Active; 'I' for Inactive)
REMARK       I    between atoms: C1_1  and  N9_9 
REMARK    1  A    between atoms: C7_7  and  C8_8 
REMARK    2  A    between atoms: C7_7  and  N9_9 
ROOT
HETATM    1  C3  UNL     1     -36.794  14.692  -3.819  1.00 20.00     0.033 C 
HETATM    2  C7  UNL     1     -35.533  15.552  -3.705  1.00 20.00     0.087 C 
ENDROOT
BRANCH   2   3
HETATM    3  C8  UNL     1     -34.299  15.020  -4.505  1.00 20.00    -0.031 C 
HETATM    4  C4  UNL     1     -33.254  16.123  -4.761  1.00 20.00     0.016 C 
HETATM    5  C5  UNL     1     -33.615  13.870  -3.736  1.00 20.00     0.016 C 
HETATM    6  C6  UNL     1     -34.762  14.460  -5.869  1.00 20.00     0.016 C 
ENDBRANCH   2   3
BRANCH   2   7
HETATM    7  N9  UNL     1     -35.227  15.746  -2.303  1.00 20.00    -0.356 N 
HETATM    8  C1  UNL     1     -35.071  16.994  -1.733  1.00 20.00     0.213 C 
HETATM    9  C2  UNL     1     -34.759  16.959  -0.274  1.00 20.00     0.117 C 
HETATM   10  O10 UNL     1     -35.165  18.074  -2.305  1.00 20.00    -0.274 OA
HETATM   11  H27 UNL     1     -35.121  14.929  -1.712  1.00 20.00     0.162 HD
ENDBRANCH   2   7
TORSDOF 2
ENDMDL
MODEL 5
REMARK VINA RESULT:      -3.8      2.223      4.254
REMARK  2 active torsions:
REMARK  status: ('A' for Active; 'I' for Inactive)
REMARK       I    between atoms: C1_1  and  N9_9 
REMARK    1  A    between atoms: C7_7  and  C8_8 
REMARK    2  A    between atoms: C7_7  and  N9_9 
ROOT
HETATM    1  C3  UNL     1     -35.098  14.735  -7.822  1.00 20.00     0.033 C 
HETATM    2  C7  UNL     1     -35.644  14.607  -6.398  1.00 20.00     0.087 C 
ENDROOT
BRANCH   2   3
HETATM    3  C8  UNL     1     -36.715  15.675  -6.004  1.00 20.00    -0.031 C 
HETATM    4  C4  UNL     1     -37.706  15.144  -4.950  1.00 20.00     0.016 C 
HETATM    5  C5  UNL     1     -36.032  16.938  -5.438  1.00 20.00     0.016 C 
HETATM    6  C6  UNL     1     -37.516  16.100  -7.256  1.00 20.00     0.016 C 
ENDBRANCH   2   3
BRANCH   2   7
HETATM    7  N9  UNL     1     -34.531  14.589  -5.472  1.00 20.00    -0.356 N 
HETATM    8  C1  UNL     1     -34.354  13.597  -4.527  1.00 20.00     0.213 C 
HETATM    9  C2  UNL     1     -33.139  13.778  -3.680  1.00 20.00     0.117 C 
HETATM   10  O10 UNL     1     -35.081  12.628  -4.342  1.00 20.00    -0.274 OA
HETATM   11  H27 UNL     1     -33.850  15.339  -5.518  1.00 20.00     0.162 HD
ENDBRANCH   2   7
TORSDOF 2
ENDMDL
MODEL 6
REMARK VINA RESULT:      -3.7      1.966      2.965
REMARK  2 active torsions:
REMARK  status: ('A' for Active; 'I' for Inactive)
REMARK       I    between atoms: C1_1  and  N9_9 
REMARK    1  A    between atoms: C7_7  and  C8_8 
REMARK    2  A    between atoms: C7_7  and  N9_9 
ROOT
HETATM    1  C3  UNL     1     -34.521  13.362  -4.738  1.00 20.00     0.033 C 
HETATM    2  C7  UNL     1     -34.989  14.808  -4.556  1.00 20.00     0.087 C 
ENDROOT
BRANCH   2   3
HETATM    3  C8  UNL     1     -34.612  15.775  -5.725  1.00 20.00    -0.031 C 
HETATM    4  C4  UNL     1     -35.721  16.807  -6.006  1.00 20.00     0.016 C 
HETATM    5  C5  UNL     1     -33.311  16.535  -5.395  1.00 20.00     0.016 C 
HETATM    6  C6  UNL     1     -34.363  14.963  -7.016  1.00 20.00     0.016 C 
ENDBRANCH   2   3
BRANCH   2   7
HETATM    7  N9  UNL     1     -34.514  15.294  -3.277  1.00 20.00    -0.356 N 
HETATM    8  C1  UNL     1     -35.276  16.090  -2.445  1.00 20.00     0.213 C 
HETATM    9  C2  UNL     1     -34.588  16.473  -1.177  1.00 20.00     0.117 C 
HETATM   10  O10 UNL     1     -36.416  16.486  -2.657  1.00 20.00    -0.274 OA
HETATM   11  H27 UNL     1     -33.579  15.038  -2.978  1.00 20.00     0.162 HD
ENDBRANCH   2   7
TORSDOF 2
ENDMDL
MODEL 7
REMARK VINA RESULT:      -3.7      2.493      3.644
REMARK  2 active torsions:
REMARK  status: ('A' for Active; 'I' for Inactive)
REMARK       I    between atoms: C1_1  and  N9_9 
REMARK    1  A    between atoms: C7_7  and  C8_8 
REMARK    2  A    between atoms: C7_7  and  N9_9 
ROOT
HETATM    1  C3  UNL     1     -34.428  16.583  -1.142  1.00 20.00     0.033 C 
HETATM    2  C7  UNL     1     -34.032  16.482  -2.617  1.00 20.00     0.087 C 
ENDROOT
BRANCH   2   3
HETATM    3  C8  UNL     1     -34.189  17.806  -3.434  1.00 20.00    -0.031 C 
HETATM    4  C4  UNL     1     -33.596  19.019  -2.694  1.00 20.00     0.016 C 
HETATM    5  C5  UNL     1     -33.489  17.679  -4.802  1.00 20.00     0.016 C 
HETATM    6  C6  UNL     1     -35.687  18.081  -3.700  1.00 20.00     0.016 C 
ENDBRANCH   2   3
BRANCH   2   7
HETATM    7  N9  UNL     1     -34.757  15.384  -3.220  1.00 20.00    -0.356 N 
HETATM    8  C1  UNL     1     -34.137  14.252  -3.713  1.00 20.00     0.213 C 
HETATM    9  C2  UNL     1     -35.079  13.248  -4.289  1.00 20.00     0.117 C 
HETATM   10  O10 UNL     1     -32.934  14.022  -3.712  1.00 20.00    -0.274 OA
HETATM   11  H27 UNL     1     -35.767  15.448  -3.284  1.00 20.00     0.162 HD
ENDBRANCH   2   7
TORSDOF 2
ENDMDL
MODEL 8
REMARK VINA RESULT:      -3.7      2.129      3.566
REMARK  2 active torsions:
REMARK  status: ('A' for Active; 'I' for Inactive)
REMARK       I    between atoms: C1_1  and  N9_9 
REMARK    1  A    between atoms: C7_7  and  C8_8 
REMARK    2  A    between atoms: C7_7  and  N9_9 
ROOT
HETATM    1  C3  UNL     1     -32.615  14.260  -3.518  1.00 20.00     0.033 C 
HETATM    2  C7  UNL     1     -33.960  14.928  -3.225  1.00 20.00     0.087 C 
ENDROOT
BRANCH   2   3
HETATM    3  C8  UNL     1     -35.047  14.733  -4.332  1.00 20.00    -0.031 C 
HETATM    4  C4  UNL     1     -34.911  13.376  -5.049  1.00 20.00     0.016 C 
HETATM    5  C5  UNL     1     -36.460  14.821  -3.719  1.00 20.00     0.016 C 
HETATM    6  C6  UNL     1     -34.927  15.856  -5.387  1.00 20.00     0.016 C 
ENDBRANCH   2   3
BRANCH   2   7
HETATM    7  N9  UNL     1     -33.732  16.327  -2.931  1.00 20.00    -0.356 N 
HETATM    8  C1  UNL     1     -34.083  16.911  -1.730  1.00 20.00     0.213 C 
HETATM    9  C2  UNL     1     -33.754  18.364  -1.644  1.00 20.00     0.117 C 
HETATM   10  O10 UNL     1     -34.617  16.354  -0.778  1.00 20.00    -0.274 OA
HETATM   11  H27 UNL     1     -33.295  16.906  -3.640  1.00 20.00     0.162 HD
ENDBRANCH   2   7
TORSDOF 2
ENDMDL
MODEL 9
REMARK VINA RESULT:      -3.7      1.225      2.300
REMARK  2 active torsions:
REMARK  status: ('A' for Active; 'I' for Inactive)
REMARK       I    between atoms: C1_1  and  N9_9 
REMARK    1  A    between atoms: C7_7  and  C8_8 
REMARK    2  A    between atoms: C7_7  and  N9_9 
ROOT
HETATM    1  C3  UNL     1     -34.671  13.209  -4.822  1.00 20.00     0.033 C 
HETATM    2  C7  UNL     1     -35.020  14.668  -4.523  1.00 20.00     0.087 C 
ENDROOT
BRANCH   2   3
HETATM    3  C8  UNL     1     -33.926  15.460  -3.735  1.00 20.00    -0.031 C 
HETATM    4  C4  UNL     1     -32.643  14.632  -3.532  1.00 20.00     0.016 C 
HETATM    5  C5  UNL     1     -33.556  16.756  -4.485  1.00 20.00     0.016 C 
HETATM    6  C6  UNL     1     -34.471  15.864  -2.346  1.00 20.00     0.016 C 
ENDBRANCH   2   3
BRANCH   2   7
HETATM    7  N9  UNL     1     -36.306  14.714  -3.859  1.00 20.00    -0.356 N 
HETATM    8  C1  UNL     1     -37.488  14.977  -4.522  1.00 20.00     0.213 C 
HETATM    9  C2  UNL     1     -38.691  14.974  -3.640  1.00 20.00     0.117 C 
HETATM   10  O10 UNL     1     -37.617  15.201  -5.720  1.00 20.00    -0.274 OA
HETATM   11  H27 UNL     1     -36.340  14.546  -2.859  1.00 20.00     0.162 HD
ENDBRANCH   2   7
TORSDOF 2
ENDMDL
