MODEL 1
REMARK VINA RESULT:      -4.2      0.000      0.000
REMARK  2 active torsions:
REMARK  status: ('A' for Active; 'I' for Inactive)
REMARK    1  A    between atoms: C1_1  and  C6_6 
REMARK    2  A    between atoms: C7_7  and  N8_8 
ROOT
HETATM    1  C3  UNL     1     -34.605   3.784   5.379  1.00 20.00     0.039 C 
HETATM    2  C4  UNL     1     -34.454   6.157   6.192  1.00 20.00     0.039 C 
HETATM    3  C5  UNL     1     -35.638   5.644   4.036  1.00 20.00     0.039 C 
HETATM    4  C7  UNL     1     -34.489   5.250   4.962  1.00 20.00     0.042 C 
ENDROOT
BRANCH   4   5
HETATM    5  N8  UNL     1     -33.225   5.428   4.236  1.00 20.00    -0.296 NA
HETATM    6  C1  UNL     1     -33.149   6.570   3.654  1.00 20.00     0.084 C 
BRANCH   6   7
HETATM    7  C6  UNL     1     -31.930   6.933   2.854  1.00 20.00     0.042 C 
HETATM    8  C2  UNL     1     -32.173   8.228   2.102  1.00 20.00     0.010 C 
ENDBRANCH   6   7
ENDBRANCH   4   5
TORSDOF 2
ENDMDL
MODEL 2
REMARK VINA RESULT:      -4.2      0.074      1.538
REMARK  2 active torsions:
REMARK  status: ('A' for Active; 'I' for Inactive)
REMARK    1  A    between atoms: C1_1  and  C6_6 
REMARK    2  A    between atoms: C7_7  and  N8_8 
ROOT
HETATM    1  C3  UNL     1     -34.439   6.189   6.188  1.00 20.00     0.039 C 
HETATM    2  C4  UNL     1     -35.697   5.683   4.072  1.00 20.00     0.039 C 
HETATM    3  C5  UNL     1     -34.683   3.810   5.405  1.00 20.00     0.039 C 
HETATM    4  C7  UNL     1     -34.534   5.267   4.972  1.00 20.00     0.042 C 
ENDROOT
BRANCH   4   5
HETATM    5  N8  UNL     1     -33.295   5.396   4.194  1.00 20.00    -0.296 NA
HETATM    6  C1  UNL     1     -33.116   6.588   3.748  1.00 20.00     0.084 C 
BRANCH   6   7
HETATM    7  C6  UNL     1     -31.905   6.914   2.923  1.00 20.00     0.042 C 
HETATM    8  C2  UNL     1     -32.148   8.182   2.126  1.00 20.00     0.010 C 
ENDBRANCH   6   7
ENDBRANCH   4   5
TORSDOF 2
ENDMDL
MODEL 3
REMARK VINA RESULT:      -4.2      0.067      1.562
REMARK  2 active torsions:
REMARK  status: ('A' for Active; 'I' for Inactive)
REMARK    1  A    between atoms: C1_1  and  C6_6 
REMARK    2  A    between atoms: C7_7  and  N8_8 
ROOT
HETATM    1  C3  UNL     1     -35.668   5.711   4.055  1.00 20.00     0.039 C 
HETATM    2  C4  UNL     1     -34.693   3.772   5.323  1.00 20.00     0.039 C 
HETATM    3  C5  UNL     1     -34.488   6.102   6.243  1.00 20.00     0.039 C 
HETATM    4  C7  UNL     1     -34.536   5.252   4.975  1.00 20.00     0.042 C 
ENDROOT
BRANCH   4   5
HETATM    5  N8  UNL     1     -33.263   5.414   4.259  1.00 20.00    -0.296 NA
HETATM    6  C1  UNL     1     -33.159   6.562   3.695  1.00 20.00     0.084 C 
BRANCH   6   7
HETATM    7  C6  UNL     1     -31.928   6.912   2.909  1.00 20.00     0.042 C 
HETATM    8  C2  UNL     1     -32.164   8.185   2.118  1.00 20.00     0.010 C 
ENDBRANCH   6   7
ENDBRANCH   4   5
TORSDOF 2
ENDMDL
MODEL 4
REMARK VINA RESULT:      -3.6     11.310     12.310
REMARK  2 active torsions:
REMARK  status: ('A' for Active; 'I' for Inactive)
REMARK    1  A    between atoms: C1_1  and  C6_6 
REMARK    2  A    between atoms: C7_7  and  N8_8 
ROOT
HETATM    1  C3  UNL     1     -35.794  14.013  -4.135  1.00 20.00     0.039 C 
HETATM    2  C4  UNL     1     -34.117  15.681  -4.986  1.00 20.00     0.039 C 
HETATM    3  C5  UNL     1     -33.337  13.651  -3.726  1.00 20.00     0.039 C 
HETATM    4  C7  UNL     1     -34.448  14.689  -3.871  1.00 20.00     0.042 C 
ENDROOT
BRANCH   4   5
HETATM    5  N8  UNL     1     -34.546  15.443  -2.613  1.00 20.00    -0.296 NA
HETATM    6  C1  UNL     1     -33.752  16.451  -2.582  1.00 20.00     0.084 C 
BRANCH   6   7
HETATM    7  C6  UNL     1     -33.704  17.341  -1.372  1.00 20.00     0.042 C 
HETATM    8  C2  UNL     1     -34.752  16.903  -0.366  1.00 20.00     0.010 C 
ENDBRANCH   6   7
ENDBRANCH   4   5
TORSDOF 2
ENDMDL
MODEL 5
REMARK VINA RESULT:      -3.6     11.359     12.328
REMARK  2 active torsions:
REMARK  status: ('A' for Active; 'I' for Inactive)
REMARK    1  A    between atoms: C1_1  and  C6_6 
REMARK    2  A    between atoms: C7_7  and  N8_8 
ROOT
HETATM    1  C3  UNL     1     -34.186  15.687  -5.053  1.00 20.00     0.039 C 
HETATM    2  C4  UNL     1     -33.415  13.638  -3.818  1.00 20.00     0.039 C 
HETATM    3  C5  UNL     1     -35.869  14.027  -4.192  1.00 20.00     0.039 C 
HETATM    4  C7  UNL     1     -34.517  14.690  -3.942  1.00 20.00     0.042 C 
ENDROOT
BRANCH   4   5
HETATM    5  N8  UNL     1     -34.586  15.421  -2.669  1.00 20.00    -0.296 NA
HETATM    6  C1  UNL     1     -33.754  16.398  -2.617  1.00 20.00     0.084 C 
BRANCH   6   7
HETATM    7  C6  UNL     1     -33.673  17.260  -1.390  1.00 20.00     0.042 C 
HETATM    8  C2  UNL     1     -34.780  16.887  -0.422  1.00 20.00     0.010 C 
ENDBRANCH   6   7
ENDBRANCH   4   5
TORSDOF 2
ENDMDL
MODEL 6
REMARK VINA RESULT:      -3.6     11.373     12.331
REMARK  2 active torsions:
REMARK  status: ('A' for Active; 'I' for Inactive)
REMARK    1  A    between atoms: C1_1  and  C6_6 
REMARK    2  A    between atoms: C7_7  and  N8_8 
ROOT
HETATM    1  C3  UNL     1     -33.539  13.637  -3.849  1.00 20.00     0.039 C 
HETATM    2  C4  UNL     1     -35.968  14.216  -4.136  1.00 20.00     0.039 C 
HETATM    3  C5  UNL     1     -34.197  15.790  -4.974  1.00 20.00     0.039 C 
HETATM    4  C7  UNL     1     -34.564  14.771  -3.897  1.00 20.00     0.042 C 
ENDROOT
BRANCH   4   5
HETATM    5  N8  UNL     1     -34.565  15.451  -2.594  1.00 20.00    -0.296 NA
HETATM    6  C1  UNL     1     -33.823  16.499  -2.587  1.00 20.00     0.084 C 
BRANCH   6   7
HETATM    7  C6  UNL     1     -33.691  17.325  -1.340  1.00 20.00     0.042 C 
HETATM    8  C2  UNL     1     -34.760  16.926  -0.340  1.00 20.00     0.010 C 
ENDBRANCH   6   7
ENDBRANCH   4   5
TORSDOF 2
ENDMDL
MODEL 7
REMARK VINA RESULT:      -3.3     11.446     12.551
REMARK  2 active torsions:
REMARK  status: ('A' for Active; 'I' for Inactive)
REMARK    1  A    between atoms: C1_1  and  C6_6 
REMARK    2  A    between atoms: C7_7  and  N8_8 
ROOT
HETATM    1  C3  UNL     1     -33.830  18.311  -2.461  1.00 20.00     0.039 C 
HETATM    2  C4  UNL     1     -35.924  16.977  -2.850  1.00 20.00     0.039 C 
HETATM    3  C5  UNL     1     -34.627  16.680  -0.718  1.00 20.00     0.039 C 
HETATM    4  C7  UNL     1     -34.534  16.976  -2.213  1.00 20.00     0.042 C 
ENDROOT
BRANCH   4   5
HETATM    5  N8  UNL     1     -33.748  15.911  -2.850  1.00 20.00    -0.296 NA
HETATM    6  C1  UNL     1     -34.463  14.891  -3.159  1.00 20.00     0.084 C 
BRANCH   6   7
HETATM    7  C6  UNL     1     -33.834  13.695  -3.815  1.00 20.00     0.042 C 
HETATM    8  C2  UNL     1     -34.744  13.164  -4.906  1.00 20.00     0.010 C 
ENDBRANCH   6   7
ENDBRANCH   4   5
TORSDOF 2
ENDMDL
MODEL 8
REMARK VINA RESULT:      -3.3     11.813     12.887
REMARK  2 active torsions:
REMARK  status: ('A' for Active; 'I' for Inactive)
REMARK    1  A    between atoms: C1_1  and  C6_6 
REMARK    2  A    between atoms: C7_7  and  N8_8 
ROOT
HETATM    1  C3  UNL     1     -36.273  15.487  -5.101  1.00 20.00     0.039 C 
HETATM    2  C4  UNL     1     -34.293  14.801  -6.487  1.00 20.00     0.039 C 
HETATM    3  C5  UNL     1     -35.061  13.342  -4.591  1.00 20.00     0.039 C 
HETATM    4  C7  UNL     1     -34.919  14.778  -5.093  1.00 20.00     0.042 C 
ENDROOT
BRANCH   4   5
HETATM    5  N8  UNL     1     -34.021  15.502  -4.184  1.00 20.00    -0.296 NA
HETATM    6  C1  UNL     1     -34.625  15.930  -3.135  1.00 20.00     0.084 C 
BRANCH   6   7
HETATM    7  C6  UNL     1     -33.872  16.701  -2.088  1.00 20.00     0.042 C 
HETATM    8  C2  UNL     1     -34.614  16.639  -0.766  1.00 20.00     0.010 C 
ENDBRANCH   6   7
ENDBRANCH   4   5
TORSDOF 2
ENDMDL
MODEL 9
REMARK VINA RESULT:      -3.3      1.124      4.093
REMARK  2 active torsions:
REMARK  status: ('A' for Active; 'I' for Inactive)
REMARK    1  A    between atoms: C1_1  and  C6_6 
REMARK    2  A    between atoms: C7_7  and  N8_8 
ROOT
HETATM    1  C3  UNL     1     -31.423   7.713   4.332  1.00 20.00     0.039 C 
HETATM    2  C4  UNL     1     -31.800   5.742   2.820  1.00 20.00     0.039 C 
HETATM    3  C5  UNL     1     -32.488   8.042   2.076  1.00 20.00     0.039 C 
HETATM    4  C7  UNL     1     -32.336   7.100   3.270  1.00 20.00     0.042 C 
ENDROOT
BRANCH   4   5
HETATM    5  N8  UNL     1     -33.662   6.887   3.865  1.00 20.00    -0.296 NA
HETATM    6  C1  UNL     1     -33.920   5.643   4.056  1.00 20.00     0.084 C 
BRANCH   6   7
HETATM    7  C6  UNL     1     -35.234   5.224   4.651  1.00 20.00     0.042 C 
HETATM    8  C2  UNL     1     -34.996   4.350   5.868  1.00 20.00     0.010 C 
ENDBRANCH   6   7
ENDBRANCH   4   5
TORSDOF 2
ENDMDL
