MODEL 1
REMARK VINA RESULT:      -4.5      0.000      0.000
REMARK  3 active torsions:
REMARK  status: ('A' for Active; 'I' for Inactive)
REMARK    1  A    between atoms: C2_2  and  C7_7 
REMARK    2  A    between atoms: C5_5  and  C8_8 
REMARK    3  A    between atoms: C7_7  and  C8_8 
ROOT
HETATM    1  C3  UNL     1     -34.299  15.566  -5.876  1.00 20.00     0.281 C 
HETATM    2  C4  UNL     1     -34.591  14.114  -5.531  1.00 20.00     0.106 C 
HETATM    3  C5  UNL     1     -33.071  15.469  -3.855  1.00 20.00     0.282 C 
HETATM    4  N9  UNL     1     -33.022  15.939  -5.249  1.00 20.00     0.098 N 
HETATM    5  S10 UNL     1     -34.109  13.976  -3.796  1.00 20.00    -0.132 SA
HETATM    6  H25 UNL     1     -32.242  15.509  -5.741  1.00 20.00     0.317 HD
ENDROOT
BRANCH   3   7
HETATM    7  C8  UNL     1     -33.635  16.548  -2.937  1.00 20.00     0.050 C 
BRANCH   7   8
HETATM    8  C7  UNL     1     -34.703  15.982  -2.000  1.00 20.00     0.030 C 
BRANCH   8   9
HETATM    9  C2  UNL     1     -34.696  16.689  -0.676  1.00 20.00    -0.031 C 
HETATM   10  C1  UNL     1     -33.854  17.686  -0.367  1.00 20.00    -0.035 C 
HETATM   11  C6  UNL     1     -33.842  18.385   0.952  1.00 20.00     0.036 C 
ENDBRANCH   8   9
ENDBRANCH   7   8
ENDBRANCH   3   7
TORSDOF 3
ENDMDL
MODEL 2
REMARK VINA RESULT:      -4.5     11.494     12.296
REMARK  3 active torsions:
REMARK  status: ('A' for Active; 'I' for Inactive)
REMARK    1  A    between atoms: C2_2  and  C7_7 
REMARK    2  A    between atoms: C5_5  and  C8_8 
REMARK    3  A    between atoms: C7_7  and  C8_8 
ROOT
HETATM    1  C3  UNL     1     -33.914   5.262   6.346  1.00 20.00     0.281 C 
HETATM    2  C4  UNL     1     -35.217   4.618   5.898  1.00 20.00     0.106 C 
HETATM    3  C5  UNL     1     -34.079   6.318   4.235  1.00 20.00     0.282 C 
HETATM    4  N9  UNL     1     -33.781   6.553   5.657  1.00 20.00     0.098 N 
HETATM    5  S10 UNL     1     -35.280   4.956   4.125  1.00 20.00    -0.132 SA
HETATM    6  H25 UNL     1     -34.427   7.236   6.047  1.00 20.00     0.317 HD
ENDROOT
BRANCH   3   7
HETATM    7  C8  UNL     1     -32.810   5.974   3.462  1.00 20.00     0.050 C 
BRANCH   7   8
HETATM    8  C7  UNL     1     -31.817   7.136   3.471  1.00 20.00     0.030 C 
BRANCH   8   9
HETATM    9  C2  UNL     1     -32.277   8.253   2.579  1.00 20.00    -0.031 C 
HETATM   10  C1  UNL     1     -31.887   8.397   1.304  1.00 20.00    -0.035 C 
HETATM   11  C6  UNL     1     -32.339   9.510   0.418  1.00 20.00     0.036 C 
ENDBRANCH   8   9
ENDBRANCH   7   8
ENDBRANCH   3   7
TORSDOF 3
ENDMDL
MODEL 3
REMARK VINA RESULT:      -4.1      1.164      1.284
REMARK  3 active torsions:
REMARK  status: ('A' for Active; 'I' for Inactive)
REMARK    1  A    between atoms: C2_2  and  C7_7 
REMARK    2  A    between atoms: C5_5  and  C8_8 
REMARK    3  A    between atoms: C7_7  and  C8_8 
ROOT
HETATM    1  C3  UNL     1     -34.945  15.945  -6.229  1.00 20.00     0.281 C 
HETATM    2  C4  UNL     1     -36.230  15.183  -5.945  1.00 20.00     0.106 C 
HETATM    3  C5  UNL     1     -34.108  14.543  -4.516  1.00 20.00     0.282 C 
HETATM    4  N9  UNL     1     -33.811  15.090  -5.850  1.00 20.00     0.098 N 
HETATM    5  S10 UNL     1     -35.913  14.374  -4.362  1.00 20.00    -0.132 SA
HETATM    6  H25 UNL     1     -33.689  14.337  -6.523  1.00 20.00     0.317 HD
ENDROOT
BRANCH   3   7
HETATM    7  C8  UNL     1     -33.562  15.452  -3.420  1.00 20.00     0.050 C 
BRANCH   7   8
HETATM    8  C7  UNL     1     -34.626  15.758  -2.366  1.00 20.00     0.030 C 
BRANCH   8   9
HETATM    9  C2  UNL     1     -34.143  16.790  -1.388  1.00 20.00    -0.031 C 
HETATM   10  C1  UNL     1     -34.721  17.019  -0.200  1.00 20.00    -0.035 C 
HETATM   11  C6  UNL     1     -34.246  18.049   0.770  1.00 20.00     0.036 C 
ENDBRANCH   8   9
ENDBRANCH   7   8
ENDBRANCH   3   7
TORSDOF 3
ENDMDL
MODEL 4
REMARK VINA RESULT:      -4.1      1.717      1.910
REMARK  3 active torsions:
REMARK  status: ('A' for Active; 'I' for Inactive)
REMARK    1  A    between atoms: C2_2  and  C7_7 
REMARK    2  A    between atoms: C5_5  and  C8_8 
REMARK    3  A    between atoms: C7_7  and  C8_8 
ROOT
HETATM    1  C3  UNL     1     -34.612  13.324  -5.208  1.00 20.00     0.281 C 
HETATM    2  C4  UNL     1     -35.581  14.268  -5.902  1.00 20.00     0.106 C 
HETATM    3  C5  UNL     1     -35.046  14.741  -3.363  1.00 20.00     0.282 C 
HETATM    4  N9  UNL     1     -34.914  13.333  -3.769  1.00 20.00     0.098 N 
HETATM    5  S10 UNL     1     -35.681  15.683  -4.784  1.00 20.00    -0.132 SA
HETATM    6  H25 UNL     1     -35.776  12.826  -3.581  1.00 20.00     0.317 HD
ENDROOT
BRANCH   3   7
HETATM    7  C8  UNL     1     -33.705  15.305  -2.906  1.00 20.00     0.050 C 
BRANCH   7   8
HETATM    8  C7  UNL     1     -33.865  16.691  -2.283  1.00 20.00     0.030 C 
BRANCH   8   9
HETATM    9  C2  UNL     1     -34.509  16.609  -0.929  1.00 20.00    -0.031 C 
HETATM   10  C1  UNL     1     -34.560  17.633  -0.064  1.00 20.00    -0.035 C 
HETATM   11  C6  UNL     1     -35.195  17.550   1.284  1.00 20.00     0.036 C 
ENDBRANCH   8   9
ENDBRANCH   7   8
ENDBRANCH   3   7
TORSDOF 3
ENDMDL
MODEL 5
REMARK VINA RESULT:      -3.9      1.706      2.152
REMARK  3 active torsions:
REMARK  status: ('A' for Active; 'I' for Inactive)
REMARK    1  A    between atoms: C2_2  and  C7_7 
REMARK    2  A    between atoms: C5_5  and  C8_8 
REMARK    3  A    between atoms: C7_7  and  C8_8 
ROOT
HETATM    1  C3  UNL     1     -36.739  16.020  -4.491  1.00 20.00     0.281 C 
HETATM    2  C4  UNL     1     -36.892  14.554  -4.119  1.00 20.00     0.106 C 
HETATM    3  C5  UNL     1     -34.663  15.263  -5.337  1.00 20.00     0.282 C 
HETATM    4  N9  UNL     1     -35.828  16.109  -5.641  1.00 20.00     0.098 N 
HETATM    5  S10 UNL     1     -35.220  13.890  -4.281  1.00 20.00    -0.132 SA
HETATM    6  H25 UNL     1     -36.289  15.787  -6.489  1.00 20.00     0.317 HD
ENDROOT
BRANCH   3   7
HETATM    7  C8  UNL     1     -33.574  16.067  -4.636  1.00 20.00     0.050 C 
BRANCH   7   8
HETATM    8  C7  UNL     1     -33.337  15.565  -3.212  1.00 20.00     0.030 C 
BRANCH   8   9
HETATM    9  C2  UNL     1     -33.726  16.600  -2.197  1.00 20.00    -0.031 C 
HETATM   10  C1  UNL     1     -34.596  16.377  -1.201  1.00 20.00    -0.035 C 
HETATM   11  C6  UNL     1     -34.989  17.408  -0.195  1.00 20.00     0.036 C 
ENDBRANCH   8   9
ENDBRANCH   7   8
ENDBRANCH   3   7
TORSDOF 3
ENDMDL
MODEL 6
REMARK VINA RESULT:      -3.9      1.815      2.174
REMARK  3 active torsions:
REMARK  status: ('A' for Active; 'I' for Inactive)
REMARK    1  A    between atoms: C2_2  and  C7_7 
REMARK    2  A    between atoms: C5_5  and  C8_8 
REMARK    3  A    between atoms: C7_7  and  C8_8 
ROOT
HETATM    1  C3  UNL     1     -35.088  14.257  -6.362  1.00 20.00     0.281 C 
HETATM    2  C4  UNL     1     -34.387  15.419  -7.049  1.00 20.00     0.106 C 
HETATM    3  C5  UNL     1     -35.484  15.892  -4.699  1.00 20.00     0.282 C 
HETATM    4  N9  UNL     1     -36.115  14.807  -5.466  1.00 20.00     0.098 N 
HETATM    5  S10 UNL     1     -34.193  16.644  -5.737  1.00 20.00    -0.132 SA
HETATM    6  H25 UNL     1     -36.905  15.162  -6.001  1.00 20.00     0.317 HD
ENDROOT
BRANCH   3   7
HETATM    7  C8  UNL     1     -34.884  15.365  -3.400  1.00 20.00     0.050 C 
BRANCH   7   8
HETATM    8  C7  UNL     1     -33.607  16.118  -3.028  1.00 20.00     0.030 C 
BRANCH   8   9
HETATM    9  C2  UNL     1     -33.766  16.850  -1.727  1.00 20.00    -0.031 C 
HETATM   10  C1  UNL     1     -34.752  16.608  -0.850  1.00 20.00    -0.035 C 
HETATM   11  C6  UNL     1     -34.914  17.340   0.440  1.00 20.00     0.036 C 
ENDBRANCH   8   9
ENDBRANCH   7   8
ENDBRANCH   3   7
TORSDOF 3
ENDMDL
MODEL 7
REMARK VINA RESULT:      -3.9     13.224     14.990
REMARK  3 active torsions:
REMARK  status: ('A' for Active; 'I' for Inactive)
REMARK    1  A    between atoms: C2_2  and  C7_7 
REMARK    2  A    between atoms: C5_5  and  C8_8 
REMARK    3  A    between atoms: C7_7  and  C8_8 
ROOT
HETATM    1  C3  UNL     1     -42.911   5.620   0.587  1.00 20.00     0.281 C 
HETATM    2  C4  UNL     1     -43.209   6.826  -0.288  1.00 20.00     0.106 C 
HETATM    3  C5  UNL     1     -40.905   5.602  -0.667  1.00 20.00     0.282 C 
HETATM    4  N9  UNL     1     -41.451   5.479   0.693  1.00 20.00     0.098 N 
HETATM    5  S10 UNL     1     -41.992   6.707  -1.618  1.00 20.00    -0.132 SA
HETATM    6  H25 UNL     1     -41.065   6.201   1.298  1.00 20.00     0.317 HD
ENDROOT
BRANCH   3   7
HETATM    7  C8  UNL     1     -40.810   4.237  -1.341  1.00 20.00     0.050 C 
BRANCH   7   8
HETATM    8  C7  UNL     1     -41.823   4.104  -2.478  1.00 20.00     0.030 C 
BRANCH   8   9
HETATM    9  C2  UNL     1     -42.084   2.664  -2.810  1.00 20.00    -0.031 C 
HETATM   10  C1  UNL     1     -41.386   1.970  -3.721  1.00 20.00    -0.035 C 
HETATM   11  C6  UNL     1     -41.649   0.540  -4.057  1.00 20.00     0.036 C 
ENDBRANCH   8   9
ENDBRANCH   7   8
ENDBRANCH   3   7
TORSDOF 3
ENDMDL
MODEL 8
REMARK VINA RESULT:      -3.9      2.191      3.365
REMARK  3 active torsions:
REMARK  status: ('A' for Active; 'I' for Inactive)
REMARK    1  A    between atoms: C2_2  and  C7_7 
REMARK    2  A    between atoms: C5_5  and  C8_8 
REMARK    3  A    between atoms: C7_7  and  C8_8 
ROOT
HETATM    1  C3  UNL     1     -34.392  16.563  -6.640  1.00 20.00     0.281 C 
HETATM    2  C4  UNL     1     -35.581  16.715  -7.576  1.00 20.00     0.106 C 
HETATM    3  C5  UNL     1     -35.084  14.301  -6.640  1.00 20.00     0.282 C 
HETATM    4  N9  UNL     1     -33.908  15.179  -6.735  1.00 20.00     0.098 N 
HETATM    5  S10 UNL     1     -36.509  15.183  -7.349  1.00 20.00    -0.132 SA
HETATM    6  H25 UNL     1     -33.423  15.029  -7.617  1.00 20.00     0.317 HD
ENDROOT
BRANCH   3   7
HETATM    7  C8  UNL     1     -35.363  13.918  -5.190  1.00 20.00     0.050 C 
BRANCH   7   8
HETATM    8  C7  UNL     1     -34.071  13.593  -4.440  1.00 20.00     0.030 C 
BRANCH   8   9
HETATM    9  C2  UNL     1     -33.947  14.411  -3.187  1.00 20.00    -0.031 C 
HETATM   10  C1  UNL     1     -34.750  15.443  -2.888  1.00 20.00    -0.035 C 
HETATM   11  C6  UNL     1     -34.624  16.260  -1.646  1.00 20.00     0.036 C 
ENDBRANCH   8   9
ENDBRANCH   7   8
ENDBRANCH   3   7
TORSDOF 3
ENDMDL
MODEL 9
REMARK VINA RESULT:      -3.8     12.465     13.583
REMARK  3 active torsions:
REMARK  status: ('A' for Active; 'I' for Inactive)
REMARK    1  A    between atoms: C2_2  and  C7_7 
REMARK    2  A    between atoms: C5_5  and  C8_8 
REMARK    3  A    between atoms: C7_7  and  C8_8 
ROOT
HETATM    1  C3  UNL     1     -41.943   3.713  -2.446  1.00 20.00     0.281 C 
HETATM    2  C4  UNL     1     -43.138   3.358  -1.575  1.00 20.00     0.106 C 
HETATM    3  C5  UNL     1     -41.193   4.739  -0.450  1.00 20.00     0.282 C 
HETATM    4  N9  UNL     1     -40.773   3.885  -1.573  1.00 20.00     0.098 N 
HETATM    5  S10 UNL     1     -42.959   4.435  -0.136  1.00 20.00    -0.132 SA
HETATM    6  H25 UNL     1     -40.446   2.984  -1.231  1.00 20.00     0.317 HD
ENDROOT
BRANCH   3   7
HETATM    7  C8  UNL     1     -40.953   6.211  -0.766  1.00 20.00     0.050 C 
BRANCH   7   8
HETATM    8  C7  UNL     1     -42.236   7.030  -0.625  1.00 20.00     0.030 C 
BRANCH   8   9
HETATM    9  C2  UNL     1     -42.502   7.845  -1.857  1.00 20.00    -0.031 C 
HETATM   10  C1  UNL     1     -42.279   7.404  -3.105  1.00 20.00    -0.035 C 
HETATM   11  C6  UNL     1     -42.537   8.216  -4.330  1.00 20.00     0.036 C 
ENDBRANCH   8   9
ENDBRANCH   7   8
ENDBRANCH   3   7
TORSDOF 3
ENDMDL
