MODEL 1
REMARK VINA RESULT:      -5.1      0.000      0.000
REMARK  0 active torsions:
REMARK  status: ('A' for Active; 'I' for Inactive)
ROOT
HETATM    1  C1  UNL     1     -33.858  13.787  -4.034  1.00 20.00     0.131 C 
HETATM    2  C2  UNL     1     -35.242  13.268  -4.319  1.00 20.00     0.079 C 
HETATM    3  C3  UNL     1     -35.927  14.489  -4.919  1.00 20.00     0.013 C 
HETATM    4  C4  UNL     1     -33.359  15.897  -2.722  1.00 20.00     0.021 C 
HETATM    5  C5  UNL     1     -35.759  16.067  -2.892  1.00 20.00     0.014 C 
HETATM    6  C6  UNL     1     -33.784  15.300  -4.066  1.00 20.00     0.060 C 
HETATM    7  C7  UNL     1     -35.250  15.697  -4.285  1.00 20.00    -0.002 C 
HETATM    8  C8  UNL     1     -34.550  16.746  -2.229  1.00 20.00    -0.047 C 
HETATM    9  C9  UNL     1     -34.667  16.720  -0.703  1.00 20.00     0.015 C 
HETATM   10  C10 UNL     1     -34.405  18.206  -2.694  1.00 20.00     0.015 C 
HETATM   11  O11 UNL     1     -32.904  13.062  -3.775  1.00 20.00    -0.298 OA
ENDROOT
TORSDOF 0
ENDMDL
MODEL 2
REMARK VINA RESULT:      -4.9      1.671      2.532
REMARK  0 active torsions:
REMARK  status: ('A' for Active; 'I' for Inactive)
ROOT
HETATM    1  C1  UNL     1     -35.969  14.759  -5.086  1.00 20.00     0.131 C 
HETATM    2  C2  UNL     1     -34.785  14.014  -5.642  1.00 20.00     0.079 C 
HETATM    3  C3  UNL     1     -34.152  13.430  -4.387  1.00 20.00     0.013 C 
HETATM    4  C4  UNL     1     -35.844  16.455  -3.208  1.00 20.00     0.021 C 
HETATM    5  C5  UNL     1     -33.578  15.630  -3.178  1.00 20.00     0.014 C 
HETATM    6  C6  UNL     1     -35.873  14.973  -3.589  1.00 20.00     0.060 C 
HETATM    7  C7  UNL     1     -34.486  14.403  -3.264  1.00 20.00    -0.002 C 
HETATM    8  C8  UNL     1     -34.473  16.705  -2.543  1.00 20.00    -0.047 C 
HETATM    9  C9  UNL     1     -33.950  18.112  -2.844  1.00 20.00     0.015 C 
HETATM   10  C10 UNL     1     -34.569  16.522  -1.018  1.00 20.00     0.015 C 
HETATM   11  O11 UNL     1     -36.894  15.171  -5.777  1.00 20.00    -0.298 OA
ENDROOT
TORSDOF 0
ENDMDL
MODEL 3
REMARK VINA RESULT:      -4.8      1.497      1.801
REMARK  0 active torsions:
REMARK  status: ('A' for Active; 'I' for Inactive)
ROOT
HETATM    1  C1  UNL     1     -34.669  13.707  -5.029  1.00 20.00     0.131 C 
HETATM    2  C2  UNL     1     -35.095  14.146  -6.405  1.00 20.00     0.079 C 
HETATM    3  C3  UNL     1     -34.200  15.353  -6.650  1.00 20.00     0.013 C 
HETATM    4  C4  UNL     1     -34.554  15.232  -3.009  1.00 20.00     0.021 C 
HETATM    5  C5  UNL     1     -35.030  16.853  -4.729  1.00 20.00     0.014 C 
HETATM    6  C6  UNL     1     -33.872  14.770  -4.299  1.00 20.00     0.060 C 
HETATM    7  C7  UNL     1     -33.925  15.951  -5.277  1.00 20.00    -0.002 C 
HETATM    8  C8  UNL     1     -34.885  16.727  -3.205  1.00 20.00    -0.047 C 
HETATM    9  C9  UNL     1     -36.182  17.114  -2.490  1.00 20.00     0.015 C 
HETATM   10  C10 UNL     1     -33.741  17.609  -2.678  1.00 20.00     0.015 C 
HETATM   11  O11 UNL     1     -34.961  12.619  -4.546  1.00 20.00    -0.298 OA
ENDROOT
TORSDOF 0
ENDMDL
MODEL 4
REMARK VINA RESULT:      -4.8      1.784      2.704
REMARK  0 active torsions:
REMARK  status: ('A' for Active; 'I' for Inactive)
ROOT
HETATM    1  C1  UNL     1     -35.820  14.213  -3.846  1.00 20.00     0.131 C 
HETATM    2  C2  UNL     1     -34.790  13.330  -4.501  1.00 20.00     0.079 C 
HETATM    3  C3  UNL     1     -33.508  13.753  -3.797  1.00 20.00     0.013 C 
HETATM    4  C4  UNL     1     -35.631  16.731  -3.646  1.00 20.00     0.021 C 
HETATM    5  C5  UNL     1     -33.450  16.218  -4.537  1.00 20.00     0.014 C 
HETATM    6  C6  UNL     1     -35.199  15.371  -3.092  1.00 20.00     0.060 C 
HETATM    7  C7  UNL     1     -33.707  15.213  -3.414  1.00 20.00    -0.002 C 
HETATM    8  C8  UNL     1     -34.350  17.410  -4.176  1.00 20.00    -0.047 C 
HETATM    9  C9  UNL     1     -34.639  18.278  -5.403  1.00 20.00     0.015 C 
HETATM   10  C10 UNL     1     -33.708  18.284  -3.085  1.00 20.00     0.015 C 
HETATM   11  O11 UNL     1     -37.027  14.026  -3.940  1.00 20.00    -0.298 OA
ENDROOT
TORSDOF 0
ENDMDL
MODEL 5
REMARK VINA RESULT:      -4.7      1.505      3.779
REMARK  0 active torsions:
REMARK  status: ('A' for Active; 'I' for Inactive)
ROOT
HETATM    1  C1  UNL     1     -33.416  14.009  -3.793  1.00 20.00     0.131 C 
HETATM    2  C2  UNL     1     -32.651  15.276  -3.517  1.00 20.00     0.079 C 
HETATM    3  C3  UNL     1     -33.766  16.304  -3.385  1.00 20.00     0.013 C 
HETATM    4  C4  UNL     1     -35.162  13.755  -5.612  1.00 20.00     0.021 C 
HETATM    5  C5  UNL     1     -34.745  16.126  -5.760  1.00 20.00     0.014 C 
HETATM    6  C6  UNL     1     -34.850  14.272  -4.205  1.00 20.00     0.060 C 
HETATM    7  C7  UNL     1     -34.897  15.804  -4.274  1.00 20.00    -0.002 C 
HETATM    8  C8  UNL     1     -35.514  14.996  -6.461  1.00 20.00    -0.047 C 
HETATM    9  C9  UNL     1     -35.058  14.832  -7.913  1.00 20.00     0.015 C 
HETATM   10  C10 UNL     1     -37.030  15.255  -6.439  1.00 20.00     0.015 C 
HETATM   11  O11 UNL     1     -32.920  12.890  -3.720  1.00 20.00    -0.298 OA
ENDROOT
TORSDOF 0
ENDMDL
MODEL 6
REMARK VINA RESULT:      -4.7      1.908      3.555
REMARK  0 active torsions:
REMARK  status: ('A' for Active; 'I' for Inactive)
ROOT
HETATM    1  C1  UNL     1     -34.657  13.688  -4.225  1.00 20.00     0.131 C 
HETATM    2  C2  UNL     1     -33.244  13.952  -3.775  1.00 20.00     0.079 C 
HETATM    3  C3  UNL     1     -33.313  15.407  -3.332  1.00 20.00     0.013 C 
HETATM    4  C4  UNL     1     -35.926  15.126  -5.880  1.00 20.00     0.021 C 
HETATM    5  C5  UNL     1     -33.947  16.472  -5.589  1.00 20.00     0.014 C 
HETATM    6  C6  UNL     1     -35.449  14.962  -4.435  1.00 20.00     0.060 C 
HETATM    7  C7  UNL     1     -34.395  16.050  -4.190  1.00 20.00    -0.002 C 
HETATM    8  C8  UNL     1     -35.234  16.393  -6.425  1.00 20.00    -0.047 C 
HETATM    9  C9  UNL     1     -34.918  16.265  -7.918  1.00 20.00     0.015 C 
HETATM   10  C10 UNL     1     -36.119  17.632  -6.205  1.00 20.00     0.015 C 
HETATM   11  O11 UNL     1     -35.103  12.564  -4.426  1.00 20.00    -0.298 OA
ENDROOT
TORSDOF 0
ENDMDL
MODEL 7
REMARK VINA RESULT:      -4.6      2.013      2.913
REMARK  0 active torsions:
REMARK  status: ('A' for Active; 'I' for Inactive)
ROOT
HETATM    1  C1  UNL     1     -37.045  14.507  -4.512  1.00 20.00     0.131 C 
HETATM    2  C2  UNL     1     -37.262  15.315  -5.764  1.00 20.00     0.079 C 
HETATM    3  C3  UNL     1     -35.994  15.029  -6.556  1.00 20.00     0.013 C 
HETATM    4  C4  UNL     1     -34.970  14.636  -3.063  1.00 20.00     0.021 C 
HETATM    5  C5  UNL     1     -34.275  16.017  -4.914  1.00 20.00     0.014 C 
HETATM    6  C6  UNL     1     -35.603  14.075  -4.340  1.00 20.00     0.060 C 
HETATM    7  C7  UNL     1     -34.909  14.766  -5.521  1.00 20.00    -0.002 C 
HETATM    8  C8  UNL     1     -33.820  15.559  -3.520  1.00 20.00    -0.047 C 
HETATM    9  C9  UNL     1     -33.645  16.750  -2.574  1.00 20.00     0.015 C 
HETATM   10  C10 UNL     1     -32.496  14.780  -3.593  1.00 20.00     0.015 C 
HETATM   11  O11 UNL     1     -37.935  14.254  -3.708  1.00 20.00    -0.298 OA
ENDROOT
TORSDOF 0
ENDMDL
MODEL 8
REMARK VINA RESULT:      -4.6      1.927      3.969
REMARK  0 active torsions:
REMARK  status: ('A' for Active; 'I' for Inactive)
ROOT
HETATM    1  C1  UNL     1     -33.850  17.658  -3.251  1.00 20.00     0.131 C 
HETATM    2  C2  UNL     1     -34.760  17.792  -2.058  1.00 20.00     0.079 C 
HETATM    3  C3  UNL     1     -34.685  16.404  -1.437  1.00 20.00     0.013 C 
HETATM    4  C4  UNL     1     -34.030  15.827  -4.993  1.00 20.00     0.021 C 
HETATM    5  C5  UNL     1     -35.660  15.047  -3.396  1.00 20.00     0.014 C 
HETATM    6  C6  UNL     1     -33.547  16.214  -3.593  1.00 20.00     0.060 C 
HETATM    7  C7  UNL     1     -34.423  15.448  -2.593  1.00 20.00    -0.002 C 
HETATM    8  C8  UNL     1     -35.105  14.737  -4.795  1.00 20.00    -0.047 C 
HETATM    9  C9  UNL     1     -36.202  14.827  -5.859  1.00 20.00     0.015 C 
HETATM   10  C10 UNL     1     -34.472  13.336  -4.846  1.00 20.00     0.015 C 
HETATM   11  O11 UNL     1     -33.428  18.615  -3.889  1.00 20.00    -0.298 OA
ENDROOT
TORSDOF 0
ENDMDL
MODEL 9
REMARK VINA RESULT:      -4.6      1.706      2.313
REMARK  0 active torsions:
REMARK  status: ('A' for Active; 'I' for Inactive)
ROOT
HETATM    1  C1  UNL     1     -33.587  16.173  -4.212  1.00 20.00     0.131 C 
HETATM    2  C2  UNL     1     -33.750  14.747  -3.758  1.00 20.00     0.079 C 
HETATM    3  C3  UNL     1     -35.100  14.785  -3.054  1.00 20.00     0.013 C 
HETATM    4  C4  UNL     1     -33.813  18.194  -2.701  1.00 20.00     0.021 C 
HETATM    5  C5  UNL     1     -34.518  16.457  -1.184  1.00 20.00     0.014 C 
HETATM    6  C6  UNL     1     -34.541  17.120  -3.514  1.00 20.00     0.060 C 
HETATM    7  C7  UNL     1     -35.241  16.199  -2.506  1.00 20.00    -0.002 C 
HETATM    8  C8  UNL     1     -34.203  17.961  -1.226  1.00 20.00    -0.047 C 
HETATM    9  C9  UNL     1     -33.054  18.313  -0.277  1.00 20.00     0.015 C 
HETATM   10  C10 UNL     1     -35.436  18.800  -0.851  1.00 20.00     0.015 C 
HETATM   11  O11 UNL     1     -32.752  16.528  -5.036  1.00 20.00    -0.298 OA
ENDROOT
TORSDOF 0
ENDMDL
