MODEL 1
REMARK VINA RESULT:      -4.8      0.000      0.000
REMARK  0 active torsions:
REMARK  status: ('A' for Active; 'I' for Inactive)
ROOT
HETATM    1  C1  UNL     1     -33.573   6.176   5.037  1.00 20.00     0.011 C 
HETATM    2  C2  UNL     1     -34.216   6.135   6.396  1.00 20.00     0.054 C 
HETATM    3  C3  UNL     1     -35.139   4.923   6.273  1.00 20.00     0.006 C 
HETATM    4  C4  UNL     1     -32.613   5.993   2.426  1.00 20.00     0.022 C 
HETATM    5  C5  UNL     1     -35.395   4.762   4.773  1.00 20.00     0.011 C 
HETATM    6  C6  UNL     1     -34.012   5.464   2.708  1.00 20.00     0.012 C 
HETATM    7  C7  UNL     1     -32.288   7.195   3.312  1.00 20.00     0.148 C 
HETATM    8  C8  UNL     1     -34.032   5.050   4.159  1.00 20.00     0.033 C 
HETATM    9  N9  UNL     1     -32.756   7.108   4.700  1.00 20.00    -0.298 NA
ENDROOT
TORSDOF 0
ENDMDL
MODEL 2
REMARK VINA RESULT:      -4.3      0.880      3.184
REMARK  0 active torsions:
REMARK  status: ('A' for Active; 'I' for Inactive)
ROOT
HETATM    1  C1  UNL     1     -33.343   6.575   4.713  1.00 20.00     0.011 C 
HETATM    2  C2  UNL     1     -32.255   7.437   4.136  1.00 20.00     0.054 C 
HETATM    3  C3  UNL     1     -32.350   7.114   2.646  1.00 20.00     0.006 C 
HETATM    4  C4  UNL     1     -35.391   4.834   5.452  1.00 20.00     0.022 C 
HETATM    5  C5  UNL     1     -33.011   5.735   2.574  1.00 20.00     0.011 C 
HETATM    6  C6  UNL     1     -34.592   4.500   4.201  1.00 20.00     0.012 C 
HETATM    7  C7  UNL     1     -34.518   5.525   6.497  1.00 20.00     0.148 C 
HETATM    8  C8  UNL     1     -34.082   5.811   3.654  1.00 20.00     0.033 C 
HETATM    9  N9  UNL     1     -33.557   6.506   5.977  1.00 20.00    -0.298 NA
ENDROOT
TORSDOF 0
ENDMDL
MODEL 3
REMARK VINA RESULT:      -4.1      1.206      3.692
REMARK  0 active torsions:
REMARK  status: ('A' for Active; 'I' for Inactive)
ROOT
HETATM    1  C1  UNL     1     -33.659   5.880   3.726  1.00 20.00     0.011 C 
HETATM    2  C2  UNL     1     -32.888   6.477   2.581  1.00 20.00     0.054 C 
HETATM    3  C3  UNL     1     -31.812   7.282   3.309  1.00 20.00     0.006 C 
HETATM    4  C4  UNL     1     -34.886   4.981   6.062  1.00 20.00     0.022 C 
HETATM    5  C5  UNL     1     -32.390   7.563   4.698  1.00 20.00     0.011 C 
HETATM    6  C6  UNL     1     -34.153   6.314   6.112  1.00 20.00     0.012 C 
HETATM    7  C7  UNL     1     -35.517   4.748   4.690  1.00 20.00     0.148 C 
HETATM    8  C8  UNL     1     -33.076   6.252   5.057  1.00 20.00     0.033 C 
HETATM    9  N9  UNL     1     -34.710   5.166   3.538  1.00 20.00    -0.298 NA
ENDROOT
TORSDOF 0
ENDMDL
MODEL 4
REMARK VINA RESULT:      -4.1      1.137      2.073
REMARK  0 active torsions:
REMARK  status: ('A' for Active; 'I' for Inactive)
ROOT
HETATM    1  C1  UNL     1     -34.322   5.317   4.119  1.00 20.00     0.011 C 
HETATM    2  C2  UNL     1     -35.168   4.361   4.915  1.00 20.00     0.054 C 
HETATM    3  C3  UNL     1     -35.167   5.013   6.297  1.00 20.00     0.006 C 
HETATM    4  C4  UNL     1     -32.689   7.254   2.957  1.00 20.00     0.022 C 
HETATM    5  C5  UNL     1     -33.909   5.883   6.332  1.00 20.00     0.011 C 
HETATM    6  C6  UNL     1     -32.538   7.000   4.450  1.00 20.00     0.012 C 
HETATM    7  C7  UNL     1     -33.057   5.972   2.213  1.00 20.00     0.148 C 
HETATM    8  C8  UNL     1     -33.873   6.491   4.937  1.00 20.00     0.033 C 
HETATM    9  N9  UNL     1     -34.019   5.095   2.891  1.00 20.00    -0.298 NA
ENDROOT
TORSDOF 0
ENDMDL
MODEL 5
REMARK VINA RESULT:      -4.1     12.276     13.863
REMARK  0 active torsions:
REMARK  status: ('A' for Active; 'I' for Inactive)
ROOT
HETATM    1  C1  UNL     1     -34.163  15.707  -5.687  1.00 20.00     0.011 C 
HETATM    2  C2  UNL     1     -34.316  16.550  -6.923  1.00 20.00     0.054 C 
HETATM    3  C3  UNL     1     -35.381  15.780  -7.702  1.00 20.00     0.006 C 
HETATM    4  C4  UNL     1     -34.096  13.907  -3.560  1.00 20.00     0.022 C 
HETATM    5  C5  UNL     1     -35.302  14.344  -7.181  1.00 20.00     0.011 C 
HETATM    6  C6  UNL     1     -34.489  13.374  -4.930  1.00 20.00     0.012 C 
HETATM    7  C7  UNL     1     -33.075  15.037  -3.679  1.00 20.00     0.148 C 
HETATM    8  C8  UNL     1     -35.095  14.532  -5.685  1.00 20.00     0.033 C 
HETATM    9  N9  UNL     1     -33.297  15.983  -4.780  1.00 20.00    -0.298 NA
ENDROOT
TORSDOF 0
ENDMDL
MODEL 6
REMARK VINA RESULT:      -4.1     12.080     13.026
REMARK  0 active torsions:
REMARK  status: ('A' for Active; 'I' for Inactive)
ROOT
HETATM    1  C1  UNL     1     -34.003  16.150  -4.205  1.00 20.00     0.011 C 
HETATM    2  C2  UNL     1     -33.727  17.468  -3.536  1.00 20.00     0.054 C 
HETATM    3  C3  UNL     1     -33.872  17.110  -2.058  1.00 20.00     0.006 C 
HETATM    4  C4  UNL     1     -34.604  13.585  -5.118  1.00 20.00     0.022 C 
HETATM    5  C5  UNL     1     -34.764  15.867  -2.031  1.00 20.00     0.011 C 
HETATM    6  C6  UNL     1     -35.198  14.024  -3.787  1.00 20.00     0.012 C 
HETATM    7  C7  UNL     1     -34.477  14.764  -6.081  1.00 20.00     0.148 C 
HETATM    8  C8  UNL     1     -34.256  15.054  -3.213  1.00 20.00     0.033 C 
HETATM    9  N9  UNL     1     -34.040  16.032  -5.483  1.00 20.00    -0.298 NA
ENDROOT
TORSDOF 0
ENDMDL
MODEL 7
REMARK VINA RESULT:      -4.1     12.263     14.037
REMARK  0 active torsions:
REMARK  status: ('A' for Active; 'I' for Inactive)
ROOT
HETATM    1  C1  UNL     1     -34.157  15.587  -5.748  1.00 20.00     0.011 C 
HETATM    2  C2  UNL     1     -34.468  16.699  -6.712  1.00 20.00     0.054 C 
HETATM    3  C3  UNL     1     -33.773  17.891  -6.055  1.00 20.00     0.006 C 
HETATM    4  C4  UNL     1     -33.442  13.781  -3.747  1.00 20.00     0.022 C 
HETATM    5  C5  UNL     1     -33.664  17.527  -4.573  1.00 20.00     0.011 C 
HETATM    6  C6  UNL     1     -33.589  15.247  -3.363  1.00 20.00     0.012 C 
HETATM    7  C7  UNL     1     -34.426  13.399  -4.851  1.00 20.00     0.148 C 
HETATM    8  C8  UNL     1     -33.299  16.050  -4.608  1.00 20.00     0.033 C 
HETATM    9  N9  UNL     1     -34.623  14.401  -5.906  1.00 20.00    -0.298 NA
ENDROOT
TORSDOF 0
ENDMDL
MODEL 8
REMARK VINA RESULT:      -4.0     11.842     12.620
REMARK  0 active torsions:
REMARK  status: ('A' for Active; 'I' for Inactive)
ROOT
HETATM    1  C1  UNL     1     -35.787  15.281  -3.328  1.00 20.00     0.011 C 
HETATM    2  C2  UNL     1     -36.206  14.219  -4.307  1.00 20.00     0.054 C 
HETATM    3  C3  UNL     1     -34.975  13.313  -4.337  1.00 20.00     0.006 C 
HETATM    4  C4  UNL     1     -34.686  17.096  -1.521  1.00 20.00     0.022 C 
HETATM    5  C5  UNL     1     -33.812  14.199  -3.889  1.00 20.00     0.011 C 
HETATM    6  C6  UNL     1     -33.734  16.325  -2.424  1.00 20.00     0.012 C 
HETATM    7  C7  UNL     1     -36.009  17.380  -2.230  1.00 20.00     0.148 C 
HETATM    8  C8  UNL     1     -34.421  15.025  -2.765  1.00 20.00     0.033 C 
HETATM    9  N9  UNL     1     -36.534  16.291  -3.062  1.00 20.00    -0.298 NA
ENDROOT
TORSDOF 0
ENDMDL
MODEL 9
REMARK VINA RESULT:      -4.0     11.792     13.339
REMARK  0 active torsions:
REMARK  status: ('A' for Active; 'I' for Inactive)
ROOT
HETATM    1  C1  UNL     1     -34.345  15.587  -4.996  1.00 20.00     0.011 C 
HETATM    2  C2  UNL     1     -34.563  14.395  -5.886  1.00 20.00     0.054 C 
HETATM    3  C3  UNL     1     -34.868  13.293  -4.872  1.00 20.00     0.006 C 
HETATM    4  C4  UNL     1     -33.962  17.566  -3.070  1.00 20.00     0.022 C 
HETATM    5  C5  UNL     1     -34.233  13.765  -3.562  1.00 20.00     0.011 C 
HETATM    6  C6  UNL     1     -33.669  16.125  -2.677  1.00 20.00     0.012 C 
HETATM    7  C7  UNL     1     -33.637  17.813  -4.541  1.00 20.00     0.148 C 
HETATM    8  C8  UNL     1     -34.544  15.255  -3.547  1.00 20.00     0.033 C 
HETATM    9  N9  UNL     1     -33.997  16.731  -5.465  1.00 20.00    -0.298 NA
ENDROOT
TORSDOF 0
ENDMDL
