MODEL 1
REMARK VINA RESULT:      -4.5      0.000      0.000
REMARK  1 active torsions:
REMARK  status: ('A' for Active; 'I' for Inactive)
REMARK    1  A    between atoms: C1_1  and  C6_6 
ROOT
HETATM    1  C2  UNL     1     -33.920  16.556  -5.910  1.00 20.00     0.001 C 
HETATM    2  C3  UNL     1     -35.304  15.925  -6.031  1.00 20.00     0.011 C 
HETATM    3  C4  UNL     1     -33.659  17.074  -4.499  1.00 20.00     0.009 C 
HETATM    4  C5  UNL     1     -35.196  15.288  -3.558  1.00 20.00     0.020 C 
HETATM    5  C6  UNL     1     -35.574  14.851  -4.980  1.00 20.00     0.048 C 
HETATM    6  C7  UNL     1     -33.825  15.992  -3.411  1.00 20.00    -0.047 C 
HETATM    7  C8  UNL     1     -32.665  14.979  -3.473  1.00 20.00     0.015 C 
HETATM    8  C9  UNL     1     -33.767  16.669  -2.025  1.00 20.00     0.015 C 
ENDROOT
BRANCH   5   9
HETATM    9  C1  UNL     1     -34.931  13.545  -5.341  1.00 20.00     0.235 C 
HETATM   10  O10 UNL     1     -34.930  12.565  -4.602  1.00 20.00    -0.306 OA
ENDBRANCH   5   9
TORSDOF 1
ENDMDL
MODEL 2
REMARK VINA RESULT:      -4.3      1.574      2.675
REMARK  1 active torsions:
REMARK  status: ('A' for Active; 'I' for Inactive)
REMARK    1  A    between atoms: C1_1  and  C6_6 
ROOT
HETATM    1  C2  UNL     1     -33.814  14.140  -3.375  1.00 20.00     0.001 C 
HETATM    2  C3  UNL     1     -34.845  13.498  -4.298  1.00 20.00     0.011 C 
HETATM    3  C4  UNL     1     -33.171  15.367  -4.015  1.00 20.00     0.009 C 
HETATM    4  C5  UNL     1     -35.295  15.789  -5.338  1.00 20.00     0.020 C 
HETATM    5  C6  UNL     1     -35.897  14.481  -4.808  1.00 20.00     0.048 C 
HETATM    6  C7  UNL     1     -34.196  16.433  -4.456  1.00 20.00    -0.047 C 
HETATM    7  C8  UNL     1     -34.805  17.139  -3.229  1.00 20.00     0.015 C 
HETATM    8  C9  UNL     1     -33.467  17.508  -5.288  1.00 20.00     0.015 C 
ENDROOT
BRANCH   5   9
HETATM    9  C1  UNL     1     -36.958  14.743  -3.781  1.00 20.00     0.235 C 
HETATM   10  O10 UNL     1     -38.043  14.168  -3.768  1.00 20.00    -0.306 OA
ENDBRANCH   5   9
TORSDOF 1
ENDMDL
MODEL 3
REMARK VINA RESULT:      -4.3      1.258      2.528
REMARK  1 active torsions:
REMARK  status: ('A' for Active; 'I' for Inactive)
REMARK    1  A    between atoms: C1_1  and  C6_6 
ROOT
HETATM    1  C2  UNL     1     -36.527  15.639  -4.622  1.00 20.00     0.001 C 
HETATM    2  C3  UNL     1     -35.862  15.054  -3.380  1.00 20.00     0.011 C 
HETATM    3  C4  UNL     1     -35.783  16.871  -5.133  1.00 20.00     0.009 C 
HETATM    4  C5  UNL     1     -33.611  15.943  -4.205  1.00 20.00     0.020 C 
HETATM    5  C6  UNL     1     -34.372  14.773  -3.568  1.00 20.00     0.048 C 
HETATM    6  C7  UNL     1     -34.292  16.603  -5.430  1.00 20.00    -0.047 C 
HETATM    7  C8  UNL     1     -34.139  15.734  -6.693  1.00 20.00     0.015 C 
HETATM    8  C9  UNL     1     -33.594  17.950  -5.712  1.00 20.00     0.015 C 
ENDROOT
BRANCH   5   9
HETATM    9  C1  UNL     1     -34.137  13.493  -4.314  1.00 20.00     0.235 C 
HETATM   10  O10 UNL     1     -34.981  12.609  -4.422  1.00 20.00    -0.306 OA
ENDBRANCH   5   9
TORSDOF 1
ENDMDL
MODEL 4
REMARK VINA RESULT:      -4.2      1.537      3.248
REMARK  1 active torsions:
REMARK  status: ('A' for Active; 'I' for Inactive)
REMARK    1  A    between atoms: C1_1  and  C6_6 
ROOT
HETATM    1  C2  UNL     1     -33.905  16.272  -3.892  1.00 20.00     0.001 C 
HETATM    2  C3  UNL     1     -34.283  14.960  -3.212  1.00 20.00     0.011 C 
HETATM    3  C4  UNL     1     -33.623  16.077  -5.379  1.00 20.00     0.009 C 
HETATM    4  C5  UNL     1     -35.247  14.127  -5.429  1.00 20.00     0.020 C 
HETATM    5  C6  UNL     1     -35.429  14.227  -3.908  1.00 20.00     0.048 C 
HETATM    6  C7  UNL     1     -34.798  15.427  -6.141  1.00 20.00    -0.047 C 
HETATM    7  C8  UNL     1     -35.967  16.420  -6.284  1.00 20.00     0.015 C 
HETATM    8  C9  UNL     1     -34.326  15.067  -7.565  1.00 20.00     0.015 C 
ENDROOT
BRANCH   5   9
HETATM    9  C1  UNL     1     -36.763  14.813  -3.552  1.00 20.00     0.235 C 
HETATM   10  O10 UNL     1     -37.826  14.225  -3.723  1.00 20.00    -0.306 OA
ENDBRANCH   5   9
TORSDOF 1
ENDMDL
MODEL 5
REMARK VINA RESULT:      -4.2      1.153      1.430
REMARK  1 active torsions:
REMARK  status: ('A' for Active; 'I' for Inactive)
REMARK    1  A    between atoms: C1_1  and  C6_6 
ROOT
HETATM    1  C2  UNL     1     -33.318  16.533  -5.290  1.00 20.00     0.001 C 
HETATM    2  C3  UNL     1     -34.075  15.615  -6.245  1.00 20.00     0.011 C 
HETATM    3  C4  UNL     1     -34.270  17.336  -4.407  1.00 20.00     0.009 C 
HETATM    4  C5  UNL     1     -35.976  15.462  -4.542  1.00 20.00     0.020 C 
HETATM    5  C6  UNL     1     -35.086  14.711  -5.542  1.00 20.00     0.048 C 
HETATM    6  C7  UNL     1     -35.246  16.453  -3.601  1.00 20.00    -0.047 C 
HETATM    7  C8  UNL     1     -34.501  15.711  -2.475  1.00 20.00     0.015 C 
HETATM    8  C9  UNL     1     -36.299  17.361  -2.933  1.00 20.00     0.015 C 
ENDROOT
BRANCH   5   9
HETATM    9  C1  UNL     1     -34.424  13.526  -4.904  1.00 20.00     0.235 C 
HETATM   10  O10 UNL     1     -35.043  12.633  -4.333  1.00 20.00    -0.306 OA
ENDBRANCH   5   9
TORSDOF 1
ENDMDL
MODEL 6
REMARK VINA RESULT:      -4.2      1.828      3.587
REMARK  1 active torsions:
REMARK  status: ('A' for Active; 'I' for Inactive)
REMARK    1  A    between atoms: C1_1  and  C6_6 
ROOT
HETATM    1  C2  UNL     1     -34.184  13.532  -4.648  1.00 20.00     0.001 C 
HETATM    2  C3  UNL     1     -33.457  14.180  -3.474  1.00 20.00     0.011 C 
HETATM    3  C4  UNL     1     -35.695  13.505  -4.430  1.00 20.00     0.009 C 
HETATM    4  C5  UNL     1     -35.527  15.608  -3.019  1.00 20.00     0.020 C 
HETATM    5  C6  UNL     1     -33.996  15.563  -3.116  1.00 20.00     0.048 C 
HETATM    6  C7  UNL     1     -36.297  14.901  -4.162  1.00 20.00    -0.047 C 
HETATM    7  C8  UNL     1     -36.292  15.749  -5.448  1.00 20.00     0.015 C 
HETATM    8  C9  UNL     1     -37.768  14.731  -3.730  1.00 20.00     0.015 C 
ENDROOT
BRANCH   5   9
HETATM    9  C1  UNL     1     -33.474  16.621  -4.042  1.00 20.00     0.235 C 
HETATM   10  O10 UNL     1     -32.739  16.382  -4.995  1.00 20.00    -0.306 OA
ENDBRANCH   5   9
TORSDOF 1
ENDMDL
MODEL 7
REMARK VINA RESULT:      -4.2      1.209      1.888
REMARK  1 active torsions:
REMARK  status: ('A' for Active; 'I' for Inactive)
REMARK    1  A    between atoms: C1_1  and  C6_6 
ROOT
HETATM    1  C2  UNL     1     -36.384  15.849  -4.972  1.00 20.00     0.001 C 
HETATM    2  C3  UNL     1     -36.381  14.729  -3.937  1.00 20.00     0.011 C 
HETATM    3  C4  UNL     1     -35.698  17.107  -4.445  1.00 20.00     0.009 C 
HETATM    4  C5  UNL     1     -34.213  15.675  -2.966  1.00 20.00     0.020 C 
HETATM    5  C6  UNL     1     -34.990  14.420  -3.385  1.00 20.00     0.048 C 
HETATM    6  C7  UNL     1     -34.252  16.857  -3.967  1.00 20.00    -0.047 C 
HETATM    7  C8  UNL     1     -33.320  16.605  -5.168  1.00 20.00     0.015 C 
HETATM    8  C9  UNL     1     -33.742  18.124  -3.249  1.00 20.00     0.015 C 
ENDROOT
BRANCH   5   9
HETATM    9  C1  UNL     1     -34.193  13.570  -4.328  1.00 20.00     0.235 C 
HETATM   10  O10 UNL     1     -34.637  12.561  -4.868  1.00 20.00    -0.306 OA
ENDBRANCH   5   9
TORSDOF 1
ENDMDL
MODEL 8
REMARK VINA RESULT:      -4.2      1.152      1.497
REMARK  1 active torsions:
REMARK  status: ('A' for Active; 'I' for Inactive)
REMARK    1  A    between atoms: C1_1  and  C6_6 
ROOT
HETATM    1  C2  UNL     1     -34.255  15.061  -6.851  1.00 20.00     0.001 C 
HETATM    2  C3  UNL     1     -35.658  14.589  -6.481  1.00 20.00     0.011 C 
HETATM    3  C4  UNL     1     -33.961  16.450  -6.289  1.00 20.00     0.009 C 
HETATM    4  C5  UNL     1     -35.536  15.997  -4.351  1.00 20.00     0.020 C 
HETATM    5  C6  UNL     1     -35.944  14.659  -4.982  1.00 20.00     0.048 C 
HETATM    6  C7  UNL     1     -34.144  16.539  -4.758  1.00 20.00    -0.047 C 
HETATM    7  C8  UNL     1     -33.014  15.782  -4.034  1.00 20.00     0.015 C 
HETATM    8  C9  UNL     1     -34.050  18.019  -4.334  1.00 20.00     0.015 C 
ENDROOT
BRANCH   5   9
HETATM    9  C1  UNL     1     -35.343  13.499  -4.245  1.00 20.00     0.235 C 
HETATM   10  O10 UNL     1     -34.794  12.555  -4.805  1.00 20.00    -0.306 OA
ENDBRANCH   5   9
TORSDOF 1
ENDMDL
MODEL 9
REMARK VINA RESULT:      -4.2      1.473      2.978
REMARK  1 active torsions:
REMARK  status: ('A' for Active; 'I' for Inactive)
REMARK    1  A    between atoms: C1_1  and  C6_6 
ROOT
HETATM    1  C2  UNL     1     -34.647  16.089  -2.146  1.00 20.00     0.001 C 
HETATM    2  C3  UNL     1     -33.497  15.644  -3.043  1.00 20.00     0.011 C 
HETATM    3  C4  UNL     1     -35.703  16.869  -2.926  1.00 20.00     0.009 C 
HETATM    4  C5  UNL     1     -35.114  15.565  -5.022  1.00 20.00     0.020 C 
HETATM    5  C6  UNL     1     -33.958  14.879  -4.282  1.00 20.00     0.048 C 
HETATM    6  C7  UNL     1     -36.268  16.089  -4.132  1.00 20.00    -0.047 C 
HETATM    7  C8  UNL     1     -37.175  14.938  -3.656  1.00 20.00     0.015 C 
HETATM    8  C9  UNL     1     -37.142  17.043  -4.973  1.00 20.00     0.015 C 
ENDROOT
BRANCH   5   9
HETATM    9  C1  UNL     1     -34.282  13.449  -3.964  1.00 20.00     0.235 C 
HETATM   10  O10 UNL     1     -34.774  12.671  -4.776  1.00 20.00    -0.306 OA
ENDBRANCH   5   9
TORSDOF 1
ENDMDL
