MODEL 1
REMARK VINA RESULT:      -4.3      0.000      0.000
REMARK  3 active torsions:
REMARK  status: ('A' for Active; 'I' for Inactive)
REMARK    1  A    between atoms: C5_5  and  N8_8 
REMARK    2  A    between atoms: C6_6  and  C7_7 
REMARK    3  A    between atoms: C7_7  and  N8_8 
ROOT
HETATM    1  C1  UNL     1     -31.981   8.734   1.449  1.00 20.00     0.013 C 
HETATM    2  C2  UNL     1     -32.098   7.893   2.297  1.00 20.00    -0.087 C 
HETATM    3  C5  UNL     1     -32.234   6.867   3.334  1.00 20.00     0.364 C 
ENDROOT
BRANCH   3   4
HETATM    4  N8  UNL     1     -33.639   6.513   3.529  1.00 20.00     0.095 N 
HETATM    5  C4  UNL     1     -34.017   5.409   2.648  1.00 20.00     0.310 C 
BRANCH   4   6
HETATM    6  C7  UNL     1     -33.889   6.160   4.926  1.00 20.00     0.272 C 
BRANCH   6   7
HETATM    7  C6  UNL     1     -35.062   5.200   5.081  1.00 20.00     0.026 C 
HETATM    8  C3  UNL     1     -34.756   4.043   6.021  1.00 20.00     0.007 C 
ENDBRANCH   6   7
ENDBRANCH   4   6
ENDBRANCH   3   4
TORSDOF 3
ENDMDL
MODEL 2
REMARK VINA RESULT:      -4.1      0.764      4.530
REMARK  3 active torsions:
REMARK  status: ('A' for Active; 'I' for Inactive)
REMARK    1  A    between atoms: C5_5  and  N8_8 
REMARK    2  A    between atoms: C6_6  and  C7_7 
REMARK    3  A    between atoms: C7_7  and  N8_8 
ROOT
HETATM    1  C1  UNL     1     -35.195   4.026   5.947  1.00 20.00     0.013 C 
HETATM    2  C2  UNL     1     -35.051   4.653   4.934  1.00 20.00    -0.087 C 
HETATM    3  C5  UNL     1     -34.880   5.416   3.695  1.00 20.00     0.364 C 
ENDROOT
BRANCH   3   4
HETATM    4  N8  UNL     1     -33.919   6.502   3.885  1.00 20.00     0.095 N 
HETATM    5  C4  UNL     1     -33.639   6.695   5.307  1.00 20.00     0.310 C 
BRANCH   4   6
HETATM    6  C7  UNL     1     -32.683   6.224   3.154  1.00 20.00     0.272 C 
BRANCH   6   7
HETATM    7  C6  UNL     1     -31.762   7.436   3.091  1.00 20.00     0.026 C 
HETATM    8  C3  UNL     1     -32.088   8.362   1.927  1.00 20.00     0.007 C 
ENDBRANCH   6   7
ENDBRANCH   4   6
ENDBRANCH   3   4
TORSDOF 3
ENDMDL
MODEL 3
REMARK VINA RESULT:      -4.0      1.330      2.012
REMARK  3 active torsions:
REMARK  status: ('A' for Active; 'I' for Inactive)
REMARK    1  A    between atoms: C5_5  and  N8_8 
REMARK    2  A    between atoms: C6_6  and  C7_7 
REMARK    3  A    between atoms: C7_7  and  N8_8 
ROOT
HETATM    1  C1  UNL     1     -31.787   7.260   3.308  1.00 20.00     0.013 C 
HETATM    2  C2  UNL     1     -32.679   6.468   3.174  1.00 20.00    -0.087 C 
HETATM    3  C5  UNL     1     -33.763   5.497   3.006  1.00 20.00     0.364 C 
ENDROOT
BRANCH   3   4
HETATM    4  N8  UNL     1     -34.799   5.701   4.017  1.00 20.00     0.095 N 
HETATM    5  C4  UNL     1     -36.108   5.864   3.385  1.00 20.00     0.310 C 
BRANCH   4   6
HETATM    6  C7  UNL     1     -34.823   4.580   4.957  1.00 20.00     0.272 C 
BRANCH   6   7
HETATM    7  C6  UNL     1     -34.559   5.021   6.392  1.00 20.00     0.026 C 
HETATM    8  C3  UNL     1     -34.100   6.469   6.487  1.00 20.00     0.007 C 
ENDBRANCH   6   7
ENDBRANCH   4   6
ENDBRANCH   3   4
TORSDOF 3
ENDMDL
MODEL 4
REMARK VINA RESULT:      -3.9      0.554      4.456
REMARK  3 active torsions:
REMARK  status: ('A' for Active; 'I' for Inactive)
REMARK    1  A    between atoms: C5_5  and  N8_8 
REMARK    2  A    between atoms: C6_6  and  C7_7 
REMARK    3  A    between atoms: C7_7  and  N8_8 
ROOT
HETATM    1  C1  UNL     1     -35.111   4.290   5.983  1.00 20.00     0.013 C 
HETATM    2  C2  UNL     1     -34.514   5.257   5.597  1.00 20.00    -0.087 C 
HETATM    3  C5  UNL     1     -33.787   6.440   5.131  1.00 20.00     0.364 C 
ENDROOT
BRANCH   3   4
HETATM    4  N8  UNL     1     -32.985   6.121   3.950  1.00 20.00     0.095 N 
HETATM    5  C4  UNL     1     -33.848   5.747   2.831  1.00 20.00     0.310 C 
BRANCH   4   6
HETATM    6  C7  UNL     1     -32.139   7.257   3.584  1.00 20.00     0.272 C 
BRANCH   6   7
HETATM    7  C6  UNL     1     -32.148   7.528   2.085  1.00 20.00     0.026 C 
HETATM    8  C3  UNL     1     -32.212   9.013   1.756  1.00 20.00     0.007 C 
ENDBRANCH   6   7
ENDBRANCH   4   6
ENDBRANCH   3   4
TORSDOF 3
ENDMDL
MODEL 5
REMARK VINA RESULT:      -3.8      1.634      3.856
REMARK  3 active torsions:
REMARK  status: ('A' for Active; 'I' for Inactive)
REMARK    1  A    between atoms: C5_5  and  N8_8 
REMARK    2  A    between atoms: C6_6  and  C7_7 
REMARK    3  A    between atoms: C7_7  and  N8_8 
ROOT
HETATM    1  C1  UNL     1     -33.244   7.645   6.995  1.00 20.00     0.013 C 
HETATM    2  C2  UNL     1     -33.904   6.692   6.685  1.00 20.00    -0.087 C 
HETATM    3  C5  UNL     1     -34.714   5.529   6.312  1.00 20.00     0.364 C 
ENDROOT
BRANCH   3   4
HETATM    4  N8  UNL     1     -34.273   4.983   5.029  1.00 20.00     0.095 N 
HETATM    5  C4  UNL     1     -35.063   3.805   4.675  1.00 20.00     0.310 C 
BRANCH   4   6
HETATM    6  C7  UNL     1     -34.373   5.999   3.980  1.00 20.00     0.272 C 
BRANCH   6   7
HETATM    7  C6  UNL     1     -33.176   5.978   3.038  1.00 20.00     0.026 C 
HETATM    8  C3  UNL     1     -32.100   6.980   3.432  1.00 20.00     0.007 C 
ENDBRANCH   6   7
ENDBRANCH   4   6
ENDBRANCH   3   4
TORSDOF 3
ENDMDL
MODEL 6
REMARK VINA RESULT:      -3.7     11.015     12.137
REMARK  3 active torsions:
REMARK  status: ('A' for Active; 'I' for Inactive)
REMARK    1  A    between atoms: C5_5  and  N8_8 
REMARK    2  A    between atoms: C6_6  and  C7_7 
REMARK    3  A    between atoms: C7_7  and  N8_8 
ROOT
HETATM    1  C1  UNL     1     -34.659  16.552  -0.770  1.00 20.00     0.013 C 
HETATM    2  C2  UNL     1     -34.250  16.890  -1.847  1.00 20.00    -0.087 C 
HETATM    3  C5  UNL     1     -33.749  17.308  -3.159  1.00 20.00     0.364 C 
ENDROOT
BRANCH   3   4
HETATM    4  N8  UNL     1     -33.792  16.196  -4.106  1.00 20.00     0.095 N 
HETATM    5  C4  UNL     1     -33.474  16.660  -5.456  1.00 20.00     0.310 C 
BRANCH   4   6
HETATM    6  C7  UNL     1     -32.866  15.140  -3.698  1.00 20.00     0.272 C 
BRANCH   6   7
HETATM    7  C6  UNL     1     -33.495  13.754  -3.779  1.00 20.00     0.026 C 
HETATM    8  C3  UNL     1     -35.009  13.803  -3.925  1.00 20.00     0.007 C 
ENDBRANCH   6   7
ENDBRANCH   4   6
ENDBRANCH   3   4
TORSDOF 3
ENDMDL
MODEL 7
REMARK VINA RESULT:      -3.6     10.895     11.646
REMARK  3 active torsions:
REMARK  status: ('A' for Active; 'I' for Inactive)
REMARK    1  A    between atoms: C5_5  and  N8_8 
REMARK    2  A    between atoms: C6_6  and  C7_7 
REMARK    3  A    between atoms: C7_7  and  N8_8 
ROOT
HETATM    1  C1  UNL     1     -34.752  14.775  -6.712  1.00 20.00     0.013 C 
HETATM    2  C2  UNL     1     -34.849  14.119  -5.712  1.00 20.00    -0.087 C 
HETATM    3  C5  UNL     1     -34.971  13.314  -4.494  1.00 20.00     0.364 C 
ENDROOT
BRANCH   3   4
HETATM    4  N8  UNL     1     -34.327  13.985  -3.365  1.00 20.00     0.095 N 
HETATM    5  C4  UNL     1     -32.917  14.240  -3.657  1.00 20.00     0.310 C 
BRANCH   4   6
HETATM    6  C7  UNL     1     -35.017  15.236  -3.052  1.00 20.00     0.272 C 
BRANCH   6   7
HETATM    7  C6  UNL     1     -34.116  16.232  -2.332  1.00 20.00     0.026 C 
HETATM    8  C3  UNL     1     -34.623  16.584  -0.941  1.00 20.00     0.007 C 
ENDBRANCH   6   7
ENDBRANCH   4   6
ENDBRANCH   3   4
TORSDOF 3
ENDMDL
MODEL 8
REMARK VINA RESULT:      -3.6     11.131     12.115
REMARK  3 active torsions:
REMARK  status: ('A' for Active; 'I' for Inactive)
REMARK    1  A    between atoms: C5_5  and  N8_8 
REMARK    2  A    between atoms: C6_6  and  C7_7 
REMARK    3  A    between atoms: C7_7  and  N8_8 
ROOT
HETATM    1  C1  UNL     1     -35.014  13.331  -4.198  1.00 20.00     0.013 C 
HETATM    2  C2  UNL     1     -34.069  14.034  -3.969  1.00 20.00    -0.087 C 
HETATM    3  C5  UNL     1     -32.912  14.887  -3.687  1.00 20.00     0.364 C 
ENDROOT
BRANCH   3   4
HETATM    4  N8  UNL     1     -33.178  16.267  -4.088  1.00 20.00     0.095 N 
HETATM    5  C4  UNL     1     -33.550  16.328  -5.501  1.00 20.00     0.310 C 
BRANCH   4   6
HETATM    6  C7  UNL     1     -34.234  16.846  -3.257  1.00 20.00     0.272 C 
BRANCH   6   7
HETATM    7  C6  UNL     1     -33.756  17.156  -1.844  1.00 20.00     0.026 C 
HETATM    8  C3  UNL     1     -34.689  16.607  -0.774  1.00 20.00     0.007 C 
ENDBRANCH   6   7
ENDBRANCH   4   6
ENDBRANCH   3   4
TORSDOF 3
ENDMDL
MODEL 9
REMARK VINA RESULT:      -3.6     11.317     12.110
REMARK  3 active torsions:
REMARK  status: ('A' for Active; 'I' for Inactive)
REMARK    1  A    between atoms: C5_5  and  N8_8 
REMARK    2  A    between atoms: C6_6  and  C7_7 
REMARK    3  A    between atoms: C7_7  and  N8_8 
ROOT
HETATM    1  C1  UNL     1     -34.692  16.619  -0.830  1.00 20.00     0.013 C 
HETATM    2  C2  UNL     1     -34.367  16.156  -1.889  1.00 20.00    -0.087 C 
HETATM    3  C5  UNL     1     -33.966  15.594  -3.181  1.00 20.00     0.364 C 
ENDROOT
BRANCH   3   4
HETATM    4  N8  UNL     1     -34.768  14.414  -3.502  1.00 20.00     0.095 N 
HETATM    5  C4  UNL     1     -36.175  14.778  -3.663  1.00 20.00     0.310 C 
BRANCH   4   6
HETATM    6  C7  UNL     1     -34.265  13.768  -4.715  1.00 20.00     0.272 C 
BRANCH   6   7
HETATM    7  C6  UNL     1     -35.089  14.126  -5.946  1.00 20.00     0.026 C 
HETATM    8  C3  UNL     1     -34.349  15.050  -6.901  1.00 20.00     0.007 C 
ENDBRANCH   6   7
ENDBRANCH   4   6
ENDBRANCH   3   4
TORSDOF 3
ENDMDL
