MODEL 1
REMARK VINA RESULT:      -3.3      0.000      0.000
REMARK  0 active torsions:
REMARK  status: ('A' for Active; 'I' for Inactive)
ROOT
HETATM    1  C1  UNL     1     -35.084  15.224  -2.875  1.00 20.00     0.292 C 
HETATM    2  C2  UNL     1     -33.667  17.088  -3.124  1.00 20.00     0.346 C 
HETATM    3  C3  UNL     1     -34.340  14.726  -4.129  1.00 20.00     0.029 C 
HETATM    4  C4  UNL     1     -35.311  14.212  -5.190  1.00 20.00     0.028 C 
HETATM    5  C5  UNL     1     -33.292  13.657  -3.793  1.00 20.00     0.028 C 
HETATM    6  C6  UNL     1     -34.793  16.748  -1.007  1.00 20.00     0.310 C 
HETATM    7  N7  UNL     1     -34.160  16.108  -2.152  1.00 20.00     0.094 N 
HETATM    8  S8  UNL     1     -33.486  16.231  -4.716  1.00 20.00    -0.128 SA
ENDROOT
TORSDOF 0
ENDMDL
MODEL 2
REMARK VINA RESULT:      -3.3      2.258      3.614
REMARK  0 active torsions:
REMARK  status: ('A' for Active; 'I' for Inactive)
ROOT
HETATM    1  C1  UNL     1     -34.391  16.054  -4.954  1.00 20.00     0.292 C 
HETATM    2  C2  UNL     1     -35.113  14.079  -6.015  1.00 20.00     0.346 C 
HETATM    3  C3  UNL     1     -34.114  15.099  -3.777  1.00 20.00     0.029 C 
HETATM    4  C4  UNL     1     -34.673  15.648  -2.467  1.00 20.00     0.028 C 
HETATM    5  C5  UNL     1     -32.621  14.776  -3.635  1.00 20.00     0.028 C 
HETATM    6  C6  UNL     1     -34.632  16.027  -7.371  1.00 20.00     0.310 C 
HETATM    7  N7  UNL     1     -34.266  15.263  -6.186  1.00 20.00     0.094 N 
HETATM    8  S8  UNL     1     -35.004  13.581  -4.270  1.00 20.00    -0.128 SA
ENDROOT
TORSDOF 0
ENDMDL
MODEL 3
REMARK VINA RESULT:      -3.2      2.272      3.753
REMARK  0 active torsions:
REMARK  status: ('A' for Active; 'I' for Inactive)
ROOT
HETATM    1  C1  UNL     1     -34.780  13.980  -5.738  1.00 20.00     0.292 C 
HETATM    2  C2  UNL     1     -34.319  16.100  -6.652  1.00 20.00     0.346 C 
HETATM    3  C3  UNL     1     -34.317  14.649  -4.430  1.00 20.00     0.029 C 
HETATM    4  C4  UNL     1     -33.312  13.778  -3.680  1.00 20.00     0.028 C 
HETATM    5  C5  UNL     1     -35.496  15.018  -3.521  1.00 20.00     0.028 C 
HETATM    6  C6  UNL     1     -35.689  14.554  -7.915  1.00 20.00     0.310 C 
HETATM    7  N7  UNL     1     -35.330  15.042  -6.591  1.00 20.00     0.094 N 
HETATM    8  S8  UNL     1     -33.520  16.184  -5.021  1.00 20.00    -0.128 SA
ENDROOT
TORSDOF 0
ENDMDL
MODEL 4
REMARK VINA RESULT:      -3.2      1.657      3.510
REMARK  0 active torsions:
REMARK  status: ('A' for Active; 'I' for Inactive)
ROOT
HETATM    1  C1  UNL     1     -33.736  15.873  -3.002  1.00 20.00     0.292 C 
HETATM    2  C2  UNL     1     -35.912  15.231  -3.633  1.00 20.00     0.346 C 
HETATM    3  C3  UNL     1     -34.484  16.990  -2.250  1.00 20.00     0.029 C 
HETATM    4  C4  UNL     1     -33.860  18.358  -2.513  1.00 20.00     0.028 C 
HETATM    5  C5  UNL     1     -34.568  16.715  -0.743  1.00 20.00     0.028 C 
HETATM    6  C6  UNL     1     -34.103  13.643  -3.891  1.00 20.00     0.310 C 
HETATM    7  N7  UNL     1     -34.651  14.726  -3.086  1.00 20.00     0.094 N 
HETATM    8  S8  UNL     1     -36.164  16.903  -2.963  1.00 20.00    -0.128 SA
ENDROOT
TORSDOF 0
ENDMDL
MODEL 5
REMARK VINA RESULT:      -3.2      1.781      2.639
REMARK  0 active torsions:
REMARK  status: ('A' for Active; 'I' for Inactive)
ROOT
HETATM    1  C1  UNL     1     -34.301  15.955  -4.871  1.00 20.00     0.292 C 
HETATM    2  C2  UNL     1     -34.236  14.112  -3.407  1.00 20.00     0.346 C 
HETATM    3  C3  UNL     1     -35.033  14.961  -5.793  1.00 20.00     0.029 C 
HETATM    4  C4  UNL     1     -34.458  14.981  -7.207  1.00 20.00     0.028 C 
HETATM    5  C5  UNL     1     -36.546  15.206  -5.820  1.00 20.00     0.028 C 
HETATM    6  C6  UNL     1     -33.825  16.327  -2.519  1.00 20.00     0.310 C 
HETATM    7  N7  UNL     1     -34.570  15.536  -3.489  1.00 20.00     0.094 N 
HETATM    8  S8  UNL     1     -34.707  13.352  -4.990  1.00 20.00    -0.128 SA
ENDROOT
TORSDOF 0
ENDMDL
MODEL 6
REMARK VINA RESULT:      -3.2     12.916     13.837
REMARK  0 active torsions:
REMARK  status: ('A' for Active; 'I' for Inactive)
ROOT
HETATM    1  C1  UNL     1     -41.083   4.294  -1.628  1.00 20.00     0.292 C 
HETATM    2  C2  UNL     1     -43.005   4.457  -2.978  1.00 20.00     0.346 C 
HETATM    3  C3  UNL     1     -41.795   5.384  -0.805  1.00 20.00     0.029 C 
HETATM    4  C4  UNL     1     -40.855   6.539  -0.472  1.00 20.00     0.028 C 
HETATM    5  C5  UNL     1     -42.432   4.820   0.471  1.00 20.00     0.028 C 
HETATM    6  C6  UNL     1     -41.577   2.515  -3.206  1.00 20.00     0.310 C 
HETATM    7  N7  UNL     1     -42.130   3.504  -2.291  1.00 20.00     0.094 N 
HETATM    8  S8  UNL     1     -43.121   5.940  -1.933  1.00 20.00    -0.128 SA
ENDROOT
TORSDOF 0
ENDMDL
MODEL 7
REMARK VINA RESULT:      -3.1      1.980      2.651
REMARK  0 active torsions:
REMARK  status: ('A' for Active; 'I' for Inactive)
ROOT
HETATM    1  C1  UNL     1     -33.365  16.085  -4.567  1.00 20.00     0.292 C 
HETATM    2  C2  UNL     1     -35.340  17.113  -3.801  1.00 20.00     0.346 C 
HETATM    3  C3  UNL     1     -34.226  14.809  -4.506  1.00 20.00     0.029 C 
HETATM    4  C4  UNL     1     -33.494  13.672  -3.797  1.00 20.00     0.028 C 
HETATM    5  C5  UNL     1     -34.698  14.364  -5.896  1.00 20.00     0.028 C 
HETATM    6  C6  UNL     1     -33.598  18.495  -4.760  1.00 20.00     0.310 C 
HETATM    7  N7  UNL     1     -34.280  17.209  -4.808  1.00 20.00     0.094 N 
HETATM    8  S8  UNL     1     -35.676  15.346  -3.532  1.00 20.00    -0.128 SA
ENDROOT
TORSDOF 0
ENDMDL
MODEL 8
REMARK VINA RESULT:      -3.1      1.548      3.350
REMARK  0 active torsions:
REMARK  status: ('A' for Active; 'I' for Inactive)
ROOT
HETATM    1  C1  UNL     1     -34.840  14.914  -3.036  1.00 20.00     0.292 C 
HETATM    2  C2  UNL     1     -33.705  15.870  -4.864  1.00 20.00     0.346 C 
HETATM    3  C3  UNL     1     -34.984  16.383  -2.595  1.00 20.00     0.029 C 
HETATM    4  C4  UNL     1     -34.602  16.568  -1.129  1.00 20.00     0.028 C 
HETATM    5  C5  UNL     1     -36.392  16.930  -2.860  1.00 20.00     0.028 C 
HETATM    6  C6  UNL     1     -34.486  13.585  -5.037  1.00 20.00     0.310 C 
HETATM    7  N7  UNL     1     -34.753  14.913  -4.503  1.00 20.00     0.094 N 
HETATM    8  S8  UNL     1     -33.797  17.249  -3.682  1.00 20.00    -0.128 SA
ENDROOT
TORSDOF 0
ENDMDL
MODEL 9
REMARK VINA RESULT:      -3.1      2.223      2.790
REMARK  0 active torsions:
REMARK  status: ('A' for Active; 'I' for Inactive)
ROOT
HETATM    1  C1  UNL     1     -34.966  16.208  -4.366  1.00 20.00     0.292 C 
HETATM    2  C2  UNL     1     -34.138  15.854  -6.542  1.00 20.00     0.346 C 
HETATM    3  C3  UNL     1     -35.304  14.707  -4.452  1.00 20.00     0.029 C 
HETATM    4  C4  UNL     1     -36.736  14.429  -4.001  1.00 20.00     0.028 C 
HETATM    5  C5  UNL     1     -34.312  13.845  -3.662  1.00 20.00     0.028 C 
HETATM    6  C6  UNL     1     -33.465  17.848  -5.343  1.00 20.00     0.310 C 
HETATM    7  N7  UNL     1     -33.806  16.436  -5.239  1.00 20.00     0.094 N 
HETATM    8  S8  UNL     1     -35.112  14.351  -6.234  1.00 20.00    -0.128 SA
ENDROOT
TORSDOF 0
ENDMDL
