MODEL 1
REMARK VINA RESULT:      -3.5      0.000      0.000
REMARK  2 active torsions:
REMARK  status: ('A' for Active; 'I' for Inactive)
REMARK    1  A    between atoms: C1_1  and  S9_9 
REMARK    2  A    between atoms: C2_2  and  N7_7 
ROOT
HETATM    1  C1  UNL     1     -34.708  14.976  -3.353  1.00 20.00     0.102 C 
HETATM    2  C2  UNL     1     -34.068  16.158  -3.255  1.00 20.00     0.011 C 
HETATM    3  C3  UNL     1     -33.293  16.667  -4.446  1.00 20.00     0.068 C 
ENDROOT
BRANCH   2   4
HETATM    4  N7  UNL     1     -34.034  16.985  -2.166  1.00 20.00    -0.393 N 
HETATM    5  C4  UNL     1     -33.643  18.380  -2.288  1.00 20.00     0.148 C 
HETATM    6  C5  UNL     1     -34.617  16.584  -0.893  1.00 20.00     0.148 C 
ENDBRANCH   2   4
BRANCH   1   7
HETATM    7  S9  UNL     1     -34.666  13.997  -4.848  1.00 20.00     0.036 S 
HETATM    8  C6  UNL     1     -36.136  14.716  -5.617  1.00 20.00     0.132 C 
HETATM    9  O8  UNL     1     -34.996  12.598  -4.424  1.00 20.00    -0.254 OA
ENDBRANCH   1   7
TORSDOF 2
ENDMDL
MODEL 2
REMARK VINA RESULT:      -3.5      1.206      1.449
REMARK  2 active torsions:
REMARK  status: ('A' for Active; 'I' for Inactive)
REMARK    1  A    between atoms: C1_1  and  S9_9 
REMARK    2  A    between atoms: C2_2  and  N7_7 
ROOT
HETATM    1  C1  UNL     1     -35.426  14.935  -3.683  1.00 20.00     0.102 C 
HETATM    2  C2  UNL     1     -34.758  15.802  -2.896  1.00 20.00     0.011 C 
HETATM    3  C3  UNL     1     -33.258  15.904  -3.038  1.00 20.00     0.068 C 
ENDROOT
BRANCH   2   4
HETATM    4  N7  UNL     1     -35.292  16.631  -1.949  1.00 20.00    -0.393 N 
HETATM    5  C4  UNL     1     -34.671  16.786  -0.643  1.00 20.00     0.148 C 
HETATM    6  C5  UNL     1     -36.349  17.576  -2.280  1.00 20.00     0.148 C 
ENDBRANCH   2   4
BRANCH   1   7
HETATM    7  S9  UNL     1     -34.593  13.908  -4.885  1.00 20.00     0.036 S 
HETATM    8  C6  UNL     1     -35.513  14.482  -6.332  1.00 20.00     0.132 C 
HETATM    9  O8  UNL     1     -35.023  12.504  -4.584  1.00 20.00    -0.254 OA
ENDBRANCH   1   7
TORSDOF 2
ENDMDL
MODEL 3
REMARK VINA RESULT:      -3.4      3.156      4.417
REMARK  2 active torsions:
REMARK  status: ('A' for Active; 'I' for Inactive)
REMARK    1  A    between atoms: C1_1  and  S9_9 
REMARK    2  A    between atoms: C2_2  and  N7_7 
ROOT
HETATM    1  C1  UNL     1     -34.925  15.970  -2.299  1.00 20.00     0.102 C 
HETATM    2  C2  UNL     1     -34.506  15.116  -3.254  1.00 20.00     0.011 C 
HETATM    3  C3  UNL     1     -33.041  15.092  -3.615  1.00 20.00     0.068 C 
ENDROOT
BRANCH   2   4
HETATM    4  N7  UNL     1     -35.276  14.235  -3.962  1.00 20.00    -0.393 N 
HETATM    5  C4  UNL     1     -36.713  14.420  -4.091  1.00 20.00     0.148 C 
HETATM    6  C5  UNL     1     -34.674  13.223  -4.819  1.00 20.00     0.148 C 
ENDBRANCH   2   4
BRANCH   1   7
HETATM    7  S9  UNL     1     -33.801  17.071  -1.451  1.00 20.00     0.036 S 
HETATM    8  C6  UNL     1     -34.793  17.279   0.046  1.00 20.00     0.132 C 
HETATM    9  O8  UNL     1     -33.838  18.357  -2.220  1.00 20.00    -0.254 OA
ENDBRANCH   1   7
TORSDOF 2
ENDMDL
MODEL 4
REMARK VINA RESULT:      -3.3      1.619      1.680
REMARK  2 active torsions:
REMARK  status: ('A' for Active; 'I' for Inactive)
REMARK    1  A    between atoms: C1_1  and  S9_9 
REMARK    2  A    between atoms: C2_2  and  N7_7 
ROOT
HETATM    1  C1  UNL     1     -36.088  15.853  -2.982  1.00 20.00     0.102 C 
HETATM    2  C2  UNL     1     -34.801  16.072  -2.646  1.00 20.00     0.011 C 
HETATM    3  C3  UNL     1     -33.732  15.203  -3.262  1.00 20.00     0.068 C 
ENDROOT
BRANCH   2   4
HETATM    4  N7  UNL     1     -34.328  17.021  -1.782  1.00 20.00    -0.393 N 
HETATM    5  C4  UNL     1     -33.708  18.244  -2.269  1.00 20.00     0.148 C 
HETATM    6  C5  UNL     1     -34.640  16.974  -0.361  1.00 20.00     0.148 C 
ENDBRANCH   2   4
BRANCH   1   7
HETATM    7  S9  UNL     1     -36.564  14.569  -4.131  1.00 20.00     0.036 S 
HETATM    8  C6  UNL     1     -36.671  15.622  -5.596  1.00 20.00     0.132 C 
HETATM    9  O8  UNL     1     -37.954  14.170  -3.738  1.00 20.00    -0.254 OA
ENDBRANCH   1   7
TORSDOF 2
ENDMDL
MODEL 5
REMARK VINA RESULT:      -3.1      3.015      4.286
REMARK  2 active torsions:
REMARK  status: ('A' for Active; 'I' for Inactive)
REMARK    1  A    between atoms: C1_1  and  S9_9 
REMARK    2  A    between atoms: C2_2  and  N7_7 
ROOT
HETATM    1  C1  UNL     1     -34.672  15.878  -3.294  1.00 20.00     0.102 C 
HETATM    2  C2  UNL     1     -34.240  15.624  -4.545  1.00 20.00     0.011 C 
HETATM    3  C3  UNL     1     -33.248  16.571  -5.177  1.00 20.00     0.068 C 
ENDROOT
BRANCH   2   4
HETATM    4  N7  UNL     1     -34.604  14.574  -5.343  1.00 20.00    -0.393 N 
HETATM    5  C4  UNL     1     -34.694  14.718  -6.787  1.00 20.00     0.148 C 
HETATM    6  C5  UNL     1     -34.675  13.217  -4.821  1.00 20.00     0.148 C 
ENDBRANCH   2   4
BRANCH   1   7
HETATM    7  S9  UNL     1     -34.107  17.296  -2.364  1.00 20.00     0.036 S 
HETATM    8  C6  UNL     1     -34.599  16.693  -0.733  1.00 20.00     0.132 C 
HETATM    9  O8  UNL     1     -35.024  18.419  -2.744  1.00 20.00    -0.254 OA
ENDBRANCH   1   7
TORSDOF 2
ENDMDL
MODEL 6
REMARK VINA RESULT:      -3.1      2.414      2.942
REMARK  2 active torsions:
REMARK  status: ('A' for Active; 'I' for Inactive)
REMARK    1  A    between atoms: C1_1  and  S9_9 
REMARK    2  A    between atoms: C2_2  and  N7_7 
ROOT
HETATM    1  C1  UNL     1     -36.381  15.773  -3.965  1.00 20.00     0.102 C 
HETATM    2  C2  UNL     1     -35.245  15.076  -3.770  1.00 20.00     0.011 C 
HETATM    3  C3  UNL     1     -35.195  13.631  -4.205  1.00 20.00     0.068 C 
ENDROOT
BRANCH   2   4
HETATM    4  N7  UNL     1     -34.087  15.534  -3.204  1.00 20.00    -0.393 N 
HETATM    5  C4  UNL     1     -34.106  16.360  -2.007  1.00 20.00     0.148 C 
HETATM    6  C5  UNL     1     -32.788  15.021  -3.617  1.00 20.00     0.148 C 
ENDBRANCH   2   4
BRANCH   1   7
HETATM    7  S9  UNL     1     -37.826  15.041  -4.721  1.00 20.00     0.036 S 
HETATM    8  C6  UNL     1     -38.718  16.585  -5.018  1.00 20.00     0.132 C 
HETATM    9  O8  UNL     1     -38.525  14.300  -3.623  1.00 20.00    -0.254 OA
ENDBRANCH   1   7
TORSDOF 2
ENDMDL
MODEL 7
REMARK VINA RESULT:      -3.1      2.621      4.512
REMARK  2 active torsions:
REMARK  status: ('A' for Active; 'I' for Inactive)
REMARK    1  A    between atoms: C1_1  and  S9_9 
REMARK    2  A    between atoms: C2_2  and  N7_7 
ROOT
HETATM    1  C1  UNL     1     -34.722  14.221  -5.268  1.00 20.00     0.102 C 
HETATM    2  C2  UNL     1     -35.989  14.638  -5.463  1.00 20.00     0.011 C 
HETATM    3  C3  UNL     1     -36.868  14.879  -4.260  1.00 20.00     0.068 C 
ENDROOT
BRANCH   2   4
HETATM    4  N7  UNL     1     -36.599  14.876  -6.664  1.00 20.00    -0.393 N 
HETATM    5  C4  UNL     1     -37.934  15.450  -6.733  1.00 20.00     0.148 C 
HETATM    6  C5  UNL     1     -35.860  14.804  -7.916  1.00 20.00     0.148 C 
ENDBRANCH   2   4
BRANCH   1   7
HETATM    7  S9  UNL     1     -34.054  13.949  -3.633  1.00 20.00     0.036 S 
HETATM    8  C6  UNL     1     -33.300  15.580  -3.435  1.00 20.00     0.132 C 
HETATM    9  O8  UNL     1     -32.956  12.943  -3.808  1.00 20.00    -0.254 OA
ENDBRANCH   1   7
TORSDOF 2
ENDMDL
MODEL 8
REMARK VINA RESULT:      -3.0      2.134      2.876
REMARK  2 active torsions:
REMARK  status: ('A' for Active; 'I' for Inactive)
REMARK    1  A    between atoms: C1_1  and  S9_9 
REMARK    2  A    between atoms: C2_2  and  N7_7 
ROOT
HETATM    1  C1  UNL     1     -33.976  15.688  -4.482  1.00 20.00     0.102 C 
HETATM    2  C2  UNL     1     -34.047  16.577  -5.492  1.00 20.00     0.011 C 
HETATM    3  C3  UNL     1     -34.353  16.074  -6.882  1.00 20.00     0.068 C 
ENDROOT
BRANCH   2   4
HETATM    4  N7  UNL     1     -33.869  17.930  -5.409  1.00 20.00    -0.393 N 
HETATM    5  C4  UNL     1     -33.583  18.579  -4.139  1.00 20.00     0.148 C 
HETATM    6  C5  UNL     1     -33.708  18.747  -6.604  1.00 20.00     0.148 C 
ENDBRANCH   2   4
BRANCH   1   7
HETATM    7  S9  UNL     1     -34.234  13.937  -4.738  1.00 20.00     0.036 S 
HETATM    8  C6  UNL     1     -35.953  13.890  -4.179  1.00 20.00     0.132 C 
HETATM    9  O8  UNL     1     -33.388  13.250  -3.709  1.00 20.00    -0.254 OA
ENDBRANCH   1   7
TORSDOF 2
ENDMDL
MODEL 9
REMARK VINA RESULT:      -3.0      2.753      3.372
REMARK  2 active torsions:
REMARK  status: ('A' for Active; 'I' for Inactive)
REMARK    1  A    between atoms: C1_1  and  S9_9 
REMARK    2  A    between atoms: C2_2  and  N7_7 
ROOT
HETATM    1  C1  UNL     1     -36.302  15.369  -3.894  1.00 20.00     0.102 C 
HETATM    2  C2  UNL     1     -35.311  15.024  -4.738  1.00 20.00     0.011 C 
HETATM    3  C3  UNL     1     -35.664  14.645  -6.157  1.00 20.00     0.068 C 
ENDROOT
BRANCH   2   4
HETATM    4  N7  UNL     1     -33.973  14.972  -4.457  1.00 20.00    -0.393 N 
HETATM    5  C4  UNL     1     -33.128  16.149  -4.585  1.00 20.00     0.148 C 
HETATM    6  C5  UNL     1     -33.385  13.821  -3.788  1.00 20.00     0.148 C 
ENDBRANCH   2   4
BRANCH   1   7
HETATM    7  S9  UNL     1     -38.016  15.393  -4.401  1.00 20.00     0.036 S 
HETATM    8  C6  UNL     1     -38.523  16.796  -3.379  1.00 20.00     0.132 C 
HETATM    9  O8  UNL     1     -38.625  14.150  -3.825  1.00 20.00    -0.254 OA
ENDBRANCH   1   7
TORSDOF 2
ENDMDL
