MODEL 1
REMARK VINA RESULT:      -3.9      0.000      0.000
REMARK  3 active torsions:
REMARK  status: ('A' for Active; 'I' for Inactive)
REMARK    1  A    between atoms: C1_1  and  C7_7 
REMARK    2  A    between atoms: C6_6  and  C7_7 
REMARK    3  A    between atoms: C6_6  and  C8_8 
ROOT
HETATM    1  C6  UNL     1     -33.795   6.967   3.941  1.00 20.00     0.019 C 
ENDROOT
BRANCH   1   2
HETATM    2  C7  UNL     1     -34.090   5.673   4.721  1.00 20.00     0.043 C 
HETATM    3  C2  UNL     1     -35.392   5.038   4.231  1.00 20.00     0.017 C 
BRANCH   2   4
HETATM    4  C1  UNL     1     -34.264   5.954   6.198  1.00 20.00     0.235 C 
HETATM    5  O9  UNL     1     -33.881   6.988   6.736  1.00 20.00    -0.306 OA
ENDBRANCH   2   4
ENDBRANCH   1   2
BRANCH   1   6
HETATM    6  C8  UNL     1     -32.392   7.095   3.281  1.00 20.00    -0.051 C 
HETATM    7  C3  UNL     1     -32.411   7.991   2.035  1.00 20.00     0.014 C 
HETATM    8  C4  UNL     1     -31.360   7.644   4.282  1.00 20.00     0.014 C 
HETATM    9  C5  UNL     1     -31.940   5.683   2.853  1.00 20.00     0.014 C 
ENDBRANCH   1   6
TORSDOF 3
ENDMDL
MODEL 2
REMARK VINA RESULT:      -3.8      0.055      1.440
REMARK  3 active torsions:
REMARK  status: ('A' for Active; 'I' for Inactive)
REMARK    1  A    between atoms: C1_1  and  C7_7 
REMARK    2  A    between atoms: C6_6  and  C7_7 
REMARK    3  A    between atoms: C6_6  and  C8_8 
ROOT
HETATM    1  C6  UNL     1     -33.792   6.931   3.960  1.00 20.00     0.019 C 
ENDROOT
BRANCH   1   2
HETATM    2  C7  UNL     1     -34.100   5.653   4.762  1.00 20.00     0.043 C 
HETATM    3  C2  UNL     1     -35.407   5.022   4.280  1.00 20.00     0.017 C 
BRANCH   2   4
HETATM    4  C1  UNL     1     -34.274   5.961   6.233  1.00 20.00     0.235 C 
HETATM    5  O9  UNL     1     -33.893   7.006   6.752  1.00 20.00    -0.306 OA
ENDBRANCH   2   4
ENDBRANCH   1   2
BRANCH   1   6
HETATM    6  C8  UNL     1     -32.381   7.042   3.313  1.00 20.00    -0.051 C 
HETATM    7  C3  UNL     1     -31.345   7.646   4.272  1.00 20.00     0.014 C 
HETATM    8  C4  UNL     1     -31.885   5.666   2.834  1.00 20.00     0.014 C 
HETATM    9  C5  UNL     1     -32.496   7.966   2.083  1.00 20.00     0.014 C 
ENDBRANCH   1   6
TORSDOF 3
ENDMDL
MODEL 3
REMARK VINA RESULT:      -3.7     11.452     12.412
REMARK  3 active torsions:
REMARK  status: ('A' for Active; 'I' for Inactive)
REMARK    1  A    between atoms: C1_1  and  C7_7 
REMARK    2  A    between atoms: C6_6  and  C7_7 
REMARK    3  A    between atoms: C6_6  and  C8_8 
ROOT
HETATM    1  C6  UNL     1     -34.955  15.618  -3.000  1.00 20.00     0.019 C 
ENDROOT
BRANCH   1   2
HETATM    2  C7  UNL     1     -34.091  16.583  -2.168  1.00 20.00     0.043 C 
HETATM    3  C2  UNL     1     -34.605  16.655  -0.730  1.00 20.00     0.017 C 
BRANCH   2   4
HETATM    4  C1  UNL     1     -34.147  17.987  -2.729  1.00 20.00     0.235 C 
HETATM    5  O9  UNL     1     -33.556  18.328  -3.749  1.00 20.00    -0.306 OA
ENDBRANCH   2   4
ENDBRANCH   1   2
BRANCH   1   6
HETATM    6  C8  UNL     1     -34.222  14.728  -4.046  1.00 20.00    -0.051 C 
HETATM    7  C3  UNL     1     -34.806  13.310  -4.119  1.00 20.00     0.014 C 
HETATM    8  C4  UNL     1     -34.271  15.368  -5.445  1.00 20.00     0.014 C 
HETATM    9  C5  UNL     1     -32.743  14.620  -3.619  1.00 20.00     0.014 C 
ENDBRANCH   1   6
TORSDOF 3
ENDMDL
MODEL 4
REMARK VINA RESULT:      -3.7     11.587     12.612
REMARK  3 active torsions:
REMARK  status: ('A' for Active; 'I' for Inactive)
REMARK    1  A    between atoms: C1_1  and  C7_7 
REMARK    2  A    between atoms: C6_6  and  C7_7 
REMARK    3  A    between atoms: C6_6  and  C8_8 
ROOT
HETATM    1  C6  UNL     1     -34.916  15.797  -4.775  1.00 20.00     0.019 C 
ENDROOT
BRANCH   1   2
HETATM    2  C7  UNL     1     -34.383  14.635  -5.634  1.00 20.00     0.043 C 
HETATM    3  C2  UNL     1     -34.570  14.939  -7.120  1.00 20.00     0.017 C 
BRANCH   2   4
HETATM    4  C1  UNL     1     -35.137  13.354  -5.347  1.00 20.00     0.235 C 
HETATM    5  O9  UNL     1     -34.983  12.698  -4.321  1.00 20.00    -0.306 OA
ENDBRANCH   2   4
ENDBRANCH   1   2
BRANCH   1   6
HETATM    6  C8  UNL     1     -34.081  16.196  -3.524  1.00 20.00    -0.051 C 
HETATM    7  C3  UNL     1     -33.741  17.694  -3.503  1.00 20.00     0.014 C 
HETATM    8  C4  UNL     1     -34.822  15.828  -2.227  1.00 20.00     0.014 C 
HETATM    9  C5  UNL     1     -32.759  15.402  -3.565  1.00 20.00     0.014 C 
ENDBRANCH   1   6
TORSDOF 3
ENDMDL
MODEL 5
REMARK VINA RESULT:      -3.7     11.097     12.225
REMARK  3 active torsions:
REMARK  status: ('A' for Active; 'I' for Inactive)
REMARK    1  A    between atoms: C1_1  and  C7_7 
REMARK    2  A    between atoms: C6_6  and  C7_7 
REMARK    3  A    between atoms: C6_6  and  C8_8 
ROOT
HETATM    1  C6  UNL     1     -34.581  16.038  -3.762  1.00 20.00     0.019 C 
ENDROOT
BRANCH   1   2
HETATM    2  C7  UNL     1     -34.388  14.574  -3.323  1.00 20.00     0.043 C 
HETATM    3  C2  UNL     1     -32.966  14.106  -3.633  1.00 20.00     0.017 C 
BRANCH   2   4
HETATM    4  C1  UNL     1     -35.329  13.653  -4.070  1.00 20.00     0.235 C 
HETATM    5  O9  UNL     1     -34.968  12.602  -4.592  1.00 20.00    -0.306 OA
ENDBRANCH   2   4
ENDBRANCH   1   2
BRANCH   1   6
HETATM    6  C8  UNL     1     -34.796  17.093  -2.638  1.00 20.00    -0.051 C 
HETATM    7  C3  UNL     1     -33.775  18.238  -2.708  1.00 20.00     0.014 C 
HETATM    8  C4  UNL     1     -36.218  17.680  -2.698  1.00 20.00     0.014 C 
HETATM    9  C5  UNL     1     -34.628  16.379  -1.281  1.00 20.00     0.014 C 
ENDBRANCH   1   6
TORSDOF 3
ENDMDL
MODEL 6
REMARK VINA RESULT:      -3.6     11.322     12.316
REMARK  3 active torsions:
REMARK  status: ('A' for Active; 'I' for Inactive)
REMARK    1  A    between atoms: C1_1  and  C7_7 
REMARK    2  A    between atoms: C6_6  and  C7_7 
REMARK    3  A    between atoms: C6_6  and  C8_8 
ROOT
HETATM    1  C6  UNL     1     -35.217  15.217  -2.866  1.00 20.00     0.019 C 
ENDROOT
BRANCH   1   2
HETATM    2  C7  UNL     1     -34.779  14.927  -4.314  1.00 20.00     0.043 C 
HETATM    3  C2  UNL     1     -35.984  14.958  -5.254  1.00 20.00     0.017 C 
BRANCH   2   4
HETATM    4  C1  UNL     1     -34.163  13.549  -4.431  1.00 20.00     0.235 C 
HETATM    5  O9  UNL     1     -34.792  12.560  -4.794  1.00 20.00    -0.306 OA
ENDBRANCH   2   4
ENDBRANCH   1   2
BRANCH   1   6
HETATM    6  C8  UNL     1     -34.939  16.645  -2.312  1.00 20.00    -0.051 C 
HETATM    7  C3  UNL     1     -34.596  16.634  -0.816  1.00 20.00     0.014 C 
HETATM    8  C4  UNL     1     -33.796  17.323  -3.088  1.00 20.00     0.014 C 
HETATM    9  C5  UNL     1     -36.218  17.485  -2.509  1.00 20.00     0.014 C 
ENDBRANCH   1   6
TORSDOF 3
ENDMDL
MODEL 7
REMARK VINA RESULT:      -3.6     11.098     13.129
REMARK  3 active torsions:
REMARK  status: ('A' for Active; 'I' for Inactive)
REMARK    1  A    between atoms: C1_1  and  C7_7 
REMARK    2  A    between atoms: C6_6  and  C7_7 
REMARK    3  A    between atoms: C6_6  and  C8_8 
ROOT
HETATM    1  C6  UNL     1     -34.024  15.598  -5.147  1.00 20.00     0.019 C 
ENDROOT
BRANCH   1   2
HETATM    2  C7  UNL     1     -34.723  15.034  -3.896  1.00 20.00     0.043 C 
HETATM    3  C2  UNL     1     -34.209  15.731  -2.636  1.00 20.00     0.017 C 
BRANCH   2   4
HETATM    4  C1  UNL     1     -34.438  13.557  -3.731  1.00 20.00     0.235 C 
HETATM    5  O9  UNL     1     -34.964  12.689  -4.421  1.00 20.00    -0.306 OA
ENDBRANCH   2   4
ENDBRANCH   1   2
BRANCH   1   6
HETATM    6  C8  UNL     1     -34.905  15.834  -6.408  1.00 20.00    -0.051 C 
HETATM    7  C3  UNL     1     -34.701  14.748  -7.474  1.00 20.00     0.014 C 
HETATM    8  C4  UNL     1     -36.396  15.900  -6.034  1.00 20.00     0.014 C 
HETATM    9  C5  UNL     1     -34.502  17.192  -7.019  1.00 20.00     0.014 C 
ENDBRANCH   1   6
TORSDOF 3
ENDMDL
MODEL 8
REMARK VINA RESULT:      -3.5     11.784     12.579
REMARK  3 active torsions:
REMARK  status: ('A' for Active; 'I' for Inactive)
REMARK    1  A    between atoms: C1_1  and  C7_7 
REMARK    2  A    between atoms: C6_6  and  C7_7 
REMARK    3  A    between atoms: C6_6  and  C8_8 
ROOT
HETATM    1  C6  UNL     1     -34.430  16.220  -1.466  1.00 20.00     0.019 C 
ENDROOT
BRANCH   1   2
HETATM    2  C7  UNL     1     -34.603  16.169  -2.995  1.00 20.00     0.043 C 
HETATM    3  C2  UNL     1     -35.707  15.182  -3.375  1.00 20.00     0.017 C 
BRANCH   2   4
HETATM    4  C1  UNL     1     -33.335  15.696  -3.672  1.00 20.00     0.235 C 
HETATM    5  O9  UNL     1     -32.813  16.288  -4.612  1.00 20.00    -0.306 OA
ENDBRANCH   2   4
ENDBRANCH   1   2
BRANCH   1   6
HETATM    6  C8  UNL     1     -34.500  17.620  -0.789  1.00 20.00    -0.051 C 
HETATM    7  C3  UNL     1     -33.112  18.246  -0.594  1.00 20.00     0.014 C 
HETATM    8  C4  UNL     1     -35.378  18.584  -1.607  1.00 20.00     0.014 C 
HETATM    9  C5  UNL     1     -35.148  17.441   0.600  1.00 20.00     0.014 C 
ENDBRANCH   1   6
TORSDOF 3
ENDMDL
MODEL 9
REMARK VINA RESULT:      -3.4     11.139     12.610
REMARK  3 active torsions:
REMARK  status: ('A' for Active; 'I' for Inactive)
REMARK    1  A    between atoms: C1_1  and  C7_7 
REMARK    2  A    between atoms: C6_6  and  C7_7 
REMARK    3  A    between atoms: C6_6  and  C8_8 
ROOT
HETATM    1  C6  UNL     1     -35.691  15.967  -4.190  1.00 20.00     0.019 C 
ENDROOT
BRANCH   1   2
HETATM    2  C7  UNL     1     -36.480  14.946  -5.031  1.00 20.00     0.043 C 
HETATM    3  C2  UNL     1     -36.448  15.334  -6.510  1.00 20.00     0.017 C 
BRANCH   2   4
HETATM    4  C1  UNL     1     -37.936  14.907  -4.617  1.00 20.00     0.235 C 
HETATM    5  O9  UNL     1     -38.349  14.234  -3.678  1.00 20.00    -0.306 OA
ENDBRANCH   2   4
ENDBRANCH   1   2
BRANCH   1   6
HETATM    6  C8  UNL     1     -34.327  15.501  -3.604  1.00 20.00    -0.051 C 
HETATM    7  C3  UNL     1     -34.205  13.971  -3.553  1.00 20.00     0.014 C 
HETATM    8  C4  UNL     1     -33.153  16.074  -4.418  1.00 20.00     0.014 C 
HETATM    9  C5  UNL     1     -34.222  16.042  -2.163  1.00 20.00     0.014 C 
ENDBRANCH   1   6
TORSDOF 3
ENDMDL
