MODEL 1
REMARK VINA RESULT:      -5.0      0.000      0.000
REMARK  2 active torsions:
REMARK  status: ('A' for Active; 'I' for Inactive)
REMARK    1  A    between atoms: C6_6  and  C10_10 
REMARK    2  A    between atoms: C7_7  and  C11_11 
ROOT
HETATM    1  C1  UNL     1     -34.622  13.730  -5.042  1.00 20.00     0.059 C 
HETATM    2  C10 UNL     1     -34.294  15.066  -5.518  1.00 20.00     0.128 C 
HETATM    3  N12 UNL     1     -34.874  12.652  -4.691  1.00 20.00    -0.197 NA
ENDROOT
BRANCH   2   4
HETATM    4  C6  UNL     1     -34.565  15.970  -4.316  1.00 20.00    -0.002 C 
HETATM    5  C2  UNL     1     -34.492  15.171  -3.010  1.00 20.00     0.006 C 
HETATM    6  C4  UNL     1     -34.710  16.064  -1.789  1.00 20.00     0.005 C 
HETATM    7  C7  UNL     1     -33.724  17.239  -1.764  1.00 20.00    -0.011 C 
HETATM    8  C5  UNL     1     -33.798  18.039  -3.071  1.00 20.00     0.005 C 
HETATM    9  C3  UNL     1     -33.580  17.146  -4.292  1.00 20.00     0.006 C 
BRANCH   7  10
HETATM   10  C11 UNL     1     -33.994  18.144  -0.563  1.00 20.00    -0.019 C 
HETATM   11  C8  UNL     1     -34.903  17.441   0.443  1.00 20.00     0.010 C 
HETATM   12  C9  UNL     1     -32.684  18.565   0.098  1.00 20.00     0.010 C 
ENDBRANCH   7  10
ENDBRANCH   2   4
TORSDOF 2
ENDMDL
MODEL 2
REMARK VINA RESULT:      -5.0      2.676      5.217
REMARK  2 active torsions:
REMARK  status: ('A' for Active; 'I' for Inactive)
REMARK    1  A    between atoms: C6_6  and  C10_10 
REMARK    2  A    between atoms: C7_7  and  C11_11 
ROOT
HETATM    1  C1  UNL     1     -32.395  18.816   0.070  1.00 20.00     0.059 C 
HETATM    2  C10 UNL     1     -33.739  18.273  -0.071  1.00 20.00     0.128 C 
HETATM    3  N12 UNL     1     -31.333  19.263   0.211  1.00 20.00    -0.197 NA
ENDROOT
BRANCH   2   4
HETATM    4  C6  UNL     1     -33.665  17.411  -1.330  1.00 20.00    -0.002 C 
HETATM    5  C2  UNL     1     -34.746  16.324  -1.306  1.00 20.00     0.006 C 
HETATM    6  C4  UNL     1     -34.725  15.480  -2.580  1.00 20.00     0.005 C 
HETATM    7  C7  UNL     1     -34.854  16.349  -3.838  1.00 20.00    -0.011 C 
HETATM    8  C5  UNL     1     -33.772  17.436  -3.862  1.00 20.00     0.005 C 
HETATM    9  C3  UNL     1     -33.792  18.280  -2.588  1.00 20.00     0.006 C 
BRANCH   7  10
HETATM   10  C11 UNL     1     -34.780  15.488  -5.098  1.00 20.00    -0.019 C 
HETATM   11  C8  UNL     1     -33.921  16.169  -6.162  1.00 20.00     0.010 C 
HETATM   12  C9  UNL     1     -34.231  14.102  -4.770  1.00 20.00     0.010 C 
ENDBRANCH   7  10
ENDBRANCH   2   4
TORSDOF 2
ENDMDL
MODEL 3
REMARK VINA RESULT:      -5.0      0.956      1.547
REMARK  2 active torsions:
REMARK  status: ('A' for Active; 'I' for Inactive)
REMARK    1  A    between atoms: C6_6  and  C10_10 
REMARK    2  A    between atoms: C7_7  and  C11_11 
ROOT
HETATM    1  C1  UNL     1     -34.709  13.709  -5.238  1.00 20.00     0.059 C 
HETATM    2  C10 UNL     1     -34.644  15.062  -5.773  1.00 20.00     0.128 C 
HETATM    3  N12 UNL     1     -34.758  12.618  -4.843  1.00 20.00    -0.197 NA
ENDROOT
BRANCH   2   4
HETATM    4  C6  UNL     1     -34.638  15.954  -4.533  1.00 20.00    -0.002 C 
HETATM    5  C2  UNL     1     -35.937  15.787  -3.738  1.00 20.00     0.006 C 
HETATM    6  C4  UNL     1     -35.933  16.633  -2.465  1.00 20.00     0.005 C 
HETATM    7  C7  UNL     1     -34.713  16.328  -1.586  1.00 20.00    -0.011 C 
HETATM    8  C5  UNL     1     -33.413  16.496  -2.382  1.00 20.00     0.005 C 
HETATM    9  C3  UNL     1     -33.417  15.651  -3.655  1.00 20.00     0.006 C 
BRANCH   7  10
HETATM   10  C11 UNL     1     -34.705  17.221  -0.346  1.00 20.00    -0.019 C 
HETATM   11  C8  UNL     1     -33.446  18.084  -0.316  1.00 20.00     0.010 C 
HETATM   12  C9  UNL     1     -35.957  18.094  -0.305  1.00 20.00     0.010 C 
ENDBRANCH   7  10
ENDBRANCH   2   4
TORSDOF 2
ENDMDL
MODEL 4
REMARK VINA RESULT:      -4.8      0.626      1.586
REMARK  2 active torsions:
REMARK  status: ('A' for Active; 'I' for Inactive)
REMARK    1  A    between atoms: C6_6  and  C10_10 
REMARK    2  A    between atoms: C7_7  and  C11_11 
ROOT
HETATM    1  C1  UNL     1     -34.584  13.928  -4.752  1.00 20.00     0.059 C 
HETATM    2  C10 UNL     1     -34.473  15.341  -5.085  1.00 20.00     0.128 C 
HETATM    3  N12 UNL     1     -34.678  12.794  -4.518  1.00 20.00    -0.197 NA
ENDROOT
BRANCH   2   4
HETATM    4  C6  UNL     1     -34.073  16.006  -3.769  1.00 20.00    -0.002 C 
HETATM    5  C2  UNL     1     -34.005  17.529  -3.931  1.00 20.00     0.006 C 
HETATM    6  C4  UNL     1     -33.656  18.222  -2.614  1.00 20.00     0.005 C 
HETATM    7  C7  UNL     1     -34.631  17.835  -1.494  1.00 20.00    -0.011 C 
HETATM    8  C5  UNL     1     -34.698  16.311  -1.333  1.00 20.00     0.005 C 
HETATM    9  C3  UNL     1     -35.047  15.618  -2.649  1.00 20.00     0.006 C 
BRANCH   7  10
HETATM   10  C11 UNL     1     -34.232  18.499  -0.178  1.00 20.00    -0.019 C 
HETATM   11  C8  UNL     1     -34.825  17.740   1.007  1.00 20.00     0.010 C 
HETATM   12  C9  UNL     1     -32.712  18.581  -0.057  1.00 20.00     0.010 C 
ENDBRANCH   7  10
ENDBRANCH   2   4
TORSDOF 2
ENDMDL
MODEL 5
REMARK VINA RESULT:      -4.7      1.712      2.104
REMARK  2 active torsions:
REMARK  status: ('A' for Active; 'I' for Inactive)
REMARK    1  A    between atoms: C6_6  and  C10_10 
REMARK    2  A    between atoms: C7_7  and  C11_11 
ROOT
HETATM    1  C1  UNL     1     -36.121  14.805  -7.001  1.00 20.00     0.059 C 
HETATM    2  C10 UNL     1     -34.976  14.351  -6.224  1.00 20.00     0.128 C 
HETATM    3  N12 UNL     1     -37.029  15.143  -7.641  1.00 20.00    -0.197 NA
ENDROOT
BRANCH   2   4
HETATM    4  C6  UNL     1     -34.944  15.288  -5.019  1.00 20.00    -0.002 C 
HETATM    5  C2  UNL     1     -34.982  14.491  -3.710  1.00 20.00     0.006 C 
HETATM    6  C4  UNL     1     -34.899  15.406  -2.488  1.00 20.00     0.005 C 
HETATM    7  C7  UNL     1     -33.661  16.310  -2.540  1.00 20.00    -0.011 C 
HETATM    8  C5  UNL     1     -33.624  17.108  -3.849  1.00 20.00     0.005 C 
HETATM    9  C3  UNL     1     -33.707  16.194  -5.071  1.00 20.00     0.006 C 
BRANCH   7  10
HETATM   10  C11 UNL     1     -33.628  17.249  -1.336  1.00 20.00    -0.019 C 
HETATM   11  C8  UNL     1     -33.615  18.706  -1.793  1.00 20.00     0.010 C 
HETATM   12  C9  UNL     1     -34.818  16.984  -0.416  1.00 20.00     0.010 C 
ENDBRANCH   7  10
ENDBRANCH   2   4
TORSDOF 2
ENDMDL
MODEL 6
REMARK VINA RESULT:      -4.6      1.808      1.932
REMARK  2 active torsions:
REMARK  status: ('A' for Active; 'I' for Inactive)
REMARK    1  A    between atoms: C6_6  and  C10_10 
REMARK    2  A    between atoms: C7_7  and  C11_11 
ROOT
HETATM    1  C1  UNL     1     -37.218  14.959  -3.943  1.00 20.00     0.059 C 
HETATM    2  C10 UNL     1     -36.061  15.762  -4.315  1.00 20.00     0.128 C 
HETATM    3  N12 UNL     1     -38.139  14.305  -3.676  1.00 20.00    -0.197 NA
ENDROOT
BRANCH   2   4
HETATM    4  C6  UNL     1     -35.760  16.587  -3.066  1.00 20.00    -0.002 C 
HETATM    5  C2  UNL     1     -34.842  15.814  -2.113  1.00 20.00     0.006 C 
HETATM    6  C4  UNL     1     -34.485  16.640  -0.878  1.00 20.00     0.005 C 
HETATM    7  C7  UNL     1     -33.862  17.989  -1.259  1.00 20.00    -0.011 C 
HETATM    8  C5  UNL     1     -34.782  18.763  -2.212  1.00 20.00     0.005 C 
HETATM    9  C3  UNL     1     -35.139  17.938  -3.447  1.00 20.00     0.006 C 
BRANCH   7  10
HETATM   10  C11 UNL     1     -33.561  18.816  -0.010  1.00 20.00    -0.019 C 
HETATM   11  C8  UNL     1     -34.257  18.216   1.210  1.00 20.00     0.010 C 
HETATM   12  C9  UNL     1     -32.055  18.911   0.221  1.00 20.00     0.010 C 
ENDBRANCH   7  10
ENDBRANCH   2   4
TORSDOF 2
ENDMDL
MODEL 7
REMARK VINA RESULT:      -4.6      2.539      5.386
REMARK  2 active torsions:
REMARK  status: ('A' for Active; 'I' for Inactive)
REMARK    1  A    between atoms: C6_6  and  C10_10 
REMARK    2  A    between atoms: C7_7  and  C11_11 
ROOT
HETATM    1  C1  UNL     1     -33.866  17.413  -0.813  1.00 20.00     0.059 C 
HETATM    2  C10 UNL     1     -34.744  16.338  -1.254  1.00 20.00     0.128 C 
HETATM    3  N12 UNL     1     -33.170  18.260  -0.431  1.00 20.00    -0.197 NA
ENDROOT
BRANCH   2   4
HETATM    4  C6  UNL     1     -34.715  16.431  -2.778  1.00 20.00    -0.002 C 
HETATM    5  C2  UNL     1     -33.344  16.014  -3.321  1.00 20.00     0.006 C 
HETATM    6  C4  UNL     1     -33.306  16.050  -4.849  1.00 20.00     0.005 C 
HETATM    7  C7  UNL     1     -34.419  15.192  -5.463  1.00 20.00    -0.011 C 
HETATM    8  C5  UNL     1     -35.792  15.610  -4.921  1.00 20.00     0.005 C 
HETATM    9  C3  UNL     1     -35.830  15.574  -3.393  1.00 20.00     0.006 C 
BRANCH   7  10
HETATM   10  C11 UNL     1     -34.392  15.284  -6.988  1.00 20.00    -0.019 C 
HETATM   11  C8  UNL     1     -35.478  14.401  -7.598  1.00 20.00     0.010 C 
HETATM   12  C9  UNL     1     -34.560  16.733  -7.441  1.00 20.00     0.010 C 
ENDBRANCH   7  10
ENDBRANCH   2   4
TORSDOF 2
ENDMDL
MODEL 8
REMARK VINA RESULT:      -4.5      2.505      5.252
REMARK  2 active torsions:
REMARK  status: ('A' for Active; 'I' for Inactive)
REMARK    1  A    between atoms: C6_6  and  C10_10 
REMARK    2  A    between atoms: C7_7  and  C11_11 
ROOT
HETATM    1  C1  UNL     1     -34.795  17.497   0.458  1.00 20.00     0.059 C 
HETATM    2  C10 UNL     1     -33.933  17.667  -0.704  1.00 20.00     0.128 C 
HETATM    3  N12 UNL     1     -35.470  17.389   1.396  1.00 20.00    -0.197 NA
ENDROOT
BRANCH   2   4
HETATM    4  C6  UNL     1     -34.333  16.527  -1.638  1.00 20.00    -0.002 C 
HETATM    5  C2  UNL     1     -35.678  16.823  -2.310  1.00 20.00     0.006 C 
HETATM    6  C4  UNL     1     -36.076  15.719  -3.289  1.00 20.00     0.005 C 
HETATM    7  C7  UNL     1     -34.985  15.474  -4.340  1.00 20.00    -0.011 C 
HETATM    8  C5  UNL     1     -33.639  15.177  -3.667  1.00 20.00     0.005 C 
HETATM    9  C3  UNL     1     -33.241  16.281  -2.688  1.00 20.00     0.006 C 
BRANCH   7  10
HETATM   10  C11 UNL     1     -35.384  14.334  -5.274  1.00 20.00    -0.019 C 
HETATM   11  C8  UNL     1     -34.987  14.657  -6.713  1.00 20.00     0.010 C 
HETATM   12  C9  UNL     1     -34.746  13.021  -4.823  1.00 20.00     0.010 C 
ENDBRANCH   7  10
ENDBRANCH   2   4
TORSDOF 2
ENDMDL
MODEL 9
REMARK VINA RESULT:      -4.4      2.001      2.457
REMARK  2 active torsions:
REMARK  status: ('A' for Active; 'I' for Inactive)
REMARK    1  A    between atoms: C6_6  and  C10_10 
REMARK    2  A    between atoms: C7_7  and  C11_11 
ROOT
HETATM    1  C1  UNL     1     -37.644  14.832  -4.406  1.00 20.00     0.059 C 
HETATM    2  C10 UNL     1     -36.661  15.527  -5.226  1.00 20.00     0.128 C 
HETATM    3  N12 UNL     1     -38.440  14.266  -3.778  1.00 20.00    -0.197 NA
ENDROOT
BRANCH   2   4
HETATM    4  C6  UNL     1     -35.752  16.222  -4.215  1.00 20.00    -0.002 C 
HETATM    5  C2  UNL     1     -36.566  17.134  -3.291  1.00 20.00     0.006 C 
HETATM    6  C4  UNL     1     -35.685  17.803  -2.237  1.00 20.00     0.005 C 
HETATM    7  C7  UNL     1     -34.892  16.771  -1.424  1.00 20.00    -0.011 C 
HETATM    8  C5  UNL     1     -34.076  15.859  -2.349  1.00 20.00     0.005 C 
HETATM    9  C3  UNL     1     -34.958  15.190  -3.403  1.00 20.00     0.006 C 
BRANCH   7  10
HETATM   10  C11 UNL     1     -33.982  17.466  -0.413  1.00 20.00    -0.019 C 
HETATM   11  C8  UNL     1     -33.288  18.666  -1.053  1.00 20.00     0.010 C 
HETATM   12  C9  UNL     1     -34.776  17.897   0.818  1.00 20.00     0.010 C 
ENDBRANCH   7  10
ENDBRANCH   2   4
TORSDOF 2
ENDMDL
