MODEL 1
REMARK VINA RESULT:      -5.4      0.000      0.000
REMARK  1 active torsions:
REMARK  status: ('A' for Active; 'I' for Inactive)
REMARK    1  A    between atoms: C10_10  and  O11_11 
ROOT
HETATM    1  C1  UNL     1     -35.736  16.618  -3.917  1.00 20.00    -0.025 C 
HETATM    2  C2  UNL     1     -35.889  15.539  -3.135  1.00 20.00    -0.025 C 
HETATM    3  C3  UNL     1     -34.239  15.377  -6.258  1.00 20.00     0.008 C 
HETATM    4  C4  UNL     1     -35.131  14.168  -5.993  1.00 20.00     0.032 C 
HETATM    5  C5  UNL     1     -33.821  16.424  -2.659  1.00 20.00     0.018 C 
HETATM    6  C6  UNL     1     -34.253  16.854  -4.070  1.00 20.00     0.013 C 
HETATM    7  C7  UNL     1     -34.509  15.053  -2.765  1.00 20.00     0.015 C 
HETATM    8  C8  UNL     1     -33.596  15.731  -4.916  1.00 20.00     0.000 C 
HETATM    9  C9  UNL     1     -33.765  14.477  -4.000  1.00 20.00     0.027 C 
HETATM   10  C10 UNL     1     -34.429  13.410  -4.870  1.00 20.00     0.123 C 
ENDROOT
BRANCH  10  11
HETATM   11  O11 UNL     1     -35.337  12.597  -4.154  1.00 20.00    -0.395 OA
HETATM   12  H25 UNL     1     -36.140  12.516  -4.697  1.00 20.00     0.210 HD
ENDBRANCH  10  11
TORSDOF 1
ENDMDL
MODEL 2
REMARK VINA RESULT:      -5.1      1.147      2.683
REMARK  1 active torsions:
REMARK  status: ('A' for Active; 'I' for Inactive)
REMARK    1  A    between atoms: C10_10  and  O11_11 
ROOT
HETATM    1  C1  UNL     1     -34.057  15.467  -6.717  1.00 20.00    -0.025 C 
HETATM    2  C2  UNL     1     -34.973  14.489  -6.695  1.00 20.00    -0.025 C 
HETATM    3  C3  UNL     1     -33.209  15.475  -3.794  1.00 20.00     0.008 C 
HETATM    4  C4  UNL     1     -33.395  13.963  -3.892  1.00 20.00     0.032 C 
HETATM    5  C5  UNL     1     -36.048  16.428  -6.085  1.00 20.00     0.018 C 
HETATM    6  C6  UNL     1     -34.544  16.559  -5.796  1.00 20.00     0.013 C 
HETATM    7  C7  UNL     1     -36.074  14.925  -5.759  1.00 20.00     0.015 C 
HETATM    8  C8  UNL     1     -34.505  16.096  -4.315  1.00 20.00     0.000 C 
HETATM    9  C9  UNL     1     -35.581  14.964  -4.288  1.00 20.00     0.027 C 
HETATM   10  C10 UNL     1     -34.890  13.745  -3.676  1.00 20.00     0.123 C 
ENDROOT
BRANCH  10  11
HETATM   11  O11 UNL     1     -35.317  12.523  -4.242  1.00 20.00    -0.395 OA
HETATM   12  H25 UNL     1     -35.035  12.522  -5.173  1.00 20.00     0.210 HD
ENDBRANCH  10  11
TORSDOF 1
ENDMDL
MODEL 3
REMARK VINA RESULT:      -4.8     11.788     12.741
REMARK  1 active torsions:
REMARK  status: ('A' for Active; 'I' for Inactive)
REMARK    1  A    between atoms: C10_10  and  O11_11 
ROOT
HETATM    1  C1  UNL     1     -42.998   6.493  -0.042  1.00 20.00    -0.025 C 
HETATM    2  C2  UNL     1     -42.741   5.243   0.371  1.00 20.00    -0.025 C 
HETATM    3  C3  UNL     1     -42.780   6.119  -3.054  1.00 20.00     0.008 C 
HETATM    4  C4  UNL     1     -43.417   4.759  -2.780  1.00 20.00     0.032 C 
HETATM    5  C5  UNL     1     -40.712   6.289   0.095  1.00 20.00     0.018 C 
HETATM    6  C6  UNL     1     -41.773   6.985  -0.773  1.00 20.00     0.013 C 
HETATM    7  C7  UNL     1     -41.344   4.899  -0.084  1.00 20.00     0.015 C 
HETATM    8  C8  UNL     1     -41.580   6.222  -2.111  1.00 20.00     0.000 C 
HETATM    9  C9  UNL     1     -41.271   4.769  -1.629  1.00 20.00     0.027 C 
HETATM   10  C10 UNL     1     -42.252   3.863  -2.373  1.00 20.00     0.123 C 
ENDROOT
BRANCH  10  11
HETATM   11  O11 UNL     1     -42.694   2.768  -1.597  1.00 20.00    -0.395 OA
HETATM   12  H25 UNL     1     -42.470   2.963  -0.670  1.00 20.00     0.210 HD
ENDBRANCH  10  11
TORSDOF 1
ENDMDL
MODEL 4
REMARK VINA RESULT:      -4.8      1.641      3.164
REMARK  1 active torsions:
REMARK  status: ('A' for Active; 'I' for Inactive)
REMARK    1  A    between atoms: C10_10  and  O11_11 
ROOT
HETATM    1  C1  UNL     1     -35.364  16.735  -5.496  1.00 20.00    -0.025 C 
HETATM    2  C2  UNL     1     -34.195  16.289  -5.979  1.00 20.00    -0.025 C 
HETATM    3  C3  UNL     1     -35.208  15.676  -2.647  1.00 20.00     0.008 C 
HETATM    4  C4  UNL     1     -33.722  16.004  -2.767  1.00 20.00     0.032 C 
HETATM    5  C5  UNL     1     -35.716  14.581  -6.220  1.00 20.00     0.018 C 
HETATM    6  C6  UNL     1     -36.176  15.526  -5.099  1.00 20.00     0.013 C 
HETATM    7  C7  UNL     1     -34.225  14.782  -5.904  1.00 20.00     0.015 C 
HETATM    8  C8  UNL     1     -35.552  14.818  -3.866  1.00 20.00     0.000 C 
HETATM    9  C9  UNL     1     -34.195  14.290  -4.432  1.00 20.00     0.027 C 
HETATM   10  C10 UNL     1     -33.117  14.795  -3.474  1.00 20.00     0.123 C 
ENDROOT
BRANCH  10  11
HETATM   11  O11 UNL     1     -31.909  15.133  -4.125  1.00 20.00    -0.395 OA
HETATM   12  H25 UNL     1     -31.955  14.765  -5.025  1.00 20.00     0.210 HD
ENDBRANCH  10  11
TORSDOF 1
ENDMDL
MODEL 5
REMARK VINA RESULT:      -4.7      1.270      1.789
REMARK  1 active torsions:
REMARK  status: ('A' for Active; 'I' for Inactive)
REMARK    1  A    between atoms: C10_10  and  O11_11 
ROOT
HETATM    1  C1  UNL     1     -33.953  16.608  -3.176  1.00 20.00    -0.025 C 
HETATM    2  C2  UNL     1     -34.569  15.576  -2.580  1.00 20.00    -0.025 C 
HETATM    3  C3  UNL     1     -35.238  16.479  -5.932  1.00 20.00     0.008 C 
HETATM    4  C4  UNL     1     -36.493  16.075  -5.163  1.00 20.00     0.032 C 
HETATM    5  C5  UNL     1     -32.757  14.717  -3.705  1.00 20.00     0.018 C 
HETATM    6  C6  UNL     1     -33.174  16.051  -4.343  1.00 20.00     0.013 C 
HETATM    7  C7  UNL     1     -34.202  14.330  -3.348  1.00 20.00     0.015 C 
HETATM    8  C8  UNL     1     -34.128  15.541  -5.456  1.00 20.00     0.000 C 
HETATM    9  C9  UNL     1     -34.837  14.333  -4.764  1.00 20.00     0.027 C 
HETATM   10  C10 UNL     1     -36.337  14.574  -4.934  1.00 20.00     0.123 C 
ENDROOT
BRANCH  10  11
HETATM   11  O11 UNL     1     -37.098  14.142  -3.825  1.00 20.00    -0.395 OA
HETATM   12  H25 UNL     1     -36.821  14.677  -3.060  1.00 20.00     0.210 HD
ENDBRANCH  10  11
TORSDOF 1
ENDMDL
MODEL 6
REMARK VINA RESULT:      -4.7      1.273      3.073
REMARK  1 active torsions:
REMARK  status: ('A' for Active; 'I' for Inactive)
REMARK    1  A    between atoms: C10_10  and  O11_11 
ROOT
HETATM    1  C1  UNL     1     -34.844  16.434  -5.883  1.00 20.00    -0.025 C 
HETATM    2  C2  UNL     1     -34.088  15.382  -6.230  1.00 20.00    -0.025 C 
HETATM    3  C3  UNL     1     -35.654  15.606  -3.068  1.00 20.00     0.008 C 
HETATM    4  C4  UNL     1     -34.243  15.028  -2.994  1.00 20.00     0.032 C 
HETATM    5  C5  UNL     1     -36.268  14.829  -6.707  1.00 20.00     0.018 C 
HETATM    6  C6  UNL     1     -36.238  15.919  -5.624  1.00 20.00     0.013 C 
HETATM    7  C7  UNL     1     -34.977  14.163  -6.204  1.00 20.00     0.015 C 
HETATM    8  C8  UNL     1     -36.278  15.040  -4.345  1.00 20.00     0.000 C 
HETATM    9  C9  UNL     1     -35.406  13.810  -4.754  1.00 20.00     0.027 C 
HETATM   10  C10 UNL     1     -34.354  13.658  -3.656  1.00 20.00     0.123 C 
ENDROOT
BRANCH  10  11
HETATM   11  O11 UNL     1     -33.102  13.221  -4.143  1.00 20.00    -0.395 OA
HETATM   12  H25 UNL     1     -32.598  12.884  -3.382  1.00 20.00     0.210 HD
ENDBRANCH  10  11
TORSDOF 1
ENDMDL
MODEL 7
REMARK VINA RESULT:      -4.7     11.457     12.701
REMARK  1 active torsions:
REMARK  status: ('A' for Active; 'I' for Inactive)
REMARK    1  A    between atoms: C10_10  and  O11_11 
ROOT
HETATM    1  C1  UNL     1     -41.372   4.141  -1.703  1.00 20.00    -0.025 C 
HETATM    2  C2  UNL     1     -40.721   4.884  -0.797  1.00 20.00    -0.025 C 
HETATM    3  C3  UNL     1     -43.146   6.267  -2.966  1.00 20.00     0.008 C 
HETATM    4  C4  UNL     1     -41.940   7.180  -2.762  1.00 20.00     0.032 C 
HETATM    5  C5  UNL     1     -42.699   4.225   0.173  1.00 20.00     0.018 C 
HETATM    6  C6  UNL     1     -42.840   4.196  -1.357  1.00 20.00     0.013 C 
HETATM    7  C7  UNL     1     -41.753   5.437   0.156  1.00 20.00     0.015 C 
HETATM    8  C8  UNL     1     -43.417   5.615  -1.609  1.00 20.00     0.000 C 
HETATM    9  C9  UNL     1     -42.666   6.478  -0.546  1.00 20.00     0.027 C 
HETATM   10  C10 UNL     1     -42.051   7.647  -1.314  1.00 20.00     0.123 C 
ENDROOT
BRANCH  10  11
HETATM   11  O11 UNL     1     -40.794   8.045  -0.806  1.00 20.00    -0.395 OA
HETATM   12  H25 UNL     1     -40.612   8.936  -1.154  1.00 20.00     0.210 HD
ENDBRANCH  10  11
TORSDOF 1
ENDMDL
MODEL 8
REMARK VINA RESULT:      -4.7      1.783      2.715
REMARK  1 active torsions:
REMARK  status: ('A' for Active; 'I' for Inactive)
REMARK    1  A    between atoms: C10_10  and  O11_11 
ROOT
HETATM    1  C1  UNL     1     -35.467  13.457  -4.253  1.00 20.00    -0.025 C 
HETATM    2  C2  UNL     1     -34.413  14.043  -3.666  1.00 20.00    -0.025 C 
HETATM    3  C3  UNL     1     -35.661  15.126  -6.791  1.00 20.00     0.008 C 
HETATM    4  C4  UNL     1     -34.136  15.131  -6.725  1.00 20.00     0.032 C 
HETATM    5  C5  UNL     1     -36.273  15.258  -3.072  1.00 20.00     0.018 C 
HETATM    6  C6  UNL     1     -36.546  14.504  -4.383  1.00 20.00     0.013 C 
HETATM    7  C7  UNL     1     -34.788  15.481  -3.402  1.00 20.00     0.015 C 
HETATM    8  C8  UNL     1     -36.146  15.591  -5.417  1.00 20.00     0.000 C 
HETATM    9  C9  UNL     1     -34.926  16.279  -4.727  1.00 20.00     0.027 C 
HETATM   10  C10 UNL     1     -33.797  16.261  -5.757  1.00 20.00     0.123 C 
ENDROOT
BRANCH  10  11
HETATM   11  O11 UNL     1     -32.521  16.075  -5.179  1.00 20.00    -0.395 OA
HETATM   12  H25 UNL     1     -31.984  16.853  -5.410  1.00 20.00     0.210 HD
ENDBRANCH  10  11
TORSDOF 1
ENDMDL
MODEL 9
REMARK VINA RESULT:      -4.6      1.391      2.223
REMARK  1 active torsions:
REMARK  status: ('A' for Active; 'I' for Inactive)
REMARK    1  A    between atoms: C10_10  and  O11_11 
ROOT
HETATM    1  C1  UNL     1     -33.161  16.192  -4.577  1.00 20.00    -0.025 C 
HETATM    2  C2  UNL     1     -34.303  16.895  -4.537  1.00 20.00    -0.025 C 
HETATM    3  C3  UNL     1     -34.277  13.364  -4.708  1.00 20.00     0.008 C 
HETATM    4  C4  UNL     1     -35.363  13.993  -5.576  1.00 20.00     0.032 C 
HETATM    5  C5  UNL     1     -33.812  16.289  -2.374  1.00 20.00     0.018 C 
HETATM    6  C6  UNL     1     -33.131  15.315  -3.349  1.00 20.00     0.013 C 
HETATM    7  C7  UNL     1     -35.036  16.488  -3.283  1.00 20.00     0.015 C 
HETATM    8  C8  UNL     1     -34.212  14.205  -3.432  1.00 20.00     0.000 C 
HETATM    9  C9  UNL     1     -35.541  15.023  -3.375  1.00 20.00     0.027 C 
HETATM   10  C10 UNL     1     -36.366  14.568  -4.579  1.00 20.00     0.123 C 
ENDROOT
BRANCH  10  11
HETATM   11  O11 UNL     1     -37.125  15.610  -5.158  1.00 20.00    -0.395 OA
HETATM   12  H25 UNL     1     -36.669  15.878  -5.975  1.00 20.00     0.210 HD
ENDBRANCH  10  11
TORSDOF 1
ENDMDL
