MODEL 1
REMARK VINA RESULT:      -3.6      0.000      0.000
REMARK  0 active torsions:
REMARK  status: ('A' for Active; 'I' for Inactive)
ROOT
HETATM    1  C1  UNL     1     -36.523  14.987  -3.550  1.00 20.00     0.135 C 
HETATM    2  C2  UNL     1     -34.636  15.664  -2.219  1.00 20.00     0.092 C 
HETATM    3  C3  UNL     1     -33.912  15.008  -3.403  1.00 20.00     0.073 C 
HETATM    4  C4  UNL     1     -34.022  16.965  -1.722  1.00 20.00     0.033 C 
HETATM    5  C5  UNL     1     -33.357  15.967  -4.451  1.00 20.00     0.024 C 
HETATM    6  N6  UNL     1     -36.024  15.846  -2.600  1.00 20.00    -0.370 N 
HETATM    7  S7  UNL     1     -38.112  14.921  -4.022  1.00 20.00    -0.053 SA
HETATM    8  S8  UNL     1     -35.224  13.987  -4.173  1.00 20.00    -0.094 SA
HETATM    9  H17 UNL     1     -36.574  16.617  -2.243  1.00 20.00     0.161 HD
ENDROOT
TORSDOF 0
ENDMDL
MODEL 2
REMARK VINA RESULT:      -3.4      2.136      3.176
REMARK  0 active torsions:
REMARK  status: ('A' for Active; 'I' for Inactive)
ROOT
HETATM    1  C1  UNL     1     -34.929  16.292  -2.063  1.00 20.00     0.135 C 
HETATM    2  C2  UNL     1     -36.309  15.553  -3.889  1.00 20.00     0.092 C 
HETATM    3  C3  UNL     1     -34.962  14.943  -4.302  1.00 20.00     0.073 C 
HETATM    4  C4  UNL     1     -37.519  14.651  -4.089  1.00 20.00     0.033 C 
HETATM    5  C5  UNL     1     -34.789  13.459  -3.998  1.00 20.00     0.024 C 
HETATM    6  N6  UNL     1     -36.191  15.982  -2.509  1.00 20.00    -0.370 N 
HETATM    7  S7  UNL     1     -34.586  16.941  -0.574  1.00 20.00    -0.053 SA
HETATM    8  S8  UNL     1     -33.756  15.896  -3.304  1.00 20.00    -0.094 SA
HETATM    9  H17 UNL     1     -36.987  15.977  -1.883  1.00 20.00     0.161 HD
ENDROOT
TORSDOF 0
ENDMDL
MODEL 3
REMARK VINA RESULT:      -3.4      2.871      3.696
REMARK  0 active torsions:
REMARK  status: ('A' for Active; 'I' for Inactive)
ROOT
HETATM    1  C1  UNL     1     -33.679  17.255  -5.098  1.00 20.00     0.135 C 
HETATM    2  C2  UNL     1     -33.014  15.346  -3.793  1.00 20.00     0.092 C 
HETATM    3  C3  UNL     1     -33.754  16.162  -2.724  1.00 20.00     0.073 C 
HETATM    4  C4  UNL     1     -33.288  13.850  -3.773  1.00 20.00     0.033 C 
HETATM    5  C5  UNL     1     -35.180  15.714  -2.420  1.00 20.00     0.024 C 
HETATM    6  N6  UNL     1     -33.333  15.925  -5.084  1.00 20.00    -0.370 N 
HETATM    7  S7  UNL     1     -33.936  18.150  -6.471  1.00 20.00    -0.053 SA
HETATM    8  S8  UNL     1     -33.804  17.844  -3.451  1.00 20.00    -0.094 SA
HETATM    9  H17 UNL     1     -33.374  15.359  -5.922  1.00 20.00     0.161 HD
ENDROOT
TORSDOF 0
ENDMDL
MODEL 4
REMARK VINA RESULT:      -3.4      1.906      2.467
REMARK  0 active torsions:
REMARK  status: ('A' for Active; 'I' for Inactive)
ROOT
HETATM    1  C1  UNL     1     -34.267  14.945  -4.239  1.00 20.00     0.135 C 
HETATM    2  C2  UNL     1     -33.869  16.296  -2.288  1.00 20.00     0.092 C 
HETATM    3  C3  UNL     1     -33.797  17.370  -3.382  1.00 20.00     0.073 C 
HETATM    4  C4  UNL     1     -34.624  16.701  -1.030  1.00 20.00     0.033 C 
HETATM    5  C5  UNL     1     -35.051  18.219  -3.559  1.00 20.00     0.024 C 
HETATM    6  N6  UNL     1     -34.437  15.101  -2.884  1.00 20.00    -0.370 N 
HETATM    7  S7  UNL     1     -34.702  13.592  -5.095  1.00 20.00    -0.053 SA
HETATM    8  S8  UNL     1     -33.528  16.388  -4.906  1.00 20.00    -0.094 SA
HETATM    9  H17 UNL     1     -34.997  14.455  -2.342  1.00 20.00     0.161 HD
ENDROOT
TORSDOF 0
ENDMDL
MODEL 5
REMARK VINA RESULT:      -3.3      1.579      1.642
REMARK  0 active torsions:
REMARK  status: ('A' for Active; 'I' for Inactive)
ROOT
HETATM    1  C1  UNL     1     -35.813  14.970  -5.261  1.00 20.00     0.135 C 
HETATM    2  C2  UNL     1     -35.214  15.113  -2.935  1.00 20.00     0.092 C 
HETATM    3  C3  UNL     1     -34.111  14.175  -3.444  1.00 20.00     0.073 C 
HETATM    4  C4  UNL     1     -34.756  16.185  -1.958  1.00 20.00     0.033 C 
HETATM    5  C5  UNL     1     -32.756  14.827  -3.702  1.00 20.00     0.024 C 
HETATM    6  N6  UNL     1     -35.862  15.696  -4.095  1.00 20.00    -0.370 N 
HETATM    7  S7  UNL     1     -36.608  15.376  -6.660  1.00 20.00    -0.053 SA
HETATM    8  S8  UNL     1     -34.787  13.567  -5.034  1.00 20.00    -0.094 SA
HETATM    9  H17 UNL     1     -36.261  16.626  -4.066  1.00 20.00     0.161 HD
ENDROOT
TORSDOF 0
ENDMDL
MODEL 6
REMARK VINA RESULT:      -3.3     10.713     11.577
REMARK  0 active torsions:
REMARK  status: ('A' for Active; 'I' for Inactive)
ROOT
HETATM    1  C1  UNL     1     -42.391   7.321  -3.065  1.00 20.00     0.135 C 
HETATM    2  C2  UNL     1     -41.800   6.472  -0.893  1.00 20.00     0.092 C 
HETATM    3  C3  UNL     1     -42.453   5.225  -1.505  1.00 20.00     0.073 C 
HETATM    4  C4  UNL     1     -40.530   6.216  -0.096  1.00 20.00     0.033 C 
HETATM    5  C5  UNL     1     -41.490   4.170  -2.040  1.00 20.00     0.024 C 
HETATM    6  N6  UNL     1     -41.568   7.417  -1.969  1.00 20.00    -0.370 N 
HETATM    7  S7  UNL     1     -42.399   8.388  -4.337  1.00 20.00    -0.053 SA
HETATM    8  S8  UNL     1     -43.417   5.909  -2.905  1.00 20.00    -0.094 SA
HETATM    9  H17 UNL     1     -40.788   8.062  -1.947  1.00 20.00     0.161 HD
ENDROOT
TORSDOF 0
ENDMDL
MODEL 7
REMARK VINA RESULT:      -3.3      2.234      2.399
REMARK  0 active torsions:
REMARK  status: ('A' for Active; 'I' for Inactive)
ROOT
HETATM    1  C1  UNL     1     -36.825  14.709  -4.586  1.00 20.00     0.135 C 
HETATM    2  C2  UNL     1     -34.618  13.754  -4.695  1.00 20.00     0.092 C 
HETATM    3  C3  UNL     1     -34.538  14.760  -5.852  1.00 20.00     0.073 C 
HETATM    4  C4  UNL     1     -33.382  13.681  -3.811  1.00 20.00     0.033 C 
HETATM    5  C5  UNL     1     -33.819  16.068  -5.541  1.00 20.00     0.024 C 
HETATM    6  N6  UNL     1     -35.804  14.071  -3.921  1.00 20.00    -0.370 N 
HETATM    7  S7  UNL     1     -38.318  15.031  -3.938  1.00 20.00    -0.053 SA
HETATM    8  S8  UNL     1     -36.298  15.122  -6.207  1.00 20.00    -0.094 SA
HETATM    9  H17 UNL     1     -35.846  13.903  -2.924  1.00 20.00     0.161 HD
ENDROOT
TORSDOF 0
ENDMDL
MODEL 8
REMARK VINA RESULT:      -3.2      2.087      2.534
REMARK  0 active torsions:
REMARK  status: ('A' for Active; 'I' for Inactive)
ROOT
HETATM    1  C1  UNL     1     -34.935  15.884  -5.801  1.00 20.00     0.135 C 
HETATM    2  C2  UNL     1     -35.245  15.444  -3.456  1.00 20.00     0.092 C 
HETATM    3  C3  UNL     1     -34.751  14.069  -3.928  1.00 20.00     0.073 C 
HETATM    4  C4  UNL     1     -34.660  15.926  -2.137  1.00 20.00     0.033 C 
HETATM    5  C5  UNL     1     -33.280  13.768  -3.661  1.00 20.00     0.024 C 
HETATM    6  N6  UNL     1     -34.991  16.391  -4.525  1.00 20.00    -0.370 N 
HETATM    7  S7  UNL     1     -34.804  16.802  -7.177  1.00 20.00    -0.053 SA
HETATM    8  S8  UNL     1     -35.022  14.134  -5.739  1.00 20.00    -0.094 SA
HETATM    9  H17 UNL     1     -34.787  17.364  -4.332  1.00 20.00     0.161 HD
ENDROOT
TORSDOF 0
ENDMDL
MODEL 9
REMARK VINA RESULT:      -3.2      1.939      2.480
REMARK  0 active torsions:
REMARK  status: ('A' for Active; 'I' for Inactive)
ROOT
HETATM    1  C1  UNL     1     -36.028  15.943  -3.181  1.00 20.00     0.135 C 
HETATM    2  C2  UNL     1     -34.500  14.090  -3.340  1.00 20.00     0.092 C 
HETATM    3  C3  UNL     1     -35.495  13.719  -4.449  1.00 20.00     0.073 C 
HETATM    4  C4  UNL     1     -33.034  13.870  -3.683  1.00 20.00     0.033 C 
HETATM    5  C5  UNL     1     -35.050  14.045  -5.871  1.00 20.00     0.024 C 
HETATM    6  N6  UNL     1     -34.755  15.468  -2.966  1.00 20.00    -0.370 N 
HETATM    7  S7  UNL     1     -36.575  17.431  -2.694  1.00 20.00    -0.053 SA
HETATM    8  S8  UNL     1     -36.964  14.736  -4.042  1.00 20.00    -0.094 SA
HETATM    9  H17 UNL     1     -34.013  16.073  -2.637  1.00 20.00     0.161 HD
ENDROOT
TORSDOF 0
ENDMDL
