MODEL 1
REMARK VINA RESULT:      -5.1      0.000      0.000
REMARK  0 active torsions:
REMARK  status: ('A' for Active; 'I' for Inactive)
ROOT
HETATM    1  C1  UNL     1     -34.607  16.579  -0.938  1.00 20.00     0.015 C 
HETATM    2  C2  UNL     1     -34.364  16.080  -2.002  1.00 20.00    -0.071 C 
HETATM    3  C3  UNL     1     -36.372  14.611  -3.807  1.00 20.00     0.039 C 
HETATM    4  C4  UNL     1     -34.399  13.573  -4.874  1.00 20.00     0.039 C 
HETATM    5  C5  UNL     1     -36.438  15.580  -4.999  1.00 20.00     0.273 C 
HETATM    6  C6  UNL     1     -34.475  14.615  -6.002  1.00 20.00     0.273 C 
HETATM    7  C7  UNL     1     -34.262  16.463  -4.465  1.00 20.00     0.329 C 
HETATM    8  C8  UNL     1     -34.908  14.204  -3.565  1.00 20.00     0.043 C 
HETATM    9  C9  UNL     1     -34.067  15.469  -3.305  1.00 20.00     0.195 C 
HETATM   10  N10 UNL     1     -35.095  15.878  -5.545  1.00 20.00     0.092 N 
HETATM   11  F11 UNL     1     -32.751  15.105  -3.269  1.00 20.00    -0.227 F 
ENDROOT
TORSDOF 0
ENDMDL
MODEL 2
REMARK VINA RESULT:      -4.9      1.549      2.391
REMARK  0 active torsions:
REMARK  status: ('A' for Active; 'I' for Inactive)
ROOT
HETATM    1  C1  UNL     1     -34.622  16.681  -0.707  1.00 20.00     0.015 C 
HETATM    2  C2  UNL     1     -34.744  16.448  -1.878  1.00 20.00    -0.071 C 
HETATM    3  C3  UNL     1     -32.773  14.853  -3.614  1.00 20.00     0.039 C 
HETATM    4  C4  UNL     1     -33.832  15.969  -5.548  1.00 20.00     0.039 C 
HETATM    5  C5  UNL     1     -33.624  13.612  -3.935  1.00 20.00     0.273 C 
HETATM    6  C6  UNL     1     -34.705  14.724  -5.774  1.00 20.00     0.273 C 
HETATM    7  C7  UNL     1     -35.656  14.847  -3.560  1.00 20.00     0.329 C 
HETATM    8  C8  UNL     1     -33.538  16.116  -4.044  1.00 20.00     0.043 C 
HETATM    9  C9  UNL     1     -34.894  16.162  -3.311  1.00 20.00     0.195 C 
HETATM   10  N10 UNL     1     -34.933  13.975  -4.519  1.00 20.00     0.092 N 
HETATM   11  F11 UNL     1     -35.626  17.188  -3.836  1.00 20.00    -0.227 F 
ENDROOT
TORSDOF 0
ENDMDL
MODEL 3
REMARK VINA RESULT:      -4.7      1.148      1.518
REMARK  0 active torsions:
REMARK  status: ('A' for Active; 'I' for Inactive)
ROOT
HETATM    1  C1  UNL     1     -34.583  16.606  -0.966  1.00 20.00     0.015 C 
HETATM    2  C2  UNL     1     -34.531  16.033  -2.020  1.00 20.00    -0.071 C 
HETATM    3  C3  UNL     1     -35.900  16.920  -4.625  1.00 20.00     0.039 C 
HETATM    4  C4  UNL     1     -35.643  14.575  -5.362  1.00 20.00     0.039 C 
HETATM    5  C5  UNL     1     -34.671  17.266  -5.482  1.00 20.00     0.273 C 
HETATM    6  C6  UNL     1     -34.379  14.971  -6.144  1.00 20.00     0.273 C 
HETATM    7  C7  UNL     1     -33.279  15.808  -4.166  1.00 20.00     0.329 C 
HETATM    8  C8  UNL     1     -35.772  15.473  -4.118  1.00 20.00     0.043 C 
HETATM    9  C9  UNL     1     -34.467  15.332  -3.309  1.00 20.00     0.195 C 
HETATM   10  N10 UNL     1     -33.707  16.146  -5.546  1.00 20.00     0.092 N 
HETATM   11  F11 UNL     1     -34.286  14.009  -3.022  1.00 20.00    -0.227 F 
ENDROOT
TORSDOF 0
ENDMDL
MODEL 4
REMARK VINA RESULT:      -4.6      1.855      3.635
REMARK  0 active torsions:
REMARK  status: ('A' for Active; 'I' for Inactive)
ROOT
HETATM    1  C1  UNL     1     -35.074  14.712  -7.798  1.00 20.00     0.015 C 
HETATM    2  C2  UNL     1     -34.986  15.158  -6.687  1.00 20.00    -0.071 C 
HETATM    3  C3  UNL     1     -34.708  13.519  -4.102  1.00 20.00     0.039 C 
HETATM    4  C4  UNL     1     -35.506  15.543  -2.930  1.00 20.00     0.039 C 
HETATM    5  C5  UNL     1     -33.281  13.904  -3.679  1.00 20.00     0.273 C 
HETATM    6  C6  UNL     1     -34.051  15.912  -2.598  1.00 20.00     0.273 C 
HETATM    7  C7  UNL     1     -33.412  15.960  -4.925  1.00 20.00     0.329 C 
HETATM    8  C8  UNL     1     -35.547  14.797  -4.276  1.00 20.00     0.043 C 
HETATM    9  C9  UNL     1     -34.877  15.704  -5.327  1.00 20.00     0.195 C 
HETATM   10  N10 UNL     1     -33.104  15.371  -3.598  1.00 20.00     0.092 N 
HETATM   11  F11 UNL     1     -35.534  16.901  -5.337  1.00 20.00    -0.227 F 
ENDROOT
TORSDOF 0
ENDMDL
MODEL 5
REMARK VINA RESULT:      -4.5      1.694      2.841
REMARK  0 active torsions:
REMARK  status: ('A' for Active; 'I' for Inactive)
ROOT
HETATM    1  C1  UNL     1     -33.599  18.409  -5.750  1.00 20.00     0.015 C 
HETATM    2  C2  UNL     1     -33.883  17.254  -5.593  1.00 20.00    -0.071 C 
HETATM    3  C3  UNL     1     -34.063  15.790  -2.897  1.00 20.00     0.039 C 
HETATM    4  C4  UNL     1     -33.814  13.706  -4.201  1.00 20.00     0.039 C 
HETATM    5  C5  UNL     1     -35.573  15.505  -2.834  1.00 20.00     0.273 C 
HETATM    6  C6  UNL     1     -35.339  13.513  -4.164  1.00 20.00     0.273 C 
HETATM    7  C7  UNL     1     -35.749  15.638  -5.231  1.00 20.00     0.329 C 
HETATM    8  C8  UNL     1     -33.493  15.212  -4.203  1.00 20.00     0.043 C 
HETATM    9  C9  UNL     1     -34.231  15.840  -5.401  1.00 20.00     0.195 C 
HETATM   10  N10 UNL     1     -36.054  14.802  -4.043  1.00 20.00     0.092 N 
HETATM   11  F11 UNL     1     -33.836  15.187  -6.534  1.00 20.00    -0.227 F 
ENDROOT
TORSDOF 0
ENDMDL
MODEL 6
REMARK VINA RESULT:      -4.5      1.718      2.580
REMARK  0 active torsions:
REMARK  status: ('A' for Active; 'I' for Inactive)
ROOT
HETATM    1  C1  UNL     1     -38.361  14.761  -3.881  1.00 20.00     0.015 C 
HETATM    2  C2  UNL     1     -37.188  14.978  -3.750  1.00 20.00    -0.071 C 
HETATM    3  C3  UNL     1     -34.929  13.762  -5.442  1.00 20.00     0.039 C 
HETATM    4  C4  UNL     1     -33.431  14.361  -3.570  1.00 20.00     0.039 C 
HETATM    5  C5  UNL     1     -34.423  15.016  -6.175  1.00 20.00     0.273 C 
HETATM    6  C6  UNL     1     -33.018  15.636  -4.323  1.00 20.00     0.273 C 
HETATM    7  C7  UNL     1     -35.290  16.442  -4.439  1.00 20.00     0.329 C 
HETATM    8  C8  UNL     1     -34.888  14.012  -3.925  1.00 20.00     0.043 C 
HETATM    9  C9  UNL     1     -35.752  15.243  -3.589  1.00 20.00     0.195 C 
HETATM   10  N10 UNL     1     -34.083  16.107  -5.236  1.00 20.00     0.092 N 
HETATM   11  F11 UNL     1     -35.561  15.551  -2.273  1.00 20.00    -0.227 F 
ENDROOT
TORSDOF 0
ENDMDL
MODEL 7
REMARK VINA RESULT:      -4.5      1.437      2.230
REMARK  0 active torsions:
REMARK  status: ('A' for Active; 'I' for Inactive)
ROOT
HETATM    1  C1  UNL     1     -33.727  19.008  -4.088  1.00 20.00     0.015 C 
HETATM    2  C2  UNL     1     -33.724  17.829  -4.311  1.00 20.00    -0.071 C 
HETATM    3  C3  UNL     1     -34.859  15.641  -2.476  1.00 20.00     0.039 C 
HETATM    4  C4  UNL     1     -33.416  14.074  -3.729  1.00 20.00     0.039 C 
HETATM    5  C5  UNL     1     -36.040  15.146  -3.327  1.00 20.00     0.273 C 
HETATM    6  C6  UNL     1     -34.621  13.673  -4.594  1.00 20.00     0.273 C 
HETATM    7  C7  UNL     1     -34.985  15.938  -5.341  1.00 20.00     0.329 C 
HETATM    8  C8  UNL     1     -33.565  15.545  -3.302  1.00 20.00     0.043 C 
HETATM    9  C9  UNL     1     -33.719  16.385  -4.585  1.00 20.00     0.195 C 
HETATM   10  N10 UNL     1     -35.617  14.763  -4.692  1.00 20.00     0.092 N 
HETATM   11  F11 UNL     1     -32.637  16.146  -5.382  1.00 20.00    -0.227 F 
ENDROOT
TORSDOF 0
ENDMDL
MODEL 8
REMARK VINA RESULT:      -4.4      1.568      2.428
REMARK  0 active torsions:
REMARK  status: ('A' for Active; 'I' for Inactive)
ROOT
HETATM    1  C1  UNL     1     -34.579  16.765  -0.629  1.00 20.00     0.015 C 
HETATM    2  C2  UNL     1     -34.880  16.305  -1.696  1.00 20.00    -0.071 C 
HETATM    3  C3  UNL     1     -34.109  17.456  -4.440  1.00 20.00     0.039 C 
HETATM    4  C4  UNL     1     -35.996  16.137  -5.337  1.00 20.00     0.039 C 
HETATM    5  C5  UNL     1     -33.167  16.353  -4.951  1.00 20.00     0.273 C 
HETATM    6  C6  UNL     1     -35.010  15.036  -5.762  1.00 20.00     0.273 C 
HETATM    7  C7  UNL     1     -34.204  14.729  -3.508  1.00 20.00     0.329 C 
HETATM    8  C8  UNL     1     -35.466  16.832  -4.070  1.00 20.00     0.043 C 
HETATM    9  C9  UNL     1     -35.249  15.742  -3.002  1.00 20.00     0.195 C 
HETATM   10  N10 UNL     1     -33.803  15.018  -4.907  1.00 20.00     0.092 N 
HETATM   11  F11 UNL     1     -36.431  15.084  -2.819  1.00 20.00    -0.227 F 
ENDROOT
TORSDOF 0
ENDMDL
MODEL 9
REMARK VINA RESULT:      -4.3      1.546      3.602
REMARK  0 active torsions:
REMARK  status: ('A' for Active; 'I' for Inactive)
ROOT
HETATM    1  C1  UNL     1     -35.565  14.427  -7.875  1.00 20.00     0.015 C 
HETATM    2  C2  UNL     1     -35.205  14.462  -6.731  1.00 20.00    -0.071 C 
HETATM    3  C3  UNL     1     -34.627  17.000  -5.098  1.00 20.00     0.039 C 
HETATM    4  C4  UNL     1     -33.309  15.537  -3.604  1.00 20.00     0.039 C 
HETATM    5  C5  UNL     1     -35.766  16.934  -4.066  1.00 20.00     0.273 C 
HETATM    6  C6  UNL     1     -34.508  15.453  -2.646  1.00 20.00     0.273 C 
HETATM    7  C7  UNL     1     -35.956  14.551  -4.353  1.00 20.00     0.329 C 
HETATM    8  C8  UNL     1     -33.822  15.690  -5.047  1.00 20.00     0.043 C 
HETATM    9  C9  UNL     1     -34.765  14.504  -5.330  1.00 20.00     0.195 C 
HETATM   10  N10 UNL     1     -35.794  15.637  -3.355  1.00 20.00     0.092 N 
HETATM   11  F11 UNL     1     -34.074  13.348  -5.107  1.00 20.00    -0.227 F 
ENDROOT
TORSDOF 0
ENDMDL
