MODEL 1
REMARK VINA RESULT:      -4.8      0.000      0.000
REMARK  2 active torsions:
REMARK  status: ('A' for Active; 'I' for Inactive)
REMARK    1  A    between atoms: C7_7  and  C10_10 
REMARK    2  A    between atoms: C7_7  and  O11_11 
ROOT
HETATM    1  C1  UNL     1     -35.111  13.688  -5.731  1.00 20.00     0.000 C 
HETATM    2  C2  UNL     1     -34.408  14.818  -6.477  1.00 20.00     0.000 C 
HETATM    3  C3  UNL     1     -34.690  13.508  -4.279  1.00 20.00     0.003 C 
HETATM    4  C4  UNL     1     -34.887  16.193  -6.033  1.00 20.00     0.003 C 
HETATM    5  C5  UNL     1     -34.815  14.748  -3.388  1.00 20.00     0.038 C 
HETATM    6  C6  UNL     1     -34.169  16.800  -4.827  1.00 20.00     0.038 C 
HETATM    7  C7  UNL     1     -33.793  15.868  -3.659  1.00 20.00     0.061 C 
ENDROOT
BRANCH   7   8
HETATM    8  C10 UNL     1     -33.622  16.719  -2.389  1.00 20.00     0.012 C 
HETATM    9  C8  UNL     1     -33.728  18.201  -2.727  1.00 20.00     0.012 C 
HETATM   10  C9  UNL     1     -34.659  16.325  -1.344  1.00 20.00     0.012 C 
ENDBRANCH   7   8
BRANCH   7  11
HETATM   11  O11 UNL     1     -32.518  15.275  -3.926  1.00 20.00    -0.389 OA
HETATM   12  H31 UNL     1     -32.545  14.995  -4.851  1.00 20.00     0.210 HD
ENDBRANCH   7  11
TORSDOF 2
ENDMDL
MODEL 2
REMARK VINA RESULT:      -4.7      0.761      4.098
REMARK  2 active torsions:
REMARK  status: ('A' for Active; 'I' for Inactive)
REMARK    1  A    between atoms: C7_7  and  C10_10 
REMARK    2  A    between atoms: C7_7  and  O11_11 
ROOT
HETATM    1  C1  UNL     1     -33.951  18.428  -2.990  1.00 20.00     0.000 C 
HETATM    2  C2  UNL     1     -33.596  17.361  -1.960  1.00 20.00     0.000 C 
HETATM    3  C3  UNL     1     -33.733  18.026  -4.442  1.00 20.00     0.003 C 
HETATM    4  C4  UNL     1     -34.606  16.222  -1.930  1.00 20.00     0.003 C 
HETATM    5  C5  UNL     1     -34.442  16.746  -4.895  1.00 20.00     0.038 C 
HETATM    6  C6  UNL     1     -34.362  15.080  -2.916  1.00 20.00     0.038 C 
HETATM    7  C7  UNL     1     -33.867  15.432  -4.332  1.00 20.00     0.061 C 
ENDROOT
BRANCH   7   8
HETATM    8  C10 UNL     1     -34.224  14.274  -5.279  1.00 20.00     0.012 C 
HETATM    9  C8  UNL     1     -35.112  13.262  -4.566  1.00 20.00     0.012 C 
HETATM   10  C9  UNL     1     -34.906  14.807  -6.533  1.00 20.00     0.012 C 
ENDBRANCH   7   8
BRANCH   7  11
HETATM   11  O11 UNL     1     -32.439  15.522  -4.318  1.00 20.00    -0.389 OA
HETATM   12  H31 UNL     1     -32.121  14.642  -4.074  1.00 20.00     0.210 HD
ENDBRANCH   7  11
TORSDOF 2
ENDMDL
MODEL 3
REMARK VINA RESULT:      -4.7      1.133      2.163
REMARK  2 active torsions:
REMARK  status: ('A' for Active; 'I' for Inactive)
REMARK    1  A    between atoms: C7_7  and  C10_10 
REMARK    2  A    between atoms: C7_7  and  O11_11 
ROOT
HETATM    1  C1  UNL     1     -34.354  14.813  -6.532  1.00 20.00     0.000 C 
HETATM    2  C2  UNL     1     -35.298  14.063  -5.597  1.00 20.00     0.000 C 
HETATM    3  C3  UNL     1     -33.969  16.214  -6.078  1.00 20.00     0.003 C 
HETATM    4  C4  UNL     1     -34.607  13.600  -4.322  1.00 20.00     0.003 C 
HETATM    5  C5  UNL     1     -33.355  16.319  -4.679  1.00 20.00     0.038 C 
HETATM    6  C6  UNL     1     -34.574  14.605  -3.171  1.00 20.00     0.038 C 
HETATM    7  C7  UNL     1     -34.326  16.089  -3.506  1.00 20.00     0.061 C 
ENDROOT
BRANCH   7   8
HETATM    8  C10 UNL     1     -33.783  16.791  -2.250  1.00 20.00     0.012 C 
HETATM    9  C8  UNL     1     -33.668  18.291  -2.490  1.00 20.00     0.012 C 
HETATM   10  C9  UNL     1     -34.680  16.500  -1.052  1.00 20.00     0.012 C 
ENDBRANCH   7   8
BRANCH   7  11
HETATM   11  O11 UNL     1     -35.576  16.713  -3.813  1.00 20.00    -0.389 OA
HETATM   12  H31 UNL     1     -35.361  17.488  -4.349  1.00 20.00     0.210 HD
ENDBRANCH   7  11
TORSDOF 2
ENDMDL
MODEL 4
REMARK VINA RESULT:      -4.6      1.294      2.580
REMARK  2 active torsions:
REMARK  status: ('A' for Active; 'I' for Inactive)
REMARK    1  A    between atoms: C7_7  and  C10_10 
REMARK    2  A    between atoms: C7_7  and  O11_11 
ROOT
HETATM    1  C1  UNL     1     -35.023  13.782  -3.764  1.00 20.00     0.000 C 
HETATM    2  C2  UNL     1     -34.476  13.408  -5.137  1.00 20.00     0.000 C 
HETATM    3  C3  UNL     1     -34.477  15.077  -3.179  1.00 20.00     0.003 C 
HETATM    4  C4  UNL     1     -35.030  14.293  -6.246  1.00 20.00     0.003 C 
HETATM    5  C5  UNL     1     -34.634  16.325  -4.054  1.00 20.00     0.038 C 
HETATM    6  C6  UNL     1     -34.273  15.594  -6.510  1.00 20.00     0.038 C 
HETATM    7  C7  UNL     1     -33.732  16.381  -5.301  1.00 20.00     0.061 C 
ENDROOT
BRANCH   7   8
HETATM    8  C10 UNL     1     -33.533  17.848  -5.720  1.00 20.00     0.012 C 
HETATM    9  C8  UNL     1     -34.551  18.237  -6.784  1.00 20.00     0.012 C 
HETATM   10  C9  UNL     1     -33.638  18.763  -4.506  1.00 20.00     0.012 C 
ENDBRANCH   7   8
BRANCH   7  11
HETATM   11  O11 UNL     1     -32.437  15.877  -4.957  1.00 20.00    -0.389 OA
HETATM   12  H31 UNL     1     -32.040  15.580  -5.787  1.00 20.00     0.210 HD
ENDBRANCH   7  11
TORSDOF 2
ENDMDL
MODEL 5
REMARK VINA RESULT:      -4.5      1.541      2.504
REMARK  2 active torsions:
REMARK  status: ('A' for Active; 'I' for Inactive)
REMARK    1  A    between atoms: C7_7  and  C10_10 
REMARK    2  A    between atoms: C7_7  and  O11_11 
ROOT
HETATM    1  C1  UNL     1     -35.149  14.136  -6.001  1.00 20.00     0.000 C 
HETATM    2  C2  UNL     1     -34.813  13.267  -4.793  1.00 20.00     0.000 C 
HETATM    3  C3  UNL     1     -35.865  15.441  -5.682  1.00 20.00     0.003 C 
HETATM    4  C4  UNL     1     -33.672  13.840  -3.963  1.00 20.00     0.003 C 
HETATM    5  C5  UNL     1     -35.164  16.361  -4.678  1.00 20.00     0.038 C 
HETATM    6  C6  UNL     1     -34.065  14.851  -2.886  1.00 20.00     0.038 C 
HETATM    7  C7  UNL     1     -35.167  15.876  -3.216  1.00 20.00     0.061 C 
ENDROOT
BRANCH   7   8
HETATM    8  C10 UNL     1     -35.009  17.085  -2.278  1.00 20.00     0.012 C 
HETATM    9  C8  UNL     1     -34.616  16.623  -0.881  1.00 20.00     0.012 C 
HETATM   10  C9  UNL     1     -33.979  18.058  -2.839  1.00 20.00     0.012 C 
ENDBRANCH   7   8
BRANCH   7  11
HETATM   11  O11 UNL     1     -36.444  15.299  -2.924  1.00 20.00    -0.389 OA
HETATM   12  H31 UNL     1     -36.475  15.197  -1.963  1.00 20.00     0.210 HD
ENDBRANCH   7  11
TORSDOF 2
ENDMDL
MODEL 6
REMARK VINA RESULT:      -4.5      1.255      2.471
REMARK  2 active torsions:
REMARK  status: ('A' for Active; 'I' for Inactive)
REMARK    1  A    between atoms: C7_7  and  C10_10 
REMARK    2  A    between atoms: C7_7  and  O11_11 
ROOT
HETATM    1  C1  UNL     1     -34.896  16.503  -7.781  1.00 20.00     0.000 C 
HETATM    2  C2  UNL     1     -34.513  17.772  -7.026  1.00 20.00     0.000 C 
HETATM    3  C3  UNL     1     -34.332  15.211  -7.207  1.00 20.00     0.003 C 
HETATM    4  C4  UNL     1     -35.240  17.896  -5.693  1.00 20.00     0.003 C 
HETATM    5  C5  UNL     1     -34.649  14.940  -5.733  1.00 20.00     0.038 C 
HETATM    6  C6  UNL     1     -34.575  17.213  -4.498  1.00 20.00     0.038 C 
HETATM    7  C7  UNL     1     -33.917  15.838  -4.718  1.00 20.00     0.061 C 
ENDROOT
BRANCH   7   8
HETATM    8  C10 UNL     1     -33.832  15.112  -3.364  1.00 20.00     0.012 C 
HETATM    9  C8  UNL     1     -34.655  15.851  -2.316  1.00 20.00     0.012 C 
HETATM   10  C9  UNL     1     -34.302  13.670  -3.507  1.00 20.00     0.012 C 
ENDBRANCH   7   8
BRANCH   7  11
HETATM   11  O11 UNL     1     -32.569  16.031  -5.161  1.00 20.00    -0.389 OA
HETATM   12  H31 UNL     1     -32.257  15.162  -5.448  1.00 20.00     0.210 HD
ENDBRANCH   7  11
TORSDOF 2
ENDMDL
MODEL 7
REMARK VINA RESULT:      -4.4      1.085      4.162
REMARK  2 active torsions:
REMARK  status: ('A' for Active; 'I' for Inactive)
REMARK    1  A    between atoms: C7_7  and  C10_10 
REMARK    2  A    between atoms: C7_7  and  O11_11 
ROOT
HETATM    1  C1  UNL     1     -34.205  17.716  -2.428  1.00 20.00     0.000 C 
HETATM    2  C2  UNL     1     -34.069  16.219  -2.167  1.00 20.00     0.000 C 
HETATM    3  C3  UNL     1     -33.731  18.182  -3.798  1.00 20.00     0.003 C 
HETATM    4  C4  UNL     1     -35.090  15.399  -2.942  1.00 20.00     0.003 C 
HETATM    5  C5  UNL     1     -34.370  17.481  -5.000  1.00 20.00     0.038 C 
HETATM    6  C6  UNL     1     -34.692  14.994  -4.362  1.00 20.00     0.038 C 
HETATM    7  C7  UNL     1     -33.937  16.021  -5.228  1.00 20.00     0.061 C 
ENDROOT
BRANCH   7   8
HETATM    8  C10 UNL     1     -34.137  15.654  -6.708  1.00 20.00     0.012 C 
HETATM    9  C8  UNL     1     -35.091  14.474  -6.837  1.00 20.00     0.012 C 
HETATM   10  C9  UNL     1     -34.654  16.859  -7.486  1.00 20.00     0.012 C 
ENDBRANCH   7   8
BRANCH   7  11
HETATM   11  O11 UNL     1     -32.534  15.909  -4.967  1.00 20.00    -0.389 OA
HETATM   12  H31 UNL     1     -32.404  16.247  -4.070  1.00 20.00     0.210 HD
ENDBRANCH   7  11
TORSDOF 2
ENDMDL
MODEL 8
REMARK VINA RESULT:      -4.4     12.292     14.212
REMARK  2 active torsions:
REMARK  status: ('A' for Active; 'I' for Inactive)
REMARK    1  A    between atoms: C7_7  and  C10_10 
REMARK    2  A    between atoms: C7_7  and  O11_11 
ROOT
HETATM    1  C1  UNL     1     -40.926   6.634  -0.540  1.00 20.00     0.000 C 
HETATM    2  C2  UNL     1     -42.232   7.111  -1.166  1.00 20.00     0.000 C 
HETATM    3  C3  UNL     1     -40.801   5.126  -0.368  1.00 20.00     0.003 C 
HETATM    4  C4  UNL     1     -42.309   6.805  -2.656  1.00 20.00     0.003 C 
HETATM    5  C5  UNL     1     -40.994   4.290  -1.637  1.00 20.00     0.038 C 
HETATM    6  C6  UNL     1     -42.853   5.427  -3.034  1.00 20.00     0.038 C 
HETATM    7  C7  UNL     1     -42.436   4.219  -2.175  1.00 20.00     0.061 C 
ENDROOT
BRANCH   7   8
HETATM    8  C10 UNL     1     -42.605   2.940  -3.012  1.00 20.00     0.012 C 
HETATM    9  C8  UNL     1     -41.243   2.379  -3.402  1.00 20.00     0.012 C 
HETATM   10  C9  UNL     1     -43.417   1.906  -2.241  1.00 20.00     0.012 C 
ENDBRANCH   7   8
BRANCH   7  11
HETATM   11  O11 UNL     1     -43.336   4.101  -1.067  1.00 20.00    -0.389 OA
HETATM   12  H31 UNL     1     -43.568   5.006  -0.817  1.00 20.00     0.210 HD
ENDBRANCH   7  11
TORSDOF 2
ENDMDL
MODEL 9
REMARK VINA RESULT:      -4.3      1.489      1.736
REMARK  2 active torsions:
REMARK  status: ('A' for Active; 'I' for Inactive)
REMARK    1  A    between atoms: C7_7  and  C10_10 
REMARK    2  A    between atoms: C7_7  and  O11_11 
ROOT
HETATM    1  C1  UNL     1     -35.090  13.391  -4.724  1.00 20.00     0.000 C 
HETATM    2  C2  UNL     1     -36.143  14.481  -4.904  1.00 20.00     0.000 C 
HETATM    3  C3  UNL     1     -33.739  13.871  -4.213  1.00 20.00     0.003 C 
HETATM    4  C4  UNL     1     -36.683  14.992  -3.575  1.00 20.00     0.003 C 
HETATM    5  C5  UNL     1     -33.763  14.660  -2.900  1.00 20.00     0.038 C 
HETATM    6  C6  UNL     1     -35.895  16.127  -2.920  1.00 20.00     0.038 C 
HETATM    7  C7  UNL     1     -34.357  16.079  -2.986  1.00 20.00     0.061 C 
ENDROOT
BRANCH   7   8
HETATM    8  C10 UNL     1     -33.790  16.938  -1.843  1.00 20.00     0.012 C 
HETATM    9  C8  UNL     1     -33.705  18.398  -2.271  1.00 20.00     0.012 C 
HETATM   10  C9  UNL     1     -34.649  16.788  -0.593  1.00 20.00     0.012 C 
ENDBRANCH   7   8
BRANCH   7  11
HETATM   11  O11 UNL     1     -33.923  16.687  -4.206  1.00 20.00    -0.389 OA
HETATM   12  H31 UNL     1     -33.572  17.554  -3.960  1.00 20.00     0.210 HD
ENDBRANCH   7  11
TORSDOF 2
ENDMDL
