MODEL 1
REMARK VINA RESULT:      -5.2      0.000      0.000
REMARK  3 active torsions:
REMARK  status: ('A' for Active; 'I' for Inactive)
REMARK    1  A    between atoms: C2_2  and  C9_9 
REMARK    2  A    between atoms: C7_7  and  C9_9 
REMARK    3  A    between atoms: C8_8  and  O10_10 
ROOT
HETATM    1  C3  UNL     1     -33.638   6.644   6.363  1.00 20.00     0.003 C 
HETATM    2  C4  UNL     1     -33.384   7.168   4.951  1.00 20.00     0.005 C 
HETATM    3  C5  UNL     1     -34.748   5.599   6.383  1.00 20.00     0.032 C 
HETATM    4  C6  UNL     1     -34.212   4.983   3.991  1.00 20.00     0.036 C 
HETATM    5  C7  UNL     1     -33.091   6.028   3.964  1.00 20.00    -0.009 C 
HETATM    6  C8  UNL     1     -34.463   4.461   5.405  1.00 20.00     0.118 C 
ENDROOT
BRANCH   5   7
HETATM    7  C9  UNL     1     -32.894   6.573   2.552  1.00 20.00     0.031 C 
BRANCH   7   8
HETATM    8  C2  UNL     1     -32.093   7.838   2.567  1.00 20.00    -0.037 C 
HETATM    9  C1  UNL     1     -32.050   8.705   1.549  1.00 20.00     0.007 C 
ENDBRANCH   7   8
ENDBRANCH   5   7
BRANCH   6  10
HETATM   10  O10 UNL     1     -35.563   3.557   5.393  1.00 20.00    -0.396 OA
HETATM   11  H26 UNL     1     -35.324   2.837   4.789  1.00 20.00     0.210 HD
ENDBRANCH   6  10
TORSDOF 3
ENDMDL
MODEL 2
REMARK VINA RESULT:      -4.9     11.467     12.637
REMARK  3 active torsions:
REMARK  status: ('A' for Active; 'I' for Inactive)
REMARK    1  A    between atoms: C2_2  and  C9_9 
REMARK    2  A    between atoms: C7_7  and  C9_9 
REMARK    3  A    between atoms: C8_8  and  O10_10 
ROOT
HETATM    1  C3  UNL     1     -34.264  15.814  -5.820  1.00 20.00     0.003 C 
HETATM    2  C4  UNL     1     -33.633  16.429  -4.573  1.00 20.00     0.005 C 
HETATM    3  C5  UNL     1     -34.462  14.310  -5.666  1.00 20.00     0.032 C 
HETATM    4  C6  UNL     1     -34.630  14.588  -3.159  1.00 20.00     0.036 C 
HETATM    5  C7  UNL     1     -34.437  16.102  -3.307  1.00 20.00    -0.009 C 
HETATM    6  C8  UNL     1     -35.262  13.977  -4.409  1.00 20.00     0.118 C 
ENDROOT
BRANCH   5   7
HETATM    7  C9  UNL     1     -33.756  16.683  -2.069  1.00 20.00     0.031 C 
BRANCH   7   8
HETATM    8  C2  UNL     1     -34.649  16.598  -0.870  1.00 20.00    -0.037 C 
HETATM    9  C1  UNL     1     -34.622  17.471   0.142  1.00 20.00     0.007 C 
ENDBRANCH   7   8
ENDBRANCH   5   7
BRANCH   6  10
HETATM   10  O10 UNL     1     -35.347  12.563  -4.259  1.00 20.00    -0.396 OA
HETATM   11  H26 UNL     1     -34.930  12.175  -5.043  1.00 20.00     0.210 HD
ENDBRANCH   6  10
TORSDOF 3
ENDMDL
MODEL 3
REMARK VINA RESULT:      -4.8      1.365      2.103
REMARK  3 active torsions:
REMARK  status: ('A' for Active; 'I' for Inactive)
REMARK    1  A    between atoms: C2_2  and  C9_9 
REMARK    2  A    between atoms: C7_7  and  C9_9 
REMARK    3  A    between atoms: C8_8  and  O10_10 
ROOT
HETATM    1  C3  UNL     1     -35.349   5.049   3.671  1.00 20.00     0.003 C 
HETATM    2  C4  UNL     1     -34.081   5.402   2.896  1.00 20.00     0.005 C 
HETATM    3  C5  UNL     1     -35.084   4.960   5.170  1.00 20.00     0.032 C 
HETATM    4  C6  UNL     1     -33.167   6.590   4.929  1.00 20.00     0.036 C 
HETATM    5  C7  UNL     1     -33.431   6.690   3.422  1.00 20.00    -0.009 C 
HETATM    6  C8  UNL     1     -34.438   6.237   5.701  1.00 20.00     0.118 C 
ENDROOT
BRANCH   5   7
HETATM    7  C9  UNL     1     -32.138   6.990   2.666  1.00 20.00     0.031 C 
BRANCH   7   8
HETATM    8  C2  UNL     1     -32.140   8.386   2.125  1.00 20.00    -0.037 C 
HETATM    9  C1  UNL     1     -31.779   8.702   0.877  1.00 20.00     0.007 C 
ENDBRANCH   7   8
ENDBRANCH   5   7
BRANCH   6  10
HETATM   10  O10 UNL     1     -34.128   6.076   7.082  1.00 20.00    -0.396 OA
HETATM   11  H26 UNL     1     -33.780   5.177   7.186  1.00 20.00     0.210 HD
ENDBRANCH   6  10
TORSDOF 3
ENDMDL
MODEL 4
REMARK VINA RESULT:      -4.7      1.633      2.275
REMARK  3 active torsions:
REMARK  status: ('A' for Active; 'I' for Inactive)
REMARK    1  A    between atoms: C2_2  and  C9_9 
REMARK    2  A    between atoms: C7_7  and  C9_9 
REMARK    3  A    between atoms: C8_8  and  O10_10 
ROOT
HETATM    1  C3  UNL     1     -35.197   4.744   5.489  1.00 20.00     0.003 C 
HETATM    2  C4  UNL     1     -34.429   4.782   4.169  1.00 20.00     0.005 C 
HETATM    3  C5  UNL     1     -34.403   5.388   6.619  1.00 20.00     0.032 C 
HETATM    4  C6  UNL     1     -33.200   6.849   4.943  1.00 20.00     0.036 C 
HETATM    5  C7  UNL     1     -33.999   6.209   3.801  1.00 20.00    -0.009 C 
HETATM    6  C8  UNL     1     -33.971   6.809   6.261  1.00 20.00     0.118 C 
ENDROOT
BRANCH   5   7
HETATM    7  C9  UNL     1     -33.188   6.213   2.507  1.00 20.00     0.031 C 
BRANCH   7   8
HETATM    8  C2  UNL     1     -32.083   7.221   2.563  1.00 20.00    -0.037 C 
HETATM    9  C1  UNL     1     -32.030   8.313   1.793  1.00 20.00     0.007 C 
ENDBRANCH   7   8
ENDBRANCH   5   7
BRANCH   6  10
HETATM   10  O10 UNL     1     -33.160   7.338   7.306  1.00 20.00    -0.396 OA
HETATM   11  H26 UNL     1     -33.734   7.432   8.083  1.00 20.00     0.210 HD
ENDBRANCH   6  10
TORSDOF 3
ENDMDL
MODEL 5
REMARK VINA RESULT:      -4.6     11.225     12.209
REMARK  3 active torsions:
REMARK  status: ('A' for Active; 'I' for Inactive)
REMARK    1  A    between atoms: C2_2  and  C9_9 
REMARK    2  A    between atoms: C7_7  and  C9_9 
REMARK    3  A    between atoms: C8_8  and  O10_10 
ROOT
HETATM    1  C3  UNL     1     -36.527  14.649  -3.757  1.00 20.00     0.003 C 
HETATM    2  C4  UNL     1     -35.972  16.015  -3.358  1.00 20.00     0.005 C 
HETATM    3  C5  UNL     1     -35.475  13.801  -4.463  1.00 20.00     0.032 C 
HETATM    4  C6  UNL     1     -33.648  15.034  -3.226  1.00 20.00     0.036 C 
HETATM    5  C7  UNL     1     -34.700  15.888  -2.508  1.00 20.00    -0.009 C 
HETATM    6  C8  UNL     1     -34.207  13.668  -3.624  1.00 20.00     0.118 C 
ENDROOT
BRANCH   5   7
HETATM    7  C9  UNL     1     -34.137  17.266  -2.168  1.00 20.00     0.031 C 
BRANCH   7   8
HETATM    8  C2  UNL     1     -33.953  17.426  -0.691  1.00 20.00    -0.037 C 
HETATM    9  C1  UNL     1     -34.915  17.195   0.209  1.00 20.00     0.007 C 
ENDBRANCH   7   8
ENDBRANCH   5   7
BRANCH   6  10
HETATM   10  O10 UNL     1     -33.223  12.945  -4.357  1.00 20.00    -0.396 OA
HETATM   11  H26 UNL     1     -32.402  13.458  -4.302  1.00 20.00     0.210 HD
ENDBRANCH   6  10
TORSDOF 3
ENDMDL
MODEL 6
REMARK VINA RESULT:      -4.5     12.239     12.965
REMARK  3 active torsions:
REMARK  status: ('A' for Active; 'I' for Inactive)
REMARK    1  A    between atoms: C2_2  and  C9_9 
REMARK    2  A    between atoms: C7_7  and  C9_9 
REMARK    3  A    between atoms: C8_8  and  O10_10 
ROOT
HETATM    1  C3  UNL     1     -36.344  14.376  -4.127  1.00 20.00     0.003 C 
HETATM    2  C4  UNL     1     -35.831  15.390  -3.108  1.00 20.00     0.005 C 
HETATM    3  C5  UNL     1     -35.797  14.657  -5.523  1.00 20.00     0.032 C 
HETATM    4  C6  UNL     1     -33.757  15.748  -4.505  1.00 20.00     0.036 C 
HETATM    5  C7  UNL     1     -34.297  15.464  -3.098  1.00 20.00    -0.009 C 
HETATM    6  C8  UNL     1     -34.272  14.731  -5.522  1.00 20.00     0.118 C 
ENDROOT
BRANCH   5   7
HETATM    7  C9  UNL     1     -33.813  16.523  -2.109  1.00 20.00     0.031 C 
BRANCH   7   8
HETATM    8  C2  UNL     1     -34.691  16.573  -0.898  1.00 20.00    -0.037 C 
HETATM    9  C1  UNL     1     -34.551  17.467   0.087  1.00 20.00     0.007 C 
ENDBRANCH   7   8
ENDBRANCH   5   7
BRANCH   6  10
HETATM   10  O10 UNL     1     -33.811  15.081  -6.823  1.00 20.00    -0.396 OA
HETATM   11  H26 UNL     1     -33.444  15.976  -6.757  1.00 20.00     0.210 HD
ENDBRANCH   6  10
TORSDOF 3
ENDMDL
MODEL 7
REMARK VINA RESULT:      -4.3     12.171     13.077
REMARK  3 active torsions:
REMARK  status: ('A' for Active; 'I' for Inactive)
REMARK    1  A    between atoms: C2_2  and  C9_9 
REMARK    2  A    between atoms: C7_7  and  C9_9 
REMARK    3  A    between atoms: C8_8  and  O10_10 
ROOT
HETATM    1  C3  UNL     1     -36.103  15.920  -4.066  1.00 20.00     0.003 C 
HETATM    2  C4  UNL     1     -35.984  16.589  -2.698  1.00 20.00     0.005 C 
HETATM    3  C5  UNL     1     -34.819  16.067  -4.875  1.00 20.00     0.032 C 
HETATM    4  C6  UNL     1     -33.485  16.222  -2.733  1.00 20.00     0.036 C 
HETATM    5  C7  UNL     1     -34.771  16.070  -1.912  1.00 20.00    -0.009 C 
HETATM    6  C8  UNL     1     -33.607  15.551  -4.101  1.00 20.00     0.118 C 
ENDROOT
BRANCH   5   7
HETATM    7  C9  UNL     1     -34.645  16.792  -0.573  1.00 20.00     0.031 C 
BRANCH   7   8
HETATM    8  C2  UNL     1     -33.608  17.869  -0.634  1.00 20.00    -0.037 C 
HETATM    9  C1  UNL     1     -33.184  18.557   0.431  1.00 20.00     0.007 C 
ENDBRANCH   7   8
ENDBRANCH   5   7
BRANCH   6  10
HETATM   10  O10 UNL     1     -32.423  15.788  -4.857  1.00 20.00    -0.396 OA
HETATM   11  H26 UNL     1     -32.322  15.033  -5.458  1.00 20.00     0.210 HD
ENDBRANCH   6  10
TORSDOF 3
ENDMDL
MODEL 8
REMARK VINA RESULT:      -4.3     11.398     13.437
REMARK  3 active torsions:
REMARK  status: ('A' for Active; 'I' for Inactive)
REMARK    1  A    between atoms: C2_2  and  C9_9 
REMARK    2  A    between atoms: C7_7  and  C9_9 
REMARK    3  A    between atoms: C8_8  and  O10_10 
ROOT
HETATM    1  C3  UNL     1     -32.941  15.363  -3.870  1.00 20.00     0.003 C 
HETATM    2  C4  UNL     1     -33.501  16.230  -4.995  1.00 20.00     0.005 C 
HETATM    3  C5  UNL     1     -33.938  14.294  -3.435  1.00 20.00     0.032 C 
HETATM    4  C6  UNL     1     -34.967  14.315  -5.744  1.00 20.00     0.036 C 
HETATM    5  C7  UNL     1     -33.964  15.385  -6.191  1.00 20.00    -0.009 C 
HETATM    6  C8  UNL     1     -34.403  13.448  -4.619  1.00 20.00     0.118 C 
ENDROOT
BRANCH   5   7
HETATM    7  C9  UNL     1     -34.567  16.271  -7.278  1.00 20.00     0.031 C 
BRANCH   7   8
HETATM    8  C2  UNL     1     -36.048  16.408  -7.104  1.00 20.00    -0.037 C 
HETATM    9  C1  UNL     1     -36.650  17.533  -6.701  1.00 20.00     0.007 C 
ENDBRANCH   7   8
ENDBRANCH   5   7
BRANCH   6  10
HETATM   10  O10 UNL     1     -35.396  12.525  -4.183  1.00 20.00    -0.396 OA
HETATM   11  H26 UNL     1     -35.406  12.564  -3.214  1.00 20.00     0.210 HD
ENDBRANCH   6  10
TORSDOF 3
ENDMDL
MODEL 9
REMARK VINA RESULT:      -4.2     10.146     10.699
REMARK  3 active torsions:
REMARK  status: ('A' for Active; 'I' for Inactive)
REMARK    1  A    between atoms: C2_2  and  C9_9 
REMARK    2  A    between atoms: C7_7  and  C9_9 
REMARK    3  A    between atoms: C8_8  and  O10_10 
ROOT
HETATM    1  C3  UNL     1     -40.634   6.188  -0.268  1.00 20.00     0.003 C 
HETATM    2  C4  UNL     1     -41.574   7.223  -0.883  1.00 20.00     0.005 C 
HETATM    3  C5  UNL     1     -41.168   4.771  -0.443  1.00 20.00     0.032 C 
HETATM    4  C6  UNL     1     -42.407   5.494  -2.525  1.00 20.00     0.036 C 
HETATM    5  C7  UNL     1     -41.869   6.920  -2.359  1.00 20.00    -0.009 C 
HETATM    6  C8  UNL     1     -41.463   4.461  -1.909  1.00 20.00     0.118 C 
ENDROOT
BRANCH   5   7
HETATM    7  C9  UNL     1     -42.851   7.938  -2.934  1.00 20.00     0.031 C 
BRANCH   7   8
HETATM    8  C2  UNL     1     -42.722   8.034  -4.422  1.00 20.00    -0.037 C 
HETATM    9  C1  UNL     1     -41.961   8.938  -5.048  1.00 20.00     0.007 C 
ENDBRANCH   7   8
ENDBRANCH   5   7
BRANCH   6  10
HETATM   10  O10 UNL     1     -42.041   3.163  -2.015  1.00 20.00    -0.396 OA
HETATM   11  H26 UNL     1     -41.641   2.743  -2.793  1.00 20.00     0.210 HD
ENDBRANCH   6  10
TORSDOF 3
ENDMDL
