MODEL 1
REMARK VINA RESULT:      -4.3      0.000      0.000
REMARK  2 active torsions:
REMARK  status: ('A' for Active; 'I' for Inactive)
REMARK    1  A    between atoms: C1_1  and  C3_3 
REMARK    2  A    between atoms: C1_1  and  C8_8 
ROOT
HETATM    1  C1  UNL     1     -34.010   6.071   3.784  1.00 20.00     0.134 C 
HETATM    2  O9  UNL     1     -34.661   5.449   2.946  1.00 20.00    -0.297 OA
ENDROOT
BRANCH   1   3
HETATM    3  C3  UNL     1     -34.617   6.437   5.115  1.00 20.00     0.060 A 
HETATM    4  C2  UNL     1     -33.738   6.405   6.317  1.00 20.00     0.017 A 
HETATM    5  C4  UNL     1     -34.826   5.381   6.145  1.00 20.00    -0.007 A 
HETATM    6  C5  UNL     1     -34.474   3.947   5.937  1.00 20.00     0.011 C 
ENDBRANCH   1   3
BRANCH   1   7
HETATM    7  C8  UNL     1     -32.557   6.477   3.554  1.00 20.00     0.048 C 
HETATM    8  C6  UNL     1     -31.772   5.302   2.986  1.00 20.00     0.017 C 
HETATM    9  C7  UNL     1     -32.468   7.688   2.628  1.00 20.00     0.017 C 
ENDBRANCH   1   7
TORSDOF 2
ENDMDL
MODEL 2
REMARK VINA RESULT:      -4.2     11.670     12.690
REMARK  2 active torsions:
REMARK  status: ('A' for Active; 'I' for Inactive)
REMARK    1  A    between atoms: C1_1  and  C3_3 
REMARK    2  A    between atoms: C1_1  and  C8_8 
ROOT
HETATM    1  C1  UNL     1     -35.258  15.343  -3.088  1.00 20.00     0.134 C 
HETATM    2  O9  UNL     1     -36.398  15.775  -3.261  1.00 20.00    -0.297 OA
ENDROOT
BRANCH   1   3
HETATM    3  C3  UNL     1     -34.867  13.978  -3.594  1.00 20.00     0.060 A 
HETATM    4  C2  UNL     1     -33.430  13.729  -3.896  1.00 20.00     0.017 A 
HETATM    5  C4  UNL     1     -34.436  13.812  -5.010  1.00 20.00    -0.007 A 
HETATM    6  C5  UNL     1     -34.374  14.936  -5.988  1.00 20.00     0.011 C 
ENDBRANCH   1   3
BRANCH   1   7
HETATM    7  C8  UNL     1     -34.172  16.159  -2.393  1.00 20.00     0.048 C 
HETATM    8  C6  UNL     1     -33.833  17.389  -3.225  1.00 20.00     0.017 C 
HETATM    9  C7  UNL     1     -34.605  16.559  -0.985  1.00 20.00     0.017 C 
ENDBRANCH   1   7
TORSDOF 2
ENDMDL
MODEL 3
REMARK VINA RESULT:      -4.1     11.863     12.908
REMARK  2 active torsions:
REMARK  status: ('A' for Active; 'I' for Inactive)
REMARK    1  A    between atoms: C1_1  and  C3_3 
REMARK    2  A    between atoms: C1_1  and  C8_8 
ROOT
HETATM    1  C1  UNL     1     -33.469  15.156  -3.364  1.00 20.00     0.134 C 
HETATM    2  O9  UNL     1     -32.361  14.693  -3.635  1.00 20.00    -0.297 OA
ENDROOT
BRANCH   1   3
HETATM    3  C3  UNL     1     -34.728  14.447  -3.797  1.00 20.00     0.060 A 
HETATM    4  C2  UNL     1     -34.588  13.226  -4.637  1.00 20.00     0.017 A 
HETATM    5  C4  UNL     1     -35.144  14.492  -5.226  1.00 20.00    -0.007 A 
HETATM    6  C5  UNL     1     -34.383  15.219  -6.282  1.00 20.00     0.011 C 
ENDBRANCH   1   3
BRANCH   1   7
HETATM    7  C8  UNL     1     -33.643  16.438  -2.554  1.00 20.00     0.048 C 
HETATM    8  C6  UNL     1     -33.932  17.607  -3.487  1.00 20.00     0.017 C 
HETATM    9  C7  UNL     1     -34.754  16.284  -1.518  1.00 20.00     0.017 C 
ENDBRANCH   1   7
TORSDOF 2
ENDMDL
MODEL 4
REMARK VINA RESULT:      -4.1      1.412      1.763
REMARK  2 active torsions:
REMARK  status: ('A' for Active; 'I' for Inactive)
REMARK    1  A    between atoms: C1_1  and  C3_3 
REMARK    2  A    between atoms: C1_1  and  C8_8 
ROOT
HETATM    1  C1  UNL     1     -33.470   6.323   4.176  1.00 20.00     0.134 C 
HETATM    2  O9  UNL     1     -33.680   6.925   5.228  1.00 20.00    -0.297 OA
ENDROOT
BRANCH   1   3
HETATM    3  C3  UNL     1     -34.497   5.374   3.612  1.00 20.00     0.060 A 
HETATM    4  C2  UNL     1     -35.925   5.597   3.970  1.00 20.00     0.017 A 
HETATM    5  C4  UNL     1     -35.183   4.409   4.515  1.00 20.00    -0.007 A 
HETATM    6  C5  UNL     1     -34.906   4.310   5.977  1.00 20.00     0.011 C 
ENDBRANCH   1   3
BRANCH   1   7
HETATM    7  C8  UNL     1     -32.192   6.517   3.364  1.00 20.00     0.048 C 
HETATM    8  C6  UNL     1     -32.021   5.367   2.380  1.00 20.00     0.017 C 
HETATM    9  C7  UNL     1     -32.206   7.858   2.635  1.00 20.00     0.017 C 
ENDBRANCH   1   7
TORSDOF 2
ENDMDL
MODEL 5
REMARK VINA RESULT:      -4.0     11.788     13.238
REMARK  2 active torsions:
REMARK  status: ('A' for Active; 'I' for Inactive)
REMARK    1  A    between atoms: C1_1  and  C3_3 
REMARK    2  A    between atoms: C1_1  and  C8_8 
ROOT
HETATM    1  C1  UNL     1     -34.611  13.787  -4.831  1.00 20.00     0.134 C 
HETATM    2  O9  UNL     1     -35.035  12.760  -4.300  1.00 20.00    -0.297 OA
ENDROOT
BRANCH   1   3
HETATM    3  C3  UNL     1     -34.759  14.004  -6.316  1.00 20.00     0.060 A 
HETATM    4  C2  UNL     1     -34.541  15.378  -6.847  1.00 20.00     0.017 A 
HETATM    5  C4  UNL     1     -35.920  14.779  -6.836  1.00 20.00    -0.007 A 
HETATM    6  C5  UNL     1     -36.978  15.361  -5.961  1.00 20.00     0.011 C 
ENDBRANCH   1   3
BRANCH   1   7
HETATM    7  C8  UNL     1     -33.951  14.907  -4.032  1.00 20.00     0.048 C 
HETATM    8  C6  UNL     1     -34.835  15.297  -2.855  1.00 20.00     0.017 C 
HETATM    9  C7  UNL     1     -32.562  14.492  -3.554  1.00 20.00     0.017 C 
ENDBRANCH   1   7
TORSDOF 2
ENDMDL
MODEL 6
REMARK VINA RESULT:      -4.0      1.004      1.994
REMARK  2 active torsions:
REMARK  status: ('A' for Active; 'I' for Inactive)
REMARK    1  A    between atoms: C1_1  and  C3_3 
REMARK    2  A    between atoms: C1_1  and  C8_8 
ROOT
HETATM    1  C1  UNL     1     -34.600   5.494   3.770  1.00 20.00     0.134 C 
HETATM    2  O9  UNL     1     -35.781   5.734   3.520  1.00 20.00    -0.297 OA
ENDROOT
BRANCH   1   3
HETATM    3  C3  UNL     1     -34.221   4.606   4.928  1.00 20.00     0.060 A 
HETATM    4  C2  UNL     1     -35.232   4.385   5.999  1.00 20.00     0.017 A 
HETATM    5  C4  UNL     1     -34.001   5.203   6.274  1.00 20.00    -0.007 A 
HETATM    6  C5  UNL     1     -34.124   6.662   6.557  1.00 20.00     0.011 C 
ENDBRANCH   1   3
BRANCH   1   7
HETATM    7  C8  UNL     1     -33.458   6.040   2.917  1.00 20.00     0.048 C 
HETATM    8  C6  UNL     1     -33.255   7.522   3.207  1.00 20.00     0.017 C 
HETATM    9  C7  UNL     1     -32.170   5.259   3.164  1.00 20.00     0.017 C 
ENDBRANCH   1   7
TORSDOF 2
ENDMDL
MODEL 7
REMARK VINA RESULT:      -3.9      0.660      3.357
REMARK  2 active torsions:
REMARK  status: ('A' for Active; 'I' for Inactive)
REMARK    1  A    between atoms: C1_1  and  C3_3 
REMARK    2  A    between atoms: C1_1  and  C8_8 
ROOT
HETATM    1  C1  UNL     1     -34.551   5.831   4.068  1.00 20.00     0.134 C 
HETATM    2  O9  UNL     1     -35.113   5.460   3.037  1.00 20.00    -0.297 OA
ENDROOT
BRANCH   1   3
HETATM    3  C3  UNL     1     -33.417   6.824   4.012  1.00 20.00     0.060 A 
HETATM    4  C2  UNL     1     -33.047   7.389   2.686  1.00 20.00     0.017 A 
HETATM    5  C4  UNL     1     -32.124   6.432   3.386  1.00 20.00    -0.007 A 
HETATM    6  C5  UNL     1     -31.868   5.083   2.803  1.00 20.00     0.011 C 
ENDBRANCH   1   3
BRANCH   1   7
HETATM    7  C8  UNL     1     -34.979   5.349   5.451  1.00 20.00     0.048 C 
HETATM    8  C6  UNL     1     -34.757   3.847   5.570  1.00 20.00     0.017 C 
HETATM    9  C7  UNL     1     -34.225   6.097   6.548  1.00 20.00     0.017 C 
ENDBRANCH   1   7
TORSDOF 2
ENDMDL
MODEL 8
REMARK VINA RESULT:      -3.9      0.900      3.701
REMARK  2 active torsions:
REMARK  status: ('A' for Active; 'I' for Inactive)
REMARK    1  A    between atoms: C1_1  and  C3_3 
REMARK    2  A    between atoms: C1_1  and  C8_8 
ROOT
HETATM    1  C1  UNL     1     -34.526   5.620   3.905  1.00 20.00     0.134 C 
HETATM    2  O9  UNL     1     -35.661   6.022   3.646  1.00 20.00    -0.297 OA
ENDROOT
BRANCH   1   3
HETATM    3  C3  UNL     1     -33.477   5.527   2.826  1.00 20.00     0.060 A 
HETATM    4  C2  UNL     1     -32.048   5.495   3.241  1.00 20.00     0.017 A 
HETATM    5  C4  UNL     1     -32.607   6.700   2.540  1.00 20.00    -0.007 A 
HETATM    6  C5  UNL     1     -32.714   8.000   3.263  1.00 20.00     0.011 C 
ENDBRANCH   1   3
BRANCH   1   7
HETATM    7  C8  UNL     1     -34.100   5.231   5.318  1.00 20.00     0.048 C 
HETATM    8  C6  UNL     1     -34.149   6.450   6.231  1.00 20.00     0.017 C 
HETATM    9  C7  UNL     1     -34.979   4.109   5.864  1.00 20.00     0.017 C 
ENDBRANCH   1   7
TORSDOF 2
ENDMDL
MODEL 9
REMARK VINA RESULT:      -3.8      1.684      3.855
REMARK  2 active torsions:
REMARK  status: ('A' for Active; 'I' for Inactive)
REMARK    1  A    between atoms: C1_1  and  C3_3 
REMARK    2  A    between atoms: C1_1  and  C8_8 
ROOT
HETATM    1  C1  UNL     1     -33.717   6.288   4.926  1.00 20.00     0.134 C 
HETATM    2  O9  UNL     1     -33.353   7.018   5.849  1.00 20.00    -0.297 OA
ENDROOT
BRANCH   1   3
HETATM    3  C3  UNL     1     -33.434   6.661   3.493  1.00 20.00     0.060 A 
HETATM    4  C2  UNL     1     -32.360   5.920   2.776  1.00 20.00     0.017 A 
HETATM    5  C4  UNL     1     -32.167   7.363   3.149  1.00 20.00    -0.007 A 
HETATM    6  C5  UNL     1     -31.136   7.740   4.159  1.00 20.00     0.011 C 
ENDBRANCH   1   3
BRANCH   1   7
HETATM    7  C8  UNL     1     -34.434   4.963   5.166  1.00 20.00     0.048 C 
HETATM    8  C6  UNL     1     -34.923   4.890   6.607  1.00 20.00     0.017 C 
HETATM    9  C7  UNL     1     -35.594   4.785   4.190  1.00 20.00     0.017 C 
ENDBRANCH   1   7
TORSDOF 2
ENDMDL
