MODEL 1
REMARK VINA RESULT:      -4.7      0.000      0.000
REMARK  2 active torsions:
REMARK  status: ('A' for Active; 'I' for Inactive)
REMARK    1  A    between atoms: C3_3  and  C7_7 
REMARK    2  A    between atoms: C3_3  and  O11_11 
ROOT
HETATM    1  C1  UNL     1     -34.349  16.466  -2.809  1.00 20.00    -0.070 C 
HETATM    2  C2  UNL     1     -34.620  16.168  -1.533  1.00 20.00    -0.027 C 
HETATM    3  C4  UNL     1     -33.942  17.832  -3.286  1.00 20.00     0.034 C 
HETATM    4  C5  UNL     1     -33.410  17.568  -4.688  1.00 20.00     0.005 C 
HETATM    5  C6  UNL     1     -34.244  16.391  -5.188  1.00 20.00     0.019 C 
HETATM    6  C7  UNL     1     -34.424  15.501  -3.960  1.00 20.00     0.114 C 
HETATM    7  C8  UNL     1     -34.553  17.152  -0.414  1.00 20.00     0.036 C 
ENDROOT
BRANCH   6   8
HETATM    8  C3  UNL     1     -33.309  14.506  -3.839  1.00 20.00     0.266 C 
HETATM    9  O10 UNL     1     -32.157  14.800  -3.545  1.00 20.00    -0.265 OA
BRANCH   8  10
HETATM   10  O11 UNL     1     -33.783  13.256  -4.103  1.00 20.00    -0.326 OA
HETATM   11  C9  UNL     1     -35.191  13.170  -4.344  1.00 20.00     0.213 C 
ENDBRANCH   8  10
ENDBRANCH   6   8
TORSDOF 2
ENDMDL
MODEL 2
REMARK VINA RESULT:      -4.5      2.172      3.996
REMARK  2 active torsions:
REMARK  status: ('A' for Active; 'I' for Inactive)
REMARK    1  A    between atoms: C3_3  and  C7_7 
REMARK    2  A    between atoms: C3_3  and  O11_11 
ROOT
HETATM    1  C1  UNL     1     -35.493  15.198  -5.442  1.00 20.00    -0.070 C 
HETATM    2  C2  UNL     1     -34.828  15.290  -6.600  1.00 20.00    -0.027 C 
HETATM    3  C4  UNL     1     -36.978  15.390  -5.308  1.00 20.00     0.034 C 
HETATM    4  C5  UNL     1     -37.277  14.836  -3.921  1.00 20.00     0.005 C 
HETATM    5  C6  UNL     1     -36.014  15.137  -3.119  1.00 20.00     0.019 C 
HETATM    6  C7  UNL     1     -34.870  14.908  -4.105  1.00 20.00     0.114 C 
HETATM    7  C8  UNL     1     -35.473  15.596  -7.910  1.00 20.00     0.036 C 
ENDROOT
BRANCH   6   8
HETATM    8  C3  UNL     1     -34.404  13.483  -4.080  1.00 20.00     0.266 C 
HETATM    9  O10 UNL     1     -35.079  12.534  -4.459  1.00 20.00    -0.265 OA
BRANCH   8  10
HETATM   10  O11 UNL     1     -33.139  13.426  -3.577  1.00 20.00    -0.326 OA
HETATM   11  C9  UNL     1     -32.415  14.661  -3.591  1.00 20.00     0.213 C 
ENDBRANCH   8  10
ENDBRANCH   6   8
TORSDOF 2
ENDMDL
MODEL 3
REMARK VINA RESULT:      -4.5      2.576      3.642
REMARK  2 active torsions:
REMARK  status: ('A' for Active; 'I' for Inactive)
REMARK    1  A    between atoms: C3_3  and  C7_7 
REMARK    2  A    between atoms: C3_3  and  O11_11 
ROOT
HETATM    1  C1  UNL     1     -35.192  15.353  -3.538  1.00 20.00    -0.070 C 
HETATM    2  C2  UNL     1     -35.362  16.297  -2.605  1.00 20.00    -0.027 C 
HETATM    3  C4  UNL     1     -34.213  14.219  -3.418  1.00 20.00     0.034 C 
HETATM    4  C5  UNL     1     -34.653  13.261  -4.518  1.00 20.00     0.005 C 
HETATM    5  C6  UNL     1     -35.209  14.173  -5.608  1.00 20.00     0.019 C 
HETATM    6  C7  UNL     1     -35.930  15.283  -4.846  1.00 20.00     0.114 C 
HETATM    7  C8  UNL     1     -34.602  16.349  -1.322  1.00 20.00     0.036 C 
ENDROOT
BRANCH   6   8
HETATM    8  C3  UNL     1     -37.362  14.923  -4.583  1.00 20.00     0.266 C 
HETATM    9  O10 UNL     1     -37.724  14.156  -3.700  1.00 20.00    -0.265 OA
BRANCH   8  10
HETATM   10  O11 UNL     1     -38.166  15.577  -5.468  1.00 20.00    -0.326 OA
HETATM   11  C9  UNL     1     -37.780  16.920  -5.774  1.00 20.00     0.213 C 
ENDBRANCH   8  10
ENDBRANCH   6   8
TORSDOF 2
ENDMDL
MODEL 4
REMARK VINA RESULT:      -4.5      1.744      2.244
REMARK  2 active torsions:
REMARK  status: ('A' for Active; 'I' for Inactive)
REMARK    1  A    between atoms: C3_3  and  C7_7 
REMARK    2  A    between atoms: C3_3  and  O11_11 
ROOT
HETATM    1  C1  UNL     1     -34.745  15.909  -3.109  1.00 20.00    -0.070 C 
HETATM    2  C2  UNL     1     -35.321  16.179  -1.932  1.00 20.00    -0.027 C 
HETATM    3  C4  UNL     1     -33.280  16.092  -3.390  1.00 20.00     0.034 C 
HETATM    4  C5  UNL     1     -33.075  15.326  -4.690  1.00 20.00     0.005 C 
HETATM    5  C6  UNL     1     -34.402  15.482  -5.428  1.00 20.00     0.019 C 
HETATM    6  C7  UNL     1     -35.461  15.403  -4.330  1.00 20.00     0.114 C 
HETATM    7  C8  UNL     1     -34.585  16.698  -0.742  1.00 20.00     0.036 C 
ENDROOT
BRANCH   6   8
HETATM    8  C3  UNL     1     -35.896  13.987  -4.091  1.00 20.00     0.266 C 
HETATM    9  O10 UNL     1     -35.151  13.019  -4.174  1.00 20.00    -0.265 OA
BRANCH   8  10
HETATM   10  O11 UNL     1     -37.222  13.964  -3.778  1.00 20.00    -0.326 OA
HETATM   11  C9  UNL     1     -38.035  14.915  -4.473  1.00 20.00     0.213 C 
ENDBRANCH   8  10
ENDBRANCH   6   8
TORSDOF 2
ENDMDL
MODEL 5
REMARK VINA RESULT:      -4.3      2.693      4.085
REMARK  2 active torsions:
REMARK  status: ('A' for Active; 'I' for Inactive)
REMARK    1  A    between atoms: C3_3  and  C7_7 
REMARK    2  A    between atoms: C3_3  and  O11_11 
ROOT
HETATM    1  C1  UNL     1     -34.896  14.869  -5.263  1.00 20.00    -0.070 C 
HETATM    2  C2  UNL     1     -35.442  14.454  -6.412  1.00 20.00    -0.027 C 
HETATM    3  C4  UNL     1     -33.713  15.792  -5.179  1.00 20.00     0.034 C 
HETATM    4  C5  UNL     1     -33.718  16.234  -3.721  1.00 20.00     0.005 C 
HETATM    5  C6  UNL     1     -34.277  15.030  -2.968  1.00 20.00     0.019 C 
HETATM    6  C7  UNL     1     -35.360  14.471  -3.889  1.00 20.00     0.114 C 
HETATM    7  C8  UNL     1     -34.948  14.853  -7.762  1.00 20.00     0.036 C 
ENDROOT
BRANCH   6   8
HETATM    8  C3  UNL     1     -36.690  15.109  -3.617  1.00 20.00     0.266 C 
HETATM    9  O10 UNL     1     -36.837  16.287  -3.319  1.00 20.00    -0.265 OA
BRANCH   8  10
HETATM   10  O11 UNL     1     -37.677  14.180  -3.755  1.00 20.00    -0.326 OA
HETATM   11  C9  UNL     1     -38.942  14.686  -4.194  1.00 20.00     0.213 C 
ENDBRANCH   8  10
ENDBRANCH   6   8
TORSDOF 2
ENDMDL
MODEL 6
REMARK VINA RESULT:      -4.3      1.947      3.645
REMARK  2 active torsions:
REMARK  status: ('A' for Active; 'I' for Inactive)
REMARK    1  A    between atoms: C3_3  and  C7_7 
REMARK    2  A    between atoms: C3_3  and  O11_11 
ROOT
HETATM    1  C1  UNL     1     -35.597  14.755  -3.599  1.00 20.00    -0.070 C 
HETATM    2  C2  UNL     1     -36.701  15.454  -3.311  1.00 20.00    -0.027 C 
HETATM    3  C4  UNL     1     -35.587  13.503  -4.430  1.00 20.00     0.034 C 
HETATM    4  C5  UNL     1     -34.112  13.315  -4.760  1.00 20.00     0.005 C 
HETATM    5  C6  UNL     1     -33.383  13.878  -3.544  1.00 20.00     0.019 C 
HETATM    6  C7  UNL     1     -34.209  15.094  -3.132  1.00 20.00     0.114 C 
HETATM    7  C8  UNL     1     -38.069  15.082  -3.776  1.00 20.00     0.036 C 
ENDROOT
BRANCH   6   8
HETATM    8  C3  UNL     1     -33.744  16.334  -3.836  1.00 20.00     0.266 C 
HETATM    9  O10 UNL     1     -33.307  16.349  -4.980  1.00 20.00    -0.265 OA
BRANCH   8  10
HETATM   10  O11 UNL     1     -33.885  17.408  -3.010  1.00 20.00    -0.326 OA
HETATM   11  C9  UNL     1     -33.736  17.134  -1.613  1.00 20.00     0.213 C 
ENDBRANCH   8  10
ENDBRANCH   6   8
TORSDOF 2
ENDMDL
MODEL 7
REMARK VINA RESULT:      -4.3      1.424      3.852
REMARK  2 active torsions:
REMARK  status: ('A' for Active; 'I' for Inactive)
REMARK    1  A    between atoms: C3_3  and  C7_7 
REMARK    2  A    between atoms: C3_3  and  O11_11 
ROOT
HETATM    1  C1  UNL     1     -34.742  15.619  -5.411  1.00 20.00    -0.070 C 
HETATM    2  C2  UNL     1     -34.590  16.833  -5.952  1.00 20.00    -0.027 C 
HETATM    3  C4  UNL     1     -34.854  14.351  -6.210  1.00 20.00     0.034 C 
HETATM    4  C5  UNL     1     -34.646  13.262  -5.166  1.00 20.00     0.005 C 
HETATM    5  C6  UNL     1     -35.228  13.855  -3.886  1.00 20.00     0.019 C 
HETATM    6  C7  UNL     1     -34.843  15.331  -3.939  1.00 20.00     0.114 C 
HETATM    7  C8  UNL     1     -34.510  17.089  -7.420  1.00 20.00     0.036 C 
ENDROOT
BRANCH   6   8
HETATM    8  C3  UNL     1     -33.507  15.571  -3.300  1.00 20.00     0.266 C 
HETATM    9  O10 UNL     1     -32.497  14.929  -3.563  1.00 20.00    -0.265 OA
BRANCH   8  10
HETATM   10  O11 UNL     1     -33.606  16.593  -2.405  1.00 20.00    -0.326 OA
HETATM   11  C9  UNL     1     -34.559  16.401  -1.355  1.00 20.00     0.213 C 
ENDBRANCH   8  10
ENDBRANCH   6   8
TORSDOF 2
ENDMDL
MODEL 8
REMARK VINA RESULT:      -4.2      2.573      3.837
REMARK  2 active torsions:
REMARK  status: ('A' for Active; 'I' for Inactive)
REMARK    1  A    between atoms: C3_3  and  C7_7 
REMARK    2  A    between atoms: C3_3  and  O11_11 
ROOT
HETATM    1  C1  UNL     1     -34.704  15.459  -5.341  1.00 20.00    -0.070 C 
HETATM    2  C2  UNL     1     -35.312  15.996  -6.405  1.00 20.00    -0.027 C 
HETATM    3  C4  UNL     1     -33.333  15.854  -4.868  1.00 20.00     0.034 C 
HETATM    4  C5  UNL     1     -33.259  15.250  -3.471  1.00 20.00     0.005 C 
HETATM    5  C6  UNL     1     -34.109  13.986  -3.566  1.00 20.00     0.019 C 
HETATM    6  C7  UNL     1     -35.277  14.377  -4.468  1.00 20.00     0.114 C 
HETATM    7  C8  UNL     1     -34.710  17.058  -7.262  1.00 20.00     0.036 C 
ENDROOT
BRANCH   6   8
HETATM    8  C3  UNL     1     -36.417  14.941  -3.673  1.00 20.00     0.266 C 
HETATM    9  O10 UNL     1     -36.357  15.985  -3.035  1.00 20.00    -0.265 OA
BRANCH   8  10
HETATM   10  O11 UNL     1     -37.497  14.118  -3.777  1.00 20.00    -0.326 OA
HETATM   11  C9  UNL     1     -38.728  14.759  -4.127  1.00 20.00     0.213 C 
ENDBRANCH   8  10
ENDBRANCH   6   8
TORSDOF 2
ENDMDL
MODEL 9
REMARK VINA RESULT:      -4.2      1.995      4.428
REMARK  2 active torsions:
REMARK  status: ('A' for Active; 'I' for Inactive)
REMARK    1  A    between atoms: C3_3  and  C7_7 
REMARK    2  A    between atoms: C3_3  and  O11_11 
ROOT
HETATM    1  C1  UNL     1     -35.030  14.954  -5.450  1.00 20.00    -0.070 C 
HETATM    2  C2  UNL     1     -35.365  15.360  -6.680  1.00 20.00    -0.027 C 
HETATM    3  C4  UNL     1     -34.800  13.518  -5.071  1.00 20.00     0.034 C 
HETATM    4  C5  UNL     1     -34.110  13.620  -3.717  1.00 20.00     0.005 C 
HETATM    5  C6  UNL     1     -34.700  14.881  -3.092  1.00 20.00     0.019 C 
HETATM    6  C7  UNL     1     -34.848  15.854  -4.259  1.00 20.00     0.114 C 
HETATM    7  C8  UNL     1     -35.554  14.440  -7.839  1.00 20.00     0.036 C 
ENDROOT
BRANCH   6   8
HETATM    8  C3  UNL     1     -33.606  16.673  -4.449  1.00 20.00     0.266 C 
HETATM    9  O10 UNL     1     -32.554  16.230  -4.890  1.00 20.00    -0.265 OA
BRANCH   8  10
HETATM   10  O11 UNL     1     -33.842  17.957  -4.057  1.00 20.00    -0.326 OA
HETATM   11  C9  UNL     1     -33.562  18.961  -5.038  1.00 20.00     0.213 C 
ENDBRANCH   8  10
ENDBRANCH   6   8
TORSDOF 2
ENDMDL
