MODEL 1
REMARK VINA RESULT:      -4.3      0.000      0.000
REMARK  0 active torsions:
REMARK  status: ('A' for Active; 'I' for Inactive)
ROOT
HETATM    1  C1  UNL     1     -32.551   6.615   2.628  1.00 20.00     0.047 A 
HETATM    2  C2  UNL     1     -31.765   7.488   3.406  1.00 20.00     0.141 A 
HETATM    3  C3  UNL     1     -33.439   6.060   3.521  1.00 20.00     0.032 A 
HETATM    4  C4  UNL     1     -34.525   5.053   3.369  1.00 20.00     0.059 C 
HETATM    5  C5  UNL     1     -35.497   5.088   4.554  1.00 20.00     0.008 C 
HETATM    6  C6  UNL     1     -34.740   5.131   5.884  1.00 20.00     0.022 C 
HETATM    7  C7  UNL     1     -33.852   6.372   5.968  1.00 20.00     0.151 C 
HETATM    8  N8  UNL     1     -32.117   7.496   4.695  1.00 20.00    -0.185 NA
HETATM    9  N9  UNL     1     -33.131   6.613   4.735  1.00 20.00    -0.274 N 
ENDROOT
TORSDOF 0
ENDMDL
MODEL 2
REMARK VINA RESULT:      -4.3      9.958     11.109
REMARK  0 active torsions:
REMARK  status: ('A' for Active; 'I' for Inactive)
ROOT
HETATM    1  C1  UNL     1     -42.137   3.221  -2.649  1.00 20.00     0.047 A 
HETATM    2  C2  UNL     1     -43.159   3.661  -3.513  1.00 20.00     0.141 A 
HETATM    3  C3  UNL     1     -41.713   4.361  -2.005  1.00 20.00     0.032 A 
HETATM    4  C4  UNL     1     -40.656   4.611  -0.987  1.00 20.00     0.059 C 
HETATM    5  C5  UNL     1     -40.860   5.954  -0.278  1.00 20.00     0.008 C 
HETATM    6  C6  UNL     1     -41.161   7.066  -1.286  1.00 20.00     0.022 C 
HETATM    7  C7  UNL     1     -42.430   6.756  -2.080  1.00 20.00     0.151 C 
HETATM    8  N8  UNL     1     -43.378   4.977  -3.431  1.00 20.00    -0.185 NA
HETATM    9  N9  UNL     1     -42.479   5.375  -2.514  1.00 20.00    -0.274 N 
ENDROOT
TORSDOF 0
ENDMDL
MODEL 3
REMARK VINA RESULT:      -4.2      1.150      2.064
REMARK  0 active torsions:
REMARK  status: ('A' for Active; 'I' for Inactive)
ROOT
HETATM    1  C1  UNL     1     -32.296   7.446   4.299  1.00 20.00     0.047 A 
HETATM    2  C2  UNL     1     -32.185   7.079   2.943  1.00 20.00     0.141 A 
HETATM    3  C3  UNL     1     -33.256   6.602   4.808  1.00 20.00     0.032 A 
HETATM    4  C4  UNL     1     -33.864   6.466   6.160  1.00 20.00     0.059 C 
HETATM    5  C5  UNL     1     -34.566   5.115   6.330  1.00 20.00     0.008 C 
HETATM    6  C6  UNL     1     -35.441   4.794   5.115  1.00 20.00     0.022 C 
HETATM    7  C7  UNL     1     -34.603   4.731   3.838  1.00 20.00     0.151 C 
HETATM    8  N8  UNL     1     -33.005   6.080   2.605  1.00 20.00    -0.185 NA
HETATM    9  N9  UNL     1     -33.648   5.818   3.757  1.00 20.00    -0.274 N 
ENDROOT
TORSDOF 0
ENDMDL
MODEL 4
REMARK VINA RESULT:      -4.1      1.140      3.087
REMARK  0 active torsions:
REMARK  status: ('A' for Active; 'I' for Inactive)
ROOT
HETATM    1  C1  UNL     1     -35.216   4.696   5.078  1.00 20.00     0.047 A 
HETATM    2  C2  UNL     1     -34.992   5.263   6.348  1.00 20.00     0.141 A 
HETATM    3  C3  UNL     1     -34.345   5.359   4.244  1.00 20.00     0.032 A 
HETATM    4  C4  UNL     1     -34.080   5.266   2.782  1.00 20.00     0.059 C 
HETATM    5  C5  UNL     1     -32.734   5.898   2.411  1.00 20.00     0.008 C 
HETATM    6  C6  UNL     1     -32.563   7.261   3.085  1.00 20.00     0.022 C 
HETATM    7  C7  UNL     1     -32.616   7.131   4.607  1.00 20.00     0.151 C 
HETATM    8  N8  UNL     1     -34.052   6.213   6.335  1.00 20.00    -0.185 NA
HETATM    9  N9  UNL     1     -33.685   6.254   5.043  1.00 20.00    -0.274 N 
ENDROOT
TORSDOF 0
ENDMDL
MODEL 5
REMARK VINA RESULT:      -4.1     11.292     12.315
REMARK  0 active torsions:
REMARK  status: ('A' for Active; 'I' for Inactive)
ROOT
HETATM    1  C1  UNL     1     -36.721  16.154  -3.046  1.00 20.00     0.047 A 
HETATM    2  C2  UNL     1     -37.676  15.244  -3.542  1.00 20.00     0.141 A 
HETATM    3  C3  UNL     1     -35.510  15.536  -3.257  1.00 20.00     0.032 A 
HETATM    4  C4  UNL     1     -34.108  15.933  -2.953  1.00 20.00     0.059 C 
HETATM    5  C5  UNL     1     -33.100  15.111  -3.762  1.00 20.00     0.008 C 
HETATM    6  C6  UNL     1     -33.448  13.621  -3.721  1.00 20.00     0.022 C 
HETATM    7  C7  UNL     1     -34.837  13.367  -4.305  1.00 20.00     0.151 C 
HETATM    8  N8  UNL     1     -37.125  14.131  -4.035  1.00 20.00    -0.185 NA
HETATM    9  N9  UNL     1     -35.810  14.334  -3.840  1.00 20.00    -0.274 N 
ENDROOT
TORSDOF 0
ENDMDL
MODEL 6
REMARK VINA RESULT:      -4.1     12.090     13.215
REMARK  0 active torsions:
REMARK  status: ('A' for Active; 'I' for Inactive)
ROOT
HETATM    1  C1  UNL     1     -34.586  16.486  -6.617  1.00 20.00     0.047 A 
HETATM    2  C2  UNL     1     -33.802  17.528  -6.083  1.00 20.00     0.141 A 
HETATM    3  C3  UNL     1     -34.402  15.434  -5.750  1.00 20.00     0.032 A 
HETATM    4  C4  UNL     1     -34.920  14.038  -5.734  1.00 20.00     0.059 C 
HETATM    5  C5  UNL     1     -34.775  13.398  -4.349  1.00 20.00     0.008 C 
HETATM    6  C6  UNL     1     -33.381  13.653  -3.770  1.00 20.00     0.022 C 
HETATM    7  C7  UNL     1     -33.113  15.151  -3.626  1.00 20.00     0.151 C 
HETATM    8  N8  UNL     1     -33.165  17.176  -4.962  1.00 20.00    -0.185 NA
HETATM    9  N9  UNL     1     -33.543  15.897  -4.791  1.00 20.00    -0.274 N 
ENDROOT
TORSDOF 0
ENDMDL
MODEL 7
REMARK VINA RESULT:      -4.1     12.191     13.374
REMARK  0 active torsions:
REMARK  status: ('A' for Active; 'I' for Inactive)
ROOT
HETATM    1  C1  UNL     1     -35.351  14.384  -7.139  1.00 20.00     0.047 A 
HETATM    2  C2  UNL     1     -35.049  15.655  -7.669  1.00 20.00     0.141 A 
HETATM    3  C3  UNL     1     -34.718  14.359  -5.918  1.00 20.00     0.032 A 
HETATM    4  C4  UNL     1     -34.612  13.318  -4.858  1.00 20.00     0.059 C 
HETATM    5  C5  UNL     1     -34.168  13.918  -3.520  1.00 20.00     0.008 C 
HETATM    6  C6  UNL     1     -32.984  14.870  -3.711  1.00 20.00     0.022 C 
HETATM    7  C7  UNL     1     -33.355  16.024  -4.643  1.00 20.00     0.151 C 
HETATM    8  N8  UNL     1     -34.286  16.389  -6.854  1.00 20.00    -0.185 NA
HETATM    9  N9  UNL     1     -34.095  15.572  -5.804  1.00 20.00    -0.274 N 
ENDROOT
TORSDOF 0
ENDMDL
MODEL 8
REMARK VINA RESULT:      -4.1     12.197     13.425
REMARK  0 active torsions:
REMARK  status: ('A' for Active; 'I' for Inactive)
ROOT
HETATM    1  C1  UNL     1     -34.351  16.228  -7.022  1.00 20.00     0.047 A 
HETATM    2  C2  UNL     1     -35.101  15.293  -7.763  1.00 20.00     0.141 A 
HETATM    3  C3  UNL     1     -34.099  15.599  -5.825  1.00 20.00     0.032 A 
HETATM    4  C4  UNL     1     -33.380  16.026  -4.593  1.00 20.00     0.059 C 
HETATM    5  C5  UNL     1     -33.005  14.828  -3.714  1.00 20.00     0.008 C 
HETATM    6  C6  UNL     1     -34.189  13.870  -3.558  1.00 20.00     0.022 C 
HETATM    7  C7  UNL     1     -34.642  13.333  -4.915  1.00 20.00     0.151 C 
HETATM    8  N8  UNL     1     -35.314  14.154  -7.098  1.00 20.00    -0.185 NA
HETATM    9  N9  UNL     1     -34.701  14.373  -5.922  1.00 20.00    -0.274 N 
ENDROOT
TORSDOF 0
ENDMDL
MODEL 9
REMARK VINA RESULT:      -4.0     12.007     13.418
REMARK  0 active torsions:
REMARK  status: ('A' for Active; 'I' for Inactive)
ROOT
HETATM    1  C1  UNL     1     -33.601  14.640  -3.659  1.00 20.00     0.047 A 
HETATM    2  C2  UNL     1     -34.146  13.342  -3.603  1.00 20.00     0.141 A 
HETATM    3  C3  UNL     1     -33.942  15.104  -4.909  1.00 20.00     0.032 A 
HETATM    4  C4  UNL     1     -33.667  16.384  -5.618  1.00 20.00     0.059 C 
HETATM    5  C5  UNL     1     -34.613  16.585  -6.806  1.00 20.00     0.008 C 
HETATM    6  C6  UNL     1     -34.721  15.309  -7.645  1.00 20.00     0.022 C 
HETATM    7  C7  UNL     1     -35.258  14.148  -6.809  1.00 20.00     0.151 C 
HETATM    8  N8  UNL     1     -34.787  12.998  -4.723  1.00 20.00    -0.185 NA
HETATM    9  N9  UNL     1     -34.639  14.085  -5.500  1.00 20.00    -0.274 N 
ENDROOT
TORSDOF 0
ENDMDL
