MODEL 1
REMARK VINA RESULT:      -4.7      0.000      0.000
REMARK  0 active torsions:
REMARK  status: ('A' for Active; 'I' for Inactive)
ROOT
HETATM    1  C1  UNL     1     -34.414  13.547  -4.158  1.00 20.00     0.222 C 
HETATM    2  C2  UNL     1     -35.615  16.363  -2.417  1.00 20.00     0.001 C 
HETATM    3  C3  UNL     1     -36.061  15.360  -3.477  1.00 20.00     0.014 C 
HETATM    4  C4  UNL     1     -34.150  16.032  -2.181  1.00 20.00     0.007 C 
HETATM    5  C5  UNL     1     -32.466  14.790  -3.657  1.00 20.00     0.128 C 
HETATM    6  C6  UNL     1     -34.803  15.009  -4.271  1.00 20.00     0.083 C 
HETATM    7  C7  UNL     1     -33.639  15.747  -3.592  1.00 20.00     0.016 C 
HETATM    8  N8  UNL     1     -33.074  13.495  -3.799  1.00 20.00    -0.360 N 
HETATM    9  O9  UNL     1     -35.153  12.598  -4.370  1.00 20.00    -0.273 OA
HETATM   10  H20 UNL     1     -32.571  12.626  -3.652  1.00 20.00     0.162 HD
ENDROOT
TORSDOF 0
ENDMDL
MODEL 2
REMARK VINA RESULT:      -4.4     12.071     12.654
REMARK  0 active torsions:
REMARK  status: ('A' for Active; 'I' for Inactive)
ROOT
HETATM    1  C1  UNL     1     -33.318   6.497   4.040  1.00 20.00     0.222 C 
HETATM    2  C2  UNL     1     -35.132   3.862   5.513  1.00 20.00     0.001 C 
HETATM    3  C3  UNL     1     -35.014   4.608   4.187  1.00 20.00     0.014 C 
HETATM    4  C4  UNL     1     -34.231   4.636   6.460  1.00 20.00     0.007 C 
HETATM    5  C5  UNL     1     -33.367   7.043   6.340  1.00 20.00     0.128 C 
HETATM    6  C6  UNL     1     -34.675   6.053   4.554  1.00 20.00     0.083 C 
HETATM    7  C7  UNL     1     -34.514   6.089   6.081  1.00 20.00     0.016 C 
HETATM    8  N8  UNL     1     -32.624   7.045   5.110  1.00 20.00    -0.360 N 
HETATM    9  O9  UNL     1     -32.931   6.403   2.886  1.00 20.00    -0.273 OA
HETATM   10  H20 UNL     1     -31.681   7.413   5.031  1.00 20.00     0.162 HD
ENDROOT
TORSDOF 0
ENDMDL
MODEL 3
REMARK VINA RESULT:      -4.3      2.008      3.169
REMARK  0 active torsions:
REMARK  status: ('A' for Active; 'I' for Inactive)
ROOT
HETATM    1  C1  UNL     1     -33.230  14.459  -3.866  1.00 20.00     0.222 C 
HETATM    2  C2  UNL     1     -34.340  15.946  -6.859  1.00 20.00     0.001 C 
HETATM    3  C3  UNL     1     -33.546  16.290  -5.601  1.00 20.00     0.014 C 
HETATM    4  C4  UNL     1     -34.865  14.544  -6.599  1.00 20.00     0.007 C 
HETATM    5  C5  UNL     1     -35.205  13.275  -4.401  1.00 20.00     0.128 C 
HETATM    6  C6  UNL     1     -34.180  15.472  -4.476  1.00 20.00     0.083 C 
HETATM    7  C7  UNL     1     -35.268  14.604  -5.126  1.00 20.00     0.016 C 
HETATM    8  N8  UNL     1     -33.875  13.229  -3.860  1.00 20.00    -0.360 N 
HETATM    9  O9  UNL     1     -32.111  14.702  -3.440  1.00 20.00    -0.273 OA
HETATM   10  H20 UNL     1     -33.448  12.379  -3.506  1.00 20.00     0.162 HD
ENDROOT
TORSDOF 0
ENDMDL
MODEL 4
REMARK VINA RESULT:      -4.3     11.606     12.362
REMARK  0 active torsions:
REMARK  status: ('A' for Active; 'I' for Inactive)
ROOT
HETATM    1  C1  UNL     1     -34.027   6.302   5.808  1.00 20.00     0.222 C 
HETATM    2  C2  UNL     1     -32.455   6.095   2.663  1.00 20.00     0.001 C 
HETATM    3  C3  UNL     1     -32.617   7.062   3.833  1.00 20.00     0.014 C 
HETATM    4  C4  UNL     1     -33.383   4.940   3.000  1.00 20.00     0.007 C 
HETATM    5  C5  UNL     1     -35.404   4.832   4.570  1.00 20.00     0.128 C 
HETATM    6  C6  UNL     1     -34.023   6.817   4.381  1.00 20.00     0.083 C 
HETATM    7  C7  UNL     1     -34.609   5.650   3.572  1.00 20.00     0.016 C 
HETATM    8  N8  UNL     1     -34.827   5.167   5.842  1.00 20.00    -0.360 N 
HETATM    9  O9  UNL     1     -33.445   6.818   6.750  1.00 20.00    -0.273 OA
HETATM   10  H20 UNL     1     -34.989   4.627   6.686  1.00 20.00     0.162 HD
ENDROOT
TORSDOF 0
ENDMDL
MODEL 5
REMARK VINA RESULT:      -4.3      1.403      1.915
REMARK  0 active torsions:
REMARK  status: ('A' for Active; 'I' for Inactive)
ROOT
HETATM    1  C1  UNL     1     -34.884  13.829  -4.815  1.00 20.00     0.222 C 
HETATM    2  C2  UNL     1     -33.835  16.453  -2.714  1.00 20.00     0.001 C 
HETATM    3  C3  UNL     1     -34.745  15.228  -2.696  1.00 20.00     0.014 C 
HETATM    4  C4  UNL     1     -33.368  16.553  -4.156  1.00 20.00     0.007 C 
HETATM    5  C5  UNL     1     -34.381  15.595  -6.304  1.00 20.00     0.128 C 
HETATM    6  C6  UNL     1     -35.303  15.107  -4.114  1.00 20.00     0.083 C 
HETATM    7  C7  UNL     1     -34.632  16.213  -4.943  1.00 20.00     0.016 C 
HETATM    8  N8  UNL     1     -34.362  14.181  -6.053  1.00 20.00    -0.360 N 
HETATM    9  O9  UNL     1     -35.010  12.700  -4.367  1.00 20.00    -0.273 OA
HETATM   10  H20 UNL     1     -34.001  13.503  -6.717  1.00 20.00     0.162 HD
ENDROOT
TORSDOF 0
ENDMDL
MODEL 6
REMARK VINA RESULT:      -4.3      1.512      2.546
REMARK  0 active torsions:
REMARK  status: ('A' for Active; 'I' for Inactive)
ROOT
HETATM    1  C1  UNL     1     -35.229  13.617  -4.160  1.00 20.00     0.222 C 
HETATM    2  C2  UNL     1     -33.354  16.596  -4.054  1.00 20.00     0.001 C 
HETATM    3  C3  UNL     1     -33.169  15.087  -3.919  1.00 20.00     0.014 C 
HETATM    4  C4  UNL     1     -34.860  16.781  -4.152  1.00 20.00     0.007 C 
HETATM    5  C5  UNL     1     -36.776  15.246  -3.425  1.00 20.00     0.128 C 
HETATM    6  C6  UNL     1     -34.453  14.568  -3.271  1.00 20.00     0.083 C 
HETATM    7  C7  UNL     1     -35.389  15.778  -3.128  1.00 20.00     0.016 C 
HETATM    8  N8  UNL     1     -36.543  14.065  -4.209  1.00 20.00    -0.360 N 
HETATM    9  O9  UNL     1     -34.772  12.626  -4.708  1.00 20.00    -0.273 OA
HETATM   10  H20 UNL     1     -37.268  13.603  -4.748  1.00 20.00     0.162 HD
ENDROOT
TORSDOF 0
ENDMDL
MODEL 7
REMARK VINA RESULT:      -4.2      2.163      2.732
REMARK  0 active torsions:
REMARK  status: ('A' for Active; 'I' for Inactive)
ROOT
HETATM    1  C1  UNL     1     -33.354  16.214  -4.979  1.00 20.00     0.222 C 
HETATM    2  C2  UNL     1     -34.907  16.070  -1.821  1.00 20.00     0.001 C 
HETATM    3  C3  UNL     1     -33.737  16.753  -2.525  1.00 20.00     0.014 C 
HETATM    4  C4  UNL     1     -35.438  15.084  -2.849  1.00 20.00     0.007 C 
HETATM    5  C5  UNL     1     -34.309  14.052  -4.903  1.00 20.00     0.128 C 
HETATM    6  C6  UNL     1     -33.218  15.740  -3.545  1.00 20.00     0.083 C 
HETATM    7  C7  UNL     1     -34.159  14.527  -3.472  1.00 20.00     0.016 C 
HETATM    8  N8  UNL     1     -33.989  15.207  -5.695  1.00 20.00    -0.360 N 
HETATM    9  O9  UNL     1     -32.952  17.281  -5.415  1.00 20.00    -0.273 OA
HETATM   10  H20 UNL     1     -34.206  15.280  -6.684  1.00 20.00     0.162 HD
ENDROOT
TORSDOF 0
ENDMDL
MODEL 8
REMARK VINA RESULT:      -4.1     11.644     12.487
REMARK  0 active torsions:
REMARK  status: ('A' for Active; 'I' for Inactive)
ROOT
HETATM    1  C1  UNL     1     -41.211   4.518  -0.800  1.00 20.00     0.222 C 
HETATM    2  C2  UNL     1     -42.409   7.826  -0.959  1.00 20.00     0.001 C 
HETATM    3  C3  UNL     1     -41.110   7.039  -1.113  1.00 20.00     0.014 C 
HETATM    4  C4  UNL     1     -43.417   6.795  -0.481  1.00 20.00     0.007 C 
HETATM    5  C5  UNL     1     -43.068   4.531   0.664  1.00 20.00     0.128 C 
HETATM    6  C6  UNL     1     -41.211   5.876  -0.126  1.00 20.00     0.083 C 
HETATM    7  C7  UNL     1     -42.605   5.966   0.513  1.00 20.00     0.016 C 
HETATM    8  N8  UNL     1     -42.298   3.806  -0.309  1.00 20.00    -0.360 N 
HETATM    9  O9  UNL     1     -40.384   4.127  -1.609  1.00 20.00    -0.273 OA
HETATM   10  H20 UNL     1     -42.527   2.864  -0.609  1.00 20.00     0.162 HD
ENDROOT
TORSDOF 0
ENDMDL
MODEL 9
REMARK VINA RESULT:      -4.1      1.998      2.658
REMARK  0 active torsions:
REMARK  status: ('A' for Active; 'I' for Inactive)
ROOT
HETATM    1  C1  UNL     1     -33.598  16.119  -3.545  1.00 20.00     0.222 C 
HETATM    2  C2  UNL     1     -36.706  14.516  -3.964  1.00 20.00     0.001 C 
HETATM    3  C3  UNL     1     -36.102  15.751  -3.300  1.00 20.00     0.014 C 
HETATM    4  C4  UNL     1     -35.505  13.746  -4.485  1.00 20.00     0.007 C 
HETATM    5  C5  UNL     1     -33.041  13.834  -3.792  1.00 20.00     0.128 C 
HETATM    6  C6  UNL     1     -34.699  15.337  -2.855  1.00 20.00     0.083 C 
HETATM    7  C7  UNL     1     -34.490  13.898  -3.353  1.00 20.00     0.016 C 
HETATM    8  N8  UNL     1     -32.692  15.202  -4.061  1.00 20.00    -0.360 N 
HETATM    9  O9  UNL     1     -33.524  17.336  -3.606  1.00 20.00    -0.273 OA
HETATM   10  H20 UNL     1     -31.862  15.472  -4.579  1.00 20.00     0.162 HD
ENDROOT
TORSDOF 0
ENDMDL
