MODEL 1
REMARK VINA RESULT:      -5.1      0.000      0.000
REMARK  1 active torsions:
REMARK  status: ('A' for Active; 'I' for Inactive)
REMARK    1  A    between atoms: C3_3  and  C4_4 
ROOT
HETATM    1  C1  UNL     1     -34.832   4.631   4.840  1.00 20.00     0.065 A 
HETATM    2  C2  UNL     1     -35.186   4.784   6.155  1.00 20.00     0.172 A 
HETATM    3  C3  UNL     1     -33.969   5.714   4.600  1.00 20.00     0.169 A 
HETATM    4  N5  UNL     1     -33.801   6.480   5.682  1.00 20.00    -0.124 NA
HETATM    5  O6  UNL     1     -34.577   5.884   6.668  1.00 20.00    -0.225 OA
ENDROOT
BRANCH   3   6
HETATM    6  C4  UNL     1     -33.280   6.057   3.345  1.00 20.00     0.436 C 
HETATM    7  F7  UNL     1     -33.300   7.396   3.035  1.00 20.00    -0.164 F 
HETATM    8  F8  UNL     1     -31.947   5.726   3.321  1.00 20.00    -0.164 F 
HETATM    9  F9  UNL     1     -33.814   5.438   2.244  1.00 20.00    -0.164 F 
ENDBRANCH   3   6
TORSDOF 1
ENDMDL
MODEL 2
REMARK VINA RESULT:      -5.1      0.027      1.252
REMARK  1 active torsions:
REMARK  status: ('A' for Active; 'I' for Inactive)
REMARK    1  A    between atoms: C3_3  and  C4_4 
ROOT
HETATM    1  C1  UNL     1     -34.858   4.664   4.842  1.00 20.00     0.065 A 
HETATM    2  C2  UNL     1     -35.193   4.819   6.162  1.00 20.00     0.172 A 
HETATM    3  C3  UNL     1     -33.972   5.727   4.596  1.00 20.00     0.169 A 
HETATM    4  N5  UNL     1     -33.773   6.483   5.680  1.00 20.00    -0.124 NA
HETATM    5  O6  UNL     1     -34.552   5.902   6.672  1.00 20.00    -0.225 OA
ENDROOT
BRANCH   3   6
HETATM    6  C4  UNL     1     -33.290   6.059   3.335  1.00 20.00     0.436 C 
HETATM    7  F7  UNL     1     -33.822   5.448   2.225  1.00 20.00    -0.164 F 
HETATM    8  F8  UNL     1     -33.299   7.396   3.020  1.00 20.00    -0.164 F 
HETATM    9  F9  UNL     1     -31.964   5.707   3.323  1.00 20.00    -0.164 F 
ENDBRANCH   3   6
TORSDOF 1
ENDMDL
MODEL 3
REMARK VINA RESULT:      -4.9      1.496      1.668
REMARK  1 active torsions:
REMARK  status: ('A' for Active; 'I' for Inactive)
REMARK    1  A    between atoms: C3_3  and  C4_4 
ROOT
HETATM    1  C1  UNL     1     -33.939   5.861   5.651  1.00 20.00     0.065 A 
HETATM    2  C2  UNL     1     -35.088   5.126   5.785  1.00 20.00     0.172 A 
HETATM    3  C3  UNL     1     -33.758   5.946   4.260  1.00 20.00     0.169 A 
HETATM    4  N5  UNL     1     -34.721   5.313   3.583  1.00 20.00    -0.124 NA
HETATM    5  O6  UNL     1     -35.564   4.793   4.557  1.00 20.00    -0.225 OA
ENDROOT
BRANCH   3   6
HETATM    6  C4  UNL     1     -32.674   6.625   3.531  1.00 20.00     0.436 C 
HETATM    7  F7  UNL     1     -33.100   7.597   2.658  1.00 20.00    -0.164 F 
HETATM    8  F8  UNL     1     -31.767   7.269   4.336  1.00 20.00    -0.164 F 
HETATM    9  F9  UNL     1     -31.918   5.775   2.764  1.00 20.00    -0.164 F 
ENDBRANCH   3   6
TORSDOF 1
ENDMDL
MODEL 4
REMARK VINA RESULT:      -4.9      3.007      3.664
REMARK  1 active torsions:
REMARK  status: ('A' for Active; 'I' for Inactive)
REMARK    1  A    between atoms: C3_3  and  C4_4 
ROOT
HETATM    1  C1  UNL     1     -33.046   6.338   4.277  1.00 20.00     0.065 A 
HETATM    2  C2  UNL     1     -33.157   6.191   2.919  1.00 20.00     0.172 A 
HETATM    3  C3  UNL     1     -34.111   5.572   4.783  1.00 20.00     0.169 A 
HETATM    4  N5  UNL     1     -34.827   4.995   3.813  1.00 20.00    -0.124 NA
HETATM    5  O6  UNL     1     -34.216   5.392   2.630  1.00 20.00    -0.225 OA
ENDROOT
BRANCH   3   6
HETATM    6  C4  UNL     1     -34.483   5.365   6.192  1.00 20.00     0.436 C 
HETATM    7  F7  UNL     1     -35.724   4.802   6.374  1.00 20.00    -0.164 F 
HETATM    8  F8  UNL     1     -33.633   4.540   6.887  1.00 20.00    -0.164 F 
HETATM    9  F9  UNL     1     -34.518   6.526   6.922  1.00 20.00    -0.164 F 
ENDBRANCH   3   6
TORSDOF 1
ENDMDL
MODEL 5
REMARK VINA RESULT:      -4.9      2.495      3.282
REMARK  1 active torsions:
REMARK  status: ('A' for Active; 'I' for Inactive)
REMARK    1  A    between atoms: C3_3  and  C4_4 
ROOT
HETATM    1  C1  UNL     1     -33.478   5.742   2.893  1.00 20.00     0.065 A 
HETATM    2  C2  UNL     1     -32.422   6.612   2.971  1.00 20.00     0.172 A 
HETATM    3  C3  UNL     1     -34.000   5.734   4.197  1.00 20.00     0.169 A 
HETATM    4  N5  UNL     1     -33.321   6.537   5.021  1.00 20.00    -0.124 NA
HETATM    5  O6  UNL     1     -32.318   7.093   4.237  1.00 20.00    -0.225 OA
ENDROOT
BRANCH   3   6
HETATM    6  C4  UNL     1     -35.152   4.969   4.703  1.00 20.00     0.436 C 
HETATM    7  F7  UNL     1     -35.031   3.607   4.570  1.00 20.00    -0.164 F 
HETATM    8  F8  UNL     1     -35.415   5.156   6.038  1.00 20.00    -0.164 F 
HETATM    9  F9  UNL     1     -36.330   5.277   4.069  1.00 20.00    -0.164 F 
ENDBRANCH   3   6
TORSDOF 1
ENDMDL
MODEL 6
REMARK VINA RESULT:      -4.4     11.939     12.331
REMARK  1 active torsions:
REMARK  status: ('A' for Active; 'I' for Inactive)
REMARK    1  A    between atoms: C3_3  and  C4_4 
ROOT
HETATM    1  C1  UNL     1     -35.428  14.834  -4.165  1.00 20.00     0.065 A 
HETATM    2  C2  UNL     1     -36.061  13.648  -4.433  1.00 20.00     0.172 A 
HETATM    3  C3  UNL     1     -34.091  14.457  -3.948  1.00 20.00     0.169 A 
HETATM    4  N5  UNL     1     -33.909  13.139  -4.073  1.00 20.00    -0.124 NA
HETATM    5  O6  UNL     1     -35.164  12.629  -4.381  1.00 20.00    -0.225 OA
ENDROOT
BRANCH   3   6
HETATM    6  C4  UNL     1     -32.951  15.327  -3.618  1.00 20.00     0.436 C 
HETATM    7  F7  UNL     1     -32.644  16.252  -4.588  1.00 20.00    -0.164 F 
HETATM    8  F8  UNL     1     -33.121  16.077  -2.480  1.00 20.00    -0.164 F 
HETATM    9  F9  UNL     1     -31.783  14.639  -3.412  1.00 20.00    -0.164 F 
ENDBRANCH   3   6
TORSDOF 1
ENDMDL
MODEL 7
REMARK VINA RESULT:      -4.4     11.937     12.355
REMARK  1 active torsions:
REMARK  status: ('A' for Active; 'I' for Inactive)
REMARK    1  A    between atoms: C3_3  and  C4_4 
ROOT
HETATM    1  C1  UNL     1     -35.427  14.841  -4.143  1.00 20.00     0.065 A 
HETATM    2  C2  UNL     1     -36.068  13.659  -4.411  1.00 20.00     0.172 A 
HETATM    3  C3  UNL     1     -34.090  14.458  -3.943  1.00 20.00     0.169 A 
HETATM    4  N5  UNL     1     -33.914  13.140  -4.077  1.00 20.00    -0.124 NA
HETATM    5  O6  UNL     1     -35.174  12.637  -4.374  1.00 20.00    -0.225 OA
ENDROOT
BRANCH   3   6
HETATM    6  C4  UNL     1     -32.943  15.322  -3.620  1.00 20.00     0.436 C 
HETATM    7  F7  UNL     1     -31.767  14.646  -3.403  1.00 20.00    -0.164 F 
HETATM    8  F8  UNL     1     -32.630  16.237  -4.596  1.00 20.00    -0.164 F 
HETATM    9  F9  UNL     1     -33.128  16.071  -2.486  1.00 20.00    -0.164 F 
ENDBRANCH   3   6
TORSDOF 1
ENDMDL
MODEL 8
REMARK VINA RESULT:      -4.4      2.007      2.512
REMARK  1 active torsions:
REMARK  status: ('A' for Active; 'I' for Inactive)
REMARK    1  A    between atoms: C3_3  and  C4_4 
ROOT
HETATM    1  C1  UNL     1     -34.438   6.004   6.305  1.00 20.00     0.065 A 
HETATM    2  C2  UNL     1     -33.472   6.902   6.675  1.00 20.00     0.172 A 
HETATM    3  C3  UNL     1     -34.256   5.870   4.918  1.00 20.00     0.169 A 
HETATM    4  N5  UNL     1     -33.254   6.627   4.462  1.00 20.00    -0.124 NA
HETATM    5  O6  UNL     1     -32.759   7.281   5.583  1.00 20.00    -0.225 OA
ENDROOT
BRANCH   3   6
HETATM    6  C4  UNL     1     -35.021   5.026   3.985  1.00 20.00     0.436 C 
HETATM    7  F7  UNL     1     -34.432   4.863   2.754  1.00 20.00    -0.164 F 
HETATM    8  F8  UNL     1     -35.238   3.744   4.428  1.00 20.00    -0.164 F 
HETATM    9  F9  UNL     1     -36.273   5.516   3.710  1.00 20.00    -0.164 F 
ENDBRANCH   3   6
TORSDOF 1
ENDMDL
MODEL 9
REMARK VINA RESULT:      -4.1     10.052     10.541
REMARK  1 active torsions:
REMARK  status: ('A' for Active; 'I' for Inactive)
REMARK    1  A    between atoms: C3_3  and  C4_4 
ROOT
HETATM    1  C1  UNL     1     -41.856   6.996  -2.302  1.00 20.00     0.065 A 
HETATM    2  C2  UNL     1     -42.742   7.037  -3.347  1.00 20.00     0.172 A 
HETATM    3  C3  UNL     1     -41.790   5.631  -1.974  1.00 20.00     0.169 A 
HETATM    4  N5  UNL     1     -42.575   4.883  -2.754  1.00 20.00    -0.124 NA
HETATM    5  O6  UNL     1     -43.179   5.781  -3.625  1.00 20.00    -0.225 OA
ENDROOT
BRANCH   3   6
HETATM    6  C4  UNL     1     -40.988   4.996  -0.916  1.00 20.00     0.436 C 
HETATM    7  F7  UNL     1     -41.728   4.394   0.073  1.00 20.00    -0.164 F 
HETATM    8  F8  UNL     1     -40.148   4.003  -1.360  1.00 20.00    -0.164 F 
HETATM    9  F9  UNL     1     -40.169   5.874  -0.252  1.00 20.00    -0.164 F 
ENDBRANCH   3   6
TORSDOF 1
ENDMDL
