MODEL 1
REMARK VINA RESULT:      -4.4      0.000      0.000
REMARK  0 active torsions:
REMARK  status: ('A' for Active; 'I' for Inactive)
ROOT
HETATM    1  C1  UNL     1     -32.945   6.771   3.405  1.00 20.00     0.124 C 
HETATM    2  C2  UNL     1     -33.815   6.184   5.595  1.00 20.00     0.024 C 
HETATM    3  C3  UNL     1     -33.781   6.034   4.274  1.00 20.00     0.145 C 
HETATM    4  C4  UNL     1     -34.844   5.278   6.147  1.00 20.00     0.057 C 
HETATM    5  C5  UNL     1     -35.180   4.432   4.923  1.00 20.00     0.180 C 
HETATM    6  N6  UNL     1     -32.258   7.376   2.691  1.00 20.00    -0.189 NA
HETATM    7  O7  UNL     1     -34.668   5.100   3.753  1.00 20.00    -0.341 OA
ENDROOT
TORSDOF 0
ENDMDL
MODEL 2
REMARK VINA RESULT:      -4.4      1.105      1.502
REMARK  0 active torsions:
REMARK  status: ('A' for Active; 'I' for Inactive)
ROOT
HETATM    1  C1  UNL     1     -32.882   6.879   3.349  1.00 20.00     0.124 C 
HETATM    2  C2  UNL     1     -34.587   5.271   3.983  1.00 20.00     0.024 C 
HETATM    3  C3  UNL     1     -33.670   6.182   4.293  1.00 20.00     0.145 C 
HETATM    4  C4  UNL     1     -35.160   4.732   5.235  1.00 20.00     0.057 C 
HETATM    5  C5  UNL     1     -34.572   5.691   6.265  1.00 20.00     0.180 C 
HETATM    6  N6  UNL     1     -32.236   7.453   2.574  1.00 20.00    -0.189 NA
HETATM    7  O7  UNL     1     -33.483   6.408   5.651  1.00 20.00    -0.341 OA
ENDROOT
TORSDOF 0
ENDMDL
MODEL 3
REMARK VINA RESULT:      -3.7      2.148      2.524
REMARK  0 active torsions:
REMARK  status: ('A' for Active; 'I' for Inactive)
ROOT
HETATM    1  C1  UNL     1     -33.650   6.974   6.521  1.00 20.00     0.124 C 
HETATM    2  C2  UNL     1     -34.737   4.883   5.935  1.00 20.00     0.024 C 
HETATM    3  C3  UNL     1     -34.221   6.063   5.604  1.00 20.00     0.145 C 
HETATM    4  C4  UNL     1     -35.280   4.246   4.717  1.00 20.00     0.057 C 
HETATM    5  C5  UNL     1     -34.742   5.174   3.634  1.00 20.00     0.180 C 
HETATM    6  N6  UNL     1     -33.179   7.722   7.273  1.00 20.00    -0.189 NA
HETATM    7  O7  UNL     1     -34.302   6.396   4.258  1.00 20.00    -0.341 OA
ENDROOT
TORSDOF 0
ENDMDL
MODEL 4
REMARK VINA RESULT:      -3.6     11.805     12.194
REMARK  0 active torsions:
REMARK  status: ('A' for Active; 'I' for Inactive)
ROOT
HETATM    1  C1  UNL     1     -34.677  13.639  -4.186  1.00 20.00     0.124 C 
HETATM    2  C2  UNL     1     -33.395  15.441  -3.184  1.00 20.00     0.024 C 
HETATM    3  C3  UNL     1     -34.542  14.803  -3.397  1.00 20.00     0.145 C 
HETATM    4  C4  UNL     1     -33.664  16.635  -2.355  1.00 20.00     0.057 C 
HETATM    5  C5  UNL     1     -35.114  16.391  -1.949  1.00 20.00     0.180 C 
HETATM    6  N6  UNL     1     -34.789  12.682  -4.834  1.00 20.00    -0.189 NA
HETATM    7  O7  UNL     1     -35.664  15.376  -2.811  1.00 20.00    -0.341 OA
ENDROOT
TORSDOF 0
ENDMDL
MODEL 5
REMARK VINA RESULT:      -3.5     11.695     12.226
REMARK  0 active torsions:
REMARK  status: ('A' for Active; 'I' for Inactive)
ROOT
HETATM    1  C1  UNL     1     -36.770  14.411  -3.816  1.00 20.00     0.124 C 
HETATM    2  C2  UNL     1     -34.652  15.588  -3.661  1.00 20.00     0.024 C 
HETATM    3  C3  UNL     1     -35.361  14.466  -3.732  1.00 20.00     0.145 C 
HETATM    4  C4  UNL     1     -33.222  15.237  -3.536  1.00 20.00     0.057 C 
HETATM    5  C5  UNL     1     -33.261  13.737  -3.806  1.00 20.00     0.180 C 
HETATM    6  N6  UNL     1     -37.928  14.366  -3.885  1.00 20.00    -0.189 NA
HETATM    7  O7  UNL     1     -34.625  13.288  -3.685  1.00 20.00    -0.341 OA
ENDROOT
TORSDOF 0
ENDMDL
MODEL 6
REMARK VINA RESULT:      -3.5      9.951     10.353
REMARK  0 active torsions:
REMARK  status: ('A' for Active; 'I' for Inactive)
ROOT
HETATM    1  C1  UNL     1     -42.705   6.784  -3.255  1.00 20.00     0.124 C 
HETATM    2  C2  UNL     1     -41.344   6.943  -1.250  1.00 20.00     0.024 C 
HETATM    3  C3  UNL     1     -41.936   6.232  -2.205  1.00 20.00     0.145 C 
HETATM    4  C4  UNL     1     -40.681   6.013  -0.312  1.00 20.00     0.057 C 
HETATM    5  C5  UNL     1     -40.806   4.694  -1.065  1.00 20.00     0.180 C 
HETATM    6  N6  UNL     1     -43.335   7.236  -4.118  1.00 20.00    -0.189 NA
HETATM    7  O7  UNL     1     -41.791   4.854  -2.105  1.00 20.00    -0.341 OA
ENDROOT
TORSDOF 0
ENDMDL
MODEL 7
REMARK VINA RESULT:      -3.4     11.929     12.491
REMARK  0 active torsions:
REMARK  status: ('A' for Active; 'I' for Inactive)
ROOT
HETATM    1  C1  UNL     1     -36.873  14.482  -3.842  1.00 20.00     0.124 C 
HETATM    2  C2  UNL     1     -34.609  13.607  -3.797  1.00 20.00     0.024 C 
HETATM    3  C3  UNL     1     -35.468  14.622  -3.800  1.00 20.00     0.145 C 
HETATM    4  C4  UNL     1     -33.234  14.151  -3.800  1.00 20.00     0.057 C 
HETATM    5  C5  UNL     1     -33.502  15.631  -3.550  1.00 20.00     0.180 C 
HETATM    6  N6  UNL     1     -38.028  14.368  -3.875  1.00 20.00    -0.189 NA
HETATM    7  O7  UNL     1     -34.898  15.889  -3.795  1.00 20.00    -0.341 OA
ENDROOT
TORSDOF 0
ENDMDL
MODEL 8
REMARK VINA RESULT:      -3.4      2.083      2.605
REMARK  0 active torsions:
REMARK  status: ('A' for Active; 'I' for Inactive)
ROOT
HETATM    1  C1  UNL     1     -33.632   6.989   6.452  1.00 20.00     0.124 C 
HETATM    2  C2  UNL     1     -34.034   6.375   4.137  1.00 20.00     0.024 C 
HETATM    3  C3  UNL     1     -34.140   6.141   5.442  1.00 20.00     0.145 C 
HETATM    4  C4  UNL     1     -34.639   5.243   3.404  1.00 20.00     0.057 C 
HETATM    5  C5  UNL     1     -35.313   4.481   4.540  1.00 20.00     0.180 C 
HETATM    6  N6  UNL     1     -33.216   7.686   7.282  1.00 20.00    -0.189 NA
HETATM    7  O7  UNL     1     -34.771   4.953   5.789  1.00 20.00    -0.341 OA
ENDROOT
TORSDOF 0
ENDMDL
MODEL 9
REMARK VINA RESULT:      -3.3     11.824     12.677
REMARK  0 active torsions:
REMARK  status: ('A' for Active; 'I' for Inactive)
ROOT
HETATM    1  C1  UNL     1     -35.515  13.516  -4.316  1.00 20.00     0.124 C 
HETATM    2  C2  UNL     1     -36.326  15.802  -4.214  1.00 20.00     0.024 C 
HETATM    3  C3  UNL     1     -36.515  14.491  -4.103  1.00 20.00     0.145 C 
HETATM    4  C4  UNL     1     -37.612  16.488  -3.966  1.00 20.00     0.057 C 
HETATM    5  C5  UNL     1     -38.467  15.334  -3.453  1.00 20.00     0.180 C 
HETATM    6  N6  UNL     1     -34.693  12.714  -4.491  1.00 20.00    -0.189 NA
HETATM    7  O7  UNL     1     -37.809  14.096  -3.785  1.00 20.00    -0.341 OA
ENDROOT
TORSDOF 0
ENDMDL
