MODEL 1
REMARK VINA RESULT:      -4.7      0.000      0.000
REMARK  2 active torsions:
REMARK  status: ('A' for Active; 'I' for Inactive)
REMARK    1  A    between atoms: C3_3  and  C7_7 
REMARK    2  A    between atoms: C3_3  and  O11_11 
ROOT
HETATM    1  C1  UNL     1     -34.167  16.681  -2.100  1.00 20.00    -0.070 C 
HETATM    2  C2  UNL     1     -34.553  16.566  -0.824  1.00 20.00    -0.027 C 
HETATM    3  C4  UNL     1     -34.100  17.986  -2.844  1.00 20.00     0.034 C 
HETATM    4  C5  UNL     1     -33.965  17.553  -4.298  1.00 20.00     0.005 C 
HETATM    5  C6  UNL     1     -33.186  16.242  -4.227  1.00 20.00     0.019 C 
HETATM    6  C7  UNL     1     -33.725  15.545  -2.980  1.00 20.00     0.114 C 
HETATM    7  C8  UNL     1     -34.953  17.719   0.033  1.00 20.00     0.036 C 
ENDROOT
BRANCH   6   8
HETATM    8  C3  UNL     1     -34.911  14.686  -3.303  1.00 20.00     0.266 C 
HETATM    9  O10 UNL     1     -36.068  15.082  -3.288  1.00 20.00    -0.265 OA
BRANCH   8  10
HETATM   10  O11 UNL     1     -34.491  13.425  -3.606  1.00 20.00    -0.326 OA
HETATM   11  C9  UNL     1     -34.686  13.021  -4.966  1.00 20.00     0.213 C 
ENDBRANCH   8  10
ENDBRANCH   6   8
TORSDOF 2
ENDMDL
MODEL 2
REMARK VINA RESULT:      -4.6      1.729      2.384
REMARK  2 active torsions:
REMARK  status: ('A' for Active; 'I' for Inactive)
REMARK    1  A    between atoms: C3_3  and  C7_7 
REMARK    2  A    between atoms: C3_3  and  O11_11 
ROOT
HETATM    1  C1  UNL     1     -34.523  15.710  -2.745  1.00 20.00    -0.070 C 
HETATM    2  C2  UNL     1     -34.766  16.244  -1.542  1.00 20.00    -0.027 C 
HETATM    3  C4  UNL     1     -33.361  16.097  -3.616  1.00 20.00     0.034 C 
HETATM    4  C5  UNL     1     -33.723  15.497  -4.969  1.00 20.00     0.005 C 
HETATM    5  C6  UNL     1     -34.516  14.240  -4.620  1.00 20.00     0.019 C 
HETATM    6  C7  UNL     1     -35.347  14.638  -3.402  1.00 20.00     0.114 C 
HETATM    7  C8  UNL     1     -33.910  17.283  -0.901  1.00 20.00     0.036 C 
ENDROOT
BRANCH   6   8
HETATM    8  C3  UNL     1     -36.669  15.216  -3.807  1.00 20.00     0.266 C 
HETATM    9  O10 UNL     1     -36.829  16.375  -4.166  1.00 20.00    -0.265 OA
BRANCH   8  10
HETATM   10  O11 UNL     1     -37.634  14.259  -3.709  1.00 20.00    -0.326 OA
HETATM   11  C9  UNL     1     -38.963  14.688  -4.029  1.00 20.00     0.213 C 
ENDBRANCH   8  10
ENDBRANCH   6   8
TORSDOF 2
ENDMDL
MODEL 3
REMARK VINA RESULT:      -4.6      1.304      2.942
REMARK  2 active torsions:
REMARK  status: ('A' for Active; 'I' for Inactive)
REMARK    1  A    between atoms: C3_3  and  C7_7 
REMARK    2  A    between atoms: C3_3  and  O11_11 
ROOT
HETATM    1  C1  UNL     1     -34.092  16.906  -3.953  1.00 20.00    -0.070 C 
HETATM    2  C2  UNL     1     -33.983  17.127  -5.269  1.00 20.00    -0.027 C 
HETATM    3  C4  UNL     1     -33.818  17.943  -2.901  1.00 20.00     0.034 C 
HETATM    4  C5  UNL     1     -33.733  17.126  -1.618  1.00 20.00     0.005 C 
HETATM    5  C6  UNL     1     -34.698  15.966  -1.849  1.00 20.00     0.019 C 
HETATM    6  C7  UNL     1     -34.521  15.610  -3.323  1.00 20.00     0.114 C 
HETATM    7  C8  UNL     1     -33.588  18.436  -5.864  1.00 20.00     0.036 C 
ENDROOT
BRANCH   6   8
HETATM    8  C3  UNL     1     -33.438  14.591  -3.514  1.00 20.00     0.266 C 
HETATM    9  O10 UNL     1     -32.246  14.858  -3.554  1.00 20.00    -0.265 OA
BRANCH   8  10
HETATM   10  O11 UNL     1     -33.995  13.352  -3.633  1.00 20.00    -0.326 OA
HETATM   11  C9  UNL     1     -35.211  13.293  -4.388  1.00 20.00     0.213 C 
ENDBRANCH   8  10
ENDBRANCH   6   8
TORSDOF 2
ENDMDL
MODEL 4
REMARK VINA RESULT:      -4.6      1.632      4.064
REMARK  2 active torsions:
REMARK  status: ('A' for Active; 'I' for Inactive)
REMARK    1  A    between atoms: C3_3  and  C7_7 
REMARK    2  A    between atoms: C3_3  and  O11_11 
ROOT
HETATM    1  C1  UNL     1     -34.053  15.581  -5.159  1.00 20.00    -0.070 C 
HETATM    2  C2  UNL     1     -34.036  16.820  -5.662  1.00 20.00    -0.027 C 
HETATM    3  C4  UNL     1     -34.536  14.374  -5.913  1.00 20.00     0.034 C 
HETATM    4  C5  UNL     1     -34.688  13.319  -4.824  1.00 20.00     0.005 C 
HETATM    5  C6  UNL     1     -33.601  13.668  -3.811  1.00 20.00     0.019 C 
HETATM    6  C7  UNL     1     -33.580  15.195  -3.785  1.00 20.00     0.114 C 
HETATM    7  C8  UNL     1     -34.481  17.166  -7.043  1.00 20.00     0.036 C 
ENDROOT
BRANCH   6   8
HETATM    8  C3  UNL     1     -34.537  15.738  -2.767  1.00 20.00     0.266 C 
HETATM    9  O10 UNL     1     -35.746  15.558  -2.799  1.00 20.00    -0.265 OA
BRANCH   8  10
HETATM   10  O11 UNL     1     -33.849  16.447  -1.828  1.00 20.00    -0.326 OA
HETATM   11  C9  UNL     1     -34.588  16.785  -0.648  1.00 20.00     0.213 C 
ENDBRANCH   8  10
ENDBRANCH   6   8
TORSDOF 2
ENDMDL
MODEL 5
REMARK VINA RESULT:      -4.5      2.714      3.862
REMARK  2 active torsions:
REMARK  status: ('A' for Active; 'I' for Inactive)
REMARK    1  A    between atoms: C3_3  and  C7_7 
REMARK    2  A    between atoms: C3_3  and  O11_11 
ROOT
HETATM    1  C1  UNL     1     -36.213  14.925  -5.145  1.00 20.00    -0.070 C 
HETATM    2  C2  UNL     1     -36.966  14.983  -4.039  1.00 20.00    -0.027 C 
HETATM    3  C4  UNL     1     -36.769  14.913  -6.541  1.00 20.00     0.034 C 
HETATM    4  C5  UNL     1     -35.578  14.488  -7.389  1.00 20.00     0.005 C 
HETATM    5  C6  UNL     1     -34.370  15.057  -6.649  1.00 20.00     0.019 C 
HETATM    6  C7  UNL     1     -34.710  14.883  -5.171  1.00 20.00     0.114 C 
HETATM    7  C8  UNL     1     -38.455  15.058  -4.047  1.00 20.00     0.036 C 
ENDROOT
BRANCH   6   8
HETATM    8  C3  UNL     1     -34.248  13.553  -4.656  1.00 20.00     0.266 C 
HETATM    9  O10 UNL     1     -34.793  12.490  -4.918  1.00 20.00    -0.265 OA
BRANCH   8  10
HETATM   10  O11 UNL     1     -33.150  13.726  -3.868  1.00 20.00    -0.326 OA
HETATM   11  C9  UNL     1     -32.851  15.083  -3.518  1.00 20.00     0.213 C 
ENDBRANCH   8  10
ENDBRANCH   6   8
TORSDOF 2
ENDMDL
MODEL 6
REMARK VINA RESULT:      -4.4      1.948      3.748
REMARK  2 active torsions:
REMARK  status: ('A' for Active; 'I' for Inactive)
REMARK    1  A    between atoms: C3_3  and  C7_7 
REMARK    2  A    between atoms: C3_3  and  O11_11 
ROOT
HETATM    1  C1  UNL     1     -34.782  15.894  -5.081  1.00 20.00    -0.070 C 
HETATM    2  C2  UNL     1     -35.358  16.185  -6.254  1.00 20.00    -0.027 C 
HETATM    3  C4  UNL     1     -33.308  16.020  -4.814  1.00 20.00     0.034 C 
HETATM    4  C5  UNL     1     -33.122  15.255  -3.511  1.00 20.00     0.005 C 
HETATM    5  C6  UNL     1     -34.436  15.464  -2.763  1.00 20.00     0.019 C 
HETATM    6  C7  UNL     1     -35.506  15.420  -3.852  1.00 20.00     0.114 C 
HETATM    7  C8  UNL     1     -34.615  16.686  -7.446  1.00 20.00     0.036 C 
ENDROOT
BRANCH   6   8
HETATM    8  C3  UNL     1     -35.996  14.022  -4.081  1.00 20.00     0.266 C 
HETATM    9  O10 UNL     1     -35.284  13.097  -4.448  1.00 20.00    -0.265 OA
BRANCH   8  10
HETATM   10  O11 UNL     1     -37.333  13.959  -3.819  1.00 20.00    -0.326 OA
HETATM   11  C9  UNL     1     -37.992  15.222  -3.679  1.00 20.00     0.213 C 
ENDBRANCH   8  10
ENDBRANCH   6   8
TORSDOF 2
ENDMDL
MODEL 7
REMARK VINA RESULT:      -4.3     11.719     12.803
REMARK  2 active torsions:
REMARK  status: ('A' for Active; 'I' for Inactive)
REMARK    1  A    between atoms: C3_3  and  C7_7 
REMARK    2  A    between atoms: C3_3  and  O11_11 
ROOT
HETATM    1  C1  UNL     1     -34.226   6.208   5.535  1.00 20.00    -0.070 C 
HETATM    2  C2  UNL     1     -33.610   7.309   5.981  1.00 20.00    -0.027 C 
HETATM    3  C4  UNL     1     -34.537   5.013   6.393  1.00 20.00     0.034 C 
HETATM    4  C5  UNL     1     -34.894   3.936   5.377  1.00 20.00     0.005 C 
HETATM    5  C6  UNL     1     -35.532   4.706   4.224  1.00 20.00     0.019 C 
HETATM    6  C7  UNL     1     -34.720   5.997   4.131  1.00 20.00     0.114 C 
HETATM    7  C8  UNL     1     -33.162   7.502   7.390  1.00 20.00     0.036 C 
ENDROOT
BRANCH   6   8
HETATM    8  C3  UNL     1     -33.542   5.837   3.217  1.00 20.00     0.266 C 
HETATM    9  O10 UNL     1     -33.495   5.036   2.294  1.00 20.00    -0.265 OA
BRANCH   8  10
HETATM   10  O11 UNL     1     -32.562   6.712   3.581  1.00 20.00    -0.326 OA
HETATM   11  C9  UNL     1     -32.152   7.635   2.565  1.00 20.00     0.213 C 
ENDBRANCH   8  10
ENDBRANCH   6   8
TORSDOF 2
ENDMDL
MODEL 8
REMARK VINA RESULT:      -4.3      2.447      4.714
REMARK  2 active torsions:
REMARK  status: ('A' for Active; 'I' for Inactive)
REMARK    1  A    between atoms: C3_3  and  C7_7 
REMARK    2  A    between atoms: C3_3  and  O11_11 
ROOT
HETATM    1  C1  UNL     1     -34.220  15.053  -5.738  1.00 20.00    -0.070 C 
HETATM    2  C2  UNL     1     -34.615  15.358  -6.980  1.00 20.00    -0.027 C 
HETATM    3  C4  UNL     1     -34.586  13.780  -5.028  1.00 20.00     0.034 C 
HETATM    4  C5  UNL     1     -34.212  14.068  -3.580  1.00 20.00     0.005 C 
HETATM    5  C6  UNL     1     -33.016  15.011  -3.682  1.00 20.00     0.019 C 
HETATM    6  C7  UNL     1     -33.341  15.912  -4.871  1.00 20.00     0.114 C 
HETATM    7  C8  UNL     1     -35.460  14.469  -7.828  1.00 20.00     0.036 C 
ENDROOT
BRANCH   6   8
HETATM    8  C3  UNL     1     -34.110  17.126  -4.444  1.00 20.00     0.266 C 
HETATM    9  O10 UNL     1     -35.221  17.088  -3.932  1.00 20.00    -0.265 OA
BRANCH   8  10
HETATM   10  O11 UNL     1     -33.383  18.246  -4.717  1.00 20.00    -0.326 OA
HETATM   11  C9  UNL     1     -33.734  18.928  -5.926  1.00 20.00     0.213 C 
ENDBRANCH   8  10
ENDBRANCH   6   8
TORSDOF 2
ENDMDL
MODEL 9
REMARK VINA RESULT:      -4.2      1.906      3.085
REMARK  2 active torsions:
REMARK  status: ('A' for Active; 'I' for Inactive)
REMARK    1  A    between atoms: C3_3  and  C7_7 
REMARK    2  A    between atoms: C3_3  and  O11_11 
ROOT
HETATM    1  C1  UNL     1     -34.951  15.299  -2.933  1.00 20.00    -0.070 C 
HETATM    2  C2  UNL     1     -35.112  16.310  -2.072  1.00 20.00    -0.027 C 
HETATM    3  C4  UNL     1     -33.623  14.673  -3.256  1.00 20.00     0.034 C 
HETATM    4  C5  UNL     1     -33.918  13.853  -4.505  1.00 20.00     0.005 C 
HETATM    5  C6  UNL     1     -35.370  13.416  -4.332  1.00 20.00     0.019 C 
HETATM    6  C7  UNL     1     -36.058  14.620  -3.692  1.00 20.00     0.114 C 
HETATM    7  C8  UNL     1     -33.997  16.940  -1.308  1.00 20.00     0.036 C 
ENDROOT
BRANCH   6   8
HETATM    8  C3  UNL     1     -36.589  15.563  -4.730  1.00 20.00     0.266 C 
HETATM    9  O10 UNL     1     -35.966  15.909  -5.724  1.00 20.00    -0.265 OA
BRANCH   8  10
HETATM   10  O11 UNL     1     -37.848  15.957  -4.386  1.00 20.00    -0.326 OA
HETATM   11  C9  UNL     1     -38.647  14.963  -3.735  1.00 20.00     0.213 C 
ENDBRANCH   8  10
ENDBRANCH   6   8
TORSDOF 2
ENDMDL
