MODEL 1
REMARK VINA RESULT:      -4.7      0.000      0.000
REMARK  1 active torsions:
REMARK  status: ('A' for Active; 'I' for Inactive)
REMARK    1  A    between atoms: C4_4  and  C7_7 
ROOT
HETATM    1  C1  UNL     1     -33.220  13.810  -3.800  1.00 20.00     0.035 A 
HETATM    2  C2  UNL     1     -32.771  15.049  -3.577  1.00 20.00    -0.008 A 
HETATM    3  C3  UNL     1     -34.686  13.754  -3.855  1.00 20.00     0.085 A 
HETATM    4  C4  UNL     1     -33.770  16.152  -3.424  1.00 20.00     0.080 A 
HETATM    5  N8  UNL     1     -35.401  12.704  -4.054  1.00 20.00    -0.293 NA
HETATM    6  S9  UNL     1     -35.394  15.335  -3.616  1.00 20.00    -0.102 SA
HETATM    7  H20 UNL     1     -34.788  11.889  -4.171  1.00 20.00     0.187 HD
ENDROOT
BRANCH   4   8
HETATM    8  C7  UNL     1     -33.676  16.835  -2.066  1.00 20.00    -0.005 C 
HETATM    9  C5  UNL     1     -33.681  18.355  -2.222  1.00 20.00     0.011 C 
HETATM   10  C6  UNL     1     -34.820  16.388  -1.155  1.00 20.00     0.011 C 
ENDBRANCH   4   8
TORSDOF 1
ENDMDL
MODEL 2
REMARK VINA RESULT:      -4.5     11.505     12.365
REMARK  1 active torsions:
REMARK  status: ('A' for Active; 'I' for Inactive)
REMARK    1  A    between atoms: C4_4  and  C7_7 
ROOT
HETATM    1  C1  UNL     1     -35.339   4.886   4.108  1.00 20.00     0.035 A 
HETATM    2  C2  UNL     1     -34.739   5.843   3.392  1.00 20.00    -0.008 A 
HETATM    3  C3  UNL     1     -34.981   4.952   5.530  1.00 20.00     0.085 A 
HETATM    4  C4  UNL     1     -33.835   6.802   4.101  1.00 20.00     0.080 A 
HETATM    5  N8  UNL     1     -35.398   4.166   6.458  1.00 20.00    -0.293 NA
HETATM    6  S9  UNL     1     -33.879   6.273   5.849  1.00 20.00    -0.102 SA
HETATM    7  H20 UNL     1     -36.033   3.467   6.055  1.00 20.00     0.187 HD
ENDROOT
BRANCH   4   8
HETATM    8  C7  UNL     1     -32.410   6.755   3.567  1.00 20.00    -0.005 C 
HETATM    9  C5  UNL     1     -32.113   5.399   2.929  1.00 20.00     0.011 C 
HETATM   10  C6  UNL     1     -32.170   7.882   2.562  1.00 20.00     0.011 C 
ENDBRANCH   4   8
TORSDOF 1
ENDMDL
MODEL 3
REMARK VINA RESULT:      -4.4      0.589      1.320
REMARK  1 active torsions:
REMARK  status: ('A' for Active; 'I' for Inactive)
REMARK    1  A    between atoms: C4_4  and  C7_7 
ROOT
HETATM    1  C1  UNL     1     -33.424  14.145  -3.716  1.00 20.00     0.035 A 
HETATM    2  C2  UNL     1     -33.226  15.462  -3.607  1.00 20.00    -0.008 A 
HETATM    3  C3  UNL     1     -34.825  13.818  -4.008  1.00 20.00     0.085 A 
HETATM    4  C4  UNL     1     -34.396  16.377  -3.792  1.00 20.00     0.080 A 
HETATM    5  N8  UNL     1     -35.316  12.641  -4.165  1.00 20.00    -0.293 NA
HETATM    6  S9  UNL     1     -35.804  15.263  -4.130  1.00 20.00    -0.102 SA
HETATM    7  H20 UNL     1     -34.573  11.942  -4.055  1.00 20.00     0.187 HD
ENDROOT
BRANCH   4   8
HETATM    8  C7  UNL     1     -34.672  17.221  -2.554  1.00 20.00    -0.005 C 
HETATM    9  C5  UNL     1     -34.618  16.363  -1.290  1.00 20.00     0.011 C 
HETATM   10  C6  UNL     1     -33.678  18.379  -2.456  1.00 20.00     0.011 C 
ENDBRANCH   4   8
TORSDOF 1
ENDMDL
MODEL 4
REMARK VINA RESULT:      -4.2      1.947      2.255
REMARK  1 active torsions:
REMARK  status: ('A' for Active; 'I' for Inactive)
REMARK    1  A    between atoms: C4_4  and  C7_7 
ROOT
HETATM    1  C1  UNL     1     -34.524  13.678  -4.923  1.00 20.00     0.035 A 
HETATM    2  C2  UNL     1     -34.450  13.884  -3.604  1.00 20.00    -0.008 A 
HETATM    3  C3  UNL     1     -34.138  14.867  -5.692  1.00 20.00     0.085 A 
HETATM    4  C4  UNL     1     -34.003  15.227  -3.117  1.00 20.00     0.080 A 
HETATM    5  N8  UNL     1     -34.112  14.970  -6.973  1.00 20.00    -0.293 NA
HETATM    6  S9  UNL     1     -33.693  16.190  -4.639  1.00 20.00    -0.102 SA
HETATM    7  H20 UNL     1     -34.408  14.082  -7.395  1.00 20.00     0.187 HD
ENDROOT
BRANCH   4   8
HETATM    8  C7  UNL     1     -35.060  15.913  -2.261  1.00 20.00    -0.005 C 
HETATM    9  C5  UNL     1     -34.413  16.651  -1.090  1.00 20.00     0.011 C 
HETATM   10  C6  UNL     1     -35.897  16.876  -3.103  1.00 20.00     0.011 C 
ENDBRANCH   4   8
TORSDOF 1
ENDMDL
MODEL 5
REMARK VINA RESULT:      -4.2      1.659      1.802
REMARK  1 active torsions:
REMARK  status: ('A' for Active; 'I' for Inactive)
REMARK    1  A    between atoms: C4_4  and  C7_7 
ROOT
HETATM    1  C1  UNL     1     -33.365  13.890  -3.496  1.00 20.00     0.035 A 
HETATM    2  C2  UNL     1     -32.768  15.057  -3.756  1.00 20.00    -0.008 A 
HETATM    3  C3  UNL     1     -34.545  13.670  -4.341  1.00 20.00     0.085 A 
HETATM    4  C4  UNL     1     -33.351  15.934  -4.819  1.00 20.00     0.080 A 
HETATM    5  N8  UNL     1     -35.317  12.643  -4.318  1.00 20.00    -0.293 NA
HETATM    6  S9  UNL     1     -34.802  15.010  -5.436  1.00 20.00    -0.102 SA
HETATM    7  H20 UNL     1     -34.987  11.981  -3.608  1.00 20.00     0.187 HD
ENDROOT
BRANCH   4   8
HETATM    8  C7  UNL     1     -33.777  17.293  -4.279  1.00 20.00    -0.005 C 
HETATM    9  C5  UNL     1     -33.584  18.381  -5.335  1.00 20.00     0.011 C 
HETATM   10  C6  UNL     1     -35.232  17.257  -3.811  1.00 20.00     0.011 C 
ENDBRANCH   4   8
TORSDOF 1
ENDMDL
MODEL 6
REMARK VINA RESULT:      -3.9      2.774      4.158
REMARK  1 active torsions:
REMARK  status: ('A' for Active; 'I' for Inactive)
REMARK    1  A    between atoms: C4_4  and  C7_7 
ROOT
HETATM    1  C1  UNL     1     -34.141  13.623  -3.704  1.00 20.00     0.035 A 
HETATM    2  C2  UNL     1     -35.336  13.812  -4.273  1.00 20.00    -0.008 A 
HETATM    3  C3  UNL     1     -33.195  14.697  -4.033  1.00 20.00     0.085 A 
HETATM    4  C4  UNL     1     -35.538  15.029  -5.120  1.00 20.00     0.080 A 
HETATM    5  N8  UNL     1     -31.977  14.787  -3.634  1.00 20.00    -0.293 NA
HETATM    6  S9  UNL     1     -33.932  15.900  -5.068  1.00 20.00    -0.102 SA
HETATM    7  H20 UNL     1     -31.750  13.982  -3.039  1.00 20.00     0.187 HD
ENDROOT
BRANCH   4   8
HETATM    8  C7  UNL     1     -35.906  14.680  -6.556  1.00 20.00    -0.005 C 
HETATM    9  C5  UNL     1     -37.088  15.524  -7.033  1.00 20.00     0.011 C 
HETATM   10  C6  UNL     1     -34.706  14.870  -7.484  1.00 20.00     0.011 C 
ENDBRANCH   4   8
TORSDOF 1
ENDMDL
MODEL 7
REMARK VINA RESULT:      -3.8      2.619      4.066
REMARK  1 active torsions:
REMARK  status: ('A' for Active; 'I' for Inactive)
REMARK    1  A    between atoms: C4_4  and  C7_7 
ROOT
HETATM    1  C1  UNL     1     -34.123  13.875  -3.438  1.00 20.00     0.035 A 
HETATM    2  C2  UNL     1     -34.530  13.419  -4.627  1.00 20.00    -0.008 A 
HETATM    3  C3  UNL     1     -34.641  15.218  -3.153  1.00 20.00     0.085 A 
HETATM    4  C4  UNL     1     -35.415  14.292  -5.460  1.00 20.00     0.080 A 
HETATM    5  N8  UNL     1     -34.419  15.910  -2.093  1.00 20.00    -0.293 NA
HETATM    6  S9  UNL     1     -35.641  15.806  -4.462  1.00 20.00    -0.102 SA
HETATM    7  H20 UNL     1     -33.813  15.380  -1.457  1.00 20.00     0.187 HD
ENDROOT
BRANCH   4   8
HETATM    8  C7  UNL     1     -34.790  14.632  -6.807  1.00 20.00    -0.005 C 
HETATM    9  C5  UNL     1     -35.838  14.587  -7.918  1.00 20.00     0.011 C 
HETATM   10  C6  UNL     1     -34.119  16.005  -6.761  1.00 20.00     0.011 C 
ENDBRANCH   4   8
TORSDOF 1
ENDMDL
MODEL 8
REMARK VINA RESULT:      -3.7      2.259      2.938
REMARK  1 active torsions:
REMARK  status: ('A' for Active; 'I' for Inactive)
REMARK    1  A    between atoms: C4_4  and  C7_7 
ROOT
HETATM    1  C1  UNL     1     -35.289  13.379  -4.291  1.00 20.00     0.035 A 
HETATM    2  C2  UNL     1     -36.273  14.265  -4.109  1.00 20.00    -0.008 A 
HETATM    3  C3  UNL     1     -34.006  13.862  -3.766  1.00 20.00     0.085 A 
HETATM    4  C4  UNL     1     -35.952  15.559  -3.429  1.00 20.00     0.080 A 
HETATM    5  N8  UNL     1     -32.885  13.233  -3.797  1.00 20.00    -0.293 NA
HETATM    6  S9  UNL     1     -34.165  15.453  -3.057  1.00 20.00    -0.102 SA
HETATM    7  H20 UNL     1     -33.015  12.323  -4.253  1.00 20.00     0.187 HD
ENDROOT
BRANCH   4   8
HETATM    8  C7  UNL     1     -36.239  16.765  -4.313  1.00 20.00    -0.005 C 
HETATM    9  C5  UNL     1     -34.952  17.291  -4.949  1.00 20.00     0.011 C 
HETATM   10  C6  UNL     1     -37.263  16.413  -5.393  1.00 20.00     0.011 C 
ENDBRANCH   4   8
TORSDOF 1
ENDMDL
MODEL 9
REMARK VINA RESULT:      -3.7      2.436      2.957
REMARK  1 active torsions:
REMARK  status: ('A' for Active; 'I' for Inactive)
REMARK    1  A    between atoms: C4_4  and  C7_7 
ROOT
HETATM    1  C1  UNL     1     -34.033  15.929  -6.873  1.00 20.00     0.035 A 
HETATM    2  C2  UNL     1     -33.901  16.490  -5.667  1.00 20.00    -0.008 A 
HETATM    3  C3  UNL     1     -35.104  14.925  -6.903  1.00 20.00     0.085 A 
HETATM    4  C4  UNL     1     -34.816  16.045  -4.570  1.00 20.00     0.080 A 
HETATM    5  N8  UNL     1     -35.462  14.223  -7.918  1.00 20.00    -0.293 NA
HETATM    6  S9  UNL     1     -35.882  14.778  -5.343  1.00 20.00    -0.102 SA
HETATM    7  H20 UNL     1     -34.879  14.467  -8.727  1.00 20.00     0.187 HD
ENDROOT
BRANCH   4   8
HETATM    8  C7  UNL     1     -34.058  15.451  -3.389  1.00 20.00    -0.005 C 
HETATM    9  C5  UNL     1     -34.636  15.953  -2.066  1.00 20.00     0.011 C 
HETATM   10  C6  UNL     1     -34.087  13.924  -3.440  1.00 20.00     0.011 C 
ENDBRANCH   4   8
TORSDOF 1
ENDMDL
