MODEL 1
REMARK VINA RESULT:      -4.3      0.000      0.000
REMARK  0 active torsions:
REMARK  status: ('A' for Active; 'I' for Inactive)
ROOT
HETATM    1  C1  UNL     1     -34.688  13.665  -4.760  1.00 20.00     0.134 C 
HETATM    2  C2  UNL     1     -34.764  14.499  -6.025  1.00 20.00     0.109 C 
HETATM    3  C3  UNL     1     -32.993  15.122  -3.664  1.00 20.00     0.044 C 
HETATM    4  C4  UNL     1     -35.245  15.927  -5.729  1.00 20.00     0.280 C 
HETATM    5  C5  UNL     1     -33.363  16.479  -4.274  1.00 20.00     0.273 C 
HETATM    6  C6  UNL     1     -35.302  15.578  -3.354  1.00 20.00     0.284 C 
HETATM    7  C7  UNL     1     -34.333  14.418  -3.489  1.00 20.00     0.085 C 
HETATM    8  N8  UNL     1     -34.835  16.484  -4.423  1.00 20.00     0.089 N 
HETATM    9  O9  UNL     1     -34.832  12.444  -4.776  1.00 20.00    -0.297 OA
ENDROOT
TORSDOF 0
ENDMDL
MODEL 2
REMARK VINA RESULT:      -4.2      1.288      1.725
REMARK  0 active torsions:
REMARK  status: ('A' for Active; 'I' for Inactive)
ROOT
HETATM    1  C1  UNL     1     -33.665  13.796  -3.822  1.00 20.00     0.134 C 
HETATM    2  C2  UNL     1     -35.014  13.511  -4.457  1.00 20.00     0.109 C 
HETATM    3  C3  UNL     1     -33.515  16.117  -4.711  1.00 20.00     0.044 C 
HETATM    4  C4  UNL     1     -36.095  14.466  -3.933  1.00 20.00     0.280 C 
HETATM    5  C5  UNL     1     -35.002  16.486  -4.762  1.00 20.00     0.273 C 
HETATM    6  C6  UNL     1     -34.546  15.735  -2.607  1.00 20.00     0.284 C 
HETATM    7  C7  UNL     1     -33.394  15.248  -3.465  1.00 20.00     0.085 C 
HETATM    8  N8  UNL     1     -35.637  15.832  -3.598  1.00 20.00     0.089 N 
HETATM    9  O9  UNL     1     -32.817  12.919  -3.675  1.00 20.00    -0.297 OA
ENDROOT
TORSDOF 0
ENDMDL
MODEL 3
REMARK VINA RESULT:      -4.2      1.171      2.087
REMARK  0 active torsions:
REMARK  status: ('A' for Active; 'I' for Inactive)
ROOT
HETATM    1  C1  UNL     1     -34.586  13.685  -4.056  1.00 20.00     0.134 C 
HETATM    2  C2  UNL     1     -33.149  13.719  -3.571  1.00 20.00     0.109 C 
HETATM    3  C3  UNL     1     -35.332  15.559  -2.596  1.00 20.00     0.044 C 
HETATM    4  C4  UNL     1     -32.485  15.069  -3.875  1.00 20.00     0.280 C 
HETATM    5  C5  UNL     1     -34.036  16.373  -2.513  1.00 20.00     0.273 C 
HETATM    6  C6  UNL     1     -34.497  16.030  -4.768  1.00 20.00     0.284 C 
HETATM    7  C7  UNL     1     -35.331  15.009  -4.018  1.00 20.00     0.085 C 
HETATM    8  N8  UNL     1     -33.376  16.248  -3.830  1.00 20.00     0.089 N 
HETATM    9  O9  UNL     1     -35.136  12.637  -4.389  1.00 20.00    -0.297 OA
ENDROOT
TORSDOF 0
ENDMDL
MODEL 4
REMARK VINA RESULT:      -4.1      1.468      2.433
REMARK  0 active torsions:
REMARK  status: ('A' for Active; 'I' for Inactive)
ROOT
HETATM    1  C1  UNL     1     -35.954  14.515  -3.847  1.00 20.00     0.134 C 
HETATM    2  C2  UNL     1     -35.688  15.732  -2.980  1.00 20.00     0.109 C 
HETATM    3  C3  UNL     1     -34.377  15.205  -5.646  1.00 20.00     0.044 C 
HETATM    4  C4  UNL     1     -34.216  15.802  -2.547  1.00 20.00     0.280 C 
HETATM    5  C5  UNL     1     -33.342  15.977  -4.821  1.00 20.00     0.273 C 
HETATM    6  C6  UNL     1     -33.586  13.880  -3.842  1.00 20.00     0.284 C 
HETATM    7  C7  UNL     1     -34.802  14.064  -4.729  1.00 20.00     0.085 C 
HETATM    8  N8  UNL     1     -33.235  15.279  -3.521  1.00 20.00     0.089 N 
HETATM    9  O9  UNL     1     -37.057  13.975  -3.887  1.00 20.00    -0.297 OA
ENDROOT
TORSDOF 0
ENDMDL
MODEL 5
REMARK VINA RESULT:      -4.0      2.031      2.743
REMARK  0 active torsions:
REMARK  status: ('A' for Active; 'I' for Inactive)
ROOT
HETATM    1  C1  UNL     1     -33.695  15.766  -4.795  1.00 20.00     0.134 C 
HETATM    2  C2  UNL     1     -34.467  15.305  -6.016  1.00 20.00     0.109 C 
HETATM    3  C3  UNL     1     -35.627  15.533  -3.241  1.00 20.00     0.044 C 
HETATM    4  C4  UNL     1     -34.980  13.867  -5.848  1.00 20.00     0.280 C 
HETATM    5  C5  UNL     1     -36.377  14.376  -3.910  1.00 20.00     0.273 C 
HETATM    6  C6  UNL     1     -34.178  13.685  -3.592  1.00 20.00     0.284 C 
HETATM    7  C7  UNL     1     -34.157  15.196  -3.464  1.00 20.00     0.085 C 
HETATM    8  N8  UNL     1     -35.347  13.475  -4.470  1.00 20.00     0.089 N 
HETATM    9  O9  UNL     1     -32.800  16.606  -4.869  1.00 20.00    -0.297 OA
ENDROOT
TORSDOF 0
ENDMDL
MODEL 6
REMARK VINA RESULT:      -4.0      0.973      2.344
REMARK  0 active torsions:
REMARK  status: ('A' for Active; 'I' for Inactive)
ROOT
HETATM    1  C1  UNL     1     -34.605  13.737  -4.812  1.00 20.00     0.134 C 
HETATM    2  C2  UNL     1     -33.836  14.504  -3.753  1.00 20.00     0.109 C 
HETATM    3  C3  UNL     1     -36.198  15.593  -5.283  1.00 20.00     0.044 C 
HETATM    4  C4  UNL     1     -33.189  15.769  -4.333  1.00 20.00     0.280 C 
HETATM    5  C5  UNL     1     -35.304  16.801  -4.983  1.00 20.00     0.273 C 
HETATM    6  C6  UNL     1     -34.166  15.457  -6.504  1.00 20.00     0.284 C 
HETATM    7  C7  UNL     1     -35.247  14.577  -5.904  1.00 20.00     0.085 C 
HETATM    8  N8  UNL     1     -33.940  16.434  -5.420  1.00 20.00     0.089 N 
HETATM    9  O9  UNL     1     -34.762  12.520  -4.750  1.00 20.00    -0.297 OA
ENDROOT
TORSDOF 0
ENDMDL
MODEL 7
REMARK VINA RESULT:      -4.0      1.572      2.153
REMARK  0 active torsions:
REMARK  status: ('A' for Active; 'I' for Inactive)
ROOT
HETATM    1  C1  UNL     1     -36.460  14.519  -3.857  1.00 20.00     0.134 C 
HETATM    2  C2  UNL     1     -35.403  13.539  -4.328  1.00 20.00     0.109 C 
HETATM    3  C3  UNL     1     -34.901  15.812  -2.410  1.00 20.00     0.044 C 
HETATM    4  C4  UNL     1     -34.272  14.251  -5.085  1.00 20.00     0.280 C 
HETATM    5  C5  UNL     1     -33.592  15.628  -3.185  1.00 20.00     0.273 C 
HETATM    6  C6  UNL     1     -35.178  16.439  -4.683  1.00 20.00     0.284 C 
HETATM    7  C7  UNL     1     -35.963  15.909  -3.498  1.00 20.00     0.085 C 
HETATM    8  N8  UNL     1     -33.951  15.618  -4.620  1.00 20.00     0.089 N 
HETATM    9  O9  UNL     1     -37.634  14.186  -3.705  1.00 20.00    -0.297 OA
ENDROOT
TORSDOF 0
ENDMDL
MODEL 8
REMARK VINA RESULT:      -4.0      1.926      2.715
REMARK  0 active torsions:
REMARK  status: ('A' for Active; 'I' for Inactive)
ROOT
HETATM    1  C1  UNL     1     -34.631  15.705  -2.555  1.00 20.00     0.134 C 
HETATM    2  C2  UNL     1     -35.995  15.485  -3.181  1.00 20.00     0.109 C 
HETATM    3  C3  UNL     1     -33.556  13.802  -3.749  1.00 20.00     0.044 C 
HETATM    4  C4  UNL     1     -35.944  15.636  -4.709  1.00 20.00     0.280 C 
HETATM    5  C5  UNL     1     -34.376  13.794  -5.044  1.00 20.00     0.273 C 
HETATM    6  C6  UNL     1     -33.564  15.955  -4.749  1.00 20.00     0.284 C 
HETATM    7  C7  UNL     1     -33.439  15.280  -3.397  1.00 20.00     0.085 C 
HETATM    8  N8  UNL     1     -34.685  15.207  -5.354  1.00 20.00     0.089 N 
HETATM    9  O9  UNL     1     -34.502  16.131  -1.410  1.00 20.00    -0.297 OA
ENDROOT
TORSDOF 0
ENDMDL
MODEL 9
REMARK VINA RESULT:      -3.8     11.571     12.543
REMARK  0 active torsions:
REMARK  status: ('A' for Active; 'I' for Inactive)
ROOT
HETATM    1  C1  UNL     1     -42.602   5.871  -2.651  1.00 20.00     0.134 C 
HETATM    2  C2  UNL     1     -42.091   4.476  -2.340  1.00 20.00     0.109 C 
HETATM    3  C3  UNL     1     -43.265   6.367  -0.303  1.00 20.00     0.044 C 
HETATM    4  C4  UNL     1     -40.925   4.514  -1.342  1.00 20.00     0.280 C 
HETATM    5  C5  UNL     1     -42.229   5.531   0.456  1.00 20.00     0.273 C 
HETATM    6  C6  UNL     1     -41.067   6.891  -1.033  1.00 20.00     0.284 C 
HETATM    7  C7  UNL     1     -42.504   6.881  -1.520  1.00 20.00     0.085 C 
HETATM    8  N8  UNL     1     -40.979   5.594  -0.333  1.00 20.00     0.089 N 
HETATM    9  O9  UNL     1     -43.129   6.146  -3.727  1.00 20.00    -0.297 OA
ENDROOT
TORSDOF 0
ENDMDL
