MODEL 1
REMARK VINA RESULT:      -4.6      0.000      0.000
REMARK  0 active torsions:
REMARK  status: ('A' for Active; 'I' for Inactive)
ROOT
HETATM    1  C1  UNL     1     -35.109  13.382  -4.349  1.00 20.00     0.005 C 
HETATM    2  C2  UNL     1     -34.811  13.982  -5.720  1.00 20.00     0.033 C 
HETATM    3  C3  UNL     1     -34.848  14.344  -3.193  1.00 20.00     0.033 C 
HETATM    4  C4  UNL     1     -34.946  15.516  -5.785  1.00 20.00     0.052 C 
HETATM    5  C5  UNL     1     -33.825  15.449  -3.518  1.00 20.00     0.052 C 
HETATM    6  C6  UNL     1     -36.427  15.932  -5.681  1.00 20.00     0.040 C 
HETATM    7  C7  UNL     1     -34.433  15.983  -7.163  1.00 20.00     0.040 C 
HETATM    8  C8  UNL     1     -32.408  14.860  -3.664  1.00 20.00     0.040 C 
HETATM    9  C9  UNL     1     -33.803  16.447  -2.344  1.00 20.00     0.040 C 
HETATM   10  N10 UNL     1     -34.217  16.212  -4.711  1.00 20.00    -0.234 N 
HETATM   11  F11 UNL     1     -33.218  17.043  -5.156  1.00 20.00    -0.103 F 
ENDROOT
TORSDOF 0
ENDMDL
MODEL 2
REMARK VINA RESULT:      -4.5      1.825      3.701
REMARK  0 active torsions:
REMARK  status: ('A' for Active; 'I' for Inactive)
ROOT
HETATM    1  C1  UNL     1     -33.613  17.179  -5.236  1.00 20.00     0.005 C 
HETATM    2  C2  UNL     1     -32.974  15.943  -4.608  1.00 20.00     0.033 C 
HETATM    3  C3  UNL     1     -35.018  16.930  -5.777  1.00 20.00     0.033 C 
HETATM    4  C4  UNL     1     -33.983  14.925  -4.042  1.00 20.00     0.052 C 
HETATM    5  C5  UNL     1     -35.299  15.459  -6.136  1.00 20.00     0.052 C 
HETATM    6  C6  UNL     1     -34.664  15.486  -2.778  1.00 20.00     0.040 C 
HETATM    7  C7  UNL     1     -33.203  13.662  -3.621  1.00 20.00     0.040 C 
HETATM    8  C8  UNL     1     -34.487  15.031  -7.375  1.00 20.00     0.040 C 
HETATM    9  C9  UNL     1     -36.795  15.322  -6.482  1.00 20.00     0.040 C 
HETATM   10  N10 UNL     1     -35.049  14.568  -4.994  1.00 20.00    -0.234 N 
HETATM   11  F11 UNL     1     -35.066  13.241  -5.348  1.00 20.00    -0.103 F 
ENDROOT
TORSDOF 0
ENDMDL
MODEL 3
REMARK VINA RESULT:      -4.5      0.934      3.337
REMARK  0 active torsions:
REMARK  status: ('A' for Active; 'I' for Inactive)
ROOT
HETATM    1  C1  UNL     1     -34.848  13.384  -5.159  1.00 20.00     0.005 C 
HETATM    2  C2  UNL     1     -34.972  13.979  -3.760  1.00 20.00     0.033 C 
HETATM    3  C3  UNL     1     -34.651  14.431  -6.252  1.00 20.00     0.033 C 
HETATM    4  C4  UNL     1     -34.260  15.334  -3.582  1.00 20.00     0.052 C 
HETATM    5  C5  UNL     1     -35.186  15.827  -5.884  1.00 20.00     0.052 C 
HETATM    6  C6  UNL     1     -32.730  15.148  -3.606  1.00 20.00     0.040 C 
HETATM    7  C7  UNL     1     -34.633  15.891  -2.191  1.00 20.00     0.040 C 
HETATM    8  C8  UNL     1     -36.727  15.829  -5.828  1.00 20.00     0.040 C 
HETATM    9  C9  UNL     1     -34.753  16.817  -6.984  1.00 20.00     0.040 C 
HETATM   10  N10 UNL     1     -34.600  16.315  -4.627  1.00 20.00    -0.234 N 
HETATM   11  F11 UNL     1     -35.227  17.444  -4.158  1.00 20.00    -0.103 F 
ENDROOT
TORSDOF 0
ENDMDL
MODEL 4
REMARK VINA RESULT:      -4.4      1.844      2.815
REMARK  0 active torsions:
REMARK  status: ('A' for Active; 'I' for Inactive)
ROOT
HETATM    1  C1  UNL     1     -33.660  17.157  -5.249  1.00 20.00     0.005 C 
HETATM    2  C2  UNL     1     -35.085  16.873  -5.717  1.00 20.00     0.033 C 
HETATM    3  C3  UNL     1     -32.977  15.953  -4.608  1.00 20.00     0.033 C 
HETATM    4  C4  UNL     1     -35.353  15.398  -6.073  1.00 20.00     0.052 C 
HETATM    5  C5  UNL     1     -33.955  14.918  -4.020  1.00 20.00     0.052 C 
HETATM    6  C6  UNL     1     -34.616  15.014  -7.372  1.00 20.00     0.040 C 
HETATM    7  C7  UNL     1     -36.865  15.237  -6.339  1.00 20.00     0.040 C 
HETATM    8  C8  UNL     1     -34.666  15.481  -2.773  1.00 20.00     0.040 C 
HETATM    9  C9  UNL     1     -33.146  13.681  -3.583  1.00 20.00     0.040 C 
HETATM   10  N10 UNL     1     -34.920  14.455  -5.027  1.00 20.00    -0.234 N 
HETATM   11  F11 UNL     1     -35.940  13.717  -4.478  1.00 20.00    -0.103 F 
ENDROOT
TORSDOF 0
ENDMDL
MODEL 5
REMARK VINA RESULT:      -4.4      1.669      2.456
REMARK  0 active torsions:
REMARK  status: ('A' for Active; 'I' for Inactive)
ROOT
HETATM    1  C1  UNL     1     -33.268  14.312  -3.834  1.00 20.00     0.005 C 
HETATM    2  C2  UNL     1     -32.911  15.693  -4.379  1.00 20.00     0.033 C 
HETATM    3  C3  UNL     1     -34.770  14.088  -3.680  1.00 20.00     0.033 C 
HETATM    4  C4  UNL     1     -34.005  16.332  -5.255  1.00 20.00     0.052 C 
HETATM    5  C5  UNL     1     -35.583  15.387  -3.518  1.00 20.00     0.052 C 
HETATM    6  C6  UNL     1     -34.121  15.590  -6.601  1.00 20.00     0.040 C 
HETATM    7  C7  UNL     1     -33.581  17.783  -5.566  1.00 20.00     0.040 C 
HETATM    8  C8  UNL     1     -35.299  16.046  -2.153  1.00 20.00     0.040 C 
HETATM    9  C9  UNL     1     -37.081  15.029  -3.566  1.00 20.00     0.040 C 
HETATM   10  N10 UNL     1     -35.338  16.318  -4.628  1.00 20.00    -0.234 N 
HETATM   11  F11 UNL     1     -35.863  17.566  -4.394  1.00 20.00    -0.103 F 
ENDROOT
TORSDOF 0
ENDMDL
MODEL 6
REMARK VINA RESULT:      -4.4      1.705      2.977
REMARK  0 active torsions:
REMARK  status: ('A' for Active; 'I' for Inactive)
ROOT
HETATM    1  C1  UNL     1     -33.215  14.418  -3.787  1.00 20.00     0.005 C 
HETATM    2  C2  UNL     1     -34.711  14.157  -3.633  1.00 20.00     0.033 C 
HETATM    3  C3  UNL     1     -32.894  15.768  -4.422  1.00 20.00     0.033 C 
HETATM    4  C4  UNL     1     -35.567  15.431  -3.506  1.00 20.00     0.052 C 
HETATM    5  C5  UNL     1     -34.027  16.331  -5.300  1.00 20.00     0.052 C 
HETATM    6  C6  UNL     1     -35.323  16.112  -2.145  1.00 20.00     0.040 C 
HETATM    7  C7  UNL     1     -37.053  15.015  -3.551  1.00 20.00     0.040 C 
HETATM    8  C8  UNL     1     -34.194  15.496  -6.586  1.00 20.00     0.040 C 
HETATM    9  C9  UNL     1     -33.649  17.766  -5.716  1.00 20.00     0.040 C 
HETATM   10  N10 UNL     1     -35.290  16.429  -4.554  1.00 20.00    -0.234 N 
HETATM   11  F11 UNL     1     -36.362  16.705  -5.366  1.00 20.00    -0.103 F 
ENDROOT
TORSDOF 0
ENDMDL
MODEL 7
REMARK VINA RESULT:      -4.4      1.595      3.418
REMARK  0 active torsions:
REMARK  status: ('A' for Active; 'I' for Inactive)
ROOT
HETATM    1  C1  UNL     1     -34.637  13.374  -4.711  1.00 20.00     0.005 C 
HETATM    2  C2  UNL     1     -34.277  14.119  -3.428  1.00 20.00     0.033 C 
HETATM    3  C3  UNL     1     -35.525  14.179  -5.655  1.00 20.00     0.033 C 
HETATM    4  C4  UNL     1     -34.277  15.654  -3.565  1.00 20.00     0.052 C 
HETATM    5  C5  UNL     1     -36.357  15.270  -4.953  1.00 20.00     0.052 C 
HETATM    6  C6  UNL     1     -33.088  16.118  -4.429  1.00 20.00     0.040 C 
HETATM    7  C7  UNL     1     -34.087  16.259  -2.158  1.00 20.00     0.040 C 
HETATM    8  C8  UNL     1     -37.454  14.642  -4.071  1.00 20.00     0.040 C 
HETATM    9  C9  UNL     1     -37.051  16.120  -6.036  1.00 20.00     0.040 C 
HETATM   10  N10 UNL     1     -35.504  16.186  -4.183  1.00 20.00    -0.234 N 
HETATM   11  F11 UNL     1     -36.229  17.019  -3.367  1.00 20.00    -0.103 F 
ENDROOT
TORSDOF 0
ENDMDL
MODEL 8
REMARK VINA RESULT:      -4.4      1.650      2.557
REMARK  0 active torsions:
REMARK  status: ('A' for Active; 'I' for Inactive)
ROOT
HETATM    1  C1  UNL     1     -36.897  15.837  -3.700  1.00 20.00     0.005 C 
HETATM    2  C2  UNL     1     -36.096  14.546  -3.844  1.00 20.00     0.033 C 
HETATM    3  C3  UNL     1     -36.027  17.078  -3.518  1.00 20.00     0.033 C 
HETATM    4  C4  UNL     1     -34.682  14.739  -4.424  1.00 20.00     0.052 C 
HETATM    5  C5  UNL     1     -34.632  16.783  -2.935  1.00 20.00     0.052 C 
HETATM    6  C6  UNL     1     -34.758  15.118  -5.917  1.00 20.00     0.040 C 
HETATM    7  C7  UNL     1     -33.939  13.390  -4.331  1.00 20.00     0.040 C 
HETATM    8  C8  UNL     1     -34.734  16.346  -1.460  1.00 20.00     0.040 C 
HETATM    9  C9  UNL     1     -33.803  18.081  -2.985  1.00 20.00     0.040 C 
HETATM   10  N10 UNL     1     -33.908  15.791  -3.742  1.00 20.00    -0.234 N 
HETATM   11  F11 UNL     1     -32.768  15.340  -3.124  1.00 20.00    -0.103 F 
ENDROOT
TORSDOF 0
ENDMDL
MODEL 9
REMARK VINA RESULT:      -4.3      1.503      3.118
REMARK  0 active torsions:
REMARK  status: ('A' for Active; 'I' for Inactive)
ROOT
HETATM    1  C1  UNL     1     -36.841  15.688  -3.709  1.00 20.00     0.005 C 
HETATM    2  C2  UNL     1     -35.985  16.944  -3.577  1.00 20.00     0.033 C 
HETATM    3  C3  UNL     1     -36.025  14.405  -3.844  1.00 20.00     0.033 C 
HETATM    4  C4  UNL     1     -34.593  16.701  -2.963  1.00 20.00     0.052 C 
HETATM    5  C5  UNL     1     -34.607  14.622  -4.405  1.00 20.00     0.052 C 
HETATM    6  C6  UNL     1     -34.716  16.362  -1.465  1.00 20.00     0.040 C 
HETATM    7  C7  UNL     1     -33.786  18.013  -3.072  1.00 20.00     0.040 C 
HETATM    8  C8  UNL     1     -34.659  15.028  -5.891  1.00 20.00     0.040 C 
HETATM    9  C9  UNL     1     -33.839  13.289  -4.307  1.00 20.00     0.040 C 
HETATM   10  N10 UNL     1     -33.855  15.599  -3.604  1.00 20.00    -0.234 N 
HETATM   11  F11 UNL     1     -32.683  15.983  -4.209  1.00 20.00    -0.103 F 
ENDROOT
TORSDOF 0
ENDMDL
