MODEL 1
REMARK VINA RESULT:      -4.6      0.000      0.000
REMARK  1 active torsions:
REMARK  status: ('A' for Active; 'I' for Inactive)
REMARK    1  A    between atoms: C1_1  and  C4_4 
ROOT
HETATM    1  C2  UNL     1     -34.605   5.299   3.572  1.00 20.00     0.035 C 
HETATM    2  C3  UNL     1     -33.778   6.294   5.259  1.00 20.00     0.035 C 
HETATM    3  C4  UNL     1     -33.887   6.660   3.758  1.00 20.00     0.089 C 
HETATM    4  C5  UNL     1     -35.034   5.412   5.055  1.00 20.00     0.084 C 
HETATM    5 CL8  UNL     1     -35.200   3.920   6.017  1.00 20.00    -0.125 Cl
ENDROOT
BRANCH   3   6
HETATM    6  C1  UNL     1     -32.593   6.818   3.049  1.00 20.00     0.177 C 
HETATM    7  O6  UNL     1     -32.418   7.936   2.487  1.00 20.00    -0.648 OA
HETATM    8  O7  UNL     1     -31.833   5.811   3.099  1.00 20.00    -0.648 OA
ENDBRANCH   3   6
TORSDOF 1
ENDMDL
MODEL 2
REMARK VINA RESULT:      -4.3      3.270      3.974
REMARK  1 active torsions:
REMARK  status: ('A' for Active; 'I' for Inactive)
REMARK    1  A    between atoms: C1_1  and  C4_4 
ROOT
HETATM    1  C2  UNL     1     -33.702   6.530   5.003  1.00 20.00     0.035 C 
HETATM    2  C3  UNL     1     -34.115   5.421   3.237  1.00 20.00     0.035 C 
HETATM    3  C4  UNL     1     -34.874   5.612   4.574  1.00 20.00     0.089 C 
HETATM    4  C5  UNL     1     -33.467   6.803   3.498  1.00 20.00     0.084 C 
HETATM    5 CL8  UNL     1     -31.804   7.093   2.925  1.00 20.00    -0.125 Cl
ENDROOT
BRANCH   3   6
HETATM    6  C1  UNL     1     -35.065   4.377   5.376  1.00 20.00     0.177 C 
HETATM    7  O6  UNL     1     -35.019   3.297   4.723  1.00 20.00    -0.648 OA
HETATM    8  O7  UNL     1     -35.250   4.570   6.610  1.00 20.00    -0.648 OA
ENDBRANCH   3   6
TORSDOF 1
ENDMDL
MODEL 3
REMARK VINA RESULT:      -4.2     11.240     11.864
REMARK  1 active torsions:
REMARK  status: ('A' for Active; 'I' for Inactive)
REMARK    1  A    between atoms: C1_1  and  C4_4 
ROOT
HETATM    1  C2  UNL     1     -35.078  15.332  -2.730  1.00 20.00     0.035 C 
HETATM    2  C3  UNL     1     -33.112  15.664  -3.470  1.00 20.00     0.035 C 
HETATM    3  C4  UNL     1     -34.319  14.842  -3.989  1.00 20.00     0.089 C 
HETATM    4  C5  UNL     1     -34.139  16.563  -2.739  1.00 20.00     0.084 C 
HETATM    5 CL8  UNL     1     -33.678  17.304  -1.184  1.00 20.00    -0.125 Cl
ENDROOT
BRANCH   3   6
HETATM    6  C1  UNL     1     -34.093  13.378  -4.088  1.00 20.00     0.177 C 
HETATM    7  O6  UNL     1     -35.083  12.706  -4.490  1.00 20.00    -0.648 OA
HETATM    8  O7  UNL     1     -32.937  12.996  -3.754  1.00 20.00    -0.648 OA
ENDBRANCH   3   6
TORSDOF 1
ENDMDL
MODEL 4
REMARK VINA RESULT:      -4.1      3.255      3.850
REMARK  1 active torsions:
REMARK  status: ('A' for Active; 'I' for Inactive)
REMARK    1  A    between atoms: C1_1  and  C4_4 
ROOT
HETATM    1  C2  UNL     1     -33.469   5.617   2.814  1.00 20.00     0.035 C 
HETATM    2  C3  UNL     1     -33.198   6.801   4.558  1.00 20.00     0.035 C 
HETATM    3  C4  UNL     1     -33.712   5.359   4.322  1.00 20.00     0.089 C 
HETATM    4  C5  UNL     1     -32.397   6.647   3.242  1.00 20.00     0.084 C 
HETATM    5 CL8  UNL     1     -32.133   8.088   2.225  1.00 20.00    -0.125 Cl
ENDROOT
BRANCH   3   6
HETATM    6  C1  UNL     1     -35.120   5.113   4.725  1.00 20.00     0.177 C 
HETATM    7  O6  UNL     1     -35.274   4.647   5.887  1.00 20.00    -0.648 OA
HETATM    8  O7  UNL     1     -35.980   5.404   3.848  1.00 20.00    -0.648 OA
ENDBRANCH   3   6
TORSDOF 1
ENDMDL
MODEL 5
REMARK VINA RESULT:      -4.0     11.812     12.341
REMARK  1 active torsions:
REMARK  status: ('A' for Active; 'I' for Inactive)
REMARK    1  A    between atoms: C1_1  and  C4_4 
ROOT
HETATM    1  C2  UNL     1     -33.538  15.358  -4.214  1.00 20.00     0.035 C 
HETATM    2  C3  UNL     1     -34.957  15.553  -2.643  1.00 20.00     0.035 C 
HETATM    3  C4  UNL     1     -34.345  14.334  -3.378  1.00 20.00     0.089 C 
HETATM    4  C5  UNL     1     -33.666  16.324  -3.012  1.00 20.00     0.084 C 
HETATM    5 CL8  UNL     1     -33.772  18.077  -3.324  1.00 20.00    -0.125 Cl
ENDROOT
BRANCH   3   6
HETATM    6  C1  UNL     1     -35.313  13.494  -4.128  1.00 20.00     0.177 C 
HETATM    7  O6  UNL     1     -34.800  12.596  -4.851  1.00 20.00    -0.648 OA
HETATM    8  O7  UNL     1     -36.526  13.790  -3.944  1.00 20.00    -0.648 OA
ENDBRANCH   3   6
TORSDOF 1
ENDMDL
MODEL 6
REMARK VINA RESULT:      -3.8     11.828     12.792
REMARK  1 active torsions:
REMARK  status: ('A' for Active; 'I' for Inactive)
REMARK    1  A    between atoms: C1_1  and  C4_4 
ROOT
HETATM    1  C2  UNL     1     -33.439  15.871  -3.556  1.00 20.00     0.035 C 
HETATM    2  C3  UNL     1     -34.974  15.640  -5.008  1.00 20.00     0.035 C 
HETATM    3  C4  UNL     1     -34.603  14.862  -3.721  1.00 20.00     0.089 C 
HETATM    4  C5  UNL     1     -34.296  16.874  -4.364  1.00 20.00     0.084 C 
HETATM    5 CL8  UNL     1     -33.475  18.052  -5.421  1.00 20.00    -0.125 Cl
ENDROOT
BRANCH   3   6
HETATM    6  C1  UNL     1     -34.215  13.444  -3.927  1.00 20.00     0.177 C 
HETATM    7  O6  UNL     1     -35.135  12.689  -4.350  1.00 20.00    -0.648 OA
HETATM    8  O7  UNL     1     -33.013  13.178  -3.649  1.00 20.00    -0.648 OA
ENDBRANCH   3   6
TORSDOF 1
ENDMDL
MODEL 7
REMARK VINA RESULT:      -3.8     11.419     12.300
REMARK  1 active torsions:
REMARK  status: ('A' for Active; 'I' for Inactive)
REMARK    1  A    between atoms: C1_1  and  C4_4 
ROOT
HETATM    1  C2  UNL     1     -35.029  15.927  -4.052  1.00 20.00     0.035 C 
HETATM    2  C3  UNL     1     -33.655  14.514  -3.254  1.00 20.00     0.035 C 
HETATM    3  C4  UNL     1     -34.123  14.845  -4.693  1.00 20.00     0.089 C 
HETATM    4  C5  UNL     1     -34.013  15.975  -2.886  1.00 20.00     0.084 C 
HETATM    5 CL8  UNL     1     -34.608  16.324  -1.241  1.00 20.00    -0.125 Cl
ENDROOT
BRANCH   3   6
HETATM    6  C1  UNL     1     -34.821  13.743  -5.402  1.00 20.00     0.177 C 
HETATM    7  O6  UNL     1     -34.834  12.635  -4.797  1.00 20.00    -0.648 OA
HETATM    8  O7  UNL     1     -35.312  14.060  -6.521  1.00 20.00    -0.648 OA
ENDBRANCH   3   6
TORSDOF 1
ENDMDL
MODEL 8
REMARK VINA RESULT:      -3.6     11.637     12.488
REMARK  1 active torsions:
REMARK  status: ('A' for Active; 'I' for Inactive)
REMARK    1  A    between atoms: C1_1  and  C4_4 
ROOT
HETATM    1  C2  UNL     1     -35.018  15.597  -5.156  1.00 20.00     0.035 C 
HETATM    2  C3  UNL     1     -36.212  14.996  -3.502  1.00 20.00     0.035 C 
HETATM    3  C4  UNL     1     -34.708  14.843  -3.838  1.00 20.00     0.089 C 
HETATM    4  C5  UNL     1     -36.206  16.250  -4.410  1.00 20.00     0.084 C 
HETATM    5 CL8  UNL     1     -37.681  16.652  -5.329  1.00 20.00    -0.125 Cl
ENDROOT
BRANCH   3   6
HETATM    6  C1  UNL     1     -34.230  13.445  -3.981  1.00 20.00     0.177 C 
HETATM    7  O6  UNL     1     -33.027  13.249  -3.651  1.00 20.00    -0.648 OA
HETATM    8  O7  UNL     1     -35.092  12.632  -4.417  1.00 20.00    -0.648 OA
ENDBRANCH   3   6
TORSDOF 1
ENDMDL
MODEL 9
REMARK VINA RESULT:      -3.5     12.243     13.169
REMARK  1 active torsions:
REMARK  status: ('A' for Active; 'I' for Inactive)
REMARK    1  A    between atoms: C1_1  and  C4_4 
ROOT
HETATM    1  C2  UNL     1     -35.837  14.847  -5.911  1.00 20.00     0.035 C 
HETATM    2  C3  UNL     1     -34.021  15.728  -5.243  1.00 20.00     0.035 C 
HETATM    3  C4  UNL     1     -34.427  14.279  -5.610  1.00 20.00     0.089 C 
HETATM    4  C5  UNL     1     -35.145  16.201  -6.197  1.00 20.00     0.084 C 
HETATM    5 CL8  UNL     1     -36.017  17.709  -5.816  1.00 20.00    -0.125 Cl
ENDROOT
BRANCH   3   6
HETATM    6  C1  UNL     1     -34.341  13.296  -4.501  1.00 20.00     0.177 C 
HETATM    7  O6  UNL     1     -35.370  12.585  -4.329  1.00 20.00    -0.648 OA
HETATM    8  O7  UNL     1     -33.246  13.301  -3.872  1.00 20.00    -0.648 OA
ENDBRANCH   3   6
TORSDOF 1
ENDMDL
