MODEL 1
REMARK VINA RESULT:      -4.5      0.000      0.000
REMARK  2 active torsions:
REMARK  status: ('A' for Active; 'I' for Inactive)
REMARK    1  A    between atoms: C2_2  and  O12_12 
REMARK    2  A    between atoms: C7_7  and  O12_12 
ROOT
HETATM    1  C3  UNL     1     -35.697  13.665  -4.506  1.00 20.00     0.036 C 
HETATM    2  C4  UNL     1     -33.660  15.041  -3.865  1.00 20.00     0.013 C 
HETATM    3  C5  UNL     1     -35.940  15.575  -2.882  1.00 20.00     0.041 C 
HETATM    4  C6  UNL     1     -34.306  14.142  -4.934  1.00 20.00    -0.015 C 
HETATM    5  C7  UNL     1     -36.598  14.799  -4.023  1.00 20.00     0.128 C 
HETATM    6  C8  UNL     1     -34.553  16.144  -3.245  1.00 20.00    -0.045 C 
HETATM    7  C9  UNL     1     -34.322  14.767  -6.330  1.00 20.00     0.010 C 
HETATM    8  C10 UNL     1     -34.695  17.358  -4.182  1.00 20.00     0.015 C 
HETATM    9  C11 UNL     1     -33.874  16.650  -1.953  1.00 20.00     0.015 C 
ENDROOT
BRANCH   5  10
HETATM   10  O12 UNL     1     -37.823  14.253  -3.541  1.00 20.00    -0.359 OA
BRANCH  10  11
HETATM   11  C2  UNL     1     -38.911  14.686  -4.162  1.00 20.00     0.125 C 
HETATM   12  C1  UNL     1     -38.914  15.451  -5.257  1.00 20.00     0.037 C 
ENDBRANCH  10  11
ENDBRANCH   5  10
TORSDOF 2
ENDMDL
MODEL 2
REMARK VINA RESULT:      -4.5     10.267     12.388
REMARK  2 active torsions:
REMARK  status: ('A' for Active; 'I' for Inactive)
REMARK    1  A    between atoms: C2_2  and  O12_12 
REMARK    2  A    between atoms: C7_7  and  O12_12 
ROOT
HETATM    1  C3  UNL     1     -41.706   6.570  -2.125  1.00 20.00     0.036 C 
HETATM    2  C4  UNL     1     -41.010   4.183  -1.605  1.00 20.00     0.013 C 
HETATM    3  C5  UNL     1     -42.793   4.658  -3.350  1.00 20.00     0.041 C 
HETATM    4  C6  UNL     1     -41.112   5.625  -1.077  1.00 20.00    -0.015 C 
HETATM    5  C7  UNL     1     -42.999   6.044  -2.742  1.00 20.00     0.128 C 
HETATM    6  C8  UNL     1     -42.249   3.621  -2.346  1.00 20.00    -0.045 C 
HETATM    7  C9  UNL     1     -41.835   5.735   0.267  1.00 20.00     0.010 C 
HETATM    8  C10 UNL     1     -43.353   3.186  -1.365  1.00 20.00     0.015 C 
HETATM    9  C11 UNL     1     -41.817   2.359  -3.126  1.00 20.00     0.015 C 
ENDROOT
BRANCH   5  10
HETATM   10  O12 UNL     1     -43.417   6.928  -3.780  1.00 20.00    -0.359 OA
BRANCH  10  11
HETATM   11  C2  UNL     1     -42.688   8.027  -3.907  1.00 20.00     0.125 C 
HETATM   12  C1  UNL     1     -42.517   8.706  -5.044  1.00 20.00     0.037 C 
ENDBRANCH  10  11
ENDBRANCH   5  10
TORSDOF 2
ENDMDL
MODEL 3
REMARK VINA RESULT:      -4.3      2.088      3.995
REMARK  2 active torsions:
REMARK  status: ('A' for Active; 'I' for Inactive)
REMARK    1  A    between atoms: C2_2  and  O12_12 
REMARK    2  A    between atoms: C7_7  and  O12_12 
ROOT
HETATM    1  C3  UNL     1     -33.482  15.144  -3.804  1.00 20.00     0.036 C 
HETATM    2  C4  UNL     1     -34.415  14.795  -6.141  1.00 20.00     0.013 C 
HETATM    3  C5  UNL     1     -34.533  17.076  -5.031  1.00 20.00     0.041 C 
HETATM    4  C6  UNL     1     -34.064  14.134  -4.796  1.00 20.00    -0.015 C 
HETATM    5  C7  UNL     1     -34.324  16.410  -3.672  1.00 20.00     0.128 C 
HETATM    6  C8  UNL     1     -35.173  16.145  -6.081  1.00 20.00    -0.045 C 
HETATM    7  C9  UNL     1     -35.220  13.338  -4.186  1.00 20.00     0.010 C 
HETATM    8  C10 UNL     1     -36.671  15.945  -5.786  1.00 20.00     0.015 C 
HETATM    9  C11 UNL     1     -35.073  16.820  -7.466  1.00 20.00     0.015 C 
ENDROOT
BRANCH   5  10
HETATM   10  O12 UNL     1     -33.652  17.335  -2.821  1.00 20.00    -0.359 OA
BRANCH  10  11
HETATM   11  C2  UNL     1     -33.689  17.036  -1.530  1.00 20.00     0.125 C 
HETATM   12  C1  UNL     1     -34.791  16.706  -0.851  1.00 20.00     0.037 C 
ENDBRANCH  10  11
ENDBRANCH   5  10
TORSDOF 2
ENDMDL
MODEL 4
REMARK VINA RESULT:      -4.3      1.231      2.483
REMARK  2 active torsions:
REMARK  status: ('A' for Active; 'I' for Inactive)
REMARK    1  A    between atoms: C2_2  and  O12_12 
REMARK    2  A    between atoms: C7_7  and  O12_12 
ROOT
HETATM    1  C3  UNL     1     -35.437  14.797  -3.078  1.00 20.00     0.036 C 
HETATM    2  C4  UNL     1     -34.021  16.126  -4.716  1.00 20.00     0.013 C 
HETATM    3  C5  UNL     1     -36.404  15.473  -5.303  1.00 20.00     0.041 C 
HETATM    4  C6  UNL     1     -34.016  15.136  -3.538  1.00 20.00    -0.015 C 
HETATM    5  C7  UNL     1     -36.358  14.390  -4.225  1.00 20.00     0.128 C 
HETATM    6  C8  UNL     1     -35.016  15.838  -5.868  1.00 20.00    -0.045 C 
HETATM    7  C9  UNL     1     -33.186  13.877  -3.800  1.00 20.00     0.010 C 
HETATM    8  C10 UNL     1     -34.503  14.726  -6.802  1.00 20.00     0.015 C 
HETATM    9  C11 UNL     1     -35.153  17.117  -6.723  1.00 20.00     0.015 C 
ENDROOT
BRANCH   5  10
HETATM   10  O12 UNL     1     -37.679  14.204  -3.723  1.00 20.00    -0.359 OA
BRANCH  10  11
HETATM   11  C2  UNL     1     -38.521  15.194  -3.985  1.00 20.00     0.125 C 
HETATM   12  C1  UNL     1     -39.543  15.556  -3.205  1.00 20.00     0.037 C 
ENDBRANCH  10  11
ENDBRANCH   5  10
TORSDOF 2
ENDMDL
MODEL 5
REMARK VINA RESULT:      -4.2      2.032      4.200
REMARK  2 active torsions:
REMARK  status: ('A' for Active; 'I' for Inactive)
REMARK    1  A    between atoms: C2_2  and  O12_12 
REMARK    2  A    between atoms: C7_7  and  O12_12 
ROOT
HETATM    1  C3  UNL     1     -33.520  15.866  -2.841  1.00 20.00     0.036 C 
HETATM    2  C4  UNL     1     -34.940  15.779  -4.945  1.00 20.00     0.013 C 
HETATM    3  C5  UNL     1     -35.908  16.661  -2.769  1.00 20.00     0.041 C 
HETATM    4  C6  UNL     1     -33.736  15.183  -4.194  1.00 20.00    -0.015 C 
HETATM    5  C7  UNL     1     -34.792  15.954  -2.002  1.00 20.00     0.128 C 
HETATM    6  C8  UNL     1     -36.235  16.003  -4.125  1.00 20.00    -0.045 C 
HETATM    7  C9  UNL     1     -33.791  13.659  -4.061  1.00 20.00     0.010 C 
HETATM    8  C10 UNL     1     -37.013  14.691  -3.916  1.00 20.00     0.015 C 
HETATM    9  C11 UNL     1     -37.158  16.951  -4.924  1.00 20.00     0.015 C 
ENDROOT
BRANCH   5  10
HETATM   10  O12 UNL     1     -34.523  16.700  -0.818  1.00 20.00    -0.359 OA
BRANCH  10  11
HETATM   11  C2  UNL     1     -33.626  17.666  -0.957  1.00 20.00     0.125 C 
HETATM   12  C1  UNL     1     -33.135  18.405   0.042  1.00 20.00     0.037 C 
ENDBRANCH  10  11
ENDBRANCH   5  10
TORSDOF 2
ENDMDL
MODEL 6
REMARK VINA RESULT:      -4.2      2.451      4.039
REMARK  2 active torsions:
REMARK  status: ('A' for Active; 'I' for Inactive)
REMARK    1  A    between atoms: C2_2  and  O12_12 
REMARK    2  A    between atoms: C7_7  and  O12_12 
ROOT
HETATM    1  C3  UNL     1     -35.386  17.653  -3.743  1.00 20.00     0.036 C 
HETATM    2  C4  UNL     1     -34.777  15.611  -5.127  1.00 20.00     0.013 C 
HETATM    3  C5  UNL     1     -34.842  15.481  -2.591  1.00 20.00     0.041 C 
HETATM    4  C6  UNL     1     -34.813  17.149  -5.071  1.00 20.00    -0.015 C 
HETATM    5  C7  UNL     1     -34.737  17.004  -2.524  1.00 20.00     0.128 C 
HETATM    6  C8  UNL     1     -34.235  14.878  -3.874  1.00 20.00    -0.045 C 
HETATM    7  C9  UNL     1     -33.470  17.804  -5.398  1.00 20.00     0.010 C 
HETATM    8  C10 UNL     1     -32.696  14.913  -3.814  1.00 20.00     0.015 C 
HETATM    9  C11 UNL     1     -34.647  13.392  -3.965  1.00 20.00     0.015 C 
ENDROOT
BRANCH   5  10
HETATM   10  O12 UNL     1     -35.405  17.445  -1.345  1.00 20.00    -0.359 OA
BRANCH  10  11
HETATM   11  C2  UNL     1     -34.814  17.107  -0.208  1.00 20.00     0.125 C 
HETATM   12  C1  UNL     1     -35.186  17.530   1.003  1.00 20.00     0.037 C 
ENDBRANCH  10  11
ENDBRANCH   5  10
TORSDOF 2
ENDMDL
MODEL 7
REMARK VINA RESULT:      -4.2      1.754      3.656
REMARK  2 active torsions:
REMARK  status: ('A' for Active; 'I' for Inactive)
REMARK    1  A    between atoms: C2_2  and  O12_12 
REMARK    2  A    between atoms: C7_7  and  O12_12 
ROOT
HETATM    1  C3  UNL     1     -36.925  15.698  -3.079  1.00 20.00     0.036 C 
HETATM    2  C4  UNL     1     -35.623  13.866  -4.265  1.00 20.00     0.013 C 
HETATM    3  C5  UNL     1     -34.414  15.628  -2.893  1.00 20.00     0.041 C 
HETATM    4  C6  UNL     1     -36.914  14.704  -4.244  1.00 20.00    -0.015 C 
HETATM    5  C7  UNL     1     -35.646  16.527  -2.987  1.00 20.00     0.128 C 
HETATM    6  C8  UNL     1     -34.290  14.629  -4.061  1.00 20.00    -0.045 C 
HETATM    7  C9  UNL     1     -37.222  15.386  -5.579  1.00 20.00     0.010 C 
HETATM    8  C10 UNL     1     -33.844  15.351  -5.346  1.00 20.00     0.015 C 
HETATM    9  C11 UNL     1     -33.190  13.601  -3.717  1.00 20.00     0.015 C 
ENDROOT
BRANCH   5  10
HETATM   10  O12 UNL     1     -35.696  17.338  -1.816  1.00 20.00    -0.359 OA
BRANCH  10  11
HETATM   11  C2  UNL     1     -34.892  16.955  -0.835  1.00 20.00     0.125 C 
HETATM   12  C1  UNL     1     -34.962  17.388   0.427  1.00 20.00     0.037 C 
ENDBRANCH  10  11
ENDBRANCH   5  10
TORSDOF 2
ENDMDL
MODEL 8
REMARK VINA RESULT:      -4.2      1.124      2.035
REMARK  2 active torsions:
REMARK  status: ('A' for Active; 'I' for Inactive)
REMARK    1  A    between atoms: C2_2  and  O12_12 
REMARK    2  A    between atoms: C7_7  and  O12_12 
ROOT
HETATM    1  C3  UNL     1     -36.620  15.600  -5.360  1.00 20.00     0.036 C 
HETATM    2  C4  UNL     1     -34.091  15.706  -5.135  1.00 20.00     0.013 C 
HETATM    3  C5  UNL     1     -35.463  14.216  -3.603  1.00 20.00     0.041 C 
HETATM    4  C6  UNL     1     -35.363  16.442  -5.593  1.00 20.00    -0.015 C 
HETATM    5  C7  UNL     1     -36.708  15.033  -3.946  1.00 20.00     0.128 C 
HETATM    6  C8  UNL     1     -34.147  15.006  -3.754  1.00 20.00    -0.045 C 
HETATM    7  C9  UNL     1     -35.501  17.848  -5.005  1.00 20.00     0.010 C 
HETATM    8  C10 UNL     1     -33.983  16.011  -2.598  1.00 20.00     0.015 C 
HETATM    9  C11 UNL     1     -32.964  14.018  -3.661  1.00 20.00     0.015 C 
ENDROOT
BRANCH   5  10
HETATM   10  O12 UNL     1     -37.843  14.175  -3.853  1.00 20.00    -0.359 OA
BRANCH  10  11
HETATM   11  C2  UNL     1     -39.015  14.789  -3.928  1.00 20.00     0.125 C 
HETATM   12  C1  UNL     1     -40.022  14.422  -4.725  1.00 20.00     0.037 C 
ENDBRANCH  10  11
ENDBRANCH   5  10
TORSDOF 2
ENDMDL
MODEL 9
REMARK VINA RESULT:      -4.1      0.846      2.806
REMARK  2 active torsions:
REMARK  status: ('A' for Active; 'I' for Inactive)
REMARK    1  A    between atoms: C2_2  and  O12_12 
REMARK    2  A    between atoms: C7_7  and  O12_12 
ROOT
HETATM    1  C3  UNL     1     -36.671  16.215  -3.118  1.00 20.00     0.036 C 
HETATM    2  C4  UNL     1     -34.564  16.376  -4.528  1.00 20.00     0.013 C 
HETATM    3  C5  UNL     1     -36.236  14.503  -4.914  1.00 20.00     0.041 C 
HETATM    4  C6  UNL     1     -35.227  16.722  -3.184  1.00 20.00    -0.015 C 
HETATM    5  C7  UNL     1     -36.811  14.749  -3.519  1.00 20.00     0.128 C 
HETATM    6  C8  UNL     1     -34.761  14.932  -5.055  1.00 20.00    -0.045 C 
HETATM    7  C9  UNL     1     -34.412  16.279  -1.967  1.00 20.00     0.010 C 
HETATM    8  C10 UNL     1     -33.835  13.932  -4.339  1.00 20.00     0.015 C 
HETATM    9  C11 UNL     1     -34.381  14.905  -6.553  1.00 20.00     0.015 C 
ENDROOT
BRANCH   5  10
HETATM   10  O12 UNL     1     -38.192  14.397  -3.539  1.00 20.00    -0.359 OA
BRANCH  10  11
HETATM   11  C2  UNL     1     -38.883  14.898  -4.553  1.00 20.00     0.125 C 
HETATM   12  C1  UNL     1     -40.049  14.421  -4.996  1.00 20.00     0.037 C 
ENDBRANCH  10  11
ENDBRANCH   5  10
TORSDOF 2
ENDMDL
