MODEL 1
REMARK VINA RESULT:      -4.7      0.000      0.000
REMARK  0 active torsions:
REMARK  status: ('A' for Active; 'I' for Inactive)
ROOT
HETATM    1  C1  UNL     1     -34.975  13.551  -4.414  1.00 20.00    -0.030 C 
HETATM    2  C2  UNL     1     -33.929  13.860  -3.636  1.00 20.00    -0.023 C 
HETATM    3  C3  UNL     1     -34.280  16.939  -4.176  1.00 20.00     0.150 C 
HETATM    4  C4  UNL     1     -35.455  14.396  -5.553  1.00 20.00     0.027 C 
HETATM    5  C5  UNL     1     -34.344  15.245  -6.168  1.00 20.00     0.016 C 
HETATM    6  C6  UNL     1     -33.177  15.134  -3.823  1.00 20.00     0.045 C 
HETATM    7  C7  UNL     1     -33.532  15.961  -5.103  1.00 20.00     0.067 C 
HETATM    8  C8  UNL     1     -33.626  16.334  -2.915  1.00 20.00     0.160 C 
HETATM    9  O9  UNL     1     -35.070  17.839  -4.369  1.00 20.00    -0.296 OA
HETATM   10 CL10 UNL     1     -34.744  16.099  -1.545  1.00 20.00    -0.116 Cl
ENDROOT
TORSDOF 0
ENDMDL
MODEL 2
REMARK VINA RESULT:      -4.6      2.201      3.052
REMARK  0 active torsions:
REMARK  status: ('A' for Active; 'I' for Inactive)
ROOT
HETATM    1  C1  UNL     1     -33.984  15.976  -6.746  1.00 20.00    -0.030 C 
HETATM    2  C2  UNL     1     -33.997  16.485  -5.507  1.00 20.00    -0.023 C 
HETATM    3  C3  UNL     1     -35.063  13.792  -4.279  1.00 20.00     0.150 C 
HETATM    4  C4  UNL     1     -34.869  14.859  -7.206  1.00 20.00     0.027 C 
HETATM    5  C5  UNL     1     -36.180  14.785  -6.426  1.00 20.00     0.016 C 
HETATM    6  C6  UNL     1     -34.885  15.923  -4.450  1.00 20.00     0.045 C 
HETATM    7  C7  UNL     1     -35.946  14.876  -4.928  1.00 20.00     0.067 C 
HETATM    8  C8  UNL     1     -34.236  14.846  -3.510  1.00 20.00     0.160 C 
HETATM    9  O9  UNL     1     -35.037  12.582  -4.345  1.00 20.00    -0.296 OA
HETATM   10 CL10 UNL     1     -32.477  14.546  -3.511  1.00 20.00    -0.116 Cl
ENDROOT
TORSDOF 0
ENDMDL
MODEL 3
REMARK VINA RESULT:      -4.6      2.174      3.474
REMARK  0 active torsions:
REMARK  status: ('A' for Active; 'I' for Inactive)
ROOT
HETATM    1  C1  UNL     1     -33.257  16.235  -4.566  1.00 20.00    -0.030 C 
HETATM    2  C2  UNL     1     -33.738  16.004  -5.795  1.00 20.00    -0.023 C 
HETATM    3  C3  UNL     1     -36.039  14.170  -4.683  1.00 20.00     0.150 C 
HETATM    4  C4  UNL     1     -33.424  15.301  -3.408  1.00 20.00     0.027 C 
HETATM    5  C5  UNL     1     -33.583  13.845  -3.842  1.00 20.00     0.016 C 
HETATM    6  C6  UNL     1     -34.544  14.787  -6.093  1.00 20.00     0.045 C 
HETATM    7  C7  UNL     1     -34.597  13.704  -4.965  1.00 20.00     0.067 C 
HETATM    8  C8  UNL     1     -36.103  14.959  -6.009  1.00 20.00     0.160 C 
HETATM    9  O9  UNL     1     -36.818  13.981  -3.774  1.00 20.00    -0.296 OA
HETATM   10 CL10 UNL     1     -36.857  16.570  -5.873  1.00 20.00    -0.116 Cl
ENDROOT
TORSDOF 0
ENDMDL
MODEL 4
REMARK VINA RESULT:      -4.6      2.129      3.216
REMARK  0 active torsions:
REMARK  status: ('A' for Active; 'I' for Inactive)
ROOT
HETATM    1  C1  UNL     1     -32.941  14.791  -3.478  1.00 20.00    -0.030 C 
HETATM    2  C2  UNL     1     -33.660  13.803  -4.026  1.00 20.00    -0.023 C 
HETATM    3  C3  UNL     1     -36.029  15.748  -4.729  1.00 20.00     0.150 C 
HETATM    4  C4  UNL     1     -33.534  16.028  -2.876  1.00 20.00     0.027 C 
HETATM    5  C5  UNL     1     -34.949  15.808  -2.348  1.00 20.00     0.016 C 
HETATM    6  C6  UNL     1     -35.144  13.890  -4.125  1.00 20.00     0.045 C 
HETATM    7  C7  UNL     1     -35.816  15.076  -3.358  1.00 20.00     0.067 C 
HETATM    8  C8  UNL     1     -35.709  14.439  -5.484  1.00 20.00     0.160 C 
HETATM    9  O9  UNL     1     -36.336  16.869  -5.076  1.00 20.00    -0.296 OA
HETATM   10 CL10 UNL     1     -34.662  14.648  -6.913  1.00 20.00    -0.116 Cl
ENDROOT
TORSDOF 0
ENDMDL
MODEL 5
REMARK VINA RESULT:      -4.6      1.861      2.318
REMARK  0 active torsions:
REMARK  status: ('A' for Active; 'I' for Inactive)
ROOT
HETATM    1  C1  UNL     1     -35.798  13.697  -4.343  1.00 20.00    -0.030 C 
HETATM    2  C2  UNL     1     -36.138  14.701  -3.524  1.00 20.00    -0.023 C 
HETATM    3  C3  UNL     1     -33.579  16.360  -4.292  1.00 20.00     0.150 C 
HETATM    4  C4  UNL     1     -34.391  13.381  -4.746  1.00 20.00     0.027 C 
HETATM    5  C5  UNL     1     -33.365  13.820  -3.705  1.00 20.00     0.016 C 
HETATM    6  C6  UNL     1     -35.112  15.635  -2.980  1.00 20.00     0.045 C 
HETATM    7  C7  UNL     1     -33.620  15.241  -3.233  1.00 20.00     0.067 C 
HETATM    8  C8  UNL     1     -34.905  16.968  -3.784  1.00 20.00     0.160 C 
HETATM    9  O9  UNL     1     -32.801  16.650  -5.176  1.00 20.00    -0.296 OA
HETATM   10 CL10 UNL     1     -36.032  17.464  -5.074  1.00 20.00    -0.116 Cl
ENDROOT
TORSDOF 0
ENDMDL
MODEL 6
REMARK VINA RESULT:      -4.5      2.395      3.558
REMARK  0 active torsions:
REMARK  status: ('A' for Active; 'I' for Inactive)
ROOT
HETATM    1  C1  UNL     1     -34.023  17.196  -4.378  1.00 20.00    -0.030 C 
HETATM    2  C2  UNL     1     -33.334  16.133  -4.812  1.00 20.00    -0.023 C 
HETATM    3  C3  UNL     1     -35.638  14.152  -4.001  1.00 20.00     0.150 C 
HETATM    4  C4  UNL     1     -35.067  17.141  -3.306  1.00 20.00     0.027 C 
HETATM    5  C5  UNL     1     -34.844  15.994  -2.323  1.00 20.00     0.016 C 
HETATM    6  C6  UNL     1     -33.602  14.767  -4.279  1.00 20.00     0.045 C 
HETATM    7  C7  UNL     1     -34.557  14.688  -3.042  1.00 20.00     0.067 C 
HETATM    8  C8  UNL     1     -34.601  13.889  -5.115  1.00 20.00     0.160 C 
HETATM    9  O9  UNL     1     -36.837  13.994  -3.909  1.00 20.00    -0.296 OA
HETATM   10 CL10 UNL     1     -35.131  14.378  -6.746  1.00 20.00    -0.116 Cl
ENDROOT
TORSDOF 0
ENDMDL
MODEL 7
REMARK VINA RESULT:      -4.4      2.791      3.729
REMARK  0 active torsions:
REMARK  status: ('A' for Active; 'I' for Inactive)
ROOT
HETATM    1  C1  UNL     1     -36.003  16.737  -4.112  1.00 20.00    -0.030 C 
HETATM    2  C2  UNL     1     -35.213  16.818  -5.191  1.00 20.00    -0.023 C 
HETATM    3  C3  UNL     1     -34.473  13.765  -5.032  1.00 20.00     0.150 C 
HETATM    4  C4  UNL     1     -35.835  15.725  -3.021  1.00 20.00     0.027 C 
HETATM    5  C5  UNL     1     -34.392  15.246  -2.878  1.00 20.00     0.016 C 
HETATM    6  C6  UNL     1     -34.108  15.843  -5.415  1.00 20.00     0.045 C 
HETATM    7  C7  UNL     1     -33.787  14.883  -4.222  1.00 20.00     0.067 C 
HETATM    8  C8  UNL     1     -34.454  14.611  -6.324  1.00 20.00     0.160 C 
HETATM    9  O9  UNL     1     -34.867  12.652  -4.757  1.00 20.00    -0.296 OA
HETATM   10 CL10 UNL     1     -35.964  14.545  -7.271  1.00 20.00    -0.116 Cl
ENDROOT
TORSDOF 0
ENDMDL
MODEL 8
REMARK VINA RESULT:      -4.4      1.970      2.894
REMARK  0 active torsions:
REMARK  status: ('A' for Active; 'I' for Inactive)
ROOT
HETATM    1  C1  UNL     1     -34.647  16.666  -6.130  1.00 20.00    -0.030 C 
HETATM    2  C2  UNL     1     -35.416  16.745  -5.036  1.00 20.00    -0.023 C 
HETATM    3  C3  UNL     1     -34.380  13.978  -3.957  1.00 20.00     0.150 C 
HETATM    4  C4  UNL     1     -34.181  15.380  -6.739  1.00 20.00     0.027 C 
HETATM    5  C5  UNL     1     -35.125  14.214  -6.453  1.00 20.00     0.016 C 
HETATM    6  C6  UNL     1     -35.831  15.521  -4.293  1.00 20.00     0.045 C 
HETATM    7  C7  UNL     1     -35.514  14.155  -4.986  1.00 20.00     0.067 C 
HETATM    8  C8  UNL     1     -34.926  15.120  -3.073  1.00 20.00     0.160 C 
HETATM    9  O9  UNL     1     -33.432  13.226  -3.875  1.00 20.00    -0.296 OA
HETATM   10 CL10 UNL     1     -33.677  16.223  -2.436  1.00 20.00    -0.116 Cl
ENDROOT
TORSDOF 0
ENDMDL
MODEL 9
REMARK VINA RESULT:      -4.4     11.996     13.422
REMARK  0 active torsions:
REMARK  status: ('A' for Active; 'I' for Inactive)
ROOT
HETATM    1  C1  UNL     1     -40.732   6.027  -0.133  1.00 20.00    -0.030 C 
HETATM    2  C2  UNL     1     -41.513   4.950   0.025  1.00 20.00    -0.023 C 
HETATM    3  C3  UNL     1     -43.153   5.603  -2.578  1.00 20.00     0.150 C 
HETATM    4  C4  UNL     1     -41.148   7.268  -0.861  1.00 20.00     0.027 C 
HETATM    5  C5  UNL     1     -42.659   7.489  -0.835  1.00 20.00     0.016 C 
HETATM    6  C6  UNL     1     -42.876   4.889  -0.575  1.00 20.00     0.045 C 
HETATM    7  C7  UNL     1     -43.416   6.222  -1.191  1.00 20.00     0.067 C 
HETATM    8  C8  UNL     1     -42.977   4.191  -1.978  1.00 20.00     0.160 C 
HETATM    9  O9  UNL     1     -43.109   6.054  -3.703  1.00 20.00    -0.296 OA
HETATM   10 CL10 UNL     1     -41.613   3.265  -2.659  1.00 20.00    -0.116 Cl
ENDROOT
TORSDOF 0
ENDMDL
