MODEL 1
REMARK VINA RESULT:      -4.6      0.000      0.000
REMARK  2 active torsions:
REMARK  status: ('A' for Active; 'I' for Inactive)
REMARK    1  A    between atoms: C2_2  and  O12_12 
REMARK    2  A    between atoms: C7_7  and  O12_12 
ROOT
HETATM    1  C3  UNL     1     -34.908  17.385  -3.705  1.00 20.00     0.036 C 
HETATM    2  C4  UNL     1     -34.004  15.654  -5.305  1.00 20.00     0.013 C 
HETATM    3  C5  UNL     1     -35.333  14.922  -3.270  1.00 20.00     0.041 C 
HETATM    4  C6  UNL     1     -33.756  17.022  -4.651  1.00 20.00    -0.015 C 
HETATM    5  C7  UNL     1     -35.154  16.309  -2.648  1.00 20.00     0.128 C 
HETATM    6  C8  UNL     1     -34.237  14.515  -4.286  1.00 20.00    -0.045 C 
HETATM    7  C9  UNL     1     -33.585  18.101  -5.722  1.00 20.00     0.010 C 
HETATM    8  C10 UNL     1     -34.717  13.260  -5.047  1.00 20.00     0.015 C 
HETATM    9  C11 UNL     1     -32.919  14.145  -3.578  1.00 20.00     0.015 C 
ENDROOT
BRANCH   5  10
HETATM   10  O12 UNL     1     -34.081  16.283  -1.712  1.00 20.00    -0.359 OA
BRANCH  10  11
HETATM   11  C2  UNL     1     -34.102  17.253  -0.809  1.00 20.00     0.125 C 
HETATM   12  C1  UNL     1     -34.920  17.298   0.245  1.00 20.00     0.037 C 
ENDBRANCH  10  11
ENDBRANCH   5  10
TORSDOF 2
ENDMDL
MODEL 2
REMARK VINA RESULT:      -4.4      1.358      3.835
REMARK  2 active torsions:
REMARK  status: ('A' for Active; 'I' for Inactive)
REMARK    1  A    between atoms: C2_2  and  O12_12 
REMARK    2  A    between atoms: C7_7  and  O12_12 
ROOT
HETATM    1  C3  UNL     1     -34.849  16.376  -1.507  1.00 20.00     0.036 C 
HETATM    2  C4  UNL     1     -33.998  18.260  -2.957  1.00 20.00     0.013 C 
HETATM    3  C5  UNL     1     -35.630  16.567  -3.913  1.00 20.00     0.041 C 
HETATM    4  C6  UNL     1     -33.653  17.285  -1.820  1.00 20.00    -0.015 C 
HETATM    5  C7  UNL     1     -35.347  15.624  -2.741  1.00 20.00     0.128 C 
HETATM    6  C8  UNL     1     -34.487  17.559  -4.245  1.00 20.00    -0.045 C 
HETATM    7  C9  UNL     1     -33.227  18.055  -0.569  1.00 20.00     0.010 C 
HETATM    8  C10 UNL     1     -35.034  18.629  -5.214  1.00 20.00     0.015 C 
HETATM    9  C11 UNL     1     -33.315  16.854  -4.955  1.00 20.00     0.015 C 
ENDROOT
BRANCH   5  10
HETATM   10  O12 UNL     1     -34.398  14.638  -3.134  1.00 20.00    -0.359 OA
BRANCH  10  11
HETATM   11  C2  UNL     1     -34.902  13.615  -3.811  1.00 20.00     0.125 C 
HETATM   12  C1  UNL     1     -34.524  13.251  -5.038  1.00 20.00     0.037 C 
ENDBRANCH  10  11
ENDBRANCH   5  10
TORSDOF 2
ENDMDL
MODEL 3
REMARK VINA RESULT:      -4.3      1.209      3.106
REMARK  2 active torsions:
REMARK  status: ('A' for Active; 'I' for Inactive)
REMARK    1  A    between atoms: C2_2  and  O12_12 
REMARK    2  A    between atoms: C7_7  and  O12_12 
ROOT
HETATM    1  C3  UNL     1     -33.553  15.021  -3.766  1.00 20.00     0.036 C 
HETATM    2  C4  UNL     1     -34.608  15.341  -6.038  1.00 20.00     0.013 C 
HETATM    3  C5  UNL     1     -33.593  17.327  -4.824  1.00 20.00     0.041 C 
HETATM    4  C6  UNL     1     -34.671  14.563  -4.714  1.00 20.00    -0.015 C 
HETATM    5  C7  UNL     1     -33.582  16.529  -3.518  1.00 20.00     0.128 C 
HETATM    6  C8  UNL     1     -34.657  16.876  -5.857  1.00 20.00    -0.045 C 
HETATM    7  C9  UNL     1     -34.567  13.060  -4.974  1.00 20.00     0.010 C 
HETATM    8  C10 UNL     1     -34.339  17.545  -7.211  1.00 20.00     0.015 C 
HETATM    9  C11 UNL     1     -36.072  17.327  -5.443  1.00 20.00     0.015 C 
ENDROOT
BRANCH   5  10
HETATM   10  O12 UNL     1     -34.716  16.877  -2.730  1.00 20.00    -0.359 OA
BRANCH  10  11
HETATM   11  C2  UNL     1     -34.726  16.365  -1.507  1.00 20.00     0.125 C 
HETATM   12  C1  UNL     1     -34.545  17.063  -0.384  1.00 20.00     0.037 C 
ENDBRANCH  10  11
ENDBRANCH   5  10
TORSDOF 2
ENDMDL
MODEL 4
REMARK VINA RESULT:      -4.3      1.705      4.062
REMARK  2 active torsions:
REMARK  status: ('A' for Active; 'I' for Inactive)
REMARK    1  A    between atoms: C2_2  and  O12_12 
REMARK    2  A    between atoms: C7_7  and  O12_12 
ROOT
HETATM    1  C3  UNL     1     -33.255  16.421  -5.165  1.00 20.00     0.036 C 
HETATM    2  C4  UNL     1     -34.210  17.727  -3.227  1.00 20.00     0.013 C 
HETATM    3  C5  UNL     1     -33.971  15.205  -3.056  1.00 20.00     0.041 C 
HETATM    4  C6  UNL     1     -34.102  17.634  -4.757  1.00 20.00    -0.015 C 
HETATM    5  C7  UNL     1     -33.786  15.115  -4.573  1.00 20.00     0.128 C 
HETATM    6  C8  UNL     1     -34.764  16.443  -2.567  1.00 20.00    -0.045 C 
HETATM    7  C9  UNL     1     -33.502  18.920  -5.328  1.00 20.00     0.010 C 
HETATM    8  C10 UNL     1     -34.594  16.560  -1.037  1.00 20.00     0.015 C 
HETATM    9  C11 UNL     1     -36.272  16.297  -2.850  1.00 20.00     0.015 C 
ENDROOT
BRANCH   5  10
HETATM   10  O12 UNL     1     -35.019  14.760  -5.189  1.00 20.00    -0.359 OA
BRANCH  10  11
HETATM   11  C2  UNL     1     -34.916  14.324  -6.437  1.00 20.00     0.125 C 
HETATM   12  C1  UNL     1     -35.749  14.645  -7.430  1.00 20.00     0.037 C 
ENDBRANCH  10  11
ENDBRANCH   5  10
TORSDOF 2
ENDMDL
MODEL 5
REMARK VINA RESULT:      -4.3      2.085      3.625
REMARK  2 active torsions:
REMARK  status: ('A' for Active; 'I' for Inactive)
REMARK    1  A    between atoms: C2_2  and  O12_12 
REMARK    2  A    between atoms: C7_7  and  O12_12 
ROOT
HETATM    1  C3  UNL     1     -36.171  16.961  -2.231  1.00 20.00     0.036 C 
HETATM    2  C4  UNL     1     -33.749  16.300  -2.501  1.00 20.00     0.013 C 
HETATM    3  C5  UNL     1     -35.330  16.144  -4.481  1.00 20.00     0.041 C 
HETATM    4  C6  UNL     1     -34.951  16.334  -1.544  1.00 20.00    -0.015 C 
HETATM    5  C7  UNL     1     -36.531  16.254  -3.538  1.00 20.00     0.128 C 
HETATM    6  C8  UNL     1     -34.041  15.576  -3.835  1.00 20.00    -0.045 C 
HETATM    7  C9  UNL     1     -34.599  17.107  -0.272  1.00 20.00     0.010 C 
HETATM    8  C10 UNL     1     -32.862  15.821  -4.801  1.00 20.00     0.015 C 
HETATM    9  C11 UNL     1     -34.144  14.054  -3.613  1.00 20.00     0.015 C 
ENDROOT
BRANCH   5  10
HETATM   10  O12 UNL     1     -37.054  14.957  -3.269  1.00 20.00    -0.359 OA
BRANCH  10  11
HETATM   11  C2  UNL     1     -38.234  14.705  -3.818  1.00 20.00     0.125 C 
HETATM   12  C1  UNL     1     -39.347  15.405  -3.593  1.00 20.00     0.037 C 
ENDBRANCH  10  11
ENDBRANCH   5  10
TORSDOF 2
ENDMDL
MODEL 6
REMARK VINA RESULT:      -4.2      1.496      3.783
REMARK  2 active torsions:
REMARK  status: ('A' for Active; 'I' for Inactive)
REMARK    1  A    between atoms: C2_2  and  O12_12 
REMARK    2  A    between atoms: C7_7  and  O12_12 
ROOT
HETATM    1  C3  UNL     1     -33.642  17.294  -3.087  1.00 20.00     0.036 C 
HETATM    2  C4  UNL     1     -34.682  15.003  -2.868  1.00 20.00     0.013 C 
HETATM    3  C5  UNL     1     -33.663  15.722  -5.079  1.00 20.00     0.041 C 
HETATM    4  C6  UNL     1     -34.757  16.472  -2.424  1.00 20.00    -0.015 C 
HETATM    5  C7  UNL     1     -33.663  17.180  -4.611  1.00 20.00     0.128 C 
HETATM    6  C8  UNL     1     -34.723  14.818  -4.402  1.00 20.00    -0.045 C 
HETATM    7  C9  UNL     1     -34.661  16.574  -0.901  1.00 20.00     0.010 C 
HETATM    8  C10 UNL     1     -34.393  13.346  -4.733  1.00 20.00     0.015 C 
HETATM    9  C11 UNL     1     -36.137  15.103  -4.944  1.00 20.00     0.015 C 
ENDROOT
BRANCH   5  10
HETATM   10  O12 UNL     1     -34.800  17.855  -5.140  1.00 20.00    -0.359 OA
BRANCH  10  11
HETATM   11  C2  UNL     1     -34.692  18.221  -6.410  1.00 20.00     0.125 C 
HETATM   12  C1  UNL     1     -33.786  19.078  -6.884  1.00 20.00     0.037 C 
ENDBRANCH  10  11
ENDBRANCH   5  10
TORSDOF 2
ENDMDL
MODEL 7
REMARK VINA RESULT:      -4.2      2.128      3.305
REMARK  2 active torsions:
REMARK  status: ('A' for Active; 'I' for Inactive)
REMARK    1  A    between atoms: C2_2  and  O12_12 
REMARK    2  A    between atoms: C7_7  and  O12_12 
ROOT
HETATM    1  C3  UNL     1     -35.999  14.740  -5.796  1.00 20.00     0.036 C 
HETATM    2  C4  UNL     1     -33.818  15.786  -5.073  1.00 20.00     0.013 C 
HETATM    3  C5  UNL     1     -34.670  13.702  -3.900  1.00 20.00     0.041 C 
HETATM    4  C6  UNL     1     -35.228  16.055  -5.620  1.00 20.00    -0.015 C 
HETATM    5  C7  UNL     1     -36.059  13.923  -4.505  1.00 20.00     0.128 C 
HETATM    6  C8  UNL     1     -33.810  14.982  -3.753  1.00 20.00    -0.045 C 
HETATM    7  C9  UNL     1     -35.150  16.809  -6.948  1.00 20.00     0.010 C 
HETATM    8  C10 UNL     1     -32.358  14.562  -3.437  1.00 20.00     0.015 C 
HETATM    9  C11 UNL     1     -34.298  15.859  -2.583  1.00 20.00     0.015 C 
ENDROOT
BRANCH   5  10
HETATM   10  O12 UNL     1     -36.902  14.565  -3.554  1.00 20.00    -0.359 OA
BRANCH  10  11
HETATM   11  C2  UNL     1     -38.156  14.741  -3.948  1.00 20.00     0.125 C 
HETATM   12  C1  UNL     1     -39.081  15.426  -3.271  1.00 20.00     0.037 C 
ENDBRANCH  10  11
ENDBRANCH   5  10
TORSDOF 2
ENDMDL
MODEL 8
REMARK VINA RESULT:      -4.1      1.526      2.740
REMARK  2 active torsions:
REMARK  status: ('A' for Active; 'I' for Inactive)
REMARK    1  A    between atoms: C2_2  and  O12_12 
REMARK    2  A    between atoms: C7_7  and  O12_12 
ROOT
HETATM    1  C3  UNL     1     -33.659  15.748  -3.453  1.00 20.00     0.036 C 
HETATM    2  C4  UNL     1     -35.259  14.286  -4.748  1.00 20.00     0.013 C 
HETATM    3  C5  UNL     1     -35.740  16.765  -4.489  1.00 20.00     0.041 C 
HETATM    4  C6  UNL     1     -34.284  14.350  -3.562  1.00 20.00    -0.015 C 
HETATM    5  C7  UNL     1     -34.712  16.851  -3.357  1.00 20.00     0.128 C 
HETATM    6  C8  UNL     1     -36.366  15.364  -4.698  1.00 20.00    -0.045 C 
HETATM    7  C9  UNL     1     -33.194  13.288  -3.709  1.00 20.00     0.010 C 
HETATM    8  C10 UNL     1     -37.122  15.361  -6.044  1.00 20.00     0.015 C 
HETATM    9  C11 UNL     1     -37.393  15.034  -3.596  1.00 20.00     0.015 C 
ENDROOT
BRANCH   5  10
HETATM   10  O12 UNL     1     -35.375  16.792  -2.099  1.00 20.00    -0.359 OA
BRANCH  10  11
HETATM   11  C2  UNL     1     -34.574  16.816  -1.043  1.00 20.00     0.125 C 
HETATM   12  C1  UNL     1     -34.932  17.214   0.180  1.00 20.00     0.037 C 
ENDBRANCH  10  11
ENDBRANCH   5  10
TORSDOF 2
ENDMDL
MODEL 9
REMARK VINA RESULT:      -4.1      1.882      2.936
REMARK  2 active torsions:
REMARK  status: ('A' for Active; 'I' for Inactive)
REMARK    1  A    between atoms: C2_2  and  O12_12 
REMARK    2  A    between atoms: C7_7  and  O12_12 
ROOT
HETATM    1  C3  UNL     1     -36.525  14.746  -3.749  1.00 20.00     0.036 C 
HETATM    2  C4  UNL     1     -36.465  15.596  -6.125  1.00 20.00     0.013 C 
HETATM    3  C5  UNL     1     -34.518  14.244  -5.217  1.00 20.00     0.041 C 
HETATM    4  C6  UNL     1     -36.933  15.887  -4.691  1.00 20.00    -0.015 C 
HETATM    5  C7  UNL     1     -35.023  14.466  -3.789  1.00 20.00     0.128 C 
HETATM    6  C8  UNL     1     -34.947  15.327  -6.238  1.00 20.00    -0.045 C 
HETATM    7  C9  UNL     1     -38.447  16.093  -4.655  1.00 20.00     0.010 C 
HETATM    8  C10 UNL     1     -34.640  14.808  -7.660  1.00 20.00     0.015 C 
HETATM    9  C11 UNL     1     -34.150  16.632  -6.045  1.00 20.00     0.015 C 
ENDROOT
BRANCH   5  10
HETATM   10  O12 UNL     1     -34.305  15.537  -3.185  1.00 20.00    -0.359 OA
BRANCH  10  11
HETATM   11  C2  UNL     1     -34.721  15.875  -1.972  1.00 20.00     0.125 C 
HETATM   12  C1  UNL     1     -34.219  16.874  -1.243  1.00 20.00     0.037 C 
ENDBRANCH  10  11
ENDBRANCH   5  10
TORSDOF 2
ENDMDL
