MODEL 1
REMARK VINA RESULT:      -3.7      0.000      0.000
REMARK  0 active torsions:
REMARK  status: ('A' for Active; 'I' for Inactive)
ROOT
HETATM    1  C1  UNL     1     -33.648   5.729   4.051  1.00 20.00     0.102 C 
HETATM    2  C2  UNL     1     -34.493   5.951   6.357  1.00 20.00     0.068 C 
HETATM    3  C3  UNL     1     -34.591   3.740   5.163  1.00 20.00     0.068 C 
HETATM    4  C4  UNL     1     -34.650   5.254   5.014  1.00 20.00     0.183 C 
HETATM    5  N5  UNL     1     -32.858   6.106   3.289  1.00 20.00    -0.194 NA
HETATM    6  F6  UNL     1     -35.881   5.575   4.521  1.00 20.00    -0.228 F 
ENDROOT
TORSDOF 0
ENDMDL
MODEL 2
REMARK VINA RESULT:      -3.6      1.351      1.879
REMARK  0 active torsions:
REMARK  status: ('A' for Active; 'I' for Inactive)
ROOT
HETATM    1  C1  UNL     1     -33.222   5.999   4.096  1.00 20.00     0.102 C 
HETATM    2  C2  UNL     1     -35.558   5.237   4.309  1.00 20.00     0.068 C 
HETATM    3  C3  UNL     1     -34.341   6.204   6.285  1.00 20.00     0.068 C 
HETATM    4  C4  UNL     1     -34.213   5.398   5.000  1.00 20.00     0.183 C 
HETATM    5  N5  UNL     1     -32.439   6.472   3.382  1.00 20.00    -0.194 NA
HETATM    6  F6  UNL     1     -33.764   4.153   5.333  1.00 20.00    -0.228 F 
ENDROOT
TORSDOF 0
ENDMDL
MODEL 3
REMARK VINA RESULT:      -3.5      1.512      2.199
REMARK  0 active torsions:
REMARK  status: ('A' for Active; 'I' for Inactive)
ROOT
HETATM    1  C1  UNL     1     -34.322   6.053   5.639  1.00 20.00     0.102 C 
HETATM    2  C2  UNL     1     -34.811   3.732   4.962  1.00 20.00     0.068 C 
HETATM    3  C3  UNL     1     -33.965   5.405   3.286  1.00 20.00     0.068 C 
HETATM    4  C4  UNL     1     -34.796   5.195   4.544  1.00 20.00     0.183 C 
HETATM    5  N5  UNL     1     -33.949   6.731   6.504  1.00 20.00    -0.194 NA
HETATM    6  F6  UNL     1     -36.079   5.560   4.261  1.00 20.00    -0.228 F 
ENDROOT
TORSDOF 0
ENDMDL
MODEL 4
REMARK VINA RESULT:      -3.5     12.415     12.970
REMARK  0 active torsions:
REMARK  status: ('A' for Active; 'I' for Inactive)
ROOT
HETATM    1  C1  UNL     1     -34.155  13.808  -4.200  1.00 20.00     0.102 C 
HETATM    2  C2  UNL     1     -34.072  15.686  -2.603  1.00 20.00     0.068 C 
HETATM    3  C3  UNL     1     -33.356  16.003  -4.993  1.00 20.00     0.068 C 
HETATM    4  C4  UNL     1     -33.437  15.034  -3.823  1.00 20.00     0.183 C 
HETATM    5  N5  UNL     1     -34.720  12.840  -4.498  1.00 20.00    -0.194 NA
HETATM    6  F6  UNL     1     -32.163  14.678  -3.488  1.00 20.00    -0.228 F 
ENDROOT
TORSDOF 0
ENDMDL
MODEL 5
REMARK VINA RESULT:      -3.4      1.969      2.291
REMARK  0 active torsions:
REMARK  status: ('A' for Active; 'I' for Inactive)
ROOT
HETATM    1  C1  UNL     1     -34.126   6.258   5.886  1.00 20.00     0.102 C 
HETATM    2  C2  UNL     1     -35.561   5.712   3.956  1.00 20.00     0.068 C 
HETATM    3  C3  UNL     1     -34.799   3.911   5.537  1.00 20.00     0.068 C 
HETATM    4  C4  UNL     1     -34.448   5.238   4.879  1.00 20.00     0.183 C 
HETATM    5  N5  UNL     1     -33.870   7.065   6.681  1.00 20.00    -0.194 NA
HETATM    6  F6  UNL     1     -33.332   5.044   4.118  1.00 20.00    -0.228 F 
ENDROOT
TORSDOF 0
ENDMDL
MODEL 6
REMARK VINA RESULT:      -3.3      1.825      2.581
REMARK  0 active torsions:
REMARK  status: ('A' for Active; 'I' for Inactive)
ROOT
HETATM    1  C1  UNL     1     -34.677   4.792   4.844  1.00 20.00     0.102 C 
HETATM    2  C2  UNL     1     -32.827   6.054   3.809  1.00 20.00     0.068 C 
HETATM    3  C3  UNL     1     -33.722   6.709   6.067  1.00 20.00     0.068 C 
HETATM    4  C4  UNL     1     -34.056   6.117   4.705  1.00 20.00     0.183 C 
HETATM    5  N5  UNL     1     -35.168   3.746   4.952  1.00 20.00    -0.194 NA
HETATM    6  F6  UNL     1     -34.966   6.937   4.106  1.00 20.00    -0.228 F 
ENDROOT
TORSDOF 0
ENDMDL
MODEL 7
REMARK VINA RESULT:      -3.2     12.346     12.972
REMARK  0 active torsions:
REMARK  status: ('A' for Active; 'I' for Inactive)
ROOT
HETATM    1  C1  UNL     1     -36.140  14.089  -4.235  1.00 20.00     0.102 C 
HETATM    2  C2  UNL     1     -33.732  13.983  -3.713  1.00 20.00     0.068 C 
HETATM    3  C3  UNL     1     -34.523  14.808  -5.953  1.00 20.00     0.068 C 
HETATM    4  C4  UNL     1     -34.799  13.864  -4.791  1.00 20.00     0.183 C 
HETATM    5  N5  UNL     1     -37.200  14.265  -3.796  1.00 20.00    -0.194 NA
HETATM    6  F6  UNL     1     -34.762  12.588  -5.274  1.00 20.00    -0.228 F 
ENDROOT
TORSDOF 0
ENDMDL
MODEL 8
REMARK VINA RESULT:      -3.2      8.815      9.098
REMARK  0 active torsions:
REMARK  status: ('A' for Active; 'I' for Inactive)
ROOT
HETATM    1  C1  UNL     1     -42.400   5.648   0.466  1.00 20.00     0.102 C 
HETATM    2  C2  UNL     1     -41.412   7.054  -1.303  1.00 20.00     0.068 C 
HETATM    3  C3  UNL     1     -40.735   4.645  -1.052  1.00 20.00     0.068 C 
HETATM    4  C4  UNL     1     -41.192   5.905  -0.331  1.00 20.00     0.183 C 
HETATM    5  N5  UNL     1     -43.353   5.446   1.097  1.00 20.00    -0.194 NA
HETATM    6  F6  UNL     1     -40.201   6.274   0.531  1.00 20.00    -0.228 F 
ENDROOT
TORSDOF 0
ENDMDL
MODEL 9
REMARK VINA RESULT:      -3.1     13.422     14.246
REMARK  0 active torsions:
REMARK  status: ('A' for Active; 'I' for Inactive)
ROOT
HETATM    1  C1  UNL     1     -34.729  13.718  -5.285  1.00 20.00     0.102 C 
HETATM    2  C2  UNL     1     -33.806  16.002  -5.407  1.00 20.00     0.068 C 
HETATM    3  C3  UNL     1     -36.065  15.478  -6.381  1.00 20.00     0.068 C 
HETATM    4  C4  UNL     1     -34.669  14.948  -6.086  1.00 20.00     0.183 C 
HETATM    5  N5  UNL     1     -34.775  12.745  -4.653  1.00 20.00    -0.194 NA
HETATM    6  F6  UNL     1     -34.082  14.635  -7.278  1.00 20.00    -0.228 F 
ENDROOT
TORSDOF 0
ENDMDL
