MODEL 1
REMARK VINA RESULT:      -3.8      0.000      0.000
REMARK  0 active torsions:
REMARK  status: ('A' for Active; 'I' for Inactive)
ROOT
HETATM    1  C1  UNL     1     -33.239   6.559   5.409  1.00 20.00     0.026 C 
HETATM    2  C2  UNL     1     -34.314   5.391   3.413  1.00 20.00     0.026 C 
HETATM    3  C3  UNL     1     -34.313   6.102   6.388  1.00 20.00     0.075 C 
HETATM    4  C4  UNL     1     -35.475   4.838   4.231  1.00 20.00     0.075 C 
HETATM    5  C5  UNL     1     -33.764   6.695   3.982  1.00 20.00     0.059 C 
HETATM    6  S6  UNL     1     -34.987   4.475   5.941  1.00 20.00    -0.169 SA
HETATM    7 BR7  UNL     1     -32.302   7.315   2.832  1.00 20.00    -0.091 Br
ENDROOT
TORSDOF 0
ENDMDL
MODEL 2
REMARK VINA RESULT:      -3.3     12.524     13.303
REMARK  0 active torsions:
REMARK  status: ('A' for Active; 'I' for Inactive)
ROOT
HETATM    1  C1  UNL     1     -33.791  17.016  -3.911  1.00 20.00     0.026 C 
HETATM    2  C2  UNL     1     -34.817  14.765  -3.292  1.00 20.00     0.026 C 
HETATM    3  C3  UNL     1     -33.279  16.529  -5.261  1.00 20.00     0.075 C 
HETATM    4  C4  UNL     1     -34.388  14.096  -4.593  1.00 20.00     0.075 C 
HETATM    5  C5  UNL     1     -33.880  15.896  -2.878  1.00 20.00     0.059 C 
HETATM    6  S6  UNL     1     -34.367  15.265  -5.981  1.00 20.00    -0.169 SA
HETATM    7 BR7  UNL     1     -34.519  16.652  -1.185  1.00 20.00    -0.091 Br
ENDROOT
TORSDOF 0
ENDMDL
MODEL 3
REMARK VINA RESULT:      -3.2     12.213     12.963
REMARK  0 active torsions:
REMARK  status: ('A' for Active; 'I' for Inactive)
ROOT
HETATM    1  C1  UNL     1     -34.323  14.227  -3.450  1.00 20.00     0.026 C 
HETATM    2  C2  UNL     1     -35.607  16.270  -4.277  1.00 20.00     0.026 C 
HETATM    3  C3  UNL     1     -34.803  13.335  -4.588  1.00 20.00     0.075 C 
HETATM    4  C4  UNL     1     -36.191  15.543  -5.483  1.00 20.00     0.075 C 
HETATM    5  C5  UNL     1     -35.321  15.331  -3.108  1.00 20.00     0.059 C 
HETATM    6  S6  UNL     1     -35.060  14.275  -6.121  1.00 20.00    -0.169 SA
HETATM    7 BR7  UNL     1     -34.605  16.386  -1.618  1.00 20.00    -0.091 Br
ENDROOT
TORSDOF 0
ENDMDL
MODEL 4
REMARK VINA RESULT:      -3.2      9.501     10.485
REMARK  0 active torsions:
REMARK  status: ('A' for Active; 'I' for Inactive)
ROOT
HETATM    1  C1  UNL     1     -42.620   5.351  -2.763  1.00 20.00     0.026 C 
HETATM    2  C2  UNL     1     -40.786   4.528  -1.192  1.00 20.00     0.026 C 
HETATM    3  C3  UNL     1     -42.921   6.591  -1.930  1.00 20.00     0.075 C 
HETATM    4  C4  UNL     1     -40.938   5.703  -0.233  1.00 20.00     0.075 C 
HETATM    5  C5  UNL     1     -42.085   4.195  -1.921  1.00 20.00     0.059 C 
HETATM    6  S6  UNL     1     -41.435   7.221  -1.096  1.00 20.00    -0.169 SA
HETATM    7 BR7  UNL     1     -41.768   2.657  -3.096  1.00 20.00    -0.091 Br
ENDROOT
TORSDOF 0
ENDMDL
MODEL 5
REMARK VINA RESULT:      -3.1     12.860     13.653
REMARK  0 active torsions:
REMARK  status: ('A' for Active; 'I' for Inactive)
ROOT
HETATM    1  C1  UNL     1     -35.127  13.916  -5.118  1.00 20.00     0.026 C 
HETATM    2  C2  UNL     1     -34.124  16.125  -5.908  1.00 20.00     0.026 C 
HETATM    3  C3  UNL     1     -34.292  13.873  -3.844  1.00 20.00     0.075 C 
HETATM    4  C4  UNL     1     -33.209  16.261  -4.697  1.00 20.00     0.075 C 
HETATM    5  C5  UNL     1     -34.432  14.670  -6.249  1.00 20.00     0.059 C 
HETATM    6  S6  UNL     1     -33.948  15.538  -3.204  1.00 20.00    -0.169 SA
HETATM    7 BR7  UNL     1     -35.588  14.628  -7.834  1.00 20.00    -0.091 Br
ENDROOT
TORSDOF 0
ENDMDL
MODEL 6
REMARK VINA RESULT:      -3.1     12.881     13.621
REMARK  0 active torsions:
REMARK  status: ('A' for Active; 'I' for Inactive)
ROOT
HETATM    1  C1  UNL     1     -33.922  15.979  -6.046  1.00 20.00     0.026 C 
HETATM    2  C2  UNL     1     -34.807  13.707  -5.298  1.00 20.00     0.026 C 
HETATM    3  C3  UNL     1     -33.480  16.384  -4.645  1.00 20.00     0.075 C 
HETATM    4  C4  UNL     1     -34.436  13.928  -3.836  1.00 20.00     0.075 C 
HETATM    5  C5  UNL     1     -35.103  15.012  -6.032  1.00 20.00     0.059 C 
HETATM    6  S6  UNL     1     -32.946  14.952  -3.664  1.00 20.00    -0.169 SA
HETATM    7 BR7  UNL     1     -35.594  14.593  -7.884  1.00 20.00    -0.091 Br
ENDROOT
TORSDOF 0
ENDMDL
MODEL 7
REMARK VINA RESULT:      -3.1     12.806     13.636
REMARK  0 active torsions:
REMARK  status: ('A' for Active; 'I' for Inactive)
ROOT
HETATM    1  C1  UNL     1     -34.826  15.811  -5.914  1.00 20.00     0.026 C 
HETATM    2  C2  UNL     1     -33.422  15.668  -3.789  1.00 20.00     0.026 C 
HETATM    3  C3  UNL     1     -34.875  14.301  -6.107  1.00 20.00     0.075 C 
HETATM    4  C4  UNL     1     -33.358  14.146  -3.811  1.00 20.00     0.075 C 
HETATM    5  C5  UNL     1     -33.565  16.269  -5.185  1.00 20.00     0.059 C 
HETATM    6  S6  UNL     1     -34.860  13.415  -4.522  1.00 20.00    -0.169 SA
HETATM    7 BR7  UNL     1     -33.606  18.223  -5.026  1.00 20.00    -0.091 Br
ENDROOT
TORSDOF 0
ENDMDL
MODEL 8
REMARK VINA RESULT:      -3.0      9.465     10.383
REMARK  0 active torsions:
REMARK  status: ('A' for Active; 'I' for Inactive)
ROOT
HETATM    1  C1  UNL     1     -42.564   5.482  -2.652  1.00 20.00     0.026 C 
HETATM    2  C2  UNL     1     -41.651   7.338  -1.159  1.00 20.00     0.026 C 
HETATM    3  C3  UNL     1     -41.830   4.377  -1.904  1.00 20.00     0.075 C 
HETATM    4  C4  UNL     1     -40.843   6.382  -0.290  1.00 20.00     0.075 C 
HETATM    5  C5  UNL     1     -41.835   6.822  -2.583  1.00 20.00     0.059 C 
HETATM    6  S6  UNL     1     -41.647   4.761  -0.138  1.00 20.00    -0.169 SA
HETATM    7 BR7  UNL     1     -42.859   8.147  -3.604  1.00 20.00    -0.091 Br
ENDROOT
TORSDOF 0
ENDMDL
MODEL 9
REMARK VINA RESULT:      -2.9      9.761     10.608
REMARK  0 active torsions:
REMARK  status: ('A' for Active; 'I' for Inactive)
ROOT
HETATM    1  C1  UNL     1     -41.547   4.639  -0.866  1.00 20.00     0.026 C 
HETATM    2  C2  UNL     1     -42.805   5.606  -2.863  1.00 20.00     0.026 C 
HETATM    3  C3  UNL     1     -40.775   5.925  -0.597  1.00 20.00     0.075 C 
HETATM    4  C4  UNL     1     -42.135   6.971  -2.755  1.00 20.00     0.075 C 
HETATM    5  C5  UNL     1     -41.923   4.477  -2.337  1.00 20.00     0.059 C 
HETATM    6  S6  UNL     1     -41.744   7.398  -1.034  1.00 20.00    -0.169 SA
HETATM    7 BR7  UNL     1     -42.879   2.779  -2.557  1.00 20.00    -0.091 Br
ENDROOT
TORSDOF 0
ENDMDL
