MODEL 1
REMARK VINA RESULT:      -4.4      0.000      0.000
REMARK  1 active torsions:
REMARK  status: ('A' for Active; 'I' for Inactive)
REMARK    1  A    between atoms: C1_1  and  C5_5 
ROOT
HETATM    1  C2  UNL     1     -33.757   6.245   5.477  1.00 20.00     0.042 C 
HETATM    2  C3  UNL     1     -34.859   5.287   5.863  1.00 20.00     0.168 C 
HETATM    3  C4  UNL     1     -34.849   5.308   3.558  1.00 20.00     0.181 C 
HETATM    4  C5  UNL     1     -34.020   6.498   4.010  1.00 20.00     0.098 C 
HETATM    5  O7  UNL     1     -35.067   4.476   4.705  1.00 20.00    -0.390 OA
ENDROOT
BRANCH   4   6
HETATM    6  C1  UNL     1     -32.706   6.528   3.255  1.00 20.00     0.225 C 
HETATM    7  O6  UNL     1     -31.963   5.552   3.215  1.00 20.00    -0.279 OA
HETATM    8 CL8  UNL     1     -32.423   8.065   2.496  1.00 20.00    -0.043 Cl
ENDBRANCH   4   6
TORSDOF 1
ENDMDL
MODEL 2
REMARK VINA RESULT:      -4.1      2.455      3.427
REMARK  1 active torsions:
REMARK  status: ('A' for Active; 'I' for Inactive)
REMARK    1  A    between atoms: C1_1  and  C5_5 
ROOT
HETATM    1  C2  UNL     1     -34.829   5.315   3.667  1.00 20.00     0.042 C 
HETATM    2  C3  UNL     1     -33.962   5.273   2.432  1.00 20.00     0.168 C 
HETATM    3  C4  UNL     1     -32.845   6.641   3.913  1.00 20.00     0.181 C 
HETATM    4  C5  UNL     1     -34.257   6.477   4.448  1.00 20.00     0.098 C 
HETATM    5  O7  UNL     1     -32.663   5.666   2.878  1.00 20.00    -0.390 OA
ENDROOT
BRANCH   4   6
HETATM    6  C1  UNL     1     -34.213   6.127   5.922  1.00 20.00     0.225 C 
HETATM    7  O6  UNL     1     -33.695   6.873   6.747  1.00 20.00    -0.279 OA
HETATM    8 CL8  UNL     1     -34.962   4.594   6.253  1.00 20.00    -0.043 Cl
ENDBRANCH   4   6
TORSDOF 1
ENDMDL
MODEL 3
REMARK VINA RESULT:      -4.0      1.385      1.385
REMARK  1 active torsions:
REMARK  status: ('A' for Active; 'I' for Inactive)
REMARK    1  A    between atoms: C1_1  and  C5_5 
ROOT
HETATM    1  C2  UNL     1     -33.864   6.230   5.883  1.00 20.00     0.042 C 
HETATM    2  C3  UNL     1     -34.782   5.281   6.616  1.00 20.00     0.168 C 
HETATM    3  C4  UNL     1     -35.187   4.913   4.376  1.00 20.00     0.181 C 
HETATM    4  C5  UNL     1     -34.409   6.214   4.473  1.00 20.00     0.098 C 
HETATM    5  O7  UNL     1     -35.114   4.274   5.658  1.00 20.00    -0.390 OA
ENDROOT
BRANCH   4   6
HETATM    6  C1  UNL     1     -33.261   6.203   3.484  1.00 20.00     0.225 C 
HETATM    7  O6  UNL     1     -32.240   6.856   3.672  1.00 20.00    -0.279 OA
HETATM    8 CL8  UNL     1     -33.588   5.183   2.115  1.00 20.00    -0.043 Cl
ENDBRANCH   4   6
TORSDOF 1
ENDMDL
MODEL 4
REMARK VINA RESULT:      -4.0      2.217      3.568
REMARK  1 active torsions:
REMARK  status: ('A' for Active; 'I' for Inactive)
REMARK    1  A    between atoms: C1_1  and  C5_5 
ROOT
HETATM    1  C2  UNL     1     -33.789   5.319   2.885  1.00 20.00     0.042 C 
HETATM    2  C3  UNL     1     -32.701   6.345   2.684  1.00 20.00     0.168 C 
HETATM    3  C4  UNL     1     -33.575   6.787   4.770  1.00 20.00     0.181 C 
HETATM    4  C5  UNL     1     -34.554   5.859   4.073  1.00 20.00     0.098 C 
HETATM    5  O7  UNL     1     -32.366   6.795   3.998  1.00 20.00    -0.390 OA
ENDROOT
BRANCH   4   6
HETATM    6  C1  UNL     1     -34.930   4.718   4.997  1.00 20.00     0.225 C 
HETATM    7  O6  UNL     1     -35.235   3.611   4.565  1.00 20.00    -0.279 OA
HETATM    8 CL8  UNL     1     -34.871   5.186   6.670  1.00 20.00    -0.043 Cl
ENDBRANCH   4   6
TORSDOF 1
ENDMDL
MODEL 5
REMARK VINA RESULT:      -3.9     11.583     12.250
REMARK  1 active torsions:
REMARK  status: ('A' for Active; 'I' for Inactive)
REMARK    1  A    between atoms: C1_1  and  C5_5 
ROOT
HETATM    1  C2  UNL     1     -35.201  15.156  -2.964  1.00 20.00     0.042 C 
HETATM    2  C3  UNL     1     -34.498  16.401  -2.480  1.00 20.00     0.168 C 
HETATM    3  C4  UNL     1     -32.961  15.310  -3.807  1.00 20.00     0.181 C 
HETATM    4  C5  UNL     1     -34.071  14.316  -3.515  1.00 20.00     0.098 C 
HETATM    5  O7  UNL     1     -33.428  16.605  -3.405  1.00 20.00    -0.390 OA
ENDROOT
BRANCH   4   6
HETATM    6  C1  UNL     1     -34.515  13.647  -4.801  1.00 20.00     0.225 C 
HETATM    7  O6  UNL     1     -34.884  12.477  -4.825  1.00 20.00    -0.279 OA
HETATM    8 CL8  UNL     1     -34.426  14.723  -6.162  1.00 20.00    -0.043 Cl
ENDBRANCH   4   6
TORSDOF 1
ENDMDL
MODEL 6
REMARK VINA RESULT:      -3.7     11.927     13.043
REMARK  1 active torsions:
REMARK  status: ('A' for Active; 'I' for Inactive)
REMARK    1  A    between atoms: C1_1  and  C5_5 
ROOT
HETATM    1  C2  UNL     1     -34.399  15.149  -6.228  1.00 20.00     0.042 C 
HETATM    2  C3  UNL     1     -33.907  16.575  -6.275  1.00 20.00     0.168 C 
HETATM    3  C4  UNL     1     -34.044  16.053  -4.034  1.00 20.00     0.181 C 
HETATM    4  C5  UNL     1     -34.810  14.975  -4.783  1.00 20.00     0.098 C 
HETATM    5  O7  UNL     1     -33.295  16.799  -5.003  1.00 20.00    -0.390 OA
ENDROOT
BRANCH   4   6
HETATM    6  C1  UNL     1     -34.383  13.606  -4.294  1.00 20.00     0.225 C 
HETATM    7  O6  UNL     1     -35.100  12.620  -4.429  1.00 20.00    -0.279 OA
HETATM    8 CL8  UNL     1     -32.812  13.637  -3.551  1.00 20.00    -0.043 Cl
ENDBRANCH   4   6
TORSDOF 1
ENDMDL
MODEL 7
REMARK VINA RESULT:      -3.6     11.718     12.072
REMARK  1 active torsions:
REMARK  status: ('A' for Active; 'I' for Inactive)
REMARK    1  A    between atoms: C1_1  and  C5_5 
ROOT
HETATM    1  C2  UNL     1     -33.669  13.930  -3.815  1.00 20.00     0.042 C 
HETATM    2  C3  UNL     1     -34.507  13.240  -4.864  1.00 20.00     0.168 C 
HETATM    3  C4  UNL     1     -35.896  14.816  -3.915  1.00 20.00     0.181 C 
HETATM    4  C5  UNL     1     -34.695  14.680  -2.996  1.00 20.00     0.098 C 
HETATM    5  O7  UNL     1     -35.574  14.149  -5.143  1.00 20.00    -0.390 OA
ENDROOT
BRANCH   4   6
HETATM    6  C1  UNL     1     -34.158  16.053  -2.642  1.00 20.00     0.225 C 
HETATM    7  O6  UNL     1     -33.528  16.727  -3.451  1.00 20.00    -0.279 OA
HETATM    8 CL8  UNL     1     -34.544  16.506  -1.009  1.00 20.00    -0.043 Cl
ENDBRANCH   4   6
TORSDOF 1
ENDMDL
MODEL 8
REMARK VINA RESULT:      -3.6     11.293     12.207
REMARK  1 active torsions:
REMARK  status: ('A' for Active; 'I' for Inactive)
REMARK    1  A    between atoms: C1_1  and  C5_5 
ROOT
HETATM    1  C2  UNL     1     -35.430  14.834  -4.226  1.00 20.00     0.042 C 
HETATM    2  C3  UNL     1     -35.159  13.351  -4.298  1.00 20.00     0.168 C 
HETATM    3  C4  UNL     1     -33.154  14.307  -3.680  1.00 20.00     0.181 C 
HETATM    4  C5  UNL     1     -34.043  15.434  -4.176  1.00 20.00     0.098 C 
HETATM    5  O7  UNL     1     -33.984  13.150  -3.509  1.00 20.00    -0.390 OA
ENDROOT
BRANCH   4   6
HETATM    6  C1  UNL     1     -34.021  16.581  -3.185  1.00 20.00     0.225 C 
HETATM    7  O6  UNL     1     -33.617  17.697  -3.498  1.00 20.00    -0.279 OA
HETATM    8 CL8  UNL     1     -34.619  16.108  -1.623  1.00 20.00    -0.043 Cl
ENDBRANCH   4   6
TORSDOF 1
ENDMDL
MODEL 9
REMARK VINA RESULT:      -3.5     12.121     12.986
REMARK  1 active torsions:
REMARK  status: ('A' for Active; 'I' for Inactive)
REMARK    1  A    between atoms: C1_1  and  C5_5 
ROOT
HETATM    1  C2  UNL     1     -35.833  15.550  -4.823  1.00 20.00     0.042 C 
HETATM    2  C3  UNL     1     -36.682  15.918  -6.017  1.00 20.00     0.168 C 
HETATM    3  C4  UNL     1     -35.223  14.305  -6.781  1.00 20.00     0.181 C 
HETATM    4  C5  UNL     1     -34.688  14.780  -5.441  1.00 20.00     0.098 C 
HETATM    5  O7  UNL     1     -36.557  14.814  -6.915  1.00 20.00    -0.390 OA
ENDROOT
BRANCH   4   6
HETATM    6  C1  UNL     1     -34.348  13.587  -4.570  1.00 20.00     0.225 C 
HETATM    7  O6  UNL     1     -35.038  12.572  -4.567  1.00 20.00    -0.279 OA
HETATM    8 CL8  UNL     1     -32.915  13.856  -3.624  1.00 20.00    -0.043 Cl
ENDBRANCH   4   6
TORSDOF 1
ENDMDL
