MODEL 1
REMARK VINA RESULT:      -5.1      0.000      0.000
REMARK  0 active torsions:
REMARK  status: ('A' for Active; 'I' for Inactive)
ROOT
HETATM    1  C1  UNL     1     -34.671  14.889  -5.673  1.00 20.00    -0.013 C 
HETATM    2  C2  UNL     1     -34.711  15.963  -4.883  1.00 20.00    -0.066 C 
HETATM    3  C3  UNL     1     -34.666  13.749  -4.729  1.00 20.00     0.156 C 
HETATM    4  C4  UNL     1     -34.424  17.400  -5.154  1.00 20.00     0.036 C 
HETATM    5  C5  UNL     1     -34.548  14.205  -3.294  1.00 20.00     0.093 C 
HETATM    6  C6  UNL     1     -34.031  17.925  -3.762  1.00 20.00     0.009 C 
HETATM    7  C7  UNL     1     -34.809  15.695  -3.414  1.00 20.00     0.026 C 
HETATM    8  C8  UNL     1     -33.755  16.672  -2.904  1.00 20.00    -0.010 C 
HETATM    9  C9  UNL     1     -34.505  14.755  -7.134  1.00 20.00     0.052 C 
HETATM   10  C10 UNL     1     -33.862  16.938  -1.412  1.00 20.00     0.010 C 
HETATM   11  O11 UNL     1     -34.699  12.579  -5.085  1.00 20.00    -0.293 OA
ENDROOT
TORSDOF 0
ENDMDL
MODEL 2
REMARK VINA RESULT:      -4.8      1.864      2.993
REMARK  0 active torsions:
REMARK  status: ('A' for Active; 'I' for Inactive)
ROOT
HETATM    1  C1  UNL     1     -34.669  15.177  -6.858  1.00 20.00    -0.013 C 
HETATM    2  C2  UNL     1     -34.266  14.822  -5.637  1.00 20.00    -0.066 C 
HETATM    3  C3  UNL     1     -34.416  16.634  -6.910  1.00 20.00     0.156 C 
HETATM    4  C4  UNL     1     -34.525  13.598  -4.828  1.00 20.00     0.036 C 
HETATM    5  C5  UNL     1     -33.972  17.178  -5.573  1.00 20.00     0.093 C 
HETATM    6  C6  UNL     1     -34.347  14.111  -3.389  1.00 20.00     0.009 C 
HETATM    7  C7  UNL     1     -33.663  15.908  -4.803  1.00 20.00     0.026 C 
HETATM    8  C8  UNL     1     -34.385  15.650  -3.484  1.00 20.00    -0.010 C 
HETATM    9  C9  UNL     1     -35.362  14.418  -7.918  1.00 20.00     0.052 C 
HETATM   10  C10 UNL     1     -33.726  16.336  -2.299  1.00 20.00     0.010 C 
HETATM   11  O11 UNL     1     -34.600  17.315  -7.909  1.00 20.00    -0.293 OA
ENDROOT
TORSDOF 0
ENDMDL
MODEL 3
REMARK VINA RESULT:      -4.7      2.194      4.384
REMARK  0 active torsions:
REMARK  status: ('A' for Active; 'I' for Inactive)
ROOT
HETATM    1  C1  UNL     1     -35.191  16.177  -2.691  1.00 20.00    -0.013 C 
HETATM    2  C2  UNL     1     -35.198  15.126  -3.511  1.00 20.00    -0.066 C 
HETATM    3  C3  UNL     1     -35.814  17.258  -3.487  1.00 20.00     0.156 C 
HETATM    4  C4  UNL     1     -34.454  13.835  -3.467  1.00 20.00     0.036 C 
HETATM    5  C5  UNL     1     -36.062  16.835  -4.916  1.00 20.00     0.093 C 
HETATM    6  C6  UNL     1     -34.421  13.424  -4.950  1.00 20.00     0.009 C 
HETATM    7  C7  UNL     1     -35.849  15.334  -4.842  1.00 20.00     0.026 C 
HETATM    8  C8  UNL     1     -34.802  14.691  -5.744  1.00 20.00    -0.010 C 
HETATM    9  C9  UNL     1     -34.591  16.374  -1.356  1.00 20.00     0.052 C 
HETATM   10  C10 UNL     1     -35.323  14.385  -7.138  1.00 20.00     0.010 C 
HETATM   11  O11 UNL     1     -36.045  18.375  -3.045  1.00 20.00    -0.293 OA
ENDROOT
TORSDOF 0
ENDMDL
MODEL 4
REMARK VINA RESULT:      -4.6      2.052      3.797
REMARK  0 active torsions:
REMARK  status: ('A' for Active; 'I' for Inactive)
ROOT
HETATM    1  C1  UNL     1     -33.819  17.426  -2.734  1.00 20.00    -0.013 C 
HETATM    2  C2  UNL     1     -33.665  16.878  -3.940  1.00 20.00    -0.066 C 
HETATM    3  C3  UNL     1     -34.394  16.336  -1.915  1.00 20.00     0.156 C 
HETATM    4  C4  UNL     1     -33.442  17.488  -5.281  1.00 20.00     0.036 C 
HETATM    5  C5  UNL     1     -34.729  15.121  -2.747  1.00 20.00     0.093 C 
HETATM    6  C6  UNL     1     -33.999  16.412  -6.229  1.00 20.00     0.009 C 
HETATM    7  C7  UNL     1     -34.022  15.430  -4.054  1.00 20.00     0.026 C 
HETATM    8  C8  UNL     1     -34.835  15.465  -5.343  1.00 20.00    -0.010 C 
HETATM    9  C9  UNL     1     -33.646  18.814  -2.261  1.00 20.00     0.052 C 
HETATM   10  C10 UNL     1     -35.033  14.091  -5.962  1.00 20.00     0.010 C 
HETATM   11  O11 UNL     1     -34.618  16.439  -0.717  1.00 20.00    -0.293 OA
ENDROOT
TORSDOF 0
ENDMDL
MODEL 5
REMARK VINA RESULT:      -4.5      2.220      3.760
REMARK  0 active torsions:
REMARK  status: ('A' for Active; 'I' for Inactive)
ROOT
HETATM    1  C1  UNL     1     -33.639  17.752  -4.822  1.00 20.00    -0.013 C 
HETATM    2  C2  UNL     1     -33.741  16.518  -5.319  1.00 20.00    -0.066 C 
HETATM    3  C3  UNL     1     -33.690  17.554  -3.357  1.00 20.00     0.156 C 
HETATM    4  C4  UNL     1     -34.069  16.029  -6.687  1.00 20.00     0.036 C 
HETATM    5  C5  UNL     1     -33.988  16.119  -2.990  1.00 20.00     0.093 C 
HETATM    6  C6  UNL     1     -34.639  14.627  -6.408  1.00 20.00     0.009 C 
HETATM    7  C7  UNL     1     -33.792  15.409  -4.317  1.00 20.00     0.026 C 
HETATM    8  C8  UNL     1     -34.943  14.593  -4.895  1.00 20.00    -0.010 C 
HETATM    9  C9  UNL     1     -33.637  19.074  -5.479  1.00 20.00     0.052 C 
HETATM   10  C10 UNL     1     -35.015  13.182  -4.335  1.00 20.00     0.010 C 
HETATM   11  O11 UNL     1     -33.559  18.463  -2.548  1.00 20.00    -0.293 OA
ENDROOT
TORSDOF 0
ENDMDL
MODEL 6
REMARK VINA RESULT:      -4.5      1.291      2.555
REMARK  0 active torsions:
REMARK  status: ('A' for Active; 'I' for Inactive)
ROOT
HETATM    1  C1  UNL     1     -34.389  14.561  -4.844  1.00 20.00    -0.013 C 
HETATM    2  C2  UNL     1     -33.871  15.581  -4.159  1.00 20.00    -0.066 C 
HETATM    3  C3  UNL     1     -34.431  15.049  -6.239  1.00 20.00     0.156 C 
HETATM    4  C4  UNL     1     -33.847  15.880  -2.699  1.00 20.00     0.036 C 
HETATM    5  C5  UNL     1     -34.045  16.507  -6.340  1.00 20.00     0.093 C 
HETATM    6  C6  UNL     1     -33.712  17.413  -2.680  1.00 20.00     0.009 C 
HETATM    7  C7  UNL     1     -33.459  16.772  -4.965  1.00 20.00     0.026 C 
HETATM    8  C8  UNL     1     -34.057  17.882  -4.109  1.00 20.00    -0.010 C 
HETATM    9  C9  UNL     1     -34.965  13.276  -4.399  1.00 20.00     0.052 C 
HETATM   10  C10 UNL     1     -33.495  19.256  -4.436  1.00 20.00     0.010 C 
HETATM   11  O11 UNL     1     -34.790  14.361  -7.185  1.00 20.00    -0.293 OA
ENDROOT
TORSDOF 0
ENDMDL
MODEL 7
REMARK VINA RESULT:      -4.5      1.643      3.204
REMARK  0 active torsions:
REMARK  status: ('A' for Active; 'I' for Inactive)
ROOT
HETATM    1  C1  UNL     1     -33.711  14.742  -4.650  1.00 20.00    -0.013 C 
HETATM    2  C2  UNL     1     -33.803  15.793  -5.466  1.00 20.00    -0.066 C 
HETATM    3  C3  UNL     1     -34.632  13.746  -5.242  1.00 20.00     0.156 C 
HETATM    4  C4  UNL     1     -33.400  17.217  -5.290  1.00 20.00     0.036 C 
HETATM    5  C5  UNL     1     -35.418  14.321  -6.398  1.00 20.00     0.093 C 
HETATM    6  C6  UNL     1     -34.343  17.947  -6.263  1.00 20.00     0.009 C 
HETATM    7  C7  UNL     1     -34.678  15.618  -6.666  1.00 20.00     0.026 C 
HETATM    8  C8  UNL     1     -35.451  16.932  -6.615  1.00 20.00    -0.010 C 
HETATM    9  C9  UNL     1     -33.020  14.564  -3.357  1.00 20.00     0.052 C 
HETATM   10  C10 UNL     1     -36.163  17.257  -7.917  1.00 20.00     0.010 C 
HETATM   11  O11 UNL     1     -34.772  12.612  -4.805  1.00 20.00    -0.293 OA
ENDROOT
TORSDOF 0
ENDMDL
MODEL 8
REMARK VINA RESULT:      -4.4      2.017      2.770
REMARK  0 active torsions:
REMARK  status: ('A' for Active; 'I' for Inactive)
ROOT
HETATM    1  C1  UNL     1     -34.593  14.266  -3.910  1.00 20.00    -0.013 C 
HETATM    2  C2  UNL     1     -35.634  14.930  -3.406  1.00 20.00    -0.066 C 
HETATM    3  C3  UNL     1     -33.416  14.989  -3.379  1.00 20.00     0.156 C 
HETATM    4  C4  UNL     1     -37.076  14.937  -3.782  1.00 20.00     0.036 C 
HETATM    5  C5  UNL     1     -33.811  16.244  -2.636  1.00 20.00     0.093 C 
HETATM    6  C6  UNL     1     -37.538  16.319  -3.288  1.00 20.00     0.009 C 
HETATM    7  C7  UNL     1     -35.308  16.057  -2.478  1.00 20.00     0.026 C 
HETATM    8  C8  UNL     1     -36.248  17.124  -3.028  1.00 20.00    -0.010 C 
HETATM    9  C9  UNL     1     -34.515  13.169  -4.895  1.00 20.00     0.052 C 
HETATM   10  C10 UNL     1     -36.455  18.287  -2.072  1.00 20.00     0.010 C 
HETATM   11  O11 UNL     1     -32.262  14.632  -3.571  1.00 20.00    -0.293 OA
ENDROOT
TORSDOF 0
ENDMDL
MODEL 9
REMARK VINA RESULT:      -4.4      1.618      2.396
REMARK  0 active torsions:
REMARK  status: ('A' for Active; 'I' for Inactive)
ROOT
HETATM    1  C1  UNL     1     -33.949  14.444  -3.690  1.00 20.00    -0.013 C 
HETATM    2  C2  UNL     1     -34.383  15.690  -3.496  1.00 20.00    -0.066 C 
HETATM    3  C3  UNL     1     -35.151  13.712  -4.148  1.00 20.00     0.156 C 
HETATM    4  C4  UNL     1     -33.790  16.837  -2.753  1.00 20.00     0.036 C 
HETATM    5  C5  UNL     1     -36.395  14.566  -4.072  1.00 20.00     0.093 C 
HETATM    6  C6  UNL     1     -35.032  17.671  -2.390  1.00 20.00     0.009 C 
HETATM    7  C7  UNL     1     -35.814  15.950  -3.848  1.00 20.00     0.026 C 
HETATM    8  C8  UNL     1     -36.242  16.740  -2.616  1.00 20.00    -0.010 C 
HETATM    9  C9  UNL     1     -32.652  13.803  -3.397  1.00 20.00     0.052 C 
HETATM   10  C10 UNL     1     -37.544  17.497  -2.817  1.00 20.00     0.010 C 
HETATM   11  O11 UNL     1     -35.136  12.539  -4.493  1.00 20.00    -0.293 OA
ENDROOT
TORSDOF 0
ENDMDL
