MODEL 1
REMARK VINA RESULT:      -4.5      0.000      0.000
REMARK  0 active torsions:
REMARK  status: ('A' for Active; 'I' for Inactive)
ROOT
HETATM    1  C1  UNL     1     -34.781   4.665   4.692  1.00 20.00     0.223 A 
HETATM    2  C2  UNL     1     -33.761   5.666   5.273  1.00 20.00     0.096 A 
HETATM    3  C3  UNL     1     -33.911   6.409   3.914  1.00 20.00     0.093 A 
HETATM    4  C4  UNL     1     -34.212   6.418   6.510  1.00 20.00     0.022 C 
HETATM    5  C5  UNL     1     -32.688   6.471   3.023  1.00 20.00     0.033 C 
HETATM    6  N6  UNL     1     -34.814   5.336   3.510  1.00 20.00    -0.356 N 
HETATM    7  O7  UNL     1     -35.354   3.672   5.080  1.00 20.00    -0.273 OA
HETATM    8  H16 UNL     1     -35.356   5.160   2.675  1.00 20.00     0.162 HD
ENDROOT
TORSDOF 0
ENDMDL
MODEL 2
REMARK VINA RESULT:      -3.8     12.242     13.057
REMARK  0 active torsions:
REMARK  status: ('A' for Active; 'I' for Inactive)
ROOT
HETATM    1  C1  UNL     1     -34.247  13.563  -4.658  1.00 20.00     0.223 A 
HETATM    2  C2  UNL     1     -34.507  15.038  -5.029  1.00 20.00     0.096 A 
HETATM    3  C3  UNL     1     -33.294  15.349  -4.104  1.00 20.00     0.093 A 
HETATM    4  C4  UNL     1     -34.346  15.383  -6.496  1.00 20.00     0.022 C 
HETATM    5  C5  UNL     1     -33.571  16.153  -2.851  1.00 20.00     0.033 C 
HETATM    6  N6  UNL     1     -33.236  13.919  -3.821  1.00 20.00    -0.356 N 
HETATM    7  O7  UNL     1     -34.717  12.488  -4.956  1.00 20.00    -0.273 OA
HETATM    8  H16 UNL     1     -32.621  13.345  -3.262  1.00 20.00     0.162 HD
ENDROOT
TORSDOF 0
ENDMDL
MODEL 3
REMARK VINA RESULT:      -3.7     12.659     13.126
REMARK  0 active torsions:
REMARK  status: ('A' for Active; 'I' for Inactive)
ROOT
HETATM    1  C1  UNL     1     -33.494  16.092  -4.189  1.00 20.00     0.223 A 
HETATM    2  C2  UNL     1     -34.649  15.670  -3.255  1.00 20.00     0.096 A 
HETATM    3  C3  UNL     1     -34.155  14.217  -3.514  1.00 20.00     0.093 A 
HETATM    4  C4  UNL     1     -34.554  16.173  -1.828  1.00 20.00     0.022 C 
HETATM    5  C5  UNL     1     -35.098  13.289  -4.251  1.00 20.00     0.033 C 
HETATM    6  N6  UNL     1     -33.160  14.793  -4.413  1.00 20.00    -0.356 N 
HETATM    7  O7  UNL     1     -33.029  17.133  -4.593  1.00 20.00    -0.273 OA
HETATM    8  H16 UNL     1     -32.413  14.399  -4.968  1.00 20.00     0.162 HD
ENDROOT
TORSDOF 0
ENDMDL
MODEL 4
REMARK VINA RESULT:      -3.7      2.000      2.364
REMARK  0 active torsions:
REMARK  status: ('A' for Active; 'I' for Inactive)
ROOT
HETATM    1  C1  UNL     1     -34.012   6.372   5.711  1.00 20.00     0.223 A 
HETATM    2  C2  UNL     1     -34.898   5.228   5.174  1.00 20.00     0.096 A 
HETATM    3  C3  UNL     1     -33.964   5.263   3.929  1.00 20.00     0.093 A 
HETATM    4  C4  UNL     1     -34.887   3.952   5.993  1.00 20.00     0.022 C 
HETATM    5  C5  UNL     1     -34.588   5.672   2.611  1.00 20.00     0.033 C 
HETATM    6  N6  UNL     1     -33.278   6.382   4.567  1.00 20.00    -0.356 N 
HETATM    7  O7  UNL     1     -33.948   7.030   6.724  1.00 20.00    -0.273 OA
HETATM    8  H16 UNL     1     -32.478   6.945   4.310  1.00 20.00     0.162 HD
ENDROOT
TORSDOF 0
ENDMDL
MODEL 5
REMARK VINA RESULT:      -3.6     11.756     12.374
REMARK  0 active torsions:
REMARK  status: ('A' for Active; 'I' for Inactive)
ROOT
HETATM    1  C1  UNL     1     -34.212  13.746  -3.759  1.00 20.00     0.223 A 
HETATM    2  C2  UNL     1     -34.732  15.189  -3.593  1.00 20.00     0.096 A 
HETATM    3  C3  UNL     1     -36.133  14.581  -3.892  1.00 20.00     0.093 A 
HETATM    4  C4  UNL     1     -34.539  15.802  -2.220  1.00 20.00     0.022 C 
HETATM    5  C5  UNL     1     -36.821  15.028  -5.165  1.00 20.00     0.033 C 
HETATM    6  N6  UNL     1     -35.458  13.299  -4.070  1.00 20.00    -0.356 N 
HETATM    7  O7  UNL     1     -33.146  13.181  -3.663  1.00 20.00    -0.273 OA
HETATM    8  H16 UNL     1     -35.783  12.365  -4.278  1.00 20.00     0.162 HD
ENDROOT
TORSDOF 0
ENDMDL
MODEL 6
REMARK VINA RESULT:      -3.6     12.300     12.667
REMARK  0 active torsions:
REMARK  status: ('A' for Active; 'I' for Inactive)
ROOT
HETATM    1  C1  UNL     1     -34.669  13.629  -4.470  1.00 20.00     0.223 A 
HETATM    2  C2  UNL     1     -35.559  14.562  -3.623  1.00 20.00     0.096 A 
HETATM    3  C3  UNL     1     -34.473  15.641  -3.905  1.00 20.00     0.093 A 
HETATM    4  C4  UNL     1     -36.943  14.833  -4.181  1.00 20.00     0.022 C 
HETATM    5  C5  UNL     1     -33.689  16.157  -2.715  1.00 20.00     0.033 C 
HETATM    6  N6  UNL     1     -33.736  14.606  -4.623  1.00 20.00    -0.356 N 
HETATM    7  O7  UNL     1     -34.725  12.488  -4.869  1.00 20.00    -0.273 OA
HETATM    8  H16 UNL     1     -32.865  14.601  -5.135  1.00 20.00     0.162 HD
ENDROOT
TORSDOF 0
ENDMDL
MODEL 7
REMARK VINA RESULT:      -3.6     12.716     13.335
REMARK  0 active torsions:
REMARK  status: ('A' for Active; 'I' for Inactive)
ROOT
HETATM    1  C1  UNL     1     -33.538  16.261  -4.081  1.00 20.00     0.223 A 
HETATM    2  C2  UNL     1     -33.785  15.111  -3.082  1.00 20.00     0.096 A 
HETATM    3  C3  UNL     1     -34.856  16.054  -2.460  1.00 20.00     0.093 A 
HETATM    4  C4  UNL     1     -34.291  13.816  -3.685  1.00 20.00     0.022 C 
HETATM    5  C5  UNL     1     -34.610  16.541  -1.047  1.00 20.00     0.033 C 
HETATM    6  N6  UNL     1     -34.448  17.049  -3.448  1.00 20.00    -0.356 N 
HETATM    7  O7  UNL     1     -32.838  16.445  -5.050  1.00 20.00    -0.273 OA
HETATM    8  H16 UNL     1     -34.764  17.984  -3.665  1.00 20.00     0.162 HD
ENDROOT
TORSDOF 0
ENDMDL
MODEL 8
REMARK VINA RESULT:      -3.6      2.291      3.223
REMARK  0 active torsions:
REMARK  status: ('A' for Active; 'I' for Inactive)
ROOT
HETATM    1  C1  UNL     1     -33.372   6.335   4.193  1.00 20.00     0.223 A 
HETATM    2  C2  UNL     1     -34.542   5.362   3.932  1.00 20.00     0.096 A 
HETATM    3  C3  UNL     1     -34.792   5.456   5.466  1.00 20.00     0.093 A 
HETATM    4  C4  UNL     1     -35.644   5.888   3.033  1.00 20.00     0.022 C 
HETATM    5  C5  UNL     1     -34.597   4.191   6.275  1.00 20.00     0.033 C 
HETATM    6  N6  UNL     1     -33.616   6.319   5.530  1.00 20.00    -0.356 N 
HETATM    7  O7  UNL     1     -32.544   6.909   3.524  1.00 20.00    -0.273 OA
HETATM    8  H16 UNL     1     -33.158   6.815   6.283  1.00 20.00     0.162 HD
ENDROOT
TORSDOF 0
ENDMDL
MODEL 9
REMARK VINA RESULT:      -3.5     12.030     12.687
REMARK  0 active torsions:
REMARK  status: ('A' for Active; 'I' for Inactive)
ROOT
HETATM    1  C1  UNL     1     -35.979  13.922  -4.199  1.00 20.00     0.223 A 
HETATM    2  C2  UNL     1     -34.952  14.647  -5.094  1.00 20.00     0.096 A 
HETATM    3  C3  UNL     1     -33.919  13.646  -4.499  1.00 20.00     0.093 A 
HETATM    4  C4  UNL     1     -35.203  14.554  -6.587  1.00 20.00     0.022 C 
HETATM    5  C5  UNL     1     -32.811  14.225  -3.644  1.00 20.00     0.033 C 
HETATM    6  N6  UNL     1     -35.009  13.122  -3.681  1.00 20.00    -0.356 N 
HETATM    7  O7  UNL     1     -37.170  13.991  -3.997  1.00 20.00    -0.273 OA
HETATM    8  H16 UNL     1     -35.073  12.372  -3.006  1.00 20.00     0.162 HD
ENDROOT
TORSDOF 0
ENDMDL
