MODEL 1
REMARK VINA RESULT:      -4.2      0.000      0.000
REMARK  2 active torsions:
REMARK  status: ('A' for Active; 'I' for Inactive)
REMARK    1  A    between atoms: C1_1  and  C3_3 
REMARK    2  A    between atoms: C5_5  and  O10_10 
ROOT
HETATM    1  C2  UNL     1     -34.458  15.027  -2.899  1.00 20.00     0.074 C 
HETATM    2  C3  UNL     1     -33.704  14.612  -4.140  1.00 20.00     0.080 C 
HETATM    3  C4  UNL     1     -33.484  15.945  -4.850  1.00 20.00     0.131 C 
HETATM    4  C5  UNL     1     -33.816  16.360  -2.565  1.00 20.00     0.260 C 
HETATM    5  C6  UNL     1     -34.590  16.377  -5.808  1.00 20.00     0.040 C 
HETATM    6  O9  UNL     1     -33.408  16.941  -3.810  1.00 20.00    -0.356 OA
ENDROOT
BRANCH   2   7
HETATM    7  C1  UNL     1     -34.434  13.585  -4.945  1.00 20.00     0.238 C 
HETATM    8  O8  UNL     1     -35.033  12.637  -4.448  1.00 20.00    -0.306 OA
ENDBRANCH   2   7
BRANCH   4   9
HETATM    9  O10 UNL     1     -34.743  17.177  -1.871  1.00 20.00    -0.366 OA
HETATM   10  C7  UNL     1     -34.702  16.937  -0.472  1.00 20.00     0.204 C 
ENDBRANCH   4   9
TORSDOF 2
ENDMDL
MODEL 2
REMARK VINA RESULT:      -4.2      1.293      1.449
REMARK  2 active torsions:
REMARK  status: ('A' for Active; 'I' for Inactive)
REMARK    1  A    between atoms: C1_1  and  C3_3 
REMARK    2  A    between atoms: C5_5  and  O10_10 
ROOT
HETATM    1  C2  UNL     1     -35.469  15.147  -2.943  1.00 20.00     0.074 C 
HETATM    2  C3  UNL     1     -34.260  14.419  -3.479  1.00 20.00     0.080 C 
HETATM    3  C4  UNL     1     -33.220  15.534  -3.568  1.00 20.00     0.131 C 
HETATM    4  C5  UNL     1     -34.844  16.149  -1.991  1.00 20.00     0.260 C 
HETATM    5  C6  UNL     1     -33.190  16.309  -4.882  1.00 20.00     0.040 C 
HETATM    6  O9  UNL     1     -33.554  16.473  -2.526  1.00 20.00    -0.356 OA
ENDROOT
BRANCH   2   7
HETATM    7  C1  UNL     1     -34.533  13.712  -4.767  1.00 20.00     0.238 C 
HETATM    8  O8  UNL     1     -34.836  12.526  -4.836  1.00 20.00    -0.306 OA
ENDBRANCH   2   7
BRANCH   4   9
HETATM    9  O10 UNL     1     -35.679  17.289  -1.880  1.00 20.00    -0.366 OA
HETATM   10  C7  UNL     1     -36.578  17.385  -2.975  1.00 20.00     0.204 C 
ENDBRANCH   4   9
TORSDOF 2
ENDMDL
MODEL 3
REMARK VINA RESULT:      -4.1      2.042      3.064
REMARK  2 active torsions:
REMARK  status: ('A' for Active; 'I' for Inactive)
REMARK    1  A    between atoms: C1_1  and  C3_3 
REMARK    2  A    between atoms: C5_5  and  O10_10 
ROOT
HETATM    1  C2  UNL     1     -35.152  16.228  -4.220  1.00 20.00     0.074 C 
HETATM    2  C3  UNL     1     -35.777  15.028  -3.551  1.00 20.00     0.080 C 
HETATM    3  C4  UNL     1     -34.673  13.980  -3.661  1.00 20.00     0.131 C 
HETATM    4  C5  UNL     1     -33.700  16.110  -3.798  1.00 20.00     0.260 C 
HETATM    5  C6  UNL     1     -34.686  13.132  -4.930  1.00 20.00     0.040 C 
HETATM    6  O9  UNL     1     -33.429  14.710  -3.649  1.00 20.00    -0.356 OA
ENDROOT
BRANCH   2   7
HETATM    7  C1  UNL     1     -37.080  14.634  -4.169  1.00 20.00     0.238 C 
HETATM    8  O8  UNL     1     -38.052  14.265  -3.519  1.00 20.00    -0.306 OA
ENDBRANCH   2   7
BRANCH   4   9
HETATM    9  O10 UNL     1     -32.867  16.715  -4.772  1.00 20.00    -0.366 OA
HETATM   10  C7  UNL     1     -33.567  17.703  -5.514  1.00 20.00     0.204 C 
ENDBRANCH   4   9
TORSDOF 2
ENDMDL
MODEL 4
REMARK VINA RESULT:      -3.8      1.744      3.747
REMARK  2 active torsions:
REMARK  status: ('A' for Active; 'I' for Inactive)
REMARK    1  A    between atoms: C1_1  and  C3_3 
REMARK    2  A    between atoms: C5_5  and  O10_10 
ROOT
HETATM    1  C2  UNL     1     -34.603  15.381  -5.348  1.00 20.00     0.074 C 
HETATM    2  C3  UNL     1     -33.367  16.148  -4.943  1.00 20.00     0.080 C 
HETATM    3  C4  UNL     1     -33.090  15.606  -3.543  1.00 20.00     0.131 C 
HETATM    4  C5  UNL     1     -34.355  14.022  -4.722  1.00 20.00     0.260 C 
HETATM    5  C6  UNL     1     -33.779  16.341  -2.398  1.00 20.00     0.040 C 
HETATM    6  O9  UNL     1     -33.582  14.250  -3.537  1.00 20.00    -0.356 OA
ENDROOT
BRANCH   2   7
HETATM    7  C1  UNL     1     -33.556  17.630  -5.016  1.00 20.00     0.238 C 
HETATM    8  O8  UNL     1     -33.477  18.271  -6.058  1.00 20.00    -0.306 OA
ENDBRANCH   2   7
BRANCH   4   9
HETATM    9  O10 UNL     1     -35.593  13.391  -4.440  1.00 20.00    -0.366 OA
HETATM   10  C7  UNL     1     -36.596  14.340  -4.107  1.00 20.00     0.204 C 
ENDBRANCH   4   9
TORSDOF 2
ENDMDL
MODEL 5
REMARK VINA RESULT:      -3.8      2.098      3.772
REMARK  2 active torsions:
REMARK  status: ('A' for Active; 'I' for Inactive)
REMARK    1  A    between atoms: C1_1  and  C3_3 
REMARK    2  A    between atoms: C5_5  and  O10_10 
ROOT
HETATM    1  C2  UNL     1     -35.744  15.583  -4.696  1.00 20.00     0.074 C 
HETATM    2  C3  UNL     1     -34.464  15.218  -5.410  1.00 20.00     0.080 C 
HETATM    3  C4  UNL     1     -34.199  13.803  -4.901  1.00 20.00     0.131 C 
HETATM    4  C5  UNL     1     -36.488  14.262  -4.677  1.00 20.00     0.260 C 
HETATM    5  C6  UNL     1     -33.376  13.702  -3.620  1.00 20.00     0.040 C 
HETATM    6  O9  UNL     1     -35.493  13.231  -4.622  1.00 20.00    -0.356 OA
ENDROOT
BRANCH   2   7
HETATM    7  C1  UNL     1     -33.360  16.193  -5.156  1.00 20.00     0.238 C 
HETATM    8  O8  UNL     1     -33.512  17.240  -4.536  1.00 20.00    -0.306 OA
ENDBRANCH   2   7
BRANCH   4   9
HETATM    9  O10 UNL     1     -37.362  14.222  -3.562  1.00 20.00    -0.366 OA
HETATM   10  C7  UNL     1     -38.614  14.824  -3.859  1.00 20.00     0.204 C 
ENDBRANCH   4   9
TORSDOF 2
ENDMDL
MODEL 6
REMARK VINA RESULT:      -3.8      1.560      2.926
REMARK  2 active torsions:
REMARK  status: ('A' for Active; 'I' for Inactive)
REMARK    1  A    between atoms: C1_1  and  C3_3 
REMARK    2  A    between atoms: C5_5  and  O10_10 
ROOT
HETATM    1  C2  UNL     1     -34.048  15.727  -6.039  1.00 20.00     0.074 C 
HETATM    2  C3  UNL     1     -34.967  14.879  -5.193  1.00 20.00     0.080 C 
HETATM    3  C4  UNL     1     -35.222  15.777  -3.986  1.00 20.00     0.131 C 
HETATM    4  C5  UNL     1     -34.590  17.123  -5.800  1.00 20.00     0.260 C 
HETATM    5  C6  UNL     1     -34.228  15.640  -2.835  1.00 20.00     0.040 C 
HETATM    6  O9  UNL     1     -35.128  17.132  -4.471  1.00 20.00    -0.356 OA
ENDROOT
BRANCH   2   7
HETATM    7  C1  UNL     1     -34.384  13.541  -4.868  1.00 20.00     0.238 C 
HETATM    8  O8  UNL     1     -35.043  12.607  -4.424  1.00 20.00    -0.306 OA
ENDBRANCH   2   7
BRANCH   4   9
HETATM    9  O10 UNL     1     -33.552  18.074  -5.964  1.00 20.00    -0.366 OA
HETATM   10  C7  UNL     1     -33.497  18.978  -4.869  1.00 20.00     0.204 C 
ENDBRANCH   4   9
TORSDOF 2
ENDMDL
MODEL 7
REMARK VINA RESULT:      -3.8      1.802      2.197
REMARK  2 active torsions:
REMARK  status: ('A' for Active; 'I' for Inactive)
REMARK    1  A    between atoms: C1_1  and  C3_3 
REMARK    2  A    between atoms: C5_5  and  O10_10 
ROOT
HETATM    1  C2  UNL     1     -33.417  15.817  -4.181  1.00 20.00     0.074 C 
HETATM    2  C3  UNL     1     -34.134  14.706  -4.909  1.00 20.00     0.080 C 
HETATM    3  C4  UNL     1     -35.168  15.468  -5.734  1.00 20.00     0.131 C 
HETATM    4  C5  UNL     1     -33.400  16.921  -5.221  1.00 20.00     0.260 C 
HETATM    5  C6  UNL     1     -36.507  15.724  -5.047  1.00 20.00     0.040 C 
HETATM    6  O9  UNL     1     -34.581  16.754  -6.016  1.00 20.00    -0.356 OA
ENDROOT
BRANCH   2   7
HETATM    7  C1  UNL     1     -34.704  13.680  -3.982  1.00 20.00     0.238 C 
HETATM    8  O8  UNL     1     -35.068  12.567  -4.346  1.00 20.00    -0.306 OA
ENDBRANCH   2   7
BRANCH   4   9
HETATM    9  O10 UNL     1     -33.362  18.184  -4.578  1.00 20.00    -0.366 OA
HETATM   10  C7  UNL     1     -34.173  18.200  -3.412  1.00 20.00     0.204 C 
ENDBRANCH   4   9
TORSDOF 2
ENDMDL
MODEL 8
REMARK VINA RESULT:      -3.8      2.310      3.607
REMARK  2 active torsions:
REMARK  status: ('A' for Active; 'I' for Inactive)
REMARK    1  A    between atoms: C1_1  and  C3_3 
REMARK    2  A    between atoms: C5_5  and  O10_10 
ROOT
HETATM    1  C2  UNL     1     -35.402  14.831  -3.961  1.00 20.00     0.074 C 
HETATM    2  C3  UNL     1     -36.224  15.135  -5.190  1.00 20.00     0.080 C 
HETATM    3  C4  UNL     1     -35.465  14.388  -6.284  1.00 20.00     0.131 C 
HETATM    4  C5  UNL     1     -34.960  13.403  -4.216  1.00 20.00     0.260 C 
HETATM    5  C6  UNL     1     -34.355  15.174  -6.976  1.00 20.00     0.040 C 
HETATM    6  O9  UNL     1     -34.848  13.256  -5.638  1.00 20.00    -0.356 OA
ENDROOT
BRANCH   2   7
HETATM    7  C1  UNL     1     -36.389  16.601  -5.429  1.00 20.00     0.238 C 
HETATM    8  O8  UNL     1     -35.897  17.463  -4.708  1.00 20.00    -0.306 OA
ENDBRANCH   2   7
BRANCH   4   9
HETATM    9  O10 UNL     1     -33.731  13.156  -3.554  1.00 20.00    -0.366 OA
HETATM   10  C7  UNL     1     -32.885  14.296  -3.587  1.00 20.00     0.204 C 
ENDBRANCH   4   9
TORSDOF 2
ENDMDL
MODEL 9
REMARK VINA RESULT:      -3.8      1.512      4.069
REMARK  2 active torsions:
REMARK  status: ('A' for Active; 'I' for Inactive)
REMARK    1  A    between atoms: C1_1  and  C3_3 
REMARK    2  A    between atoms: C5_5  and  O10_10 
ROOT
HETATM    1  C2  UNL     1     -33.969  14.613  -3.792  1.00 20.00     0.074 C 
HETATM    2  C3  UNL     1     -34.591  15.367  -2.641  1.00 20.00     0.080 C 
HETATM    3  C4  UNL     1     -36.046  15.499  -3.084  1.00 20.00     0.131 C 
HETATM    4  C5  UNL     1     -35.087  13.672  -4.199  1.00 20.00     0.260 C 
HETATM    5  C6  UNL     1     -36.375  16.734  -3.918  1.00 20.00     0.040 C 
HETATM    6  O9  UNL     1     -36.318  14.345  -3.905  1.00 20.00    -0.356 OA
ENDROOT
BRANCH   2   7
HETATM    7  C1  UNL     1     -33.901  16.662  -2.357  1.00 20.00     0.238 C 
HETATM    8  O8  UNL     1     -33.690  17.082  -1.225  1.00 20.00    -0.306 OA
ENDBRANCH   2   7
BRANCH   4   9
HETATM    9  O10 UNL     1     -34.967  13.352  -5.575  1.00 20.00    -0.366 OA
HETATM   10  C7  UNL     1     -34.641  14.498  -6.349  1.00 20.00     0.204 C 
ENDBRANCH   4   9
TORSDOF 2
ENDMDL
