MODEL 1
REMARK VINA RESULT:      -4.1      0.000      0.000
REMARK  0 active torsions:
REMARK  status: ('A' for Active; 'I' for Inactive)
ROOT
HETATM    1  C1  UNL     1     -33.902   6.513   6.155  1.00 20.00     0.223 A 
HETATM    2  C2  UNL     1     -34.262   6.307   4.668  1.00 20.00     0.096 A 
HETATM    3  C3  UNL     1     -35.149   5.130   5.180  1.00 20.00     0.093 A 
HETATM    4  C4  UNL     1     -33.089   6.024   3.749  1.00 20.00     0.022 C 
HETATM    5  C5  UNL     1     -34.793   3.696   4.846  1.00 20.00     0.033 C 
HETATM    6  N6  UNL     1     -34.707   5.482   6.526  1.00 20.00    -0.356 N 
HETATM    7  O7  UNL     1     -33.197   7.262   6.790  1.00 20.00    -0.273 OA
HETATM    8  H16 UNL     1     -34.898   5.102   7.443  1.00 20.00     0.162 HD
ENDROOT
TORSDOF 0
ENDMDL
MODEL 2
REMARK VINA RESULT:      -4.1      2.168      3.051
REMARK  0 active torsions:
REMARK  status: ('A' for Active; 'I' for Inactive)
ROOT
HETATM    1  C1  UNL     1     -34.854   4.738   4.628  1.00 20.00     0.223 A 
HETATM    2  C2  UNL     1     -34.646   6.189   5.115  1.00 20.00     0.096 A 
HETATM    3  C3  UNL     1     -34.016   6.432   3.708  1.00 20.00     0.093 A 
HETATM    4  C4  UNL     1     -33.794   6.340   6.360  1.00 20.00     0.022 C 
HETATM    5  C5  UNL     1     -32.536   6.724   3.569  1.00 20.00     0.033 C 
HETATM    6  N6  UNL     1     -34.304   5.031   3.419  1.00 20.00    -0.356 N 
HETATM    7  O7  UNL     1     -35.308   3.716   5.088  1.00 20.00    -0.273 OA
HETATM    8  H16 UNL     1     -34.148   4.440   2.614  1.00 20.00     0.162 HD
ENDROOT
TORSDOF 0
ENDMDL
MODEL 3
REMARK VINA RESULT:      -3.7     13.189     13.667
REMARK  0 active torsions:
REMARK  status: ('A' for Active; 'I' for Inactive)
ROOT
HETATM    1  C1  UNL     1     -33.351  16.079  -4.646  1.00 20.00     0.223 A 
HETATM    2  C2  UNL     1     -33.482  15.311  -3.313  1.00 20.00     0.096 A 
HETATM    3  C3  UNL     1     -33.849  14.085  -4.206  1.00 20.00     0.093 A 
HETATM    4  C4  UNL     1     -34.503  15.869  -2.340  1.00 20.00     0.022 C 
HETATM    5  C5  UNL     1     -35.249  13.507  -4.179  1.00 20.00     0.033 C 
HETATM    6  N6  UNL     1     -33.665  14.963  -5.356  1.00 20.00    -0.356 N 
HETATM    7  O7  UNL     1     -33.085  17.209  -4.984  1.00 20.00    -0.273 OA
HETATM    8  H16 UNL     1     -33.751  14.830  -6.355  1.00 20.00     0.162 HD
ENDROOT
TORSDOF 0
ENDMDL
MODEL 4
REMARK VINA RESULT:      -3.7     12.782     13.279
REMARK  0 active torsions:
REMARK  status: ('A' for Active; 'I' for Inactive)
ROOT
HETATM    1  C1  UNL     1     -34.480  13.657  -4.525  1.00 20.00     0.223 A 
HETATM    2  C2  UNL     1     -35.246  14.997  -4.478  1.00 20.00     0.096 A 
HETATM    3  C3  UNL     1     -33.891  15.605  -3.999  1.00 20.00     0.093 A 
HETATM    4  C4  UNL     1     -36.452  15.023  -3.558  1.00 20.00     0.022 C 
HETATM    5  C5  UNL     1     -33.741  16.136  -2.588  1.00 20.00     0.033 C 
HETATM    6  N6  UNL     1     -33.332  14.262  -4.117  1.00 20.00    -0.356 N 
HETATM    7  O7  UNL     1     -34.739  12.509  -4.799  1.00 20.00    -0.273 OA
HETATM    8  H16 UNL     1     -32.415  13.872  -3.946  1.00 20.00     0.162 HD
ENDROOT
TORSDOF 0
ENDMDL
MODEL 5
REMARK VINA RESULT:      -3.6     12.562     13.157
REMARK  0 active torsions:
REMARK  status: ('A' for Active; 'I' for Inactive)
ROOT
HETATM    1  C1  UNL     1     -35.100  13.583  -4.178  1.00 20.00     0.223 A 
HETATM    2  C2  UNL     1     -34.400  14.594  -3.244  1.00 20.00     0.096 A 
HETATM    3  C3  UNL     1     -35.771  15.340  -3.238  1.00 20.00     0.093 A 
HETATM    4  C4  UNL     1     -33.174  15.273  -3.825  1.00 20.00     0.022 C 
HETATM    5  C5  UNL     1     -35.911  16.698  -3.895  1.00 20.00     0.033 C 
HETATM    6  N6  UNL     1     -36.265  14.281  -4.112  1.00 20.00    -0.356 N 
HETATM    7  O7  UNL     1     -34.791  12.571  -4.762  1.00 20.00    -0.273 OA
HETATM    8  H16 UNL     1     -37.158  14.101  -4.553  1.00 20.00     0.162 HD
ENDROOT
TORSDOF 0
ENDMDL
MODEL 6
REMARK VINA RESULT:      -3.6      2.298      3.136
REMARK  0 active torsions:
REMARK  status: ('A' for Active; 'I' for Inactive)
ROOT
HETATM    1  C1  UNL     1     -34.296   5.492   3.433  1.00 20.00     0.223 A 
HETATM    2  C2  UNL     1     -35.178   5.174   4.660  1.00 20.00     0.096 A 
HETATM    3  C3  UNL     1     -34.609   6.502   5.250  1.00 20.00     0.093 A 
HETATM    4  C4  UNL     1     -34.883   3.855   5.348  1.00 20.00     0.022 C 
HETATM    5  C5  UNL     1     -33.684   6.477   6.449  1.00 20.00     0.033 C 
HETATM    6  N6  UNL     1     -33.855   6.643   4.008  1.00 20.00    -0.356 N 
HETATM    7  O7  UNL     1     -34.051   4.969   2.371  1.00 20.00    -0.273 OA
HETATM    8  H16 UNL     1     -33.204   7.336   3.663  1.00 20.00     0.162 HD
ENDROOT
TORSDOF 0
ENDMDL
MODEL 7
REMARK VINA RESULT:      -3.5      1.655      1.792
REMARK  0 active torsions:
REMARK  status: ('A' for Active; 'I' for Inactive)
ROOT
HETATM    1  C1  UNL     1     -33.154   6.580   4.317  1.00 20.00     0.223 A 
HETATM    2  C2  UNL     1     -34.483   6.037   3.749  1.00 20.00     0.096 A 
HETATM    3  C3  UNL     1     -34.801   5.642   5.225  1.00 20.00     0.093 A 
HETATM    4  C4  UNL     1     -34.346   4.958   2.693  1.00 20.00     0.022 C 
HETATM    5  C5  UNL     1     -34.878   4.185   5.633  1.00 20.00     0.033 C 
HETATM    6  N6  UNL     1     -33.508   6.219   5.579  1.00 20.00    -0.356 N 
HETATM    7  O7  UNL     1     -32.165   7.114   3.871  1.00 20.00    -0.273 OA
HETATM    8  H16 UNL     1     -33.004   6.318   6.450  1.00 20.00     0.162 HD
ENDROOT
TORSDOF 0
ENDMDL
MODEL 8
REMARK VINA RESULT:      -3.5      1.437      2.106
REMARK  0 active torsions:
REMARK  status: ('A' for Active; 'I' for Inactive)
ROOT
HETATM    1  C1  UNL     1     -33.851   6.515   5.984  1.00 20.00     0.223 A 
HETATM    2  C2  UNL     1     -33.960   5.016   5.629  1.00 20.00     0.096 A 
HETATM    3  C3  UNL     1     -33.791   5.488   4.151  1.00 20.00     0.093 A 
HETATM    4  C4  UNL     1     -35.246   4.339   6.063  1.00 20.00     0.022 C 
HETATM    5  C5  UNL     1     -34.937   5.362   3.168  1.00 20.00     0.033 C 
HETATM    6  N6  UNL     1     -33.695   6.846   4.675  1.00 20.00    -0.356 N 
HETATM    7  O7  UNL     1     -33.886   7.182   6.992  1.00 20.00    -0.273 OA
HETATM    8  H16 UNL     1     -33.573   7.752   4.242  1.00 20.00     0.162 HD
ENDROOT
TORSDOF 0
ENDMDL
MODEL 9
REMARK VINA RESULT:      -3.4      9.581     10.058
REMARK  0 active torsions:
REMARK  status: ('A' for Active; 'I' for Inactive)
ROOT
HETATM    1  C1  UNL     1     -42.287   4.387   0.055  1.00 20.00     0.223 A 
HETATM    2  C2  UNL     1     -41.424   4.606  -1.206  1.00 20.00     0.096 A 
HETATM    3  C3  UNL     1     -40.807   5.803  -0.417  1.00 20.00     0.093 A 
HETATM    4  C4  UNL     1     -42.197   4.865  -2.486  1.00 20.00     0.022 C 
HETATM    5  C5  UNL     1     -41.055   7.229  -0.864  1.00 20.00     0.033 C 
HETATM    6  N6  UNL     1     -41.693   5.436   0.683  1.00 20.00    -0.356 N 
HETATM    7  O7  UNL     1     -43.155   3.619   0.399  1.00 20.00    -0.273 OA
HETATM    8  H16 UNL     1     -41.852   5.817   1.606  1.00 20.00     0.162 HD
ENDROOT
TORSDOF 0
ENDMDL
