MODEL 1
REMARK VINA RESULT:      -5.0      0.000      0.000
REMARK  5 active torsions:
REMARK  status: ('A' for Active; 'I' for Inactive)
REMARK    1  A    between atoms: C1_1  and  C8_8 
REMARK    2  A    between atoms: C5_5  and  C6_6 
REMARK    3  A    between atoms: C5_5  and  C7_7 
REMARK    4  A    between atoms: C6_6  and  C8_8 
REMARK    5  A    between atoms: C7_7  and  C9_9 
ROOT
HETATM    1  C5  UNL     1     -33.941   5.446   2.793  1.00 20.00     0.001 C 
ENDROOT
BRANCH   1   2
HETATM    2  C6  UNL     1     -32.486   5.934   2.834  1.00 20.00     0.011 C 
BRANCH   2   3
HETATM    3  C8  UNL     1     -32.381   7.453   3.031  1.00 20.00     0.043 C 
HETATM    4  C2  UNL     1     -31.318   7.790   4.075  1.00 20.00     0.017 C 
BRANCH   3   5
HETATM    5  C1  UNL     1     -32.025   8.193   1.754  1.00 20.00     0.235 C 
HETATM    6  O10 UNL     1     -32.333   9.354   1.506  1.00 20.00    -0.306 OA
ENDBRANCH   3   5
ENDBRANCH   2   3
ENDBRANCH   1   2
BRANCH   1   7
HETATM    7  C7  UNL     1     -34.716   5.922   4.026  1.00 20.00     0.004 C 
BRANCH   7   8
HETATM    8  C9  UNL     1     -34.186   5.335   5.348  1.00 20.00    -0.023 C 
HETATM    9  C3  UNL     1     -35.069   4.208   5.884  1.00 20.00     0.009 C 
HETATM   10  C4  UNL     1     -34.069   6.442   6.397  1.00 20.00     0.009 C 
ENDBRANCH   7   8
ENDBRANCH   1   7
TORSDOF 5
ENDMDL
MODEL 2
REMARK VINA RESULT:      -4.9      2.537      5.013
REMARK  5 active torsions:
REMARK  status: ('A' for Active; 'I' for Inactive)
REMARK    1  A    between atoms: C1_1  and  C8_8 
REMARK    2  A    between atoms: C5_5  and  C6_6 
REMARK    3  A    between atoms: C5_5  and  C7_7 
REMARK    4  A    between atoms: C6_6  and  C8_8 
REMARK    5  A    between atoms: C7_7  and  C9_9 
ROOT
HETATM    1  C5  UNL     1     -32.432   6.429   3.146  1.00 20.00     0.001 C 
ENDROOT
BRANCH   1   2
HETATM    2  C6  UNL     1     -33.820   6.538   3.794  1.00 20.00     0.011 C 
BRANCH   2   3
HETATM    3  C8  UNL     1     -33.965   5.635   5.027  1.00 20.00     0.043 C 
HETATM    4  C2  UNL     1     -34.061   6.471   6.301  1.00 20.00     0.017 C 
BRANCH   3   5
HETATM    5  C1  UNL     1     -35.192   4.742   4.966  1.00 20.00     0.235 C 
HETATM    6  O10 UNL     1     -35.175   3.519   5.059  1.00 20.00    -0.306 OA
ENDBRANCH   3   5
ENDBRANCH   2   3
ENDBRANCH   1   2
BRANCH   1   7
HETATM    7  C7  UNL     1     -31.820   7.816   2.920  1.00 20.00     0.004 C 
BRANCH   7   8
HETATM    8  C9  UNL     1     -32.407   8.555   1.703  1.00 20.00    -0.023 C 
HETATM    9  C3  UNL     1     -31.472   8.525   0.494  1.00 20.00     0.009 C 
HETATM   10  C4  UNL     1     -32.720  10.005   2.078  1.00 20.00     0.009 C 
ENDBRANCH   7   8
ENDBRANCH   1   7
TORSDOF 5
ENDMDL
MODEL 3
REMARK VINA RESULT:      -4.7      0.429      1.167
REMARK  5 active torsions:
REMARK  status: ('A' for Active; 'I' for Inactive)
REMARK    1  A    between atoms: C1_1  and  C8_8 
REMARK    2  A    between atoms: C5_5  and  C6_6 
REMARK    3  A    between atoms: C5_5  and  C7_7 
REMARK    4  A    between atoms: C6_6  and  C8_8 
REMARK    5  A    between atoms: C7_7  and  C9_9 
ROOT
HETATM    1  C5  UNL     1     -33.838   5.297   2.973  1.00 20.00     0.001 C 
ENDROOT
BRANCH   1   2
HETATM    2  C6  UNL     1     -32.418   5.874   2.875  1.00 20.00     0.011 C 
BRANCH   2   3
HETATM    3  C8  UNL     1     -32.385   7.393   3.094  1.00 20.00     0.043 C 
HETATM    4  C2  UNL     1     -31.329   7.767   4.132  1.00 20.00     0.017 C 
BRANCH   3   5
HETATM    5  C1  UNL     1     -32.082   8.168   1.824  1.00 20.00     0.235 C 
HETATM    6  O10 UNL     1     -32.364   9.347   1.637  1.00 20.00    -0.306 OA
ENDBRANCH   3   5
ENDBRANCH   2   3
ENDBRANCH   1   2
BRANCH   1   7
HETATM    7  C7  UNL     1     -34.712   6.142   3.907  1.00 20.00     0.004 C 
BRANCH   7   8
HETATM    8  C9  UNL     1     -35.020   5.451   5.249  1.00 20.00    -0.023 C 
HETATM    9  C3  UNL     1     -34.152   5.981   6.392  1.00 20.00     0.009 C 
HETATM   10  C4  UNL     1     -34.826   3.940   5.112  1.00 20.00     0.009 C 
ENDBRANCH   7   8
ENDBRANCH   1   7
TORSDOF 5
ENDMDL
MODEL 4
REMARK VINA RESULT:      -4.7      1.909      4.400
REMARK  5 active torsions:
REMARK  status: ('A' for Active; 'I' for Inactive)
REMARK    1  A    between atoms: C1_1  and  C8_8 
REMARK    2  A    between atoms: C5_5  and  C6_6 
REMARK    3  A    between atoms: C5_5  and  C7_7 
REMARK    4  A    between atoms: C6_6  and  C8_8 
REMARK    5  A    between atoms: C7_7  and  C9_9 
ROOT
HETATM    1  C5  UNL     1     -33.824   5.350   2.973  1.00 20.00     0.001 C 
ENDROOT
BRANCH   1   2
HETATM    2  C6  UNL     1     -34.728   6.131   3.936  1.00 20.00     0.011 C 
BRANCH   2   3
HETATM    3  C8  UNL     1     -35.104   5.316   5.182  1.00 20.00     0.043 C 
HETATM    4  C2  UNL     1     -34.820   3.832   4.962  1.00 20.00     0.017 C 
BRANCH   3   5
HETATM    5  C1  UNL     1     -34.348   5.752   6.425  1.00 20.00     0.235 C 
HETATM    6  O10 UNL     1     -33.728   6.805   6.537  1.00 20.00    -0.306 OA
ENDBRANCH   3   5
ENDBRANCH   2   3
ENDBRANCH   1   2
BRANCH   1   7
HETATM    7  C7  UNL     1     -32.391   5.893   3.000  1.00 20.00     0.004 C 
BRANCH   7   8
HETATM    8  C9  UNL     1     -32.319   7.424   3.152  1.00 20.00    -0.023 C 
HETATM    9  C3  UNL     1     -32.047   8.131   1.824  1.00 20.00     0.009 C 
HETATM   10  C4  UNL     1     -31.233   7.794   4.165  1.00 20.00     0.009 C 
ENDBRANCH   7   8
ENDBRANCH   1   7
TORSDOF 5
ENDMDL
MODEL 5
REMARK VINA RESULT:      -4.5      1.234      1.744
REMARK  5 active torsions:
REMARK  status: ('A' for Active; 'I' for Inactive)
REMARK    1  A    between atoms: C1_1  and  C8_8 
REMARK    2  A    between atoms: C5_5  and  C6_6 
REMARK    3  A    between atoms: C5_5  and  C7_7 
REMARK    4  A    between atoms: C6_6  and  C8_8 
REMARK    5  A    between atoms: C7_7  and  C9_9 
ROOT
HETATM    1  C5  UNL     1     -32.457   6.404   3.074  1.00 20.00     0.001 C 
ENDROOT
BRANCH   1   2
HETATM    2  C6  UNL     1     -31.834   7.782   2.815  1.00 20.00     0.011 C 
BRANCH   2   3
HETATM    3  C8  UNL     1     -32.621   8.598   1.779  1.00 20.00     0.043 C 
HETATM    4  C2  UNL     1     -32.712  10.063   2.201  1.00 20.00     0.017 C 
BRANCH   3   5
HETATM    5  C1  UNL     1     -32.001   8.553   0.394  1.00 20.00     0.235 C 
HETATM    6  O10 UNL     1     -32.586   8.834  -0.647  1.00 20.00    -0.306 OA
ENDBRANCH   3   5
ENDBRANCH   2   3
ENDBRANCH   1   2
BRANCH   1   7
HETATM    7  C7  UNL     1     -33.818   6.536   3.765  1.00 20.00     0.004 C 
BRANCH   7   8
HETATM    8  C9  UNL     1     -33.987   5.594   4.972  1.00 20.00    -0.023 C 
HETATM    9  C3  UNL     1     -35.231   4.713   4.856  1.00 20.00     0.009 C 
HETATM   10  C4  UNL     1     -34.053   6.413   6.263  1.00 20.00     0.009 C 
ENDBRANCH   7   8
ENDBRANCH   1   7
TORSDOF 5
ENDMDL
MODEL 6
REMARK VINA RESULT:      -4.3      2.231      4.759
REMARK  5 active torsions:
REMARK  status: ('A' for Active; 'I' for Inactive)
REMARK    1  A    between atoms: C1_1  and  C8_8 
REMARK    2  A    between atoms: C5_5  and  C6_6 
REMARK    3  A    between atoms: C5_5  and  C7_7 
REMARK    4  A    between atoms: C6_6  and  C8_8 
REMARK    5  A    between atoms: C7_7  and  C9_9 
ROOT
HETATM    1  C5  UNL     1     -32.150   6.364   3.320  1.00 20.00     0.001 C 
ENDROOT
BRANCH   1   2
HETATM    2  C6  UNL     1     -33.620   6.139   2.940  1.00 20.00     0.011 C 
BRANCH   2   3
HETATM    3  C8  UNL     1     -34.543   6.094   4.166  1.00 20.00     0.043 C 
HETATM    4  C2  UNL     1     -35.188   4.716   4.306  1.00 20.00     0.017 C 
BRANCH   3   5
HETATM    5  C1  UNL     1     -33.820   6.400   5.465  1.00 20.00     0.235 C 
HETATM    6  O10 UNL     1     -34.239   6.124   6.584  1.00 20.00    -0.306 OA
ENDBRANCH   3   5
ENDBRANCH   2   3
ENDBRANCH   1   2
BRANCH   1   7
HETATM    7  C7  UNL     1     -31.728   7.814   3.054  1.00 20.00     0.004 C 
BRANCH   7   8
HETATM    8  C9  UNL     1     -32.414   8.436   1.824  1.00 20.00    -0.023 C 
HETATM    9  C3  UNL     1     -31.554   8.340   0.563  1.00 20.00     0.009 C 
HETATM   10  C4  UNL     1     -32.755   9.900   2.105  1.00 20.00     0.009 C 
ENDBRANCH   7   8
ENDBRANCH   1   7
TORSDOF 5
ENDMDL
MODEL 7
REMARK VINA RESULT:      -4.1     11.225     12.240
REMARK  5 active torsions:
REMARK  status: ('A' for Active; 'I' for Inactive)
REMARK    1  A    between atoms: C1_1  and  C8_8 
REMARK    2  A    between atoms: C5_5  and  C6_6 
REMARK    3  A    between atoms: C5_5  and  C7_7 
REMARK    4  A    between atoms: C6_6  and  C8_8 
REMARK    5  A    between atoms: C7_7  and  C9_9 
ROOT
HETATM    1  C5  UNL     1     -35.738  16.320  -4.510  1.00 20.00     0.001 C 
ENDROOT
BRANCH   1   2
HETATM    2  C6  UNL     1     -36.378  15.141  -5.254  1.00 20.00     0.011 C 
BRANCH   2   3
HETATM    3  C8  UNL     1     -35.353  14.323  -6.053  1.00 20.00     0.043 C 
HETATM    4  C2  UNL     1     -34.312  15.239  -6.693  1.00 20.00     0.017 C 
BRANCH   3   5
HETATM    5  C1  UNL     1     -34.614  13.305  -5.203  1.00 20.00     0.235 C 
HETATM    6  O10 UNL     1     -35.094  12.710  -4.243  1.00 20.00    -0.306 OA
ENDBRANCH   3   5
ENDBRANCH   2   3
ENDBRANCH   1   2
BRANCH   1   7
HETATM    7  C7  UNL     1     -35.999  16.229  -3.003  1.00 20.00     0.004 C 
BRANCH   7   8
HETATM    8  C9  UNL     1     -34.753  15.832  -2.188  1.00 20.00    -0.023 C 
HETATM    9  C3  UNL     1     -34.630  16.623  -0.886  1.00 20.00     0.009 C 
HETATM   10  C4  UNL     1     -33.495  16.031  -3.034  1.00 20.00     0.009 C 
ENDBRANCH   7   8
ENDBRANCH   1   7
TORSDOF 5
ENDMDL
MODEL 8
REMARK VINA RESULT:      -4.1     10.864     11.684
REMARK  5 active torsions:
REMARK  status: ('A' for Active; 'I' for Inactive)
REMARK    1  A    between atoms: C1_1  and  C8_8 
REMARK    2  A    between atoms: C5_5  and  C6_6 
REMARK    3  A    between atoms: C5_5  and  C7_7 
REMARK    4  A    between atoms: C6_6  and  C8_8 
REMARK    5  A    between atoms: C7_7  and  C9_9 
ROOT
HETATM    1  C5  UNL     1     -34.079  16.424  -1.927  1.00 20.00     0.001 C 
ENDROOT
BRANCH   1   2
HETATM    2  C6  UNL     1     -35.127  15.780  -2.845  1.00 20.00     0.011 C 
BRANCH   2   3
HETATM    3  C8  UNL     1     -34.495  14.899  -3.932  1.00 20.00     0.043 C 
HETATM    4  C2  UNL     1     -33.015  14.660  -3.640  1.00 20.00     0.017 C 
BRANCH   3   5
HETATM    5  C1  UNL     1     -35.166  13.544  -4.061  1.00 20.00     0.235 C 
HETATM    6  O10 UNL     1     -34.756  12.620  -4.757  1.00 20.00    -0.306 OA
ENDBRANCH   3   5
ENDBRANCH   2   3
ENDBRANCH   1   2
BRANCH   1   7
HETATM    7  C7  UNL     1     -34.670  16.733  -0.547  1.00 20.00     0.004 C 
BRANCH   7   8
HETATM    8  C9  UNL     1     -34.291  18.128  -0.016  1.00 20.00    -0.023 C 
HETATM    9  C3  UNL     1     -32.838  18.495  -0.323  1.00 20.00     0.009 C 
HETATM   10  C4  UNL     1     -34.532  18.192   1.493  1.00 20.00     0.009 C 
ENDBRANCH   7   8
ENDBRANCH   1   7
TORSDOF 5
ENDMDL
MODEL 9
REMARK VINA RESULT:      -4.1     10.987     12.232
REMARK  5 active torsions:
REMARK  status: ('A' for Active; 'I' for Inactive)
REMARK    1  A    between atoms: C1_1  and  C8_8 
REMARK    2  A    between atoms: C5_5  and  C6_6 
REMARK    3  A    between atoms: C5_5  and  C7_7 
REMARK    4  A    between atoms: C6_6  and  C8_8 
REMARK    5  A    between atoms: C7_7  and  C9_9 
ROOT
HETATM    1  C5  UNL     1     -34.587  16.374  -1.238  1.00 20.00     0.001 C 
ENDROOT
BRANCH   1   2
HETATM    2  C6  UNL     1     -33.534  17.490  -1.229  1.00 20.00     0.011 C 
BRANCH   2   3
HETATM    3  C8  UNL     1     -33.743  18.486  -0.079  1.00 20.00     0.043 C 
HETATM    4  C2  UNL     1     -34.636  17.882   1.003  1.00 20.00     0.017 C 
BRANCH   3   5
HETATM    5  C1  UNL     1     -32.442  18.912   0.579  1.00 20.00     0.235 C 
HETATM    6  O10 UNL     1     -31.418  19.217  -0.023  1.00 20.00    -0.306 OA
ENDBRANCH   3   5
ENDBRANCH   2   3
ENDBRANCH   1   2
BRANCH   1   7
HETATM    7  C7  UNL     1     -34.807  15.834  -2.655  1.00 20.00     0.004 C 
BRANCH   7   8
HETATM    8  C9  UNL     1     -33.506  15.394  -3.352  1.00 20.00    -0.023 C 
HETATM    9  C3  UNL     1     -33.205  16.221  -4.603  1.00 20.00     0.009 C 
HETATM   10  C4  UNL     1     -33.590  13.913  -3.722  1.00 20.00     0.009 C 
ENDBRANCH   7   8
ENDBRANCH   1   7
TORSDOF 5
ENDMDL
