MODEL 1
REMARK VINA RESULT:      -4.1      0.000      0.000
REMARK  0 active torsions:
REMARK  status: ('A' for Active; 'I' for Inactive)
ROOT
HETATM    1  C1  UNL     1     -33.446   6.294   3.764  1.00 20.00     0.223 A 
HETATM    2  C2  UNL     1     -34.415   6.496   4.948  1.00 20.00     0.096 A 
HETATM    3  C3  UNL     1     -35.096   5.186   4.443  1.00 20.00     0.093 A 
HETATM    4  C4  UNL     1     -33.767   6.530   6.318  1.00 20.00     0.022 C 
HETATM    5  C5  UNL     1     -35.040   3.919   5.274  1.00 20.00     0.033 C 
HETATM    6  N6  UNL     1     -34.095   5.163   3.381  1.00 20.00    -0.356 N 
HETATM    7  O7  UNL     1     -32.483   6.870   3.312  1.00 20.00    -0.273 OA
HETATM    8  H16 UNL     1     -33.912   4.534   2.611  1.00 20.00     0.162 HD
ENDROOT
TORSDOF 0
ENDMDL
MODEL 2
REMARK VINA RESULT:      -3.8      2.162      3.021
REMARK  0 active torsions:
REMARK  status: ('A' for Active; 'I' for Inactive)
ROOT
HETATM    1  C1  UNL     1     -34.831   4.555   5.154  1.00 20.00     0.223 A 
HETATM    2  C2  UNL     1     -34.519   5.904   4.474  1.00 20.00     0.096 A 
HETATM    3  C3  UNL     1     -34.514   6.483   5.924  1.00 20.00     0.093 A 
HETATM    4  C4  UNL     1     -33.251   5.936   3.644  1.00 20.00     0.022 C 
HETATM    5  C5  UNL     1     -33.229   6.997   6.542  1.00 20.00     0.033 C 
HETATM    6  N6  UNL     1     -34.815   5.131   6.384  1.00 20.00    -0.356 N 
HETATM    7  O7  UNL     1     -35.018   3.415   4.793  1.00 20.00    -0.273 OA
HETATM    8  H16 UNL     1     -34.961   4.724   7.298  1.00 20.00     0.162 HD
ENDROOT
TORSDOF 0
ENDMDL
MODEL 3
REMARK VINA RESULT:      -3.8     11.818     12.595
REMARK  0 active torsions:
REMARK  status: ('A' for Active; 'I' for Inactive)
ROOT
HETATM    1  C1  UNL     1     -34.458  13.716  -4.005  1.00 20.00     0.223 A 
HETATM    2  C2  UNL     1     -34.633  14.899  -3.031  1.00 20.00     0.096 A 
HETATM    3  C3  UNL     1     -33.343  15.470  -3.699  1.00 20.00     0.093 A 
HETATM    4  C4  UNL     1     -35.943  15.653  -3.154  1.00 20.00     0.022 C 
HETATM    5  C5  UNL     1     -33.405  16.726  -4.545  1.00 20.00     0.033 C 
HETATM    6  N6  UNL     1     -33.337  14.273  -4.534  1.00 20.00    -0.356 N 
HETATM    7  O7  UNL     1     -35.046  12.687  -4.248  1.00 20.00    -0.273 OA
HETATM    8  H16 UNL     1     -32.728  13.941  -5.270  1.00 20.00     0.162 HD
ENDROOT
TORSDOF 0
ENDMDL
MODEL 4
REMARK VINA RESULT:      -3.7      1.752      2.389
REMARK  0 active torsions:
REMARK  status: ('A' for Active; 'I' for Inactive)
ROOT
HETATM    1  C1  UNL     1     -34.083   6.335   5.596  1.00 20.00     0.223 A 
HETATM    2  C2  UNL     1     -35.100   5.265   5.147  1.00 20.00     0.096 A 
HETATM    3  C3  UNL     1     -34.811   5.786   3.704  1.00 20.00     0.093 A 
HETATM    4  C4  UNL     1     -34.748   3.838   5.517  1.00 20.00     0.022 C 
HETATM    5  C5  UNL     1     -34.101   4.906   2.695  1.00 20.00     0.033 C 
HETATM    6  N6  UNL     1     -33.888   6.738   4.313  1.00 20.00    -0.356 N 
HETATM    7  O7  UNL     1     -33.609   6.707   6.646  1.00 20.00    -0.273 OA
HETATM    8  H16 UNL     1     -33.286   7.460   3.941  1.00 20.00     0.162 HD
ENDROOT
TORSDOF 0
ENDMDL
MODEL 5
REMARK VINA RESULT:      -3.7     11.958     12.601
REMARK  0 active torsions:
REMARK  status: ('A' for Active; 'I' for Inactive)
ROOT
HETATM    1  C1  UNL     1     -36.728  14.906  -3.542  1.00 20.00     0.223 A 
HETATM    2  C2  UNL     1     -35.232  15.093  -3.870  1.00 20.00     0.096 A 
HETATM    3  C3  UNL     1     -35.305  16.308  -2.892  1.00 20.00     0.093 A 
HETATM    4  C4  UNL     1     -34.342  13.911  -3.539  1.00 20.00     0.022 C 
HETATM    5  C5  UNL     1     -34.562  16.278  -1.571  1.00 20.00     0.033 C 
HETATM    6  N6  UNL     1     -36.715  15.980  -2.709  1.00 20.00    -0.356 N 
HETATM    7  O7  UNL     1     -37.605  14.136  -3.861  1.00 20.00    -0.273 OA
HETATM    8  H16 UNL     1     -37.458  16.385  -2.156  1.00 20.00     0.162 HD
ENDROOT
TORSDOF 0
ENDMDL
MODEL 6
REMARK VINA RESULT:      -3.7     11.918     12.265
REMARK  0 active torsions:
REMARK  status: ('A' for Active; 'I' for Inactive)
ROOT
HETATM    1  C1  UNL     1     -34.859  13.740  -4.223  1.00 20.00     0.223 A 
HETATM    2  C2  UNL     1     -33.824  14.884  -4.221  1.00 20.00     0.096 A 
HETATM    3  C3  UNL     1     -34.914  15.691  -3.448  1.00 20.00     0.093 A 
HETATM    4  C4  UNL     1     -32.504  14.564  -3.548  1.00 20.00     0.022 C 
HETATM    5  C5  UNL     1     -34.700  16.082  -2.000  1.00 20.00     0.033 C 
HETATM    6  N6  UNL     1     -35.759  14.506  -3.553  1.00 20.00    -0.356 N 
HETATM    7  O7  UNL     1     -34.907  12.602  -4.634  1.00 20.00    -0.273 OA
HETATM    8  H16 UNL     1     -36.696  14.289  -3.240  1.00 20.00     0.162 HD
ENDROOT
TORSDOF 0
ENDMDL
MODEL 7
REMARK VINA RESULT:      -3.5      1.824      2.646
REMARK  0 active torsions:
REMARK  status: ('A' for Active; 'I' for Inactive)
ROOT
HETATM    1  C1  UNL     1     -34.859   5.493   3.852  1.00 20.00     0.223 A 
HETATM    2  C2  UNL     1     -33.716   5.566   4.886  1.00 20.00     0.096 A 
HETATM    3  C3  UNL     1     -32.796   5.838   3.655  1.00 20.00     0.093 A 
HETATM    4  C4  UNL     1     -33.876   6.628   5.957  1.00 20.00     0.022 C 
HETATM    5  C5  UNL     1     -32.131   7.188   3.474  1.00 20.00     0.033 C 
HETATM    6  N6  UNL     1     -33.995   5.729   2.830  1.00 20.00    -0.356 N 
HETATM    7  O7  UNL     1     -36.054   5.308   3.879  1.00 20.00    -0.273 OA
HETATM    8  H16 UNL     1     -34.165   5.803   1.836  1.00 20.00     0.162 HD
ENDROOT
TORSDOF 0
ENDMDL
MODEL 8
REMARK VINA RESULT:      -3.5     12.392     13.471
REMARK  0 active torsions:
REMARK  status: ('A' for Active; 'I' for Inactive)
ROOT
HETATM    1  C1  UNL     1     -34.786  13.747  -4.685  1.00 20.00     0.223 A 
HETATM    2  C2  UNL     1     -35.227  14.862  -5.657  1.00 20.00     0.096 A 
HETATM    3  C3  UNL     1     -34.494  15.827  -4.673  1.00 20.00     0.093 A 
HETATM    4  C4  UNL     1     -34.730  14.716  -7.081  1.00 20.00     0.022 C 
HETATM    5  C5  UNL     1     -33.236  16.555  -5.103  1.00 20.00     0.033 C 
HETATM    6  N6  UNL     1     -34.174  14.649  -3.874  1.00 20.00    -0.356 N 
HETATM    7  O7  UNL     1     -34.904  12.545  -4.621  1.00 20.00    -0.273 OA
HETATM    8  H16 UNL     1     -33.666  14.511  -3.011  1.00 20.00     0.162 HD
ENDROOT
TORSDOF 0
ENDMDL
MODEL 9
REMARK VINA RESULT:      -3.4      2.206      3.237
REMARK  0 active torsions:
REMARK  status: ('A' for Active; 'I' for Inactive)
ROOT
HETATM    1  C1  UNL     1     -34.774   4.733   4.860  1.00 20.00     0.223 A 
HETATM    2  C2  UNL     1     -34.864   5.598   3.585  1.00 20.00     0.096 A 
HETATM    3  C3  UNL     1     -33.919   6.581   4.344  1.00 20.00     0.093 A 
HETATM    4  C4  UNL     1     -34.390   4.927   2.311  1.00 20.00     0.022 C 
HETATM    5  C5  UNL     1     -32.498   6.805   3.867  1.00 20.00     0.033 C 
HETATM    6  N6  UNL     1     -33.958   5.640   5.458  1.00 20.00    -0.356 N 
HETATM    7  O7  UNL     1     -35.221   3.672   5.232  1.00 20.00    -0.273 OA
HETATM    8  H16 UNL     1     -33.530   5.628   6.374  1.00 20.00     0.162 HD
ENDROOT
TORSDOF 0
ENDMDL
