MODEL 1
REMARK VINA RESULT:      -4.3      0.000      0.000
REMARK  1 active torsions:
REMARK  status: ('A' for Active; 'I' for Inactive)
REMARK    1  A    between atoms: C1_1  and  C3_3 
ROOT
HETATM    1  C2  UNL     1     -34.746  16.341  -4.229  1.00 20.00     0.084 A 
HETATM    2  C3  UNL     1     -35.386  15.000  -3.930  1.00 20.00     0.087 A 
HETATM    3  C4  UNL     1     -34.291  15.561  -3.031  1.00 20.00     0.195 A 
HETATM    4  C5  UNL     1     -36.822  15.014  -3.467  1.00 20.00     0.029 C 
HETATM    5  F7  UNL     1     -33.037  14.966  -3.148  1.00 20.00    -0.224 F 
HETATM    6 CL9  UNL     1     -34.662  16.185  -1.433  1.00 20.00    -0.081 Cl
ENDROOT
BRANCH   2   7
HETATM    7  C1  UNL     1     -34.995  13.863  -4.798  1.00 20.00     0.231 C 
HETATM    8  O6  UNL     1     -34.997  12.707  -4.385  1.00 20.00    -0.279 OA
HETATM    9 CL8  UNL     1     -34.558  14.381  -6.397  1.00 20.00    -0.043 Cl
ENDBRANCH   2   7
TORSDOF 1
ENDMDL
MODEL 2
REMARK VINA RESULT:      -4.2      1.813      2.136
REMARK  1 active torsions:
REMARK  status: ('A' for Active; 'I' for Inactive)
REMARK    1  A    between atoms: C1_1  and  C3_3 
ROOT
HETATM    1  C2  UNL     1     -32.969  14.873  -3.706  1.00 20.00     0.084 A 
HETATM    2  C3  UNL     1     -34.305  14.987  -4.413  1.00 20.00     0.087 A 
HETATM    3  C4  UNL     1     -34.000  15.828  -3.180  1.00 20.00     0.195 A 
HETATM    4  C5  UNL     1     -34.304  15.625  -5.780  1.00 20.00     0.029 C 
HETATM    5  F7  UNL     1     -34.628  15.437  -2.000  1.00 20.00    -0.224 F 
HETATM    6 CL9  UNL     1     -33.692  17.551  -3.313  1.00 20.00    -0.081 Cl
ENDROOT
BRANCH   2   7
HETATM    7  C1  UNL     1     -35.263  13.873  -4.218  1.00 20.00     0.231 C 
HETATM    8  O6  UNL     1     -34.894  12.703  -4.181  1.00 20.00    -0.279 OA
HETATM    9 CL8  UNL     1     -36.899  14.436  -4.059  1.00 20.00    -0.043 Cl
ENDBRANCH   2   7
TORSDOF 1
ENDMDL
MODEL 3
REMARK VINA RESULT:      -4.1     12.078     12.548
REMARK  1 active torsions:
REMARK  status: ('A' for Active; 'I' for Inactive)
REMARK    1  A    between atoms: C1_1  and  C3_3 
ROOT
HETATM    1  C2  UNL     1     -34.378   7.266   3.764  1.00 20.00     0.084 A 
HETATM    2  C3  UNL     1     -34.070   6.246   4.842  1.00 20.00     0.087 A 
HETATM    3  C4  UNL     1     -33.156   6.403   3.633  1.00 20.00     0.195 A 
HETATM    4  C5  UNL     1     -33.639   6.780   6.187  1.00 20.00     0.029 C 
HETATM    5  F7  UNL     1     -33.236   5.400   2.670  1.00 20.00    -0.224 F 
HETATM    6 CL9  UNL     1     -31.579   7.157   3.782  1.00 20.00    -0.081 Cl
ENDROOT
BRANCH   2   7
HETATM    7  C1  UNL     1     -34.908   5.024   4.868  1.00 20.00     0.231 C 
HETATM    8  O6  UNL     1     -35.883   4.894   4.133  1.00 20.00    -0.279 OA
HETATM    9 CL8  UNL     1     -34.340   3.865   6.031  1.00 20.00    -0.043 Cl
ENDBRANCH   2   7
TORSDOF 1
ENDMDL
MODEL 4
REMARK VINA RESULT:      -4.0      2.196      2.486
REMARK  1 active torsions:
REMARK  status: ('A' for Active; 'I' for Inactive)
REMARK    1  A    between atoms: C1_1  and  C3_3 
ROOT
HETATM    1  C2  UNL     1     -36.121  15.273  -4.934  1.00 20.00     0.084 A 
HETATM    2  C3  UNL     1     -34.942  14.997  -4.023  1.00 20.00     0.087 A 
HETATM    3  C4  UNL     1     -34.761  15.780  -5.317  1.00 20.00     0.195 A 
HETATM    4  C5  UNL     1     -34.918  15.716  -2.696  1.00 20.00     0.029 C 
HETATM    5  F7  UNL     1     -34.144  15.100  -6.364  1.00 20.00    -0.224 F 
HETATM    6 CL9  UNL     1     -34.475  17.511  -5.295  1.00 20.00    -0.081 Cl
ENDROOT
BRANCH   2   7
HETATM    7  C1  UNL     1     -34.407  13.614  -4.020  1.00 20.00     0.231 C 
HETATM    8  O6  UNL     1     -35.096  12.655  -4.355  1.00 20.00    -0.279 OA
HETATM    9 CL8  UNL     1     -32.750  13.555  -3.500  1.00 20.00    -0.043 Cl
ENDBRANCH   2   7
TORSDOF 1
ENDMDL
MODEL 5
REMARK VINA RESULT:      -4.0      2.168      2.592
REMARK  1 active torsions:
REMARK  status: ('A' for Active; 'I' for Inactive)
REMARK    1  A    between atoms: C1_1  and  C3_3 
ROOT
HETATM    1  C2  UNL     1     -33.614  16.032  -4.951  1.00 20.00     0.084 A 
HETATM    2  C3  UNL     1     -34.450  14.822  -5.317  1.00 20.00     0.087 A 
HETATM    3  C4  UNL     1     -35.067  16.000  -4.574  1.00 20.00     0.195 A 
HETATM    4  C5  UNL     1     -34.748  14.614  -6.782  1.00 20.00     0.029 C 
HETATM    5  F7  UNL     1     -35.327  15.803  -3.220  1.00 20.00    -0.224 F 
HETATM    6 CL9  UNL     1     -36.166  17.105  -5.381  1.00 20.00    -0.081 Cl
ENDROOT
BRANCH   2   7
HETATM    7  C1  UNL     1     -34.233  13.592  -4.519  1.00 20.00     0.231 C 
HETATM    8  O6  UNL     1     -35.011  12.644  -4.571  1.00 20.00    -0.279 OA
HETATM    9 CL8  UNL     1     -32.795  13.685  -3.550  1.00 20.00    -0.043 Cl
ENDBRANCH   2   7
TORSDOF 1
ENDMDL
MODEL 6
REMARK VINA RESULT:      -3.9      2.350      2.585
REMARK  1 active torsions:
REMARK  status: ('A' for Active; 'I' for Inactive)
REMARK    1  A    between atoms: C1_1  and  C3_3 
ROOT
HETATM    1  C2  UNL     1     -34.508  15.303  -5.218  1.00 20.00     0.084 A 
HETATM    2  C3  UNL     1     -35.460  14.967  -4.088  1.00 20.00     0.087 A 
HETATM    3  C4  UNL     1     -34.447  13.944  -4.584  1.00 20.00     0.195 A 
HETATM    4  C5  UNL     1     -35.237  15.672  -2.772  1.00 20.00     0.029 C 
HETATM    5  F7  UNL     1     -34.955  12.902  -5.357  1.00 20.00    -0.224 F 
HETATM    6 CL9  UNL     1     -33.036  13.528  -3.627  1.00 20.00    -0.081 Cl
ENDROOT
BRANCH   2   7
HETATM    7  C1  UNL     1     -36.873  14.713  -4.456  1.00 20.00     0.231 C 
HETATM    8  O6  UNL     1     -37.647  14.147  -3.690  1.00 20.00    -0.279 OA
HETATM    9 CL8  UNL     1     -37.252  15.302  -6.046  1.00 20.00    -0.043 Cl
ENDBRANCH   2   7
TORSDOF 1
ENDMDL
MODEL 7
REMARK VINA RESULT:      -3.9      2.200      2.646
REMARK  1 active torsions:
REMARK  status: ('A' for Active; 'I' for Inactive)
REMARK    1  A    between atoms: C1_1  and  C3_3 
ROOT
HETATM    1  C2  UNL     1     -34.770  13.388  -3.905  1.00 20.00     0.084 A 
HETATM    2  C3  UNL     1     -35.363  14.581  -4.629  1.00 20.00     0.087 A 
HETATM    3  C4  UNL     1     -34.346  14.773  -3.511  1.00 20.00     0.195 A 
HETATM    4  C5  UNL     1     -34.951  14.784  -6.066  1.00 20.00     0.029 C 
HETATM    5  F7  UNL     1     -34.850  15.228  -2.295  1.00 20.00    -0.224 F 
HETATM    6 CL9  UNL     1     -32.701  15.276  -3.860  1.00 20.00    -0.081 Cl
ENDROOT
BRANCH   2   7
HETATM    7  C1  UNL     1     -36.764  14.936  -4.300  1.00 20.00     0.231 C 
HETATM    8  O6  UNL     1     -37.537  14.121  -3.805  1.00 20.00    -0.279 OA
HETATM    9 CL8  UNL     1     -37.132  16.587  -4.697  1.00 20.00    -0.043 Cl
ENDBRANCH   2   7
TORSDOF 1
ENDMDL
MODEL 8
REMARK VINA RESULT:      -3.8      1.867      3.389
REMARK  1 active torsions:
REMARK  status: ('A' for Active; 'I' for Inactive)
REMARK    1  A    between atoms: C1_1  and  C3_3 
ROOT
HETATM    1  C2  UNL     1     -33.264  15.892  -4.371  1.00 20.00     0.084 A 
HETATM    2  C3  UNL     1     -34.442  14.956  -4.186  1.00 20.00     0.087 A 
HETATM    3  C4  UNL     1     -34.392  15.924  -5.362  1.00 20.00     0.195 A 
HETATM    4  C5  UNL     1     -34.188  13.485  -4.410  1.00 20.00     0.029 C 
HETATM    5  F7  UNL     1     -35.229  17.034  -5.278  1.00 20.00    -0.224 F 
HETATM    6 CL9  UNL     1     -34.089  15.352  -6.993  1.00 20.00    -0.081 Cl
ENDROOT
BRANCH   2   7
HETATM    7  C1  UNL     1     -35.403  15.291  -3.109  1.00 20.00     0.231 C 
HETATM    8  O6  UNL     1     -36.596  15.017  -3.200  1.00 20.00    -0.279 OA
HETATM    9 CL8  UNL     1     -34.633  16.088  -1.771  1.00 20.00    -0.043 Cl
ENDBRANCH   2   7
TORSDOF 1
ENDMDL
MODEL 9
REMARK VINA RESULT:      -3.8      1.945      3.626
REMARK  1 active torsions:
REMARK  status: ('A' for Active; 'I' for Inactive)
REMARK    1  A    between atoms: C1_1  and  C3_3 
ROOT
HETATM    1  C2  UNL     1     -35.580  15.574  -5.064  1.00 20.00     0.084 A 
HETATM    2  C3  UNL     1     -34.088  15.781  -4.902  1.00 20.00     0.087 A 
HETATM    3  C4  UNL     1     -34.629  14.676  -5.799  1.00 20.00     0.195 A 
HETATM    4  C5  UNL     1     -33.499  17.029  -5.515  1.00 20.00     0.029 C 
HETATM    5  F7  UNL     1     -34.529  13.378  -5.302  1.00 20.00    -0.224 F 
HETATM    6 CL9  UNL     1     -34.539  14.802  -7.547  1.00 20.00    -0.081 Cl
ENDROOT
BRANCH   2   7
HETATM    7  C1  UNL     1     -33.485  15.342  -3.621  1.00 20.00     0.231 C 
HETATM    8  O6  UNL     1     -32.370  14.830  -3.575  1.00 20.00    -0.279 OA
HETATM    9 CL8  UNL     1     -34.533  15.641  -2.268  1.00 20.00    -0.043 Cl
ENDBRANCH   2   7
TORSDOF 1
ENDMDL
