MODEL 1
REMARK VINA RESULT:      -4.2      0.000      0.000
REMARK  2 active torsions:
REMARK  status: ('A' for Active; 'I' for Inactive)
REMARK    1  A    between atoms: C2_2  and  C5_5 
REMARK    2  A    between atoms: C5_5  and  O6_6 
ROOT
HETATM    1  C1  UNL     1     -35.685   5.603   4.253  1.00 20.00     0.097 A 
HETATM    2  C2  UNL     1     -34.238   5.706   4.706  1.00 20.00     0.049 A 
HETATM    3  C3  UNL     1     -35.034   4.468   4.959  1.00 20.00     0.254 A 
HETATM    4  C4  UNL     1     -33.927   6.600   5.874  1.00 20.00     0.024 C 
HETATM    5  F7  UNL     1     -35.431   4.125   6.232  1.00 20.00    -0.205 F 
HETATM    6  F8  UNL     1     -34.764   3.297   4.288  1.00 20.00    -0.205 F 
ENDROOT
BRANCH   2   7
HETATM    7  C5  UNL     1     -33.165   5.654   3.653  1.00 20.00     0.179 C 
BRANCH   7   8
HETATM    8  O6  UNL     1     -32.352   6.819   3.750  1.00 20.00    -0.400 OA
HETATM    9  H16 UNL     1     -32.956   7.575   3.809  1.00 20.00     0.209 HD
ENDBRANCH   7   8
ENDBRANCH   2   7
TORSDOF 2
ENDMDL
MODEL 2
REMARK VINA RESULT:      -4.0      2.318      2.935
REMARK  2 active torsions:
REMARK  status: ('A' for Active; 'I' for Inactive)
REMARK    1  A    between atoms: C2_2  and  C5_5 
REMARK    2  A    between atoms: C5_5  and  O6_6 
ROOT
HETATM    1  C1  UNL     1     -35.582   5.911   3.546  1.00 20.00     0.097 A 
HETATM    2  C2  UNL     1     -34.625   5.306   4.561  1.00 20.00     0.049 A 
HETATM    3  C3  UNL     1     -34.195   5.550   3.152  1.00 20.00     0.254 A 
HETATM    4  C4  UNL     1     -34.862   3.886   4.993  1.00 20.00     0.024 C 
HETATM    5  F7  UNL     1     -33.970   4.505   2.284  1.00 20.00    -0.205 F 
HETATM    6  F8  UNL     1     -33.283   6.535   2.846  1.00 20.00    -0.205 F 
ENDROOT
BRANCH   2   7
HETATM    7  C5  UNL     1     -34.077   6.205   5.635  1.00 20.00     0.179 C 
BRANCH   7   8
HETATM    8  O6  UNL     1     -34.709   5.901   6.873  1.00 20.00    -0.400 OA
HETATM    9  H16 UNL     1     -34.964   4.966   6.833  1.00 20.00     0.209 HD
ENDBRANCH   7   8
ENDBRANCH   2   7
TORSDOF 2
ENDMDL
MODEL 3
REMARK VINA RESULT:      -4.0      2.507      2.895
REMARK  2 active torsions:
REMARK  status: ('A' for Active; 'I' for Inactive)
REMARK    1  A    between atoms: C2_2  and  C5_5 
REMARK    2  A    between atoms: C5_5  and  O6_6 
ROOT
HETATM    1  C1  UNL     1     -33.031   5.813   4.085  1.00 20.00     0.097 A 
HETATM    2  C2  UNL     1     -34.051   5.571   5.186  1.00 20.00     0.049 A 
HETATM    3  C3  UNL     1     -34.469   6.118   3.861  1.00 20.00     0.254 A 
HETATM    4  C4  UNL     1     -34.047   6.502   6.367  1.00 20.00     0.024 C 
HETATM    5  F7  UNL     1     -34.888   7.423   3.729  1.00 20.00    -0.205 F 
HETATM    6  F8  UNL     1     -35.209   5.363   2.980  1.00 20.00    -0.205 F 
ENDROOT
BRANCH   2   7
HETATM    7  C5  UNL     1     -34.414   4.149   5.512  1.00 20.00     0.179 C 
BRANCH   7   8
HETATM    8  O6  UNL     1     -35.603   4.132   6.294  1.00 20.00    -0.400 OA
HETATM    9  H16 UNL     1     -35.415   4.642   7.096  1.00 20.00     0.209 HD
ENDBRANCH   7   8
ENDBRANCH   2   7
TORSDOF 2
ENDMDL
MODEL 4
REMARK VINA RESULT:      -4.0      1.732      2.438
REMARK  2 active torsions:
REMARK  status: ('A' for Active; 'I' for Inactive)
REMARK    1  A    between atoms: C2_2  and  C5_5 
REMARK    2  A    between atoms: C5_5  and  O6_6 
ROOT
HETATM    1  C1  UNL     1     -33.685   4.470   5.923  1.00 20.00     0.097 A 
HETATM    2  C2  UNL     1     -34.271   5.419   4.891  1.00 20.00     0.049 A 
HETATM    3  C3  UNL     1     -34.317   5.747   6.346  1.00 20.00     0.254 A 
HETATM    4  C4  UNL     1     -35.553   5.020   4.214  1.00 20.00     0.024 C 
HETATM    5  F7  UNL     1     -35.505   5.736   7.042  1.00 20.00    -0.205 F 
HETATM    6  F8  UNL     1     -33.548   6.760   6.873  1.00 20.00    -0.205 F 
ENDROOT
BRANCH   2   7
HETATM    7  C5  UNL     1     -33.317   6.190   4.020  1.00 20.00     0.179 C 
BRANCH   7   8
HETATM    8  O6  UNL     1     -33.469   5.772   2.668  1.00 20.00    -0.400 OA
HETATM    9  H16 UNL     1     -32.745   5.153   2.486  1.00 20.00     0.209 HD
ENDBRANCH   7   8
ENDBRANCH   2   7
TORSDOF 2
ENDMDL
MODEL 5
REMARK VINA RESULT:      -4.0     12.283     12.757
REMARK  2 active torsions:
REMARK  status: ('A' for Active; 'I' for Inactive)
REMARK    1  A    between atoms: C2_2  and  C5_5 
REMARK    2  A    between atoms: C5_5  and  O6_6 
ROOT
HETATM    1  C1  UNL     1     -34.307  16.048  -4.197  1.00 20.00     0.097 A 
HETATM    2  C2  UNL     1     -34.134  14.555  -3.970  1.00 20.00     0.049 A 
HETATM    3  C3  UNL     1     -34.930  15.387  -3.019  1.00 20.00     0.254 A 
HETATM    4  C4  UNL     1     -32.786  14.063  -3.521  1.00 20.00     0.024 C 
HETATM    5  F7  UNL     1     -34.471  15.656  -1.750  1.00 20.00    -0.205 F 
HETATM    6  F8  UNL     1     -36.299  15.263  -2.938  1.00 20.00    -0.205 F 
ENDROOT
BRANCH   2   7
HETATM    7  C5  UNL     1     -34.874  13.614  -4.879  1.00 20.00     0.179 C 
BRANCH   7   8
HETATM    8  O6  UNL     1     -35.356  12.508  -4.122  1.00 20.00    -0.400 OA
HETATM    9  H16 UNL     1     -36.016  12.861  -3.506  1.00 20.00     0.209 HD
ENDBRANCH   7   8
ENDBRANCH   2   7
TORSDOF 2
ENDMDL
MODEL 6
REMARK VINA RESULT:      -3.9     12.824     13.398
REMARK  2 active torsions:
REMARK  status: ('A' for Active; 'I' for Inactive)
REMARK    1  A    between atoms: C2_2  and  C5_5 
REMARK    2  A    between atoms: C5_5  and  O6_6 
ROOT
HETATM    1  C1  UNL     1     -34.227  15.488  -2.949  1.00 20.00     0.097 A 
HETATM    2  C2  UNL     1     -34.338  14.694  -4.241  1.00 20.00     0.049 A 
HETATM    3  C3  UNL     1     -33.148  15.554  -3.970  1.00 20.00     0.254 A 
HETATM    4  C4  UNL     1     -35.328  15.160  -5.271  1.00 20.00     0.024 C 
HETATM    5  F7  UNL     1     -32.932  16.716  -4.677  1.00 20.00    -0.205 F 
HETATM    6  F8  UNL     1     -31.913  15.003  -3.711  1.00 20.00    -0.205 F 
ENDROOT
BRANCH   2   7
HETATM    7  C5  UNL     1     -34.164  13.202  -4.168  1.00 20.00     0.179 C 
BRANCH   7   8
HETATM    8  O6  UNL     1     -35.442  12.576  -4.197  1.00 20.00    -0.400 OA
HETATM    9  H16 UNL     1     -35.742  12.600  -5.120  1.00 20.00     0.209 HD
ENDBRANCH   7   8
ENDBRANCH   2   7
TORSDOF 2
ENDMDL
MODEL 7
REMARK VINA RESULT:      -3.8     12.812     13.345
REMARK  2 active torsions:
REMARK  status: ('A' for Active; 'I' for Inactive)
REMARK    1  A    between atoms: C2_2  and  C5_5 
REMARK    2  A    between atoms: C5_5  and  O6_6 
ROOT
HETATM    1  C1  UNL     1     -34.977  14.500  -3.599  1.00 20.00     0.097 A 
HETATM    2  C2  UNL     1     -34.158  15.074  -4.745  1.00 20.00     0.049 A 
HETATM    3  C3  UNL     1     -33.928  13.680  -4.261  1.00 20.00     0.254 A 
HETATM    4  C4  UNL     1     -33.124  16.116  -4.419  1.00 20.00     0.024 C 
HETATM    5  F7  UNL     1     -32.780  13.342  -3.580  1.00 20.00    -0.205 F 
HETATM    6  F8  UNL     1     -34.280  12.592  -5.027  1.00 20.00    -0.205 F 
ENDROOT
BRANCH   2   7
HETATM    7  C5  UNL     1     -34.837  15.259  -6.073  1.00 20.00     0.179 C 
BRANCH   7   8
HETATM    8  O6  UNL     1     -33.920  14.959  -7.119  1.00 20.00    -0.400 OA
HETATM    9  H16 UNL     1     -34.020  15.657  -7.785  1.00 20.00     0.209 HD
ENDBRANCH   7   8
ENDBRANCH   2   7
TORSDOF 2
ENDMDL
MODEL 8
REMARK VINA RESULT:      -3.8      2.689      3.329
REMARK  2 active torsions:
REMARK  status: ('A' for Active; 'I' for Inactive)
REMARK    1  A    between atoms: C2_2  and  C5_5 
REMARK    2  A    between atoms: C5_5  and  O6_6 
ROOT
HETATM    1  C1  UNL     1     -33.712   6.763   4.973  1.00 20.00     0.097 A 
HETATM    2  C2  UNL     1     -34.379   5.538   4.367  1.00 20.00     0.049 A 
HETATM    3  C3  UNL     1     -33.169   6.143   3.735  1.00 20.00     0.254 A 
HETATM    4  C4  UNL     1     -35.704   5.724   3.681  1.00 20.00     0.024 C 
HETATM    5  F7  UNL     1     -33.250   6.809   2.533  1.00 20.00    -0.205 F 
HETATM    6  F8  UNL     1     -31.954   5.497   3.760  1.00 20.00    -0.205 F 
ENDROOT
BRANCH   2   7
HETATM    7  C5  UNL     1     -34.223   4.224   5.082  1.00 20.00     0.179 C 
BRANCH   7   8
HETATM    8  O6  UNL     1     -35.502   3.626   5.256  1.00 20.00    -0.400 OA
HETATM    9  H16 UNL     1     -36.111   4.095   4.665  1.00 20.00     0.209 HD
ENDBRANCH   7   8
ENDBRANCH   2   7
TORSDOF 2
ENDMDL
MODEL 9
REMARK VINA RESULT:      -3.8     12.626     13.172
REMARK  2 active torsions:
REMARK  status: ('A' for Active; 'I' for Inactive)
REMARK    1  A    between atoms: C2_2  and  C5_5 
REMARK    2  A    between atoms: C5_5  and  O6_6 
ROOT
HETATM    1  C1  UNL     1     -33.831  15.704  -4.870  1.00 20.00     0.097 A 
HETATM    2  C2  UNL     1     -34.596  14.607  -4.148  1.00 20.00     0.049 A 
HETATM    3  C3  UNL     1     -33.339  15.170  -3.573  1.00 20.00     0.254 A 
HETATM    4  C4  UNL     1     -34.552  13.220  -4.725  1.00 20.00     0.024 C 
HETATM    5  F7  UNL     1     -32.182  14.426  -3.523  1.00 20.00    -0.205 F 
HETATM    6  F8  UNL     1     -33.362  15.960  -2.445  1.00 20.00    -0.205 F 
ENDROOT
BRANCH   2   7
HETATM    7  C5  UNL     1     -35.900  14.971  -3.493  1.00 20.00     0.179 C 
BRANCH   7   8
HETATM    8  O6  UNL     1     -36.890  14.010  -3.844  1.00 20.00    -0.400 OA
HETATM    9  H16 UNL     1     -36.496  13.138  -3.690  1.00 20.00     0.209 HD
ENDBRANCH   7   8
ENDBRANCH   2   7
TORSDOF 2
ENDMDL
