MODEL 1
REMARK VINA RESULT:      -4.5      0.000      0.000
REMARK  1 active torsions:
REMARK  status: ('A' for Active; 'I' for Inactive)
REMARK    1  A    between atoms: C1_1  and  C7_7 
ROOT
HETATM    1  C2  UNL     1     -33.648  16.436  -2.556  1.00 20.00     0.006 C 
HETATM    2  C3  UNL     1     -33.284  15.642  -3.814  1.00 20.00     0.017 C 
HETATM    3  C4  UNL     1     -35.024  15.939  -2.135  1.00 20.00     0.069 C 
HETATM    4  C5  UNL     1     -37.827  15.233  -4.101  1.00 20.00     0.197 C 
HETATM    5  C6  UNL     1     -37.538  16.708  -4.106  1.00 20.00     0.197 C 
HETATM    6  C7  UNL     1     -34.560  14.915  -4.259  1.00 20.00     0.109 C 
HETATM    7  C8  UNL     1     -35.688  15.570  -3.456  1.00 20.00     0.173 C 
HETATM    8  O10 UNL     1     -36.808  14.709  -3.251  1.00 20.00    -0.352 OA
HETATM    9  O11 UNL     1     -36.113  16.762  -4.141  1.00 20.00    -0.352 OA
ENDROOT
BRANCH   6  10
HETATM   10  C1  UNL     1     -34.434  13.444  -3.986  1.00 20.00     0.241 C 
HETATM   11  O9  UNL     1     -34.771  12.577  -4.786  1.00 20.00    -0.306 OA
ENDBRANCH   6  10
TORSDOF 1
ENDMDL
MODEL 2
REMARK VINA RESULT:      -4.5      1.681      2.971
REMARK  1 active torsions:
REMARK  status: ('A' for Active; 'I' for Inactive)
REMARK    1  A    between atoms: C1_1  and  C7_7 
ROOT
HETATM    1  C2  UNL     1     -33.685  13.653  -3.796  1.00 20.00     0.006 C 
HETATM    2  C3  UNL     1     -35.019  13.419  -4.512  1.00 20.00     0.017 C 
HETATM    3  C4  UNL     1     -33.729  15.090  -3.294  1.00 20.00     0.069 C 
HETATM    4  C5  UNL     1     -34.880  17.970  -4.906  1.00 20.00     0.197 C 
HETATM    5  C6  UNL     1     -33.636  17.454  -5.574  1.00 20.00     0.197 C 
HETATM    6  C7  UNL     1     -35.685  14.794  -4.660  1.00 20.00     0.109 C 
HETATM    7  C8  UNL     1     -34.580  15.805  -4.337  1.00 20.00     0.173 C 
HETATM    8  O10 UNL     1     -35.079  17.045  -3.838  1.00 20.00    -0.352 OA
HETATM    9  O11 UNL     1     -33.803  16.039  -5.526  1.00 20.00    -0.352 OA
ENDROOT
BRANCH   6  10
HETATM   10  C1  UNL     1     -36.856  14.900  -3.728  1.00 20.00     0.241 C 
HETATM   11  O9  UNL     1     -37.813  14.133  -3.755  1.00 20.00    -0.306 OA
ENDBRANCH   6  10
TORSDOF 1
ENDMDL
MODEL 3
REMARK VINA RESULT:      -4.4      1.738      2.813
REMARK  1 active torsions:
REMARK  status: ('A' for Active; 'I' for Inactive)
REMARK    1  A    between atoms: C1_1  and  C7_7 
ROOT
HETATM    1  C2  UNL     1     -34.066  16.191  -6.260  1.00 20.00     0.006 C 
HETATM    2  C3  UNL     1     -35.159  15.198  -5.855  1.00 20.00     0.017 C 
HETATM    3  C4  UNL     1     -33.189  16.369  -5.028  1.00 20.00     0.069 C 
HETATM    4  C5  UNL     1     -34.116  16.725  -1.677  1.00 20.00     0.197 C 
HETATM    5  C6  UNL     1     -34.537  17.931  -2.469  1.00 20.00     0.197 C 
HETATM    6  C7  UNL     1     -35.067  15.039  -4.331  1.00 20.00     0.109 C 
HETATM    7  C8  UNL     1     -34.163  16.187  -3.870  1.00 20.00     0.173 C 
HETATM    8  O10 UNL     1     -33.474  15.906  -2.652  1.00 20.00    -0.352 OA
HETATM    9  O11 UNL     1     -34.963  17.372  -3.711  1.00 20.00    -0.352 OA
ENDROOT
BRANCH   6  10
HETATM   10  C1  UNL     1     -34.508  13.689  -3.989  1.00 20.00     0.241 C 
HETATM   11  O9  UNL     1     -34.987  12.636  -4.397  1.00 20.00    -0.306 OA
ENDBRANCH   6  10
TORSDOF 1
ENDMDL
MODEL 4
REMARK VINA RESULT:      -4.4      1.302      2.818
REMARK  1 active torsions:
REMARK  status: ('A' for Active; 'I' for Inactive)
REMARK    1  A    between atoms: C1_1  and  C7_7 
ROOT
HETATM    1  C2  UNL     1     -34.523  13.316  -4.980  1.00 20.00     0.006 C 
HETATM    2  C3  UNL     1     -34.064  13.689  -3.567  1.00 20.00     0.017 C 
HETATM    3  C4  UNL     1     -35.406  14.465  -5.447  1.00 20.00     0.069 C 
HETATM    4  C5  UNL     1     -37.855  16.238  -3.693  1.00 20.00     0.197 C 
HETATM    5  C6  UNL     1     -38.297  14.820  -3.925  1.00 20.00     0.197 C 
HETATM    6  C7  UNL     1     -34.909  14.895  -3.135  1.00 20.00     0.109 C 
HETATM    7  C8  UNL     1     -36.046  14.968  -4.158  1.00 20.00     0.173 C 
HETATM    8  O10 UNL     1     -36.575  16.284  -4.320  1.00 20.00    -0.352 OA
HETATM    9  O11 UNL     1     -37.095  14.071  -3.750  1.00 20.00    -0.352 OA
ENDROOT
BRANCH   6  10
HETATM   10  C1  UNL     1     -34.062  16.135  -3.121  1.00 20.00     0.241 C 
HETATM   11  O9  UNL     1     -33.688  16.686  -2.092  1.00 20.00    -0.306 OA
ENDBRANCH   6  10
TORSDOF 1
ENDMDL
MODEL 5
REMARK VINA RESULT:      -4.3      2.077      3.093
REMARK  1 active torsions:
REMARK  status: ('A' for Active; 'I' for Inactive)
REMARK    1  A    between atoms: C1_1  and  C7_7 
ROOT
HETATM    1  C2  UNL     1     -33.398  15.084  -3.956  1.00 20.00     0.006 C 
HETATM    2  C3  UNL     1     -34.394  13.988  -3.567  1.00 20.00     0.017 C 
HETATM    3  C4  UNL     1     -34.160  16.033  -4.871  1.00 20.00     0.069 C 
HETATM    4  C5  UNL     1     -36.393  15.305  -7.460  1.00 20.00     0.197 C 
HETATM    5  C6  UNL     1     -35.002  14.875  -7.830  1.00 20.00     0.197 C 
HETATM    6  C7  UNL     1     -35.616  14.160  -4.480  1.00 20.00     0.109 C 
HETATM    7  C8  UNL     1     -35.154  15.120  -5.581  1.00 20.00     0.173 C 
HETATM    8  O10 UNL     1     -36.223  15.868  -6.161  1.00 20.00    -0.352 OA
HETATM    9  O11 UNL     1     -34.481  14.364  -6.603  1.00 20.00    -0.352 OA
ENDROOT
BRANCH   6  10
HETATM   10  C1  UNL     1     -36.773  14.699  -3.691  1.00 20.00     0.241 C 
HETATM   11  O9  UNL     1     -37.906  14.231  -3.746  1.00 20.00    -0.306 OA
ENDBRANCH   6  10
TORSDOF 1
ENDMDL
MODEL 6
REMARK VINA RESULT:      -4.3      2.305      3.480
REMARK  1 active torsions:
REMARK  status: ('A' for Active; 'I' for Inactive)
REMARK    1  A    between atoms: C1_1  and  C7_7 
ROOT
HETATM    1  C2  UNL     1     -35.202  14.337  -6.712  1.00 20.00     0.006 C 
HETATM    2  C3  UNL     1     -35.378  13.996  -5.229  1.00 20.00     0.017 C 
HETATM    3  C4  UNL     1     -34.085  15.369  -6.771  1.00 20.00     0.069 C 
HETATM    4  C5  UNL     1     -33.502  18.130  -4.707  1.00 20.00     0.197 C 
HETATM    5  C6  UNL     1     -34.748  18.336  -5.521  1.00 20.00     0.197 C 
HETATM    6  C7  UNL     1     -34.568  15.034  -4.440  1.00 20.00     0.109 C 
HETATM    7  C8  UNL     1     -34.233  16.129  -5.457  1.00 20.00     0.173 C 
HETATM    8  O10 UNL     1     -33.043  16.850  -5.138  1.00 20.00    -0.352 OA
HETATM    9  O11 UNL     1     -35.343  17.040  -5.540  1.00 20.00    -0.352 OA
ENDROOT
BRANCH   6  10
HETATM   10  C1  UNL     1     -33.343  14.392  -3.857  1.00 20.00     0.241 C 
HETATM   11  O9  UNL     1     -33.202  13.178  -3.749  1.00 20.00    -0.306 OA
ENDBRANCH   6  10
TORSDOF 1
ENDMDL
MODEL 7
REMARK VINA RESULT:      -4.2      1.531      1.664
REMARK  1 active torsions:
REMARK  status: ('A' for Active; 'I' for Inactive)
REMARK    1  A    between atoms: C1_1  and  C7_7 
ROOT
HETATM    1  C2  UNL     1     -34.112  15.611  -2.603  1.00 20.00     0.006 C 
HETATM    2  C3  UNL     1     -33.368  14.841  -3.699  1.00 20.00     0.017 C 
HETATM    3  C4  UNL     1     -35.524  15.824  -3.130  1.00 20.00     0.069 C 
HETATM    4  C5  UNL     1     -36.583  16.742  -6.333  1.00 20.00     0.197 C 
HETATM    5  C6  UNL     1     -35.857  17.880  -5.673  1.00 20.00     0.197 C 
HETATM    6  C7  UNL     1     -34.265  14.873  -4.944  1.00 20.00     0.109 C 
HETATM    7  C8  UNL     1     -35.328  15.933  -4.638  1.00 20.00     0.173 C 
HETATM    8  O10 UNL     1     -36.553  15.720  -5.338  1.00 20.00    -0.352 OA
HETATM    9  O11 UNL     1     -34.799  17.229  -4.971  1.00 20.00    -0.352 OA
ENDROOT
BRANCH   6  10
HETATM   10  C1  UNL     1     -34.856  13.514  -5.184  1.00 20.00     0.241 C 
HETATM   11  O9  UNL     1     -34.953  12.655  -4.313  1.00 20.00    -0.306 OA
ENDBRANCH   6  10
TORSDOF 1
ENDMDL
MODEL 8
REMARK VINA RESULT:      -4.2     11.908     13.242
REMARK  1 active torsions:
REMARK  status: ('A' for Active; 'I' for Inactive)
REMARK    1  A    between atoms: C1_1  and  C7_7 
ROOT
HETATM    1  C2  UNL     1     -41.032   6.543  -1.266  1.00 20.00     0.006 C 
HETATM    2  C3  UNL     1     -41.085   5.829   0.087  1.00 20.00     0.017 C 
HETATM    3  C4  UNL     1     -42.116   5.898  -2.119  1.00 20.00     0.069 C 
HETATM    4  C5  UNL     1     -42.971   2.524  -2.443  1.00 20.00     0.197 C 
HETATM    5  C6  UNL     1     -41.615   2.782  -3.037  1.00 20.00     0.197 C 
HETATM    6  C7  UNL     1     -41.992   4.604  -0.096  1.00 20.00     0.109 C 
HETATM    7  C8  UNL     1     -42.158   4.461  -1.612  1.00 20.00     0.173 C 
HETATM    8  O10 UNL     1     -43.374   3.814  -1.987  1.00 20.00    -0.352 OA
HETATM    9  O11 UNL     1     -41.038   3.724  -2.134  1.00 20.00    -0.352 OA
ENDROOT
BRANCH   6  10
HETATM   10  C1  UNL     1     -43.297   4.823   0.611  1.00 20.00     0.241 C 
HETATM   11  O9  UNL     1     -43.412   5.511   1.620  1.00 20.00    -0.306 OA
ENDBRANCH   6  10
TORSDOF 1
ENDMDL
MODEL 9
REMARK VINA RESULT:      -4.1      1.592      2.774
REMARK  1 active torsions:
REMARK  status: ('A' for Active; 'I' for Inactive)
REMARK    1  A    between atoms: C1_1  and  C7_7 
ROOT
HETATM    1  C2  UNL     1     -33.408  13.537  -3.821  1.00 20.00     0.006 C 
HETATM    2  C3  UNL     1     -32.989  14.987  -3.560  1.00 20.00     0.017 C 
HETATM    3  C4  UNL     1     -34.520  13.607  -4.858  1.00 20.00     0.069 C 
HETATM    4  C5  UNL     1     -37.220  15.816  -5.073  1.00 20.00     0.197 C 
HETATM    5  C6  UNL     1     -37.372  14.915  -3.880  1.00 20.00     0.197 C 
HETATM    6  C7  UNL     1     -34.046  15.877  -4.227  1.00 20.00     0.109 C 
HETATM    7  C8  UNL     1     -35.207  14.933  -4.554  1.00 20.00     0.173 C 
HETATM    8  O10 UNL     1     -35.997  15.374  -5.658  1.00 20.00    -0.352 OA
HETATM    9  O11 UNL     1     -36.038  14.799  -3.388  1.00 20.00    -0.352 OA
ENDROOT
BRANCH   6  10
HETATM   10  C1  UNL     1     -33.469  16.530  -5.449  1.00 20.00     0.241 C 
HETATM   11  O9  UNL     1     -33.505  17.740  -5.650  1.00 20.00    -0.306 OA
ENDBRANCH   6  10
TORSDOF 1
ENDMDL
