MODEL 1
REMARK VINA RESULT:      -4.2      0.000      0.000
REMARK  0 active torsions:
REMARK  status: ('A' for Active; 'I' for Inactive)
ROOT
HETATM    1  C1  UNL     1     -32.007   8.801   1.147  1.00 20.00     0.015 C 
HETATM    2  C2  UNL     1     -32.174   8.121   2.123  1.00 20.00    -0.083 C 
HETATM    3  C3  UNL     1     -32.176   5.824   3.040  1.00 20.00     0.216 C 
HETATM    4  C4  UNL     1     -32.379   7.296   3.310  1.00 20.00     0.226 C 
HETATM    5  C5  UNL     1     -34.008   6.091   4.348  1.00 20.00     0.158 C 
HETATM    6  C6  UNL     1     -35.298   5.535   3.757  1.00 20.00     0.078 C 
HETATM    7  C7  UNL     1     -34.122   6.266   5.857  1.00 20.00     0.078 C 
HETATM    8  O8  UNL     1     -32.930   5.187   4.071  1.00 20.00    -0.352 OA
HETATM    9  O9  UNL     1     -33.741   7.366   3.744  1.00 20.00    -0.336 OA
ENDROOT
TORSDOF 0
ENDMDL
MODEL 2
REMARK VINA RESULT:      -4.1     10.858     11.666
REMARK  0 active torsions:
REMARK  status: ('A' for Active; 'I' for Inactive)
ROOT
HETATM    1  C1  UNL     1     -34.777  17.013  -0.565  1.00 20.00     0.015 C 
HETATM    2  C2  UNL     1     -34.446  16.368  -1.522  1.00 20.00    -0.083 C 
HETATM    3  C3  UNL     1     -33.671  16.440  -3.869  1.00 20.00     0.216 C 
HETATM    4  C4  UNL     1     -34.046  15.582  -2.685  1.00 20.00     0.226 C 
HETATM    5  C5  UNL     1     -34.924  14.694  -4.589  1.00 20.00     0.158 C 
HETATM    6  C6  UNL     1     -36.206  15.088  -5.314  1.00 20.00     0.078 C 
HETATM    7  C7  UNL     1     -34.520  13.263  -4.918  1.00 20.00     0.078 C 
HETATM    8  O8  UNL     1     -33.864  15.573  -4.987  1.00 20.00    -0.352 OA
HETATM    9  O9  UNL     1     -35.146  14.808  -3.175  1.00 20.00    -0.336 OA
ENDROOT
TORSDOF 0
ENDMDL
MODEL 3
REMARK VINA RESULT:      -4.1     10.524     11.684
REMARK  0 active torsions:
REMARK  status: ('A' for Active; 'I' for Inactive)
ROOT
HETATM    1  C1  UNL     1     -36.464  14.900  -7.477  1.00 20.00     0.015 C 
HETATM    2  C2  UNL     1     -35.634  14.561  -6.679  1.00 20.00    -0.083 C 
HETATM    3  C3  UNL     1     -35.172  13.222  -4.651  1.00 20.00     0.216 C 
HETATM    4  C4  UNL     1     -34.624  14.151  -5.707  1.00 20.00     0.226 C 
HETATM    5  C5  UNL     1     -33.813  14.745  -3.663  1.00 20.00     0.158 C 
HETATM    6  C6  UNL     1     -34.483  15.592  -2.588  1.00 20.00     0.078 C 
HETATM    7  C7  UNL     1     -32.297  14.760  -3.515  1.00 20.00     0.078 C 
HETATM    8  O8  UNL     1     -34.272  13.390  -3.556  1.00 20.00    -0.352 OA
HETATM    9  O9  UNL     1     -34.166  15.277  -4.950  1.00 20.00    -0.336 OA
ENDROOT
TORSDOF 0
ENDMDL
MODEL 4
REMARK VINA RESULT:      -4.0     10.878     11.831
REMARK  0 active torsions:
REMARK  status: ('A' for Active; 'I' for Inactive)
ROOT
HETATM    1  C1  UNL     1     -34.604  16.659  -0.730  1.00 20.00     0.015 C 
HETATM    2  C2  UNL     1     -34.876  16.433  -1.877  1.00 20.00    -0.083 C 
HETATM    3  C3  UNL     1     -36.419  15.271  -3.423  1.00 20.00     0.216 C 
HETATM    4  C4  UNL     1     -35.206  16.157  -3.273  1.00 20.00     0.226 C 
HETATM    5  C5  UNL     1     -34.827  14.600  -4.890  1.00 20.00     0.158 C 
HETATM    6  C6  UNL     1     -34.380  13.152  -4.725  1.00 20.00     0.078 C 
HETATM    7  C7  UNL     1     -34.478  15.133  -6.274  1.00 20.00     0.078 C 
HETATM    8  O8  UNL     1     -36.247  14.682  -4.711  1.00 20.00    -0.352 OA
HETATM    9  O9  UNL     1     -34.165  15.399  -3.897  1.00 20.00    -0.336 OA
ENDROOT
TORSDOF 0
ENDMDL
MODEL 5
REMARK VINA RESULT:      -4.0      1.500      2.244
REMARK  0 active torsions:
REMARK  status: ('A' for Active; 'I' for Inactive)
ROOT
HETATM    1  C1  UNL     1     -31.973   7.807   2.425  1.00 20.00     0.015 C 
HETATM    2  C2  UNL     1     -32.663   6.913   2.834  1.00 20.00    -0.083 C 
HETATM    3  C3  UNL     1     -34.966   6.190   3.375  1.00 20.00     0.216 C 
HETATM    4  C4  UNL     1     -33.501   5.827   3.334  1.00 20.00     0.226 C 
HETATM    5  C5  UNL     1     -34.426   5.075   5.274  1.00 20.00     0.158 C 
HETATM    6  C6  UNL     1     -34.687   5.848   6.562  1.00 20.00     0.078 C 
HETATM    7  C7  UNL     1     -34.320   3.579   5.539  1.00 20.00     0.078 C 
HETATM    8  O8  UNL     1     -35.504   5.303   4.356  1.00 20.00    -0.352 OA
HETATM    9  O9  UNL     1     -33.193   5.541   4.702  1.00 20.00    -0.336 OA
ENDROOT
TORSDOF 0
ENDMDL
MODEL 6
REMARK VINA RESULT:      -4.0     10.793     12.088
REMARK  0 active torsions:
REMARK  status: ('A' for Active; 'I' for Inactive)
ROOT
HETATM    1  C1  UNL     1     -34.514  16.633  -1.002  1.00 20.00     0.015 C 
HETATM    2  C2  UNL     1     -34.802  15.995  -1.977  1.00 20.00    -0.083 C 
HETATM    3  C3  UNL     1     -34.055  14.277  -3.592  1.00 20.00     0.216 C 
HETATM    4  C4  UNL     1     -35.153  15.221  -3.165  1.00 20.00     0.226 C 
HETATM    5  C5  UNL     1     -34.924  15.282  -5.429  1.00 20.00     0.158 C 
HETATM    6  C6  UNL     1     -33.917  16.071  -6.259  1.00 20.00     0.078 C 
HETATM    7  C7  UNL     1     -36.163  14.937  -6.245  1.00 20.00     0.078 C 
HETATM    8  O8  UNL     1     -34.317  14.063  -4.979  1.00 20.00    -0.352 OA
HETATM    9  O9  UNL     1     -35.309  16.080  -4.299  1.00 20.00    -0.336 OA
ENDROOT
TORSDOF 0
ENDMDL
MODEL 7
REMARK VINA RESULT:      -3.8     10.704     11.834
REMARK  0 active torsions:
REMARK  status: ('A' for Active; 'I' for Inactive)
ROOT
HETATM    1  C1  UNL     1     -35.663  14.404  -7.917  1.00 20.00     0.015 C 
HETATM    2  C2  UNL     1     -35.088  14.470  -6.865  1.00 20.00    -0.083 C 
HETATM    3  C3  UNL     1     -34.735  13.412  -4.657  1.00 20.00     0.216 C 
HETATM    4  C4  UNL     1     -34.390  14.551  -5.585  1.00 20.00     0.226 C 
HETATM    5  C5  UNL     1     -34.688  15.343  -3.471  1.00 20.00     0.158 C 
HETATM    6  C6  UNL     1     -35.994  15.687  -2.764  1.00 20.00     0.078 C 
HETATM    7  C7  UNL     1     -33.512  16.091  -2.856  1.00 20.00     0.078 C 
HETATM    8  O8  UNL     1     -34.445  13.934  -3.361  1.00 20.00    -0.352 OA
HETATM    9  O9  UNL     1     -34.808  15.709  -4.855  1.00 20.00    -0.336 OA
ENDROOT
TORSDOF 0
ENDMDL
MODEL 8
REMARK VINA RESULT:      -3.7     10.789     11.792
REMARK  0 active torsions:
REMARK  status: ('A' for Active; 'I' for Inactive)
ROOT
HETATM    1  C1  UNL     1     -35.173  17.699   0.553  1.00 20.00     0.015 C 
HETATM    2  C2  UNL     1     -34.610  17.244  -0.404  1.00 20.00    -0.083 C 
HETATM    3  C3  UNL     1     -33.881  17.648  -2.733  1.00 20.00     0.216 C 
HETATM    4  C4  UNL     1     -33.925  16.689  -1.568  1.00 20.00     0.226 C 
HETATM    5  C5  UNL     1     -34.377  15.574  -3.502  1.00 20.00     0.158 C 
HETATM    6  C6  UNL     1     -35.701  15.472  -4.250  1.00 20.00     0.078 C 
HETATM    7  C7  UNL     1     -33.460  14.406  -3.840  1.00 20.00     0.078 C 
HETATM    8  O8  UNL     1     -33.718  16.794  -3.865  1.00 20.00    -0.352 OA
HETATM    9  O9  UNL     1     -34.647  15.569  -2.091  1.00 20.00    -0.336 OA
ENDROOT
TORSDOF 0
ENDMDL
MODEL 9
REMARK VINA RESULT:      -3.7      9.428     10.997
REMARK  0 active torsions:
REMARK  status: ('A' for Active; 'I' for Inactive)
ROOT
HETATM    1  C1  UNL     1     -41.257   2.010  -3.751  1.00 20.00     0.015 C 
HETATM    2  C2  UNL     1     -41.830   2.784  -3.035  1.00 20.00    -0.083 C 
HETATM    3  C3  UNL     1     -42.968   4.975  -2.886  1.00 20.00     0.216 C 
HETATM    4  C4  UNL     1     -42.526   3.726  -2.162  1.00 20.00     0.226 C 
HETATM    5  C5  UNL     1     -42.111   5.553  -0.868  1.00 20.00     0.158 C 
HETATM    6  C6  UNL     1     -40.925   6.509  -0.931  1.00 20.00     0.078 C 
HETATM    7  C7  UNL     1     -42.763   5.569   0.509  1.00 20.00     0.078 C 
HETATM    8  O8  UNL     1     -43.088   5.943  -1.842  1.00 20.00    -0.352 OA
HETATM    9  O9  UNL     1     -41.643   4.225  -1.153  1.00 20.00    -0.336 OA
ENDROOT
TORSDOF 0
ENDMDL
