MODEL 1
REMARK VINA RESULT:      -5.5      0.000      0.000
REMARK  1 active torsions:
REMARK  status: ('A' for Active; 'I' for Inactive)
REMARK    1  A    between atoms: C8_8  and  C11_11 
ROOT
HETATM    1  C1  UNL     1     -34.814  13.822  -4.109  1.00 20.00     0.136 C 
HETATM    2  C2  UNL     1     -34.127  15.684  -5.540  1.00 20.00     0.017 C 
HETATM    3  C3  UNL     1     -32.395  14.803  -3.764  1.00 20.00     0.018 C 
HETATM    4  C4  UNL     1     -35.509  16.021  -3.635  1.00 20.00     0.023 C 
HETATM    5  C5  UNL     1     -35.339  15.062  -4.823  1.00 20.00     0.057 C 
HETATM    6  C6  UNL     1     -33.740  14.416  -3.091  1.00 20.00     0.065 C 
HETATM    7  C7  UNL     1     -33.160  16.018  -4.373  1.00 20.00    -0.003 C 
HETATM    8  C8  UNL     1     -34.068  15.967  -3.098  1.00 20.00    -0.023 C 
HETATM    9  O12 UNL     1     -35.163  12.676  -4.337  1.00 20.00    -0.297 OA
ENDROOT
BRANCH   8  10
HETATM   10  C11 UNL     1     -33.776  16.826  -1.897  1.00 20.00    -0.013 C 
HETATM   11  C9  UNL     1     -33.729  18.313  -2.272  1.00 20.00     0.010 C 
HETATM   12  C10 UNL     1     -34.810  16.602  -0.785  1.00 20.00     0.010 C 
ENDBRANCH   8  10
TORSDOF 1
ENDMDL
MODEL 2
REMARK VINA RESULT:      -5.0      1.520      3.614
REMARK  1 active torsions:
REMARK  status: ('A' for Active; 'I' for Inactive)
REMARK    1  A    between atoms: C8_8  and  C11_11 
ROOT
HETATM    1  C1  UNL     1     -33.332  13.805  -3.868  1.00 20.00     0.136 C 
HETATM    2  C2  UNL     1     -34.514  15.644  -2.768  1.00 20.00     0.017 C 
HETATM    3  C3  UNL     1     -35.939  13.959  -4.203  1.00 20.00     0.018 C 
HETATM    4  C4  UNL     1     -33.330  15.966  -4.805  1.00 20.00     0.023 C 
HETATM    5  C5  UNL     1     -33.185  15.263  -3.447  1.00 20.00     0.057 C 
HETATM    6  C6  UNL     1     -34.553  13.845  -4.893  1.00 20.00     0.065 C 
HETATM    7  C7  UNL     1     -35.558  15.440  -3.898  1.00 20.00    -0.003 C 
HETATM    8  C8  UNL     1     -34.700  15.391  -5.207  1.00 20.00    -0.023 C 
HETATM    9  O12 UNL     1     -32.655  12.880  -3.453  1.00 20.00    -0.297 OA
ENDROOT
BRANCH   8  10
HETATM   10  C11 UNL     1     -35.256  15.865  -6.523  1.00 20.00    -0.013 C 
HETATM   11  C9  UNL     1     -34.829  17.308  -6.824  1.00 20.00     0.010 C 
HETATM   12  C10 UNL     1     -34.826  14.945  -7.674  1.00 20.00     0.010 C 
ENDBRANCH   8  10
TORSDOF 1
ENDMDL
MODEL 3
REMARK VINA RESULT:      -4.8      1.644      2.329
REMARK  1 active torsions:
REMARK  status: ('A' for Active; 'I' for Inactive)
REMARK    1  A    between atoms: C8_8  and  C11_11 
ROOT
HETATM    1  C1  UNL     1     -37.155  14.620  -4.203  1.00 20.00     0.136 C 
HETATM    2  C2  UNL     1     -36.170  14.781  -6.437  1.00 20.00     0.017 C 
HETATM    3  C3  UNL     1     -34.810  13.489  -4.590  1.00 20.00     0.018 C 
HETATM    4  C4  UNL     1     -36.050  16.583  -4.890  1.00 20.00     0.023 C 
HETATM    5  C5  UNL     1     -37.042  15.536  -5.417  1.00 20.00     0.057 C 
HETATM    6  C6  UNL     1     -35.643  14.469  -3.720  1.00 20.00     0.065 C 
HETATM    7  C7  UNL     1     -34.824  14.600  -5.684  1.00 20.00    -0.003 C 
HETATM    8  C8  UNL     1     -34.904  15.629  -4.506  1.00 20.00    -0.023 C 
HETATM    9  O12 UNL     1     -38.191  14.137  -3.779  1.00 20.00    -0.297 OA
ENDROOT
BRANCH   8  10
HETATM   10  C11 UNL     1     -33.663  16.274  -3.949  1.00 20.00    -0.013 C 
HETATM   11  C9  UNL     1     -33.401  17.638  -4.603  1.00 20.00     0.010 C 
HETATM   12  C10 UNL     1     -33.756  16.438  -2.425  1.00 20.00     0.010 C 
ENDBRANCH   8  10
TORSDOF 1
ENDMDL
MODEL 4
REMARK VINA RESULT:      -4.7      1.394      2.707
REMARK  1 active torsions:
REMARK  status: ('A' for Active; 'I' for Inactive)
REMARK    1  A    between atoms: C8_8  and  C11_11 
ROOT
HETATM    1  C1  UNL     1     -34.447  15.036  -5.799  1.00 20.00     0.136 C 
HETATM    2  C2  UNL     1     -35.440  13.576  -4.105  1.00 20.00     0.017 C 
HETATM    3  C3  UNL     1     -36.692  15.821  -4.669  1.00 20.00     0.018 C 
HETATM    4  C4  UNL     1     -33.626  15.024  -3.592  1.00 20.00     0.023 C 
HETATM    5  C5  UNL     1     -34.097  14.055  -4.685  1.00 20.00     0.057 C 
HETATM    6  C6  UNL     1     -35.228  16.194  -5.029  1.00 20.00     0.065 C 
HETATM    7  C7  UNL     1     -36.084  14.887  -3.579  1.00 20.00    -0.003 C 
HETATM    8  C8  UNL     1     -34.890  15.897  -3.510  1.00 20.00    -0.023 C 
HETATM    9  O12 UNL     1     -34.181  14.887  -6.979  1.00 20.00    -0.297 OA
ENDROOT
BRANCH   8  10
HETATM   10  C11 UNL     1     -34.865  17.006  -2.492  1.00 20.00    -0.013 C 
HETATM   11  C9  UNL     1     -34.619  16.461  -1.078  1.00 20.00     0.010 C 
HETATM   12  C10 UNL     1     -33.800  18.056  -2.836  1.00 20.00     0.010 C 
ENDBRANCH   8  10
TORSDOF 1
ENDMDL
MODEL 5
REMARK VINA RESULT:      -4.7      1.842      3.230
REMARK  1 active torsions:
REMARK  status: ('A' for Active; 'I' for Inactive)
REMARK    1  A    between atoms: C8_8  and  C11_11 
ROOT
HETATM    1  C1  UNL     1     -34.675  16.000  -2.265  1.00 20.00     0.136 C 
HETATM    2  C2  UNL     1     -35.313  14.111  -3.684  1.00 20.00     0.017 C 
HETATM    3  C3  UNL     1     -32.783  14.840  -3.681  1.00 20.00     0.018 C 
HETATM    4  C4  UNL     1     -35.686  16.360  -4.361  1.00 20.00     0.023 C 
HETATM    5  C5  UNL     1     -35.811  15.457  -3.126  1.00 20.00     0.057 C 
HETATM    6  C6  UNL     1     -33.481  16.176  -3.308  1.00 20.00     0.065 C 
HETATM    7  C7  UNL     1     -34.062  14.514  -4.511  1.00 20.00    -0.003 C 
HETATM    8  C8  UNL     1     -34.216  16.060  -4.707  1.00 20.00    -0.023 C 
HETATM    9  O12 UNL     1     -34.735  16.201  -1.064  1.00 20.00    -0.297 OA
ENDROOT
BRANCH   8  10
HETATM   10  C11 UNL     1     -33.669  16.750  -5.928  1.00 20.00    -0.013 C 
HETATM   11  C9  UNL     1     -34.481  16.395  -7.181  1.00 20.00     0.010 C 
HETATM   12  C10 UNL     1     -33.639  18.273  -5.742  1.00 20.00     0.010 C 
ENDBRANCH   8  10
TORSDOF 1
ENDMDL
MODEL 6
REMARK VINA RESULT:      -4.6      1.866      3.815
REMARK  1 active torsions:
REMARK  status: ('A' for Active; 'I' for Inactive)
REMARK    1  A    between atoms: C8_8  and  C11_11 
ROOT
HETATM    1  C1  UNL     1     -34.683  16.288  -1.901  1.00 20.00     0.136 C 
HETATM    2  C2  UNL     1     -34.344  17.919  -3.693  1.00 20.00     0.017 C 
HETATM    3  C3  UNL     1     -36.621  16.599  -3.655  1.00 20.00     0.018 C 
HETATM    4  C4  UNL     1     -33.389  15.744  -3.792  1.00 20.00     0.023 C 
HETATM    5  C5  UNL     1     -33.615  16.897  -2.802  1.00 20.00     0.057 C 
HETATM    6  C6  UNL     1     -35.680  15.596  -2.936  1.00 20.00     0.065 C 
HETATM    7  C7  UNL     1     -35.367  17.046  -4.467  1.00 20.00    -0.003 C 
HETATM    8  C8  UNL     1     -34.840  15.583  -4.279  1.00 20.00    -0.023 C 
HETATM    9  O12 UNL     1     -34.713  16.375  -0.685  1.00 20.00    -0.297 OA
ENDROOT
BRANCH   8  10
HETATM   10  C11 UNL     1     -35.073  14.529  -5.329  1.00 20.00    -0.013 C 
HETATM   11  C9  UNL     1     -34.423  14.916  -6.664  1.00 20.00     0.010 C 
HETATM   12  C10 UNL     1     -34.547  13.161  -4.872  1.00 20.00     0.010 C 
ENDBRANCH   8  10
TORSDOF 1
ENDMDL
MODEL 7
REMARK VINA RESULT:      -4.6      2.069      3.764
REMARK  1 active torsions:
REMARK  status: ('A' for Active; 'I' for Inactive)
REMARK    1  A    between atoms: C8_8  and  C11_11 
ROOT
HETATM    1  C1  UNL     1     -33.753  15.830  -4.590  1.00 20.00     0.136 C 
HETATM    2  C2  UNL     1     -34.290  13.680  -3.552  1.00 20.00     0.017 C 
HETATM    3  C3  UNL     1     -34.958  14.022  -6.076  1.00 20.00     0.018 C 
HETATM    4  C4  UNL     1     -35.646  15.602  -3.208  1.00 20.00     0.023 C 
HETATM    5  C5  UNL     1     -34.169  15.189  -3.270  1.00 20.00     0.057 C 
HETATM    6  C6  UNL     1     -34.971  15.486  -5.560  1.00 20.00     0.065 C 
HETATM    7  C7  UNL     1     -35.399  13.613  -4.637  1.00 20.00    -0.003 C 
HETATM    8  C8  UNL     1     -36.099  15.011  -4.554  1.00 20.00    -0.023 C 
HETATM    9  O12 UNL     1     -32.708  16.427  -4.785  1.00 20.00    -0.297 OA
ENDROOT
BRANCH   8  10
HETATM   10  C11 UNL     1     -37.557  15.174  -4.893  1.00 20.00    -0.013 C 
HETATM   11  C9  UNL     1     -38.452  14.815  -3.698  1.00 20.00     0.010 C 
HETATM   12  C10 UNL     1     -37.865  16.603  -5.361  1.00 20.00     0.010 C 
ENDBRANCH   8  10
TORSDOF 1
ENDMDL
MODEL 8
REMARK VINA RESULT:      -4.6      1.623      2.565
REMARK  1 active torsions:
REMARK  status: ('A' for Active; 'I' for Inactive)
REMARK    1  A    between atoms: C8_8  and  C11_11 
ROOT
HETATM    1  C1  UNL     1     -36.388  14.688  -3.814  1.00 20.00     0.136 C 
HETATM    2  C2  UNL     1     -34.033  14.032  -3.702  1.00 20.00     0.017 C 
HETATM    3  C3  UNL     1     -34.863  15.898  -2.042  1.00 20.00     0.018 C 
HETATM    4  C4  UNL     1     -34.831  15.530  -5.367  1.00 20.00     0.023 C 
HETATM    5  C5  UNL     1     -35.216  14.218  -4.670  1.00 20.00     0.057 C 
HETATM    6  C6  UNL     1     -35.867  16.070  -3.214  1.00 20.00     0.065 C 
HETATM    7  C7  UNL     1     -33.827  15.456  -3.120  1.00 20.00    -0.003 C 
HETATM    8  C8  UNL     1     -34.600  16.389  -4.112  1.00 20.00    -0.023 C 
HETATM    9  O12 UNL     1     -37.433  14.081  -3.656  1.00 20.00    -0.297 OA
ENDROOT
BRANCH   8  10
HETATM   10  C11 UNL     1     -34.159  17.809  -4.352  1.00 20.00    -0.013 C 
HETATM   11  C9  UNL     1     -33.507  17.965  -5.732  1.00 20.00     0.010 C 
HETATM   12  C10 UNL     1     -35.333  18.788  -4.217  1.00 20.00     0.010 C 
ENDBRANCH   8  10
TORSDOF 1
ENDMDL
MODEL 9
REMARK VINA RESULT:      -4.6      1.917      3.770
REMARK  1 active torsions:
REMARK  status: ('A' for Active; 'I' for Inactive)
REMARK    1  A    between atoms: C8_8  and  C11_11 
ROOT
HETATM    1  C1  UNL     1     -34.910  15.840  -2.552  1.00 20.00     0.136 C 
HETATM    2  C2  UNL     1     -36.897  14.810  -3.540  1.00 20.00     0.017 C 
HETATM    3  C3  UNL     1     -34.592  13.584  -3.871  1.00 20.00     0.018 C 
HETATM    4  C4  UNL     1     -35.782  16.626  -4.593  1.00 20.00     0.023 C 
HETATM    5  C5  UNL     1     -36.249  16.166  -3.205  1.00 20.00     0.057 C 
HETATM    6  C6  UNL     1     -34.128  15.056  -3.699  1.00 20.00     0.065 C 
HETATM    7  C7  UNL     1     -35.882  14.167  -4.523  1.00 20.00    -0.003 C 
HETATM    8  C8  UNL     1     -34.992  15.367  -4.991  1.00 20.00    -0.023 C 
HETATM    9  O12 UNL     1     -34.596  16.124  -1.409  1.00 20.00    -0.297 OA
ENDROOT
BRANCH   8  10
HETATM   10  C11 UNL     1     -34.361  15.384  -6.358  1.00 20.00    -0.013 C 
HETATM   11  C9  UNL     1     -35.189  14.573  -7.365  1.00 20.00     0.010 C 
HETATM   12  C10 UNL     1     -34.179  16.819  -6.871  1.00 20.00     0.010 C 
ENDBRANCH   8  10
TORSDOF 1
ENDMDL
