MODEL 1
REMARK VINA RESULT:      -6.4      0.000      0.000
REMARK  1 active torsions:
REMARK  status: ('A' for Active; 'I' for Inactive)
REMARK    1  A    between atoms: C7_7  and  C11_11 
ROOT
HETATM    1  C1  UNL     1     -32.074   8.787   1.766  1.00 20.00     0.063 C 
HETATM    2  C11 UNL     1     -31.493   7.883   2.769  1.00 20.00     0.162 C 
HETATM    3  N12 UNL     1     -32.532   9.502   0.975  1.00 20.00    -0.197 NA
ENDROOT
BRANCH   2   4
HETATM    4  C7  UNL     1     -32.526   6.935   3.282  1.00 20.00    -0.045 A 
HETATM    5  C3  UNL     1     -33.134   6.028   2.400  1.00 20.00     0.009 A 
HETATM    6  C2  UNL     1     -34.108   5.136   2.855  1.00 20.00     0.008 A 
HETATM    7  C5  UNL     1     -34.446   5.163   4.198  1.00 20.00    -0.052 A 
HETATM    8  C6  UNL     1     -33.839   6.068   5.077  1.00 20.00    -0.051 A 
HETATM    9  C8  UNL     1     -35.475   4.341   4.906  1.00 20.00     0.039 C 
HETATM   10  C4  UNL     1     -32.882   6.964   4.632  1.00 20.00     0.015 A 
HETATM   11  C9  UNL     1     -34.408   5.936   6.454  1.00 20.00     0.039 C 
HETATM   12  C10 UNL     1     -35.065   4.550   6.372  1.00 20.00     0.009 C 
ENDBRANCH   2   4
TORSDOF 1
ENDMDL
MODEL 2
REMARK VINA RESULT:      -5.0     11.574     13.230
REMARK  1 active torsions:
REMARK  status: ('A' for Active; 'I' for Inactive)
REMARK    1  A    between atoms: C7_7  and  C11_11 
ROOT
HETATM    1  C1  UNL     1     -32.539  18.948  -0.048  1.00 20.00     0.063 C 
HETATM    2  C11 UNL     1     -33.939  18.557  -0.268  1.00 20.00     0.162 C 
HETATM    3  N12 UNL     1     -31.435  19.258   0.128  1.00 20.00    -0.197 NA
ENDROOT
BRANCH   2   4
HETATM    4  C7  UNL     1     -34.058  17.696  -1.481  1.00 20.00    -0.045 A 
HETATM    5  C3  UNL     1     -34.531  16.380  -1.354  1.00 20.00     0.009 A 
HETATM    6  C2  UNL     1     -34.645  15.553  -2.474  1.00 20.00     0.008 A 
HETATM    7  C5  UNL     1     -34.292  16.070  -3.710  1.00 20.00    -0.052 A 
HETATM    8  C6  UNL     1     -33.821  17.382  -3.836  1.00 20.00    -0.051 A 
HETATM    9  C8  UNL     1     -34.292  15.374  -5.034  1.00 20.00     0.039 C 
HETATM   10  C4  UNL     1     -33.693  18.204  -2.730  1.00 20.00     0.015 A 
HETATM   11  C9  UNL     1     -33.460  17.684  -5.256  1.00 20.00     0.039 C 
HETATM   12  C10 UNL     1     -34.212  16.568  -5.997  1.00 20.00     0.009 C 
ENDBRANCH   2   4
TORSDOF 1
ENDMDL
MODEL 3
REMARK VINA RESULT:      -5.0     11.376     12.780
REMARK  1 active torsions:
REMARK  status: ('A' for Active; 'I' for Inactive)
REMARK    1  A    between atoms: C7_7  and  C11_11 
ROOT
HETATM    1  C1  UNL     1     -34.649  13.655  -5.039  1.00 20.00     0.063 C 
HETATM    2  C11 UNL     1     -34.418  14.980  -5.633  1.00 20.00     0.162 C 
HETATM    3  N12 UNL     1     -34.832  12.608  -4.572  1.00 20.00    -0.197 NA
ENDROOT
BRANCH   2   4
HETATM    4  C7  UNL     1     -34.210  16.003  -4.566  1.00 20.00    -0.045 A 
HETATM    5  C3  UNL     1     -33.677  17.258  -4.904  1.00 20.00     0.009 A 
HETATM    6  C2  UNL     1     -33.468  18.229  -3.922  1.00 20.00     0.008 A 
HETATM    7  C5  UNL     1     -33.809  17.926  -2.615  1.00 20.00    -0.052 A 
HETATM    8  C6  UNL     1     -34.341  16.675  -2.280  1.00 20.00    -0.051 A 
HETATM    9  C8  UNL     1     -33.645  18.779  -1.398  1.00 20.00     0.039 C 
HETATM   10  C4  UNL     1     -34.540  15.702  -3.243  1.00 20.00     0.015 A 
HETATM   11  C9  UNL     1     -34.578  16.575  -0.806  1.00 20.00     0.039 C 
HETATM   12  C10 UNL     1     -34.566  18.057  -0.402  1.00 20.00     0.009 C 
ENDBRANCH   2   4
TORSDOF 1
ENDMDL
MODEL 4
REMARK VINA RESULT:      -4.9      0.704      1.874
REMARK  1 active torsions:
REMARK  status: ('A' for Active; 'I' for Inactive)
REMARK    1  A    between atoms: C7_7  and  C11_11 
ROOT
HETATM    1  C1  UNL     1     -32.208   8.885   1.490  1.00 20.00     0.063 C 
HETATM    2  C11 UNL     1     -31.927   7.458   1.709  1.00 20.00     0.162 C 
HETATM    3  N12 UNL     1     -32.430  10.011   1.317  1.00 20.00    -0.197 NA
ENDROOT
BRANCH   2   4
HETATM    4  C7  UNL     1     -32.544   6.991   2.985  1.00 20.00    -0.045 A 
HETATM    5  C3  UNL     1     -32.224   7.640   4.189  1.00 20.00     0.009 A 
HETATM    6  C2  UNL     1     -32.784   7.218   5.396  1.00 20.00     0.008 A 
HETATM    7  C5  UNL     1     -33.669   6.153   5.372  1.00 20.00    -0.052 A 
HETATM    8  C6  UNL     1     -33.988   5.507   4.172  1.00 20.00    -0.051 A 
HETATM    9  C8  UNL     1     -34.361   5.502   6.528  1.00 20.00     0.039 C 
HETATM   10  C4  UNL     1     -33.429   5.911   2.972  1.00 20.00     0.015 A 
HETATM   11  C9  UNL     1     -34.921   4.362   4.415  1.00 20.00     0.039 C 
HETATM   12  C10 UNL     1     -35.465   4.713   5.808  1.00 20.00     0.009 C 
ENDBRANCH   2   4
TORSDOF 1
ENDMDL
MODEL 5
REMARK VINA RESULT:      -4.9     11.484     12.872
REMARK  1 active torsions:
REMARK  status: ('A' for Active; 'I' for Inactive)
REMARK    1  A    between atoms: C7_7  and  C11_11 
ROOT
HETATM    1  C1  UNL     1     -34.914  15.027  -7.140  1.00 20.00     0.063 C 
HETATM    2  C11 UNL     1     -33.840  15.838  -6.547  1.00 20.00     0.162 C 
HETATM    3  N12 UNL     1     -35.760  14.387  -7.610  1.00 20.00    -0.197 NA
ENDROOT
BRANCH   2   4
HETATM    4  C7  UNL     1     -34.038  15.974  -5.074  1.00 20.00    -0.045 A 
HETATM    5  C3  UNL     1     -34.572  14.901  -4.344  1.00 20.00     0.009 A 
HETATM    6  C2  UNL     1     -34.773  15.007  -2.966  1.00 20.00     0.008 A 
HETATM    7  C5  UNL     1     -34.421  16.192  -2.341  1.00 20.00    -0.052 A 
HETATM    8  C6  UNL     1     -33.888  17.262  -3.070  1.00 20.00    -0.051 A 
HETATM    9  C8  UNL     1     -34.574  16.554  -0.898  1.00 20.00     0.039 C 
HETATM   10  C4  UNL     1     -33.698  17.170  -4.437  1.00 20.00     0.015 A 
HETATM   11  C9  UNL     1     -33.639  18.440  -2.181  1.00 20.00     0.039 C 
HETATM   12  C10 UNL     1     -33.646  17.774  -0.797  1.00 20.00     0.009 C 
ENDBRANCH   2   4
TORSDOF 1
ENDMDL
MODEL 6
REMARK VINA RESULT:      -4.9     11.090     12.169
REMARK  1 active torsions:
REMARK  status: ('A' for Active; 'I' for Inactive)
REMARK    1  A    between atoms: C7_7  and  C11_11 
ROOT
HETATM    1  C1  UNL     1     -34.255  13.730  -4.118  1.00 20.00     0.063 C 
HETATM    2  C11 UNL     1     -33.509  14.952  -3.783  1.00 20.00     0.162 C 
HETATM    3  N12 UNL     1     -34.842  12.765  -4.383  1.00 20.00    -0.197 NA
ENDROOT
BRANCH   2   4
HETATM    4  C7  UNL     1     -34.373  15.901  -3.020  1.00 20.00    -0.045 A 
HETATM    5  C3  UNL     1     -35.491  16.476  -3.644  1.00 20.00     0.009 A 
HETATM    6  C2  UNL     1     -36.310  17.371  -2.952  1.00 20.00     0.008 A 
HETATM    7  C5  UNL     1     -35.997  17.664  -1.636  1.00 20.00    -0.052 A 
HETATM    8  C6  UNL     1     -34.881  17.090  -1.014  1.00 20.00    -0.051 A 
HETATM    9  C8  UNL     1     -36.694  18.611  -0.711  1.00 20.00     0.039 C 
HETATM   10  C4  UNL     1     -34.057  16.213  -1.695  1.00 20.00     0.015 A 
HETATM   11  C9  UNL     1     -34.728  17.603   0.384  1.00 20.00     0.039 C 
HETATM   12  C10 UNL     1     -36.132  18.167   0.648  1.00 20.00     0.009 C 
ENDBRANCH   2   4
TORSDOF 1
ENDMDL
MODEL 7
REMARK VINA RESULT:      -4.9     10.310     11.624
REMARK  1 active torsions:
REMARK  status: ('A' for Active; 'I' for Inactive)
REMARK    1  A    between atoms: C7_7  and  C11_11 
ROOT
HETATM    1  C1  UNL     1     -42.771   1.825  -4.884  1.00 20.00     0.063 C 
HETATM    2  C11 UNL     1     -42.337   1.853  -3.479  1.00 20.00     0.162 C 
HETATM    3  N12 UNL     1     -43.113   1.802  -5.993  1.00 20.00    -0.197 NA
ENDROOT
BRANCH   2   4
HETATM    4  C7  UNL     1     -42.319   3.253  -2.964  1.00 20.00    -0.045 A 
HETATM    5  C3  UNL     1     -43.261   4.180  -3.439  1.00 20.00     0.009 A 
HETATM    6  C2  UNL     1     -43.260   5.497  -2.976  1.00 20.00     0.008 A 
HETATM    7  C5  UNL     1     -42.315   5.860  -2.030  1.00 20.00    -0.052 A 
HETATM    8  C6  UNL     1     -41.376   4.936  -1.557  1.00 20.00    -0.051 A 
HETATM    9  C8  UNL     1     -42.094   7.206  -1.418  1.00 20.00     0.039 C 
HETATM   10  C4  UNL     1     -41.362   3.632  -2.019  1.00 20.00     0.015 A 
HETATM   11  C9  UNL     1     -40.438   5.580  -0.586  1.00 20.00     0.039 C 
HETATM   12  C10 UNL     1     -41.227   6.841  -0.203  1.00 20.00     0.009 C 
ENDBRANCH   2   4
TORSDOF 1
ENDMDL
MODEL 8
REMARK VINA RESULT:      -4.8     11.155     12.235
REMARK  1 active torsions:
REMARK  status: ('A' for Active; 'I' for Inactive)
REMARK    1  A    between atoms: C7_7  and  C11_11 
ROOT
HETATM    1  C1  UNL     1     -33.912  14.631  -3.483  1.00 20.00     0.063 C 
HETATM    2  C11 UNL     1     -33.696  16.084  -3.546  1.00 20.00     0.162 C 
HETATM    3  N12 UNL     1     -34.082  13.484  -3.434  1.00 20.00    -0.197 NA
ENDROOT
BRANCH   2   4
HETATM    4  C7  UNL     1     -33.831  16.693  -2.190  1.00 20.00    -0.045 A 
HETATM    5  C3  UNL     1     -34.893  16.307  -1.358  1.00 20.00     0.009 A 
HETATM    6  C2  UNL     1     -35.043  16.867  -0.088  1.00 20.00     0.008 A 
HETATM    7  C5  UNL     1     -34.112  17.803   0.330  1.00 20.00    -0.052 A 
HETATM    8  C6  UNL     1     -33.053  18.188  -0.499  1.00 20.00    -0.051 A 
HETATM    9  C8  UNL     1     -34.083  18.563   1.619  1.00 20.00     0.039 C 
HETATM   10  C4  UNL     1     -32.903  17.647  -1.764  1.00 20.00     0.015 A 
HETATM   11  C9  UNL     1     -32.219  19.243   0.156  1.00 20.00     0.039 C 
HETATM   12  C10 UNL     1     -32.637  19.082   1.626  1.00 20.00     0.009 C 
ENDBRANCH   2   4
TORSDOF 1
ENDMDL
MODEL 9
REMARK VINA RESULT:      -4.8     11.478     12.854
REMARK  1 active torsions:
REMARK  status: ('A' for Active; 'I' for Inactive)
REMARK    1  A    between atoms: C7_7  and  C11_11 
ROOT
HETATM    1  C1  UNL     1     -36.368  18.227   1.179  1.00 20.00     0.063 C 
HETATM    2  C11 UNL     1     -34.936  17.903   1.089  1.00 20.00     0.162 C 
HETATM    3  N12 UNL     1     -37.497  18.483   1.251  1.00 20.00    -0.197 NA
ENDROOT
BRANCH   2   4
HETATM    4  C7  UNL     1     -34.534  17.694  -0.333  1.00 20.00    -0.045 A 
HETATM    5  C3  UNL     1     -34.012  18.768  -1.072  1.00 20.00     0.009 A 
HETATM    6  C2  UNL     1     -33.634  18.598  -2.405  1.00 20.00     0.008 A 
HETATM    7  C5  UNL     1     -33.778  17.343  -2.973  1.00 20.00    -0.052 A 
HETATM    8  C6  UNL     1     -34.299  16.273  -2.237  1.00 20.00    -0.051 A 
HETATM    9  C8  UNL     1     -33.482  16.929  -4.380  1.00 20.00     0.039 C 
HETATM   10  C4  UNL     1     -34.687  16.435  -0.918  1.00 20.00     0.015 A 
HETATM   11  C9  UNL     1     -34.401  15.044  -3.084  1.00 20.00     0.039 C 
HETATM   12  C10 UNL     1     -33.453  15.399  -4.239  1.00 20.00     0.009 C 
ENDBRANCH   2   4
TORSDOF 1
ENDMDL
