MODEL 1
REMARK VINA RESULT:      -4.2      0.000      0.000
REMARK  0 active torsions:
REMARK  status: ('A' for Active; 'I' for Inactive)
ROOT
HETATM    1  C1  UNL     1     -35.517  14.501  -7.918  1.00 20.00     0.015 C 
HETATM    2  C2  UNL     1     -35.466  14.471  -6.719  1.00 20.00    -0.083 C 
HETATM    3  C3  UNL     1     -34.858  13.134  -4.728  1.00 20.00     0.216 C 
HETATM    4  C4  UNL     1     -35.404  14.437  -5.260  1.00 20.00     0.226 C 
HETATM    5  C5  UNL     1     -33.952  14.848  -3.555  1.00 20.00     0.158 C 
HETATM    6  C6  UNL     1     -32.430  14.919  -3.597  1.00 20.00     0.078 C 
HETATM    7  C7  UNL     1     -34.509  15.628  -2.370  1.00 20.00     0.078 C 
HETATM    8  O8  UNL     1     -34.361  13.479  -3.435  1.00 20.00    -0.352 OA
HETATM    9  O9  UNL     1     -34.470  15.407  -4.773  1.00 20.00    -0.336 OA
ENDROOT
TORSDOF 0
ENDMDL
MODEL 2
REMARK VINA RESULT:      -4.0      1.333      3.852
REMARK  0 active torsions:
REMARK  status: ('A' for Active; 'I' for Inactive)
ROOT
HETATM    1  C1  UNL     1     -34.466  16.599  -1.130  1.00 20.00     0.015 C 
HETATM    2  C2  UNL     1     -34.228  16.120  -2.204  1.00 20.00    -0.083 C 
HETATM    3  C3  UNL     1     -34.280  14.071  -3.590  1.00 20.00     0.216 C 
HETATM    4  C4  UNL     1     -33.938  15.539  -3.512  1.00 20.00     0.226 C 
HETATM    5  C5  UNL     1     -34.958  15.088  -5.498  1.00 20.00     0.158 C 
HETATM    6  C6  UNL     1     -36.448  14.963  -5.795  1.00 20.00     0.078 C 
HETATM    7  C7  UNL     1     -34.170  15.440  -6.754  1.00 20.00     0.078 C 
HETATM    8  O8  UNL     1     -34.469  13.841  -4.985  1.00 20.00    -0.352 OA
HETATM    9  O9  UNL     1     -34.772  16.123  -4.520  1.00 20.00    -0.336 OA
ENDROOT
TORSDOF 0
ENDMDL
MODEL 3
REMARK VINA RESULT:      -4.0      2.171      4.372
REMARK  0 active torsions:
REMARK  status: ('A' for Active; 'I' for Inactive)
ROOT
HETATM    1  C1  UNL     1     -34.353  17.698   0.104  1.00 20.00     0.015 C 
HETATM    2  C2  UNL     1     -34.565  16.932  -0.796  1.00 20.00    -0.083 C 
HETATM    3  C3  UNL     1     -35.756  16.563  -2.932  1.00 20.00     0.216 C 
HETATM    4  C4  UNL     1     -34.821  16.000  -1.891  1.00 20.00     0.226 C 
HETATM    5  C5  UNL     1     -34.056  15.485  -3.973  1.00 20.00     0.158 C 
HETATM    6  C6  UNL     1     -33.239  16.348  -4.927  1.00 20.00     0.078 C 
HETATM    7  C7  UNL     1     -33.875  14.002  -4.275  1.00 20.00     0.078 C 
HETATM    8  O8  UNL     1     -35.446  15.813  -4.106  1.00 20.00    -0.352 OA
HETATM    9  O9  UNL     1     -33.620  15.749  -2.630  1.00 20.00    -0.336 OA
ENDROOT
TORSDOF 0
ENDMDL
MODEL 4
REMARK VINA RESULT:      -4.0      1.537      4.179
REMARK  0 active torsions:
REMARK  status: ('A' for Active; 'I' for Inactive)
ROOT
HETATM    1  C1  UNL     1     -34.750  17.101  -0.080  1.00 20.00     0.015 C 
HETATM    2  C2  UNL     1     -34.828  16.807  -1.241  1.00 20.00    -0.083 C 
HETATM    3  C3  UNL     1     -33.665  16.769  -3.424  1.00 20.00     0.216 C 
HETATM    4  C4  UNL     1     -34.922  16.449  -2.653  1.00 20.00     0.226 C 
HETATM    5  C5  UNL     1     -34.425  14.733  -4.067  1.00 20.00     0.158 C 
HETATM    6  C6  UNL     1     -33.440  13.589  -3.864  1.00 20.00     0.078 C 
HETATM    7  C7  UNL     1     -35.501  14.364  -5.081  1.00 20.00     0.078 C 
HETATM    8  O8  UNL     1     -33.722  15.888  -4.545  1.00 20.00    -0.352 OA
HETATM    9  O9  UNL     1     -35.048  15.030  -2.806  1.00 20.00    -0.336 OA
ENDROOT
TORSDOF 0
ENDMDL
MODEL 5
REMARK VINA RESULT:      -3.8     10.444     11.379
REMARK  0 active torsions:
REMARK  status: ('A' for Active; 'I' for Inactive)
ROOT
HETATM    1  C1  UNL     1     -42.687   8.368  -4.725  1.00 20.00     0.015 C 
HETATM    2  C2  UNL     1     -42.512   7.987  -3.601  1.00 20.00    -0.083 C 
HETATM    3  C3  UNL     1     -43.417   6.642  -1.731  1.00 20.00     0.216 C 
HETATM    4  C4  UNL     1     -42.299   7.522  -2.233  1.00 20.00     0.226 C 
HETATM    5  C5  UNL     1     -41.434   5.748  -1.095  1.00 20.00     0.158 C 
HETATM    6  C6  UNL     1     -41.182   4.331  -1.594  1.00 20.00     0.078 C 
HETATM    7  C7  UNL     1     -40.546   6.082   0.098  1.00 20.00     0.078 C 
HETATM    8  O8  UNL     1     -42.806   5.875  -0.695  1.00 20.00    -0.352 OA
HETATM    9  O9  UNL     1     -41.152   6.666  -2.164  1.00 20.00    -0.336 OA
ENDROOT
TORSDOF 0
ENDMDL
MODEL 6
REMARK VINA RESULT:      -3.8     11.447     12.580
REMARK  0 active torsions:
REMARK  status: ('A' for Active; 'I' for Inactive)
ROOT
HETATM    1  C1  UNL     1     -41.543   2.176  -3.418  1.00 20.00     0.015 C 
HETATM    2  C2  UNL     1     -41.924   3.193  -2.908  1.00 20.00    -0.083 C 
HETATM    3  C3  UNL     1     -42.874   4.232  -0.873  1.00 20.00     0.216 C 
HETATM    4  C4  UNL     1     -42.388   4.431  -2.288  1.00 20.00     0.226 C 
HETATM    5  C5  UNL     1     -41.629   6.124  -0.966  1.00 20.00     0.158 C 
HETATM    6  C6  UNL     1     -40.418   6.138  -0.041  1.00 20.00     0.078 C 
HETATM    7  C7  UNL     1     -42.020   7.535  -1.388  1.00 20.00     0.078 C 
HETATM    8  O8  UNL     1     -42.740   5.525  -0.284  1.00 20.00    -0.352 OA
HETATM    9  O9  UNL     1     -41.303   5.355  -2.135  1.00 20.00    -0.336 OA
ENDROOT
TORSDOF 0
ENDMDL
MODEL 7
REMARK VINA RESULT:      -3.8      1.986      3.252
REMARK  0 active torsions:
REMARK  status: ('A' for Active; 'I' for Inactive)
ROOT
HETATM    1  C1  UNL     1     -34.706  13.159  -4.903  1.00 20.00     0.015 C 
HETATM    2  C2  UNL     1     -34.398  13.992  -4.096  1.00 20.00    -0.083 C 
HETATM    3  C3  UNL     1     -33.519  16.279  -3.749  1.00 20.00     0.216 C 
HETATM    4  C4  UNL     1     -34.023  15.006  -3.114  1.00 20.00     0.226 C 
HETATM    5  C5  UNL     1     -34.897  16.808  -2.029  1.00 20.00     0.158 C 
HETATM    6  C6  UNL     1     -36.103  17.656  -2.414  1.00 20.00     0.078 C 
HETATM    7  C7  UNL     1     -34.610  16.898  -0.535  1.00 20.00     0.078 C 
HETATM    8  O8  UNL     1     -33.743  17.269  -2.746  1.00 20.00    -0.352 OA
HETATM    9  O9  UNL     1     -35.170  15.440  -2.375  1.00 20.00    -0.336 OA
ENDROOT
TORSDOF 0
ENDMDL
MODEL 8
REMARK VINA RESULT:      -3.7      1.925      2.841
REMARK  0 active torsions:
REMARK  status: ('A' for Active; 'I' for Inactive)
ROOT
HETATM    1  C1  UNL     1     -38.663  14.748  -3.877  1.00 20.00     0.015 C 
HETATM    2  C2  UNL     1     -37.466  14.821  -3.913  1.00 20.00    -0.083 C 
HETATM    3  C3  UNL     1     -35.352  13.602  -4.322  1.00 20.00     0.216 C 
HETATM    4  C4  UNL     1     -36.009  14.911  -3.958  1.00 20.00     0.226 C 
HETATM    5  C5  UNL     1     -34.317  15.282  -5.438  1.00 20.00     0.158 C 
HETATM    6  C6  UNL     1     -34.335  15.147  -6.955  1.00 20.00     0.078 C 
HETATM    7  C7  UNL     1     -33.218  16.232  -4.978  1.00 20.00     0.078 C 
HETATM    8  O8  UNL     1     -34.085  13.994  -4.849  1.00 20.00    -0.352 OA
HETATM    9  O9  UNL     1     -35.590  15.791  -5.008  1.00 20.00    -0.336 OA
ENDROOT
TORSDOF 0
ENDMDL
MODEL 9
REMARK VINA RESULT:      -3.6      1.849      4.175
REMARK  0 active torsions:
REMARK  status: ('A' for Active; 'I' for Inactive)
ROOT
HETATM    1  C1  UNL     1     -33.436  18.731  -1.262  1.00 20.00     0.015 C 
HETATM    2  C2  UNL     1     -33.725  17.627  -1.632  1.00 20.00    -0.083 C 
HETATM    3  C3  UNL     1     -35.498  16.184  -2.579  1.00 20.00     0.216 C 
HETATM    4  C4  UNL     1     -34.076  16.282  -2.082  1.00 20.00     0.226 C 
HETATM    5  C5  UNL     1     -34.144  15.028  -3.982  1.00 20.00     0.158 C 
HETATM    6  C6  UNL     1     -34.173  15.499  -5.431  1.00 20.00     0.078 C 
HETATM    7  C7  UNL     1     -33.599  13.610  -3.871  1.00 20.00     0.078 C 
HETATM    8  O8  UNL     1     -35.474  15.051  -3.447  1.00 20.00    -0.352 OA
HETATM    9  O9  UNL     1     -33.301  15.917  -3.230  1.00 20.00    -0.336 OA
ENDROOT
TORSDOF 0
ENDMDL
