MODEL 1
REMARK VINA RESULT:      -5.2      0.000      0.000
REMARK  2 active torsions:
REMARK  status: ('A' for Active; 'I' for Inactive)
REMARK    1  A    between atoms: C1_1  and  C3_3 
REMARK    2  A    between atoms: C2_2  and  C6_6 
ROOT
HETATM    1  C1  UNL     1     -33.291   6.805   3.360  1.00 20.00     0.046 C 
HETATM    2  C2  UNL     1     -33.406   6.115   4.503  1.00 20.00    -0.014 C 
ENDROOT
BRANCH   2   3
HETATM    3  C6  UNL     1     -34.623   5.332   4.870  1.00 20.00    -0.026 A 
HETATM    4  C4  UNL     1     -34.941   5.252   6.337  1.00 20.00     0.014 A 
HETATM    5  C5  UNL     1     -34.386   4.054   5.627  1.00 20.00     0.014 A 
HETATM    6  C8  UNL     1     -35.745   5.396   3.885  1.00 20.00     0.019 C 
ENDBRANCH   2   3
BRANCH   1   7
HETATM    7  C3  UNL     1     -32.049   7.566   3.053  1.00 20.00     0.145 C 
HETATM    8  C7  UNL     1     -31.975   8.231   1.704  1.00 20.00     0.096 C 
HETATM    9  O9  UNL     1     -31.116   7.644   3.849  1.00 20.00    -0.294 OA
ENDBRANCH   1   7
TORSDOF 2
ENDMDL
MODEL 2
REMARK VINA RESULT:      -4.5      0.575      1.514
REMARK  2 active torsions:
REMARK  status: ('A' for Active; 'I' for Inactive)
REMARK    1  A    between atoms: C1_1  and  C3_3 
REMARK    2  A    between atoms: C2_2  and  C6_6 
ROOT
HETATM    1  C1  UNL     1     -32.824   6.475   3.452  1.00 20.00     0.046 C 
HETATM    2  C2  UNL     1     -33.564   6.535   4.566  1.00 20.00    -0.014 C 
ENDROOT
BRANCH   2   3
HETATM    3  C6  UNL     1     -34.552   5.483   4.953  1.00 20.00    -0.026 A 
HETATM    4  C4  UNL     1     -34.679   4.317   4.012  1.00 20.00     0.014 A 
HETATM    5  C5  UNL     1     -35.761   5.352   4.068  1.00 20.00     0.014 A 
HETATM    6  C8  UNL     1     -34.697   5.252   6.421  1.00 20.00     0.019 C 
ENDBRANCH   2   3
BRANCH   1   7
HETATM    7  C3  UNL     1     -31.857   7.558   3.124  1.00 20.00     0.145 C 
HETATM    8  C7  UNL     1     -32.010   8.223   1.781  1.00 20.00     0.096 C 
HETATM    9  O9  UNL     1     -30.963   7.894   3.897  1.00 20.00    -0.294 OA
ENDBRANCH   1   7
TORSDOF 2
ENDMDL
MODEL 3
REMARK VINA RESULT:      -4.4     11.128     11.962
REMARK  2 active torsions:
REMARK  status: ('A' for Active; 'I' for Inactive)
REMARK    1  A    between atoms: C1_1  and  C3_3 
REMARK    2  A    between atoms: C2_2  and  C6_6 
ROOT
HETATM    1  C1  UNL     1     -33.921  15.240  -3.260  1.00 20.00     0.046 C 
HETATM    2  C2  UNL     1     -34.734  15.573  -2.248  1.00 20.00    -0.014 C 
ENDROOT
BRANCH   2   3
HETATM    3  C6  UNL     1     -34.823  16.955  -1.688  1.00 20.00    -0.026 A 
HETATM    4  C4  UNL     1     -33.589  17.471  -1.000  1.00 20.00     0.014 A 
HETATM    5  C5  UNL     1     -34.783  17.066  -0.188  1.00 20.00     0.014 A 
HETATM    6  C8  UNL     1     -35.674  17.905  -2.464  1.00 20.00     0.019 C 
ENDBRANCH   2   3
BRANCH   1   7
HETATM    7  C3  UNL     1     -33.880  13.844  -3.773  1.00 20.00     0.145 C 
HETATM    8  C7  UNL     1     -35.145  13.308  -4.389  1.00 20.00     0.096 C 
HETATM    9  O9  UNL     1     -32.871  13.146  -3.691  1.00 20.00    -0.294 OA
ENDBRANCH   1   7
TORSDOF 2
ENDMDL
MODEL 4
REMARK VINA RESULT:      -4.3     11.035     11.980
REMARK  2 active torsions:
REMARK  status: ('A' for Active; 'I' for Inactive)
REMARK    1  A    between atoms: C1_1  and  C3_3 
REMARK    2  A    between atoms: C2_2  and  C6_6 
ROOT
HETATM    1  C1  UNL     1     -35.053  14.992  -3.141  1.00 20.00     0.046 C 
HETATM    2  C2  UNL     1     -34.336  15.717  -2.273  1.00 20.00    -0.014 C 
ENDROOT
BRANCH   2   3
HETATM    3  C6  UNL     1     -34.838  16.975  -1.643  1.00 20.00    -0.026 A 
HETATM    4  C4  UNL     1     -33.808  17.829  -0.957  1.00 20.00     0.014 A 
HETATM    5  C5  UNL     1     -34.782  17.033  -0.141  1.00 20.00     0.014 A 
HETATM    6  C8  UNL     1     -35.974  17.635  -2.354  1.00 20.00     0.019 C 
ENDBRANCH   2   3
BRANCH   1   7
HETATM    7  C3  UNL     1     -34.493  13.746  -3.734  1.00 20.00     0.145 C 
HETATM    8  C7  UNL     1     -32.997  13.582  -3.683  1.00 20.00     0.096 C 
HETATM    9  O9  UNL     1     -35.206  12.891  -4.254  1.00 20.00    -0.294 OA
ENDBRANCH   1   7
TORSDOF 2
ENDMDL
MODEL 5
REMARK VINA RESULT:      -4.3      1.827      4.729
REMARK  2 active torsions:
REMARK  status: ('A' for Active; 'I' for Inactive)
REMARK    1  A    between atoms: C1_1  and  C3_3 
REMARK    2  A    between atoms: C2_2  and  C6_6 
ROOT
HETATM    1  C1  UNL     1     -33.625   6.327   4.339  1.00 20.00     0.046 C 
HETATM    2  C2  UNL     1     -33.273   6.729   3.110  1.00 20.00    -0.014 C 
ENDROOT
BRANCH   2   3
HETATM    3  C6  UNL     1     -32.166   7.697   2.849  1.00 20.00    -0.026 A 
HETATM    4  C4  UNL     1     -32.556   8.979   2.166  1.00 20.00     0.014 A 
HETATM    5  C5  UNL     1     -31.811   7.924   1.405  1.00 20.00     0.014 A 
HETATM    6  C8  UNL     1     -31.083   7.720   3.876  1.00 20.00     0.019 C 
ENDBRANCH   2   3
BRANCH   1   7
HETATM    7  C3  UNL     1     -34.739   5.359   4.531  1.00 20.00     0.145 C 
HETATM    8  C7  UNL     1     -34.650   4.450   5.730  1.00 20.00     0.096 C 
HETATM    9  O9  UNL     1     -35.685   5.285   3.750  1.00 20.00    -0.294 OA
ENDBRANCH   1   7
TORSDOF 2
ENDMDL
MODEL 6
REMARK VINA RESULT:      -4.1     11.218     12.142
REMARK  2 active torsions:
REMARK  status: ('A' for Active; 'I' for Inactive)
REMARK    1  A    between atoms: C1_1  and  C3_3 
REMARK    2  A    between atoms: C2_2  and  C6_6 
ROOT
HETATM    1  C1  UNL     1     -34.674  16.299  -1.749  1.00 20.00     0.046 C 
HETATM    2  C2  UNL     1     -33.684  16.009  -2.604  1.00 20.00    -0.014 C 
ENDROOT
BRANCH   2   3
HETATM    3  C6  UNL     1     -33.876  15.177  -3.829  1.00 20.00    -0.026 A 
HETATM    4  C4  UNL     1     -34.815  14.009  -3.696  1.00 20.00     0.014 A 
HETATM    5  C5  UNL     1     -33.336  13.774  -3.769  1.00 20.00     0.014 A 
HETATM    6  C8  UNL     1     -33.821  15.922  -5.122  1.00 20.00     0.019 C 
ENDBRANCH   2   3
BRANCH   1   7
HETATM    7  C3  UNL     1     -34.417  17.135  -0.545  1.00 20.00     0.145 C 
HETATM    8  C7  UNL     1     -33.261  18.098  -0.620  1.00 20.00     0.096 C 
HETATM    9  O9  UNL     1     -35.099  17.044   0.473  1.00 20.00    -0.294 OA
ENDBRANCH   1   7
TORSDOF 2
ENDMDL
MODEL 7
REMARK VINA RESULT:      -4.1     11.256     12.064
REMARK  2 active torsions:
REMARK  status: ('A' for Active; 'I' for Inactive)
REMARK    1  A    between atoms: C1_1  and  C3_3 
REMARK    2  A    between atoms: C2_2  and  C6_6 
ROOT
HETATM    1  C1  UNL     1     -34.875  16.384  -1.373  1.00 20.00     0.046 C 
HETATM    2  C2  UNL     1     -34.197  15.965  -2.449  1.00 20.00    -0.014 C 
ENDROOT
BRANCH   2   3
HETATM    3  C6  UNL     1     -34.760  15.014  -3.454  1.00 20.00    -0.026 A 
HETATM    4  C4  UNL     1     -33.951  13.774  -3.719  1.00 20.00     0.014 A 
HETATM    5  C5  UNL     1     -33.989  14.872  -4.738  1.00 20.00     0.014 A 
HETATM    6  C8  UNL     1     -36.251  14.930  -3.489  1.00 20.00     0.019 C 
ENDBRANCH   2   3
BRANCH   1   7
HETATM    7  C3  UNL     1     -34.256  17.333  -0.408  1.00 20.00     0.145 C 
HETATM    8  C7  UNL     1     -35.021  17.610   0.860  1.00 20.00     0.096 C 
HETATM    9  O9  UNL     1     -33.179  17.883  -0.630  1.00 20.00    -0.294 OA
ENDBRANCH   1   7
TORSDOF 2
ENDMDL
MODEL 8
REMARK VINA RESULT:      -4.0     11.345     12.182
REMARK  2 active torsions:
REMARK  status: ('A' for Active; 'I' for Inactive)
REMARK    1  A    between atoms: C1_1  and  C3_3 
REMARK    2  A    between atoms: C2_2  and  C6_6 
ROOT
HETATM    1  C1  UNL     1     -33.765  16.537  -2.316  1.00 20.00     0.046 C 
HETATM    2  C2  UNL     1     -34.675  15.569  -2.489  1.00 20.00    -0.014 C 
ENDROOT
BRANCH   2   3
HETATM    3  C6  UNL     1     -34.688  14.657  -3.671  1.00 20.00    -0.026 A 
HETATM    4  C4  UNL     1     -35.315  15.205  -4.923  1.00 20.00     0.014 A 
HETATM    5  C5  UNL     1     -36.040  14.170  -4.117  1.00 20.00     0.014 A 
HETATM    6  C8  UNL     1     -33.512  13.744  -3.786  1.00 20.00     0.019 C 
ENDBRANCH   2   3
BRANCH   1   7
HETATM    7  C3  UNL     1     -33.807  17.413  -1.114  1.00 20.00     0.145 C 
HETATM    8  C7  UNL     1     -34.843  17.087  -0.070  1.00 20.00     0.096 C 
HETATM    9  O9  UNL     1     -33.047  18.370  -0.974  1.00 20.00    -0.294 OA
ENDBRANCH   1   7
TORSDOF 2
ENDMDL
MODEL 9
REMARK VINA RESULT:      -4.0     11.308     12.124
REMARK  2 active torsions:
REMARK  status: ('A' for Active; 'I' for Inactive)
REMARK    1  A    between atoms: C1_1  and  C3_3 
REMARK    2  A    between atoms: C2_2  and  C6_6 
ROOT
HETATM    1  C1  UNL     1     -34.162  15.988  -2.491  1.00 20.00     0.046 C 
HETATM    2  C2  UNL     1     -34.793  16.243  -1.337  1.00 20.00    -0.014 C 
ENDROOT
BRANCH   2   3
HETATM    3  C6  UNL     1     -34.510  17.444  -0.496  1.00 20.00    -0.026 A 
HETATM    4  C4  UNL     1     -35.098  17.437   0.888  1.00 20.00     0.014 A 
HETATM    5  C5  UNL     1     -35.690  18.319  -0.170  1.00 20.00     0.014 A 
HETATM    6  C8  UNL     1     -33.175  18.077  -0.714  1.00 20.00     0.019 C 
ENDBRANCH   2   3
BRANCH   1   7
HETATM    7  C3  UNL     1     -34.491  14.771  -3.283  1.00 20.00     0.145 C 
HETATM    8  C7  UNL     1     -33.335  13.907  -3.713  1.00 20.00     0.096 C 
HETATM    9  O9  UNL     1     -35.646  14.482  -3.590  1.00 20.00    -0.294 OA
ENDBRANCH   1   7
TORSDOF 2
ENDMDL
