MODEL 1
REMARK VINA RESULT:      -4.8      0.000      0.000
REMARK  2 active torsions:
REMARK  status: ('A' for Active; 'I' for Inactive)
REMARK    1  A    between atoms: C2_2  and  C5_5 
REMARK    2  A    between atoms: C2_2  and  O9_9 
ROOT
HETATM    1  C1  UNL     1     -34.864   4.592   5.242  1.00 20.00     0.140 C 
HETATM    2  C3  UNL     1     -34.567   5.114   6.658  1.00 20.00     0.080 C 
HETATM    3  C4  UNL     1     -34.046   6.409   5.994  1.00 20.00     0.030 C 
HETATM    4  C5  UNL     1     -34.620   5.982   4.617  1.00 20.00     0.155 C 
HETATM    5  O7  UNL     1     -35.169   3.505   4.798  1.00 20.00    -0.297 OA
ENDROOT
BRANCH   4   6
HETATM    6  C2  UNL     1     -33.674   5.872   3.421  1.00 20.00     0.269 C 
HETATM    7  O8  UNL     1     -33.937   5.265   2.392  1.00 20.00    -0.264 OA
BRANCH   6   8
HETATM    8  O9  UNL     1     -32.519   6.545   3.691  1.00 20.00    -0.326 OA
HETATM    9  C6  UNL     1     -32.123   7.506   2.708  1.00 20.00     0.213 C 
ENDBRANCH   6   8
ENDBRANCH   4   6
TORSDOF 2
ENDMDL
MODEL 2
REMARK VINA RESULT:      -4.5      1.026      1.103
REMARK  2 active torsions:
REMARK  status: ('A' for Active; 'I' for Inactive)
REMARK    1  A    between atoms: C2_2  and  C5_5 
REMARK    2  A    between atoms: C2_2  and  O9_9 
ROOT
HETATM    1  C1  UNL     1     -34.722   5.142   4.863  1.00 20.00     0.140 C 
HETATM    2  C3  UNL     1     -34.593   5.261   6.391  1.00 20.00     0.080 C 
HETATM    3  C4  UNL     1     -33.748   6.532   6.149  1.00 20.00     0.030 C 
HETATM    4  C5  UNL     1     -34.135   6.553   4.647  1.00 20.00     0.155 C 
HETATM    5  O7  UNL     1     -35.127   4.270   4.124  1.00 20.00    -0.297 OA
ENDROOT
BRANCH   4   6
HETATM    6  C2  UNL     1     -33.027   6.516   3.595  1.00 20.00     0.269 C 
HETATM    7  O8  UNL     1     -32.143   5.671   3.560  1.00 20.00    -0.264 OA
BRANCH   6   8
HETATM    8  O9  UNL     1     -33.187   7.556   2.728  1.00 20.00    -0.326 OA
HETATM    9  C6  UNL     1     -31.979   8.078   2.164  1.00 20.00     0.213 C 
ENDBRANCH   6   8
ENDBRANCH   4   6
TORSDOF 2
ENDMDL
MODEL 3
REMARK VINA RESULT:      -4.5      1.447      1.960
REMARK  2 active torsions:
REMARK  status: ('A' for Active; 'I' for Inactive)
REMARK    1  A    between atoms: C2_2  and  C5_5 
REMARK    2  A    between atoms: C2_2  and  O9_9 
ROOT
HETATM    1  C1  UNL     1     -34.341   5.749   6.094  1.00 20.00     0.140 C 
HETATM    2  C3  UNL     1     -35.110   4.600   6.767  1.00 20.00     0.080 C 
HETATM    3  C4  UNL     1     -35.051   3.862   5.411  1.00 20.00     0.030 C 
HETATM    4  C5  UNL     1     -34.034   4.891   4.849  1.00 20.00     0.155 C 
HETATM    5  O7  UNL     1     -34.081   6.887   6.423  1.00 20.00    -0.297 OA
ENDROOT
BRANCH   4   6
HETATM    6  C2  UNL     1     -34.384   5.656   3.573  1.00 20.00     0.269 C 
HETATM    7  O8  UNL     1     -35.513   6.028   3.284  1.00 20.00    -0.264 OA
BRANCH   6   8
HETATM    8  O9  UNL     1     -33.255   5.845   2.832  1.00 20.00    -0.326 OA
HETATM    9  C6  UNL     1     -32.393   6.895   3.281  1.00 20.00     0.213 C 
ENDBRANCH   6   8
ENDBRANCH   4   6
TORSDOF 2
ENDMDL
MODEL 4
REMARK VINA RESULT:      -4.3     11.963     12.804
REMARK  2 active torsions:
REMARK  status: ('A' for Active; 'I' for Inactive)
REMARK    1  A    between atoms: C2_2  and  C5_5 
REMARK    2  A    between atoms: C2_2  and  O9_9 
ROOT
HETATM    1  C1  UNL     1     -35.879  15.117  -3.365  1.00 20.00     0.140 C 
HETATM    2  C3  UNL     1     -34.824  15.635  -2.373  1.00 20.00     0.080 C 
HETATM    3  C4  UNL     1     -33.758  15.292  -3.438  1.00 20.00     0.030 C 
HETATM    4  C5  UNL     1     -34.850  15.055  -4.514  1.00 20.00     0.155 C 
HETATM    5  O7  UNL     1     -37.060  14.858  -3.271  1.00 20.00    -0.297 OA
ENDROOT
BRANCH   4   6
HETATM    6  C2  UNL     1     -34.915  13.699  -5.218  1.00 20.00     0.269 C 
HETATM    7  O8  UNL     1     -34.810  12.624  -4.645  1.00 20.00    -0.264 OA
BRANCH   6   8
HETATM    8  O9  UNL     1     -35.103  13.889  -6.555  1.00 20.00    -0.326 OA
HETATM    9  C6  UNL     1     -34.450  15.036  -7.111  1.00 20.00     0.213 C 
ENDBRANCH   6   8
ENDBRANCH   4   6
TORSDOF 2
ENDMDL
MODEL 5
REMARK VINA RESULT:      -4.3     11.791     12.740
REMARK  2 active torsions:
REMARK  status: ('A' for Active; 'I' for Inactive)
REMARK    1  A    between atoms: C2_2  and  C5_5 
REMARK    2  A    between atoms: C2_2  and  O9_9 
ROOT
HETATM    1  C1  UNL     1     -34.581  13.576  -4.180  1.00 20.00     0.140 C 
HETATM    2  C3  UNL     1     -33.367  14.446  -3.814  1.00 20.00     0.080 C 
HETATM    3  C4  UNL     1     -34.369  15.506  -3.305  1.00 20.00     0.030 C 
HETATM    4  C5  UNL     1     -35.547  14.501  -3.410  1.00 20.00     0.155 C 
HETATM    5  O7  UNL     1     -34.717  12.558  -4.825  1.00 20.00    -0.297 OA
ENDROOT
BRANCH   4   6
HETATM    6  C2  UNL     1     -36.751  14.860  -4.281  1.00 20.00     0.269 C 
HETATM    7  O8  UNL     1     -36.695  15.587  -5.263  1.00 20.00    -0.264 OA
BRANCH   6   8
HETATM    8  O9  UNL     1     -37.867  14.250  -3.788  1.00 20.00    -0.326 OA
HETATM    9  C6  UNL     1     -39.000  15.103  -3.596  1.00 20.00     0.213 C 
ENDBRANCH   6   8
ENDBRANCH   4   6
TORSDOF 2
ENDMDL
MODEL 6
REMARK VINA RESULT:      -4.2     12.014     13.626
REMARK  2 active torsions:
REMARK  status: ('A' for Active; 'I' for Inactive)
REMARK    1  A    between atoms: C2_2  and  C5_5 
REMARK    2  A    between atoms: C2_2  and  O9_9 
ROOT
HETATM    1  C1  UNL     1     -34.238  15.340  -5.566  1.00 20.00     0.140 C 
HETATM    2  C3  UNL     1     -34.181  15.205  -7.097  1.00 20.00     0.080 C 
HETATM    3  C4  UNL     1     -35.499  14.403  -7.004  1.00 20.00     0.030 C 
HETATM    4  C5  UNL     1     -35.683  14.801  -5.515  1.00 20.00     0.155 C 
HETATM    5  O7  UNL     1     -33.446  15.722  -4.731  1.00 20.00    -0.297 OA
ENDROOT
BRANCH   4   6
HETATM    6  C2  UNL     1     -35.806  13.699  -4.463  1.00 20.00     0.269 C 
HETATM    7  O8  UNL     1     -34.997  12.793  -4.322  1.00 20.00    -0.264 OA
BRANCH   6   8
HETATM    8  O9  UNL     1     -36.941  13.893  -3.732  1.00 20.00    -0.326 OA
HETATM    9  C6  UNL     1     -37.393  15.248  -3.645  1.00 20.00     0.213 C 
ENDBRANCH   6   8
ENDBRANCH   4   6
TORSDOF 2
ENDMDL
MODEL 7
REMARK VINA RESULT:      -4.2     11.962     13.189
REMARK  2 active torsions:
REMARK  status: ('A' for Active; 'I' for Inactive)
REMARK    1  A    between atoms: C2_2  and  C5_5 
REMARK    2  A    between atoms: C2_2  and  O9_9 
ROOT
HETATM    1  C1  UNL     1     -34.073  15.725  -3.866  1.00 20.00     0.140 C 
HETATM    2  C3  UNL     1     -33.276  16.150  -5.111  1.00 20.00     0.080 C 
HETATM    3  C4  UNL     1     -34.310  15.369  -5.953  1.00 20.00     0.030 C 
HETATM    4  C5  UNL     1     -35.246  15.205  -4.725  1.00 20.00     0.155 C 
HETATM    5  O7  UNL     1     -33.856  15.780  -2.675  1.00 20.00    -0.297 OA
ENDROOT
BRANCH   4   6
HETATM    6  C2  UNL     1     -35.649  13.798  -4.284  1.00 20.00     0.269 C 
HETATM    7  O8  UNL     1     -34.917  12.821  -4.356  1.00 20.00    -0.264 OA
BRANCH   6   8
HETATM    8  O9  UNL     1     -36.929  13.818  -3.813  1.00 20.00    -0.326 OA
HETATM    9  C6  UNL     1     -37.682  14.994  -4.129  1.00 20.00     0.213 C 
ENDBRANCH   6   8
ENDBRANCH   4   6
TORSDOF 2
ENDMDL
MODEL 8
REMARK VINA RESULT:      -4.2      1.933      2.690
REMARK  2 active torsions:
REMARK  status: ('A' for Active; 'I' for Inactive)
REMARK    1  A    between atoms: C2_2  and  C5_5 
REMARK    2  A    between atoms: C2_2  and  O9_9 
ROOT
HETATM    1  C1  UNL     1     -33.895   6.109   4.760  1.00 20.00     0.140 C 
HETATM    2  C3  UNL     1     -35.045   5.436   3.992  1.00 20.00     0.080 C 
HETATM    3  C4  UNL     1     -34.133   5.462   2.745  1.00 20.00     0.030 C 
HETATM    4  C5  UNL     1     -32.904   5.864   3.602  1.00 20.00     0.155 C 
HETATM    5  O7  UNL     1     -33.810   6.628   5.852  1.00 20.00    -0.297 OA
ENDROOT
BRANCH   4   6
HETATM    6  C2  UNL     1     -32.151   7.150   3.262  1.00 20.00     0.269 C 
HETATM    7  O8  UNL     1     -31.314   7.667   3.989  1.00 20.00    -0.264 OA
BRANCH   6   8
HETATM    8  O9  UNL     1     -32.562   7.610   2.046  1.00 20.00    -0.326 OA
HETATM    9  C6  UNL     1     -32.149   8.941   1.719  1.00 20.00     0.213 C 
ENDBRANCH   6   8
ENDBRANCH   4   6
TORSDOF 2
ENDMDL
MODEL 9
REMARK VINA RESULT:      -4.2     11.959     12.918
REMARK  2 active torsions:
REMARK  status: ('A' for Active; 'I' for Inactive)
REMARK    1  A    between atoms: C2_2  and  C5_5 
REMARK    2  A    between atoms: C2_2  and  O9_9 
ROOT
HETATM    1  C1  UNL     1     -34.692  13.718  -4.978  1.00 20.00     0.140 C 
HETATM    2  C3  UNL     1     -34.817  14.292  -6.400  1.00 20.00     0.080 C 
HETATM    3  C4  UNL     1     -34.551  15.684  -5.784  1.00 20.00     0.030 C 
HETATM    4  C5  UNL     1     -34.143  15.051  -4.427  1.00 20.00     0.155 C 
HETATM    5  O7  UNL     1     -34.935  12.635  -4.490  1.00 20.00    -0.297 OA
ENDROOT
BRANCH   4   6
HETATM    6  C2  UNL     1     -34.899  15.458  -3.162  1.00 20.00     0.269 C 
HETATM    7  O8  UNL     1     -36.111  15.363  -3.027  1.00 20.00    -0.264 OA
BRANCH   6   8
HETATM    8  O9  UNL     1     -34.016  15.934  -2.238  1.00 20.00    -0.326 OA
HETATM    9  C6  UNL     1     -34.603  16.537  -1.080  1.00 20.00     0.213 C 
ENDBRANCH   6   8
ENDBRANCH   4   6
TORSDOF 2
ENDMDL
