MODEL 1
REMARK VINA RESULT:      -5.1      0.000      0.000
REMARK  2 active torsions:
REMARK  status: ('A' for Active; 'I' for Inactive)
REMARK    1  A    between atoms: C7_7  and  C9_9 
REMARK    2  A    between atoms: C9_9  and  C10_10 
ROOT
HETATM    1  C1  UNL     1     -35.692  14.697  -7.166  1.00 20.00     0.064 C 
HETATM    2  C2  UNL     1     -34.263  16.110  -5.650  1.00 20.00     0.019 C 
HETATM    3  C3  UNL     1     -34.800  13.723  -5.024  1.00 20.00     0.019 C 
HETATM    4  C4  UNL     1     -33.131  16.128  -4.621  1.00 20.00     0.006 C 
HETATM    5  C5  UNL     1     -33.669  13.736  -3.994  1.00 20.00     0.006 C 
HETATM    6  C6  UNL     1     -34.527  14.695  -6.179  1.00 20.00     0.093 C 
HETATM    7  C7  UNL     1     -33.350  15.141  -3.468  1.00 20.00    -0.014 C 
HETATM    8  N11 UNL     1     -36.577  14.699  -7.918  1.00 20.00    -0.197 NA
ENDROOT
BRANCH   7   9
HETATM    9  C9  UNL     1     -34.410  15.618  -2.559  1.00 20.00     0.004 C 
BRANCH   9  10
HETATM   10  C10 UNL     1     -33.949  16.835  -1.764  1.00 20.00    -0.004 C 
HETATM   11  C8  UNL     1     -34.678  16.932  -0.434  1.00 20.00     0.005 C 
ENDBRANCH   9  10
ENDBRANCH   7   9
TORSDOF 2
ENDMDL
MODEL 2
REMARK VINA RESULT:      -4.7      1.907      3.012
REMARK  2 active torsions:
REMARK  status: ('A' for Active; 'I' for Inactive)
REMARK    1  A    between atoms: C7_7  and  C9_9 
REMARK    2  A    between atoms: C9_9  and  C10_10 
ROOT
HETATM    1  C1  UNL     1     -34.771  13.721  -4.519  1.00 20.00     0.064 C 
HETATM    2  C2  UNL     1     -36.063  15.393  -3.150  1.00 20.00     0.019 C 
HETATM    3  C3  UNL     1     -33.550  15.575  -3.332  1.00 20.00     0.019 C 
HETATM    4  C4  UNL     1     -36.132  16.830  -2.630  1.00 20.00     0.006 C 
HETATM    5  C5  UNL     1     -33.614  17.013  -2.812  1.00 20.00     0.006 C 
HETATM    6  C6  UNL     1     -34.843  15.174  -4.053  1.00 20.00     0.093 C 
HETATM    7  C7  UNL     1     -34.842  17.280  -1.933  1.00 20.00    -0.014 C 
HETATM    8  N11 UNL     1     -34.717  12.617  -4.874  1.00 20.00    -0.197 NA
ENDROOT
BRANCH   7   9
HETATM    9  C9  UNL     1     -34.699  16.632  -0.615  1.00 20.00     0.004 C 
BRANCH   9  10
HETATM   10  C10 UNL     1     -34.925  17.628   0.517  1.00 20.00    -0.004 C 
HETATM   11  C8  UNL     1     -33.682  18.465   0.771  1.00 20.00     0.005 C 
ENDBRANCH   9  10
ENDBRANCH   7   9
TORSDOF 2
ENDMDL
MODEL 3
REMARK VINA RESULT:      -4.7      1.336      1.583
REMARK  2 active torsions:
REMARK  status: ('A' for Active; 'I' for Inactive)
REMARK    1  A    between atoms: C7_7  and  C9_9 
REMARK    2  A    between atoms: C9_9  and  C10_10 
ROOT
HETATM    1  C1  UNL     1     -34.450  16.727  -7.095  1.00 20.00     0.064 C 
HETATM    2  C2  UNL     1     -33.283  16.333  -4.899  1.00 20.00     0.019 C 
HETATM    3  C3  UNL     1     -35.412  15.088  -5.444  1.00 20.00     0.019 C 
HETATM    4  C4  UNL     1     -32.983  15.336  -3.778  1.00 20.00     0.006 C 
HETATM    5  C5  UNL     1     -35.117  14.088  -4.324  1.00 20.00     0.006 C 
HETATM    6  C6  UNL     1     -34.125  15.699  -6.013  1.00 20.00     0.093 C 
HETATM    7  C7  UNL     1     -34.244  14.676  -3.208  1.00 20.00    -0.014 C 
HETATM    8  N11 UNL     1     -34.696  17.508  -7.917  1.00 20.00    -0.197 NA
ENDROOT
BRANCH   7   9
HETATM    9  C9  UNL     1     -35.013  15.629  -2.383  1.00 20.00     0.004 C 
BRANCH   9  10
HETATM   10  C10 UNL     1     -34.088  16.578  -1.629  1.00 20.00    -0.004 C 
HETATM   11  C8  UNL     1     -34.704  17.017  -0.311  1.00 20.00     0.005 C 
ENDBRANCH   9  10
ENDBRANCH   7   9
TORSDOF 2
ENDMDL
MODEL 4
REMARK VINA RESULT:      -4.6      2.558      3.257
REMARK  2 active torsions:
REMARK  status: ('A' for Active; 'I' for Inactive)
REMARK    1  A    between atoms: C7_7  and  C9_9 
REMARK    2  A    between atoms: C9_9  and  C10_10 
ROOT
HETATM    1  C1  UNL     1     -37.319  14.969  -3.724  1.00 20.00     0.064 C 
HETATM    2  C2  UNL     1     -36.534  17.152  -2.746  1.00 20.00     0.019 C 
HETATM    3  C3  UNL     1     -34.963  15.177  -2.861  1.00 20.00     0.019 C 
HETATM    4  C4  UNL     1     -35.345  18.087  -2.510  1.00 20.00     0.006 C 
HETATM    5  C5  UNL     1     -33.771  16.107  -2.625  1.00 20.00     0.006 C 
HETATM    6  C6  UNL     1     -36.127  15.907  -3.544  1.00 20.00     0.093 C 
HETATM    7  C7  UNL     1     -34.147  17.383  -1.861  1.00 20.00    -0.014 C 
HETATM    8  N11 UNL     1     -38.225  14.257  -3.861  1.00 20.00    -0.197 NA
ENDROOT
BRANCH   7   9
HETATM    9  C9  UNL     1     -34.413  17.089  -0.440  1.00 20.00     0.004 C 
BRANCH   9  10
HETATM   10  C10 UNL     1     -33.866  18.188   0.464  1.00 20.00    -0.004 C 
HETATM   11  C8  UNL     1     -32.541  18.721  -0.056  1.00 20.00     0.005 C 
ENDBRANCH   9  10
ENDBRANCH   7   9
TORSDOF 2
ENDMDL
MODEL 5
REMARK VINA RESULT:      -4.5      1.125      1.125
REMARK  2 active torsions:
REMARK  status: ('A' for Active; 'I' for Inactive)
REMARK    1  A    between atoms: C7_7  and  C9_9 
REMARK    2  A    between atoms: C9_9  and  C10_10 
ROOT
HETATM    1  C1  UNL     1     -36.885  15.232  -6.221  1.00 20.00     0.064 C 
HETATM    2  C2  UNL     1     -35.135  16.538  -4.967  1.00 20.00     0.019 C 
HETATM    3  C3  UNL     1     -35.620  14.140  -4.339  1.00 20.00     0.019 C 
HETATM    4  C4  UNL     1     -33.821  16.480  -4.185  1.00 20.00     0.006 C 
HETATM    5  C5  UNL     1     -34.307  14.076  -3.556  1.00 20.00     0.006 C 
HETATM    6  C6  UNL     1     -35.548  15.155  -5.487  1.00 20.00     0.093 C 
HETATM    7  C7  UNL     1     -33.842  15.448  -3.051  1.00 20.00    -0.014 C 
HETATM    8  N11 UNL     1     -37.901  15.292  -6.779  1.00 20.00    -0.197 NA
ENDROOT
BRANCH   7   9
HETATM    9  C9  UNL     1     -34.682  15.912  -1.930  1.00 20.00     0.004 C 
BRANCH   9  10
HETATM   10  C10 UNL     1     -34.014  17.054  -1.174  1.00 20.00    -0.004 C 
HETATM   11  C8  UNL     1     -34.713  17.323   0.149  1.00 20.00     0.005 C 
ENDBRANCH   9  10
ENDBRANCH   7   9
TORSDOF 2
ENDMDL
MODEL 6
REMARK VINA RESULT:      -4.4      2.664      5.006
REMARK  2 active torsions:
REMARK  status: ('A' for Active; 'I' for Inactive)
REMARK    1  A    between atoms: C7_7  and  C9_9 
REMARK    2  A    between atoms: C9_9  and  C10_10 
ROOT
HETATM    1  C1  UNL     1     -34.388  16.629  -1.185  1.00 20.00     0.064 C 
HETATM    2  C2  UNL     1     -34.605  14.976  -3.072  1.00 20.00     0.019 C 
HETATM    3  C3  UNL     1     -33.836  17.337  -3.537  1.00 20.00     0.019 C 
HETATM    4  C4  UNL     1     -34.089  14.536  -4.443  1.00 20.00     0.006 C 
HETATM    5  C5  UNL     1     -33.317  16.901  -4.909  1.00 20.00     0.006 C 
HETATM    6  C6  UNL     1     -33.823  16.179  -2.530  1.00 20.00     0.093 C 
HETATM    7  C7  UNL     1     -34.053  15.676  -5.467  1.00 20.00    -0.014 C 
HETATM    8  N11 UNL     1     -34.818  16.970  -0.162  1.00 20.00    -0.197 NA
ENDROOT
BRANCH   7   9
HETATM    9  C9  UNL     1     -35.414  16.033  -5.909  1.00 20.00     0.004 C 
BRANCH   9  10
HETATM   10  C10 UNL     1     -36.116  14.843  -6.553  1.00 20.00    -0.004 C 
HETATM   11  C8  UNL     1     -35.527  14.528  -7.918  1.00 20.00     0.005 C 
ENDBRANCH   9  10
ENDBRANCH   7   9
TORSDOF 2
ENDMDL
MODEL 7
REMARK VINA RESULT:      -4.4      2.629      4.904
REMARK  2 active torsions:
REMARK  status: ('A' for Active; 'I' for Inactive)
REMARK    1  A    between atoms: C7_7  and  C9_9 
REMARK    2  A    between atoms: C9_9  and  C10_10 
ROOT
HETATM    1  C1  UNL     1     -35.119  17.055  -1.242  1.00 20.00     0.064 C 
HETATM    2  C2  UNL     1     -35.930  15.515  -3.062  1.00 20.00     0.019 C 
HETATM    3  C3  UNL     1     -33.474  16.081  -2.880  1.00 20.00     0.019 C 
HETATM    4  C4  UNL     1     -35.592  14.332  -3.971  1.00 20.00     0.006 C 
HETATM    5  C5  UNL     1     -33.132  14.899  -3.789  1.00 20.00     0.006 C 
HETATM    6  C6  UNL     1     -34.777  15.842  -2.105  1.00 20.00     0.093 C 
HETATM    7  C7  UNL     1     -34.277  14.518  -4.736  1.00 20.00    -0.014 C 
HETATM    8  N11 UNL     1     -35.380  17.977  -0.587  1.00 20.00    -0.197 NA
ENDROOT
BRANCH   7   9
HETATM    9  C9  UNL     1     -34.427  15.517  -5.812  1.00 20.00     0.004 C 
BRANCH   9  10
HETATM   10  C10 UNL     1     -34.408  14.858  -7.186  1.00 20.00    -0.004 C 
HETATM   11  C8  UNL     1     -35.817  14.648  -7.716  1.00 20.00     0.005 C 
ENDBRANCH   9  10
ENDBRANCH   7   9
TORSDOF 2
ENDMDL
MODEL 8
REMARK VINA RESULT:      -4.4      2.513      4.807
REMARK  2 active torsions:
REMARK  status: ('A' for Active; 'I' for Inactive)
REMARK    1  A    between atoms: C7_7  and  C9_9 
REMARK    2  A    between atoms: C9_9  and  C10_10 
ROOT
HETATM    1  C1  UNL     1     -34.043  16.759  -1.852  1.00 20.00     0.064 C 
HETATM    2  C2  UNL     1     -35.679  15.714  -3.455  1.00 20.00     0.019 C 
HETATM    3  C3  UNL     1     -33.289  14.900  -3.373  1.00 20.00     0.019 C 
HETATM    4  C4  UNL     1     -36.086  14.449  -4.213  1.00 20.00     0.006 C 
HETATM    5  C5  UNL     1     -33.691  13.633  -4.131  1.00 20.00     0.006 C 
HETATM    6  C6  UNL     1     -34.458  15.471  -2.560  1.00 20.00     0.093 C 
HETATM    7  C7  UNL     1     -34.933  13.828  -5.010  1.00 20.00    -0.014 C 
HETATM    8  N11 UNL     1     -33.728  17.739  -1.315  1.00 20.00    -0.197 NA
ENDROOT
BRANCH   7   9
HETATM    9  C9  UNL     1     -34.615  14.640  -6.200  1.00 20.00     0.004 C 
BRANCH   9  10
HETATM   10  C10 UNL     1     -35.565  14.328  -7.352  1.00 20.00    -0.004 C 
HETATM   11  C8  UNL     1     -36.377  15.552  -7.743  1.00 20.00     0.005 C 
ENDBRANCH   9  10
ENDBRANCH   7   9
TORSDOF 2
ENDMDL
MODEL 9
REMARK VINA RESULT:      -4.3      3.410      5.316
REMARK  2 active torsions:
REMARK  status: ('A' for Active; 'I' for Inactive)
REMARK    1  A    between atoms: C7_7  and  C9_9 
REMARK    2  A    between atoms: C9_9  and  C10_10 
ROOT
HETATM    1  C1  UNL     1     -32.683  18.794  -0.656  1.00 20.00     0.064 C 
HETATM    2  C2  UNL     1     -33.624  18.417  -2.961  1.00 20.00     0.019 C 
HETATM    3  C3  UNL     1     -33.954  16.680  -1.156  1.00 20.00     0.019 C 
HETATM    4  C4  UNL     1     -34.733  17.767  -3.792  1.00 20.00     0.006 C 
HETATM    5  C5  UNL     1     -35.063  16.027  -1.984  1.00 20.00     0.006 C 
HETATM    6  C6  UNL     1     -33.827  18.178  -1.459  1.00 20.00     0.093 C 
HETATM    7  C7  UNL     1     -34.914  16.275  -3.490  1.00 20.00    -0.014 C 
HETATM    8  N11 UNL     1     -31.814  19.263  -0.046  1.00 20.00    -0.197 NA
ENDROOT
BRANCH   7   9
HETATM    9  C9  UNL     1     -33.802  15.484  -4.049  1.00 20.00     0.004 C 
BRANCH   9  10
HETATM   10  C10 UNL     1     -33.976  13.999  -3.751  1.00 20.00    -0.004 C 
HETATM   11  C8  UNL     1     -35.143  13.413  -4.528  1.00 20.00     0.005 C 
ENDBRANCH   9  10
ENDBRANCH   7   9
TORSDOF 2
ENDMDL
