MODEL 1
REMARK VINA RESULT:      -3.4      0.000      0.000
REMARK  0 active torsions:
REMARK  status: ('A' for Active; 'I' for Inactive)
ROOT
HETATM    1  C1  UNL     1     -34.062  17.403  -3.494  1.00 20.00     0.282 C 
HETATM    2  C2  UNL     1     -34.600  15.067  -3.057  1.00 20.00     0.286 C 
HETATM    3  C3  UNL     1     -33.400  17.152  -4.847  1.00 20.00     0.104 C 
HETATM    4  C4  UNL     1     -34.005  14.523  -4.364  1.00 20.00     0.071 C 
HETATM    5  C5  UNL     1     -34.711  13.238  -4.790  1.00 20.00     0.023 C 
HETATM    6  C6  UNL     1     -34.401  16.634  -1.241  1.00 20.00     0.310 C 
HETATM    7  N7  UNL     1     -33.904  16.270  -2.570  1.00 20.00     0.086 N 
HETATM    8  S8  UNL     1     -34.155  15.747  -5.707  1.00 20.00    -0.161 SA
ENDROOT
TORSDOF 0
ENDMDL
MODEL 2
REMARK VINA RESULT:      -3.3      2.368      4.106
REMARK  0 active torsions:
REMARK  status: ('A' for Active; 'I' for Inactive)
ROOT
HETATM    1  C1  UNL     1     -34.827  13.751  -5.263  1.00 20.00     0.282 C 
HETATM    2  C2  UNL     1     -34.533  16.041  -6.039  1.00 20.00     0.286 C 
HETATM    3  C3  UNL     1     -33.786  13.837  -4.150  1.00 20.00     0.104 C 
HETATM    4  C4  UNL     1     -33.451  16.415  -5.016  1.00 20.00     0.071 C 
HETATM    5  C5  UNL     1     -33.474  17.912  -4.720  1.00 20.00     0.023 C 
HETATM    6  C6  UNL     1     -35.436  14.362  -7.507  1.00 20.00     0.310 C 
HETATM    7  N7  UNL     1     -34.503  14.616  -6.407  1.00 20.00     0.086 N 
HETATM    8  S8  UNL     1     -33.692  15.506  -3.453  1.00 20.00    -0.161 SA
ENDROOT
TORSDOF 0
ENDMDL
MODEL 3
REMARK VINA RESULT:      -3.2      1.640      3.152
REMARK  0 active torsions:
REMARK  status: ('A' for Active; 'I' for Inactive)
ROOT
HETATM    1  C1  UNL     1     -34.179  15.544  -5.423  1.00 20.00     0.282 C 
HETATM    2  C2  UNL     1     -34.534  14.917  -3.097  1.00 20.00     0.286 C 
HETATM    3  C3  UNL     1     -34.528  17.018  -5.235  1.00 20.00     0.104 C 
HETATM    4  C4  UNL     1     -34.926  16.321  -2.614  1.00 20.00     0.071 C 
HETATM    5  C5  UNL     1     -34.580  16.507  -1.140  1.00 20.00     0.023 C 
HETATM    6  C6  UNL     1     -34.672  13.264  -4.841  1.00 20.00     0.310 C 
HETATM    7  N7  UNL     1     -34.912  14.668  -4.498  1.00 20.00     0.086 N 
HETATM    8  S8  UNL     1     -34.067  17.605  -3.584  1.00 20.00    -0.161 SA
ENDROOT
TORSDOF 0
ENDMDL
MODEL 4
REMARK VINA RESULT:      -3.2      1.760      2.291
REMARK  0 active torsions:
REMARK  status: ('A' for Active; 'I' for Inactive)
ROOT
HETATM    1  C1  UNL     1     -33.344  15.220  -3.374  1.00 20.00     0.282 C 
HETATM    2  C2  UNL     1     -35.674  15.887  -3.127  1.00 20.00     0.286 C 
HETATM    3  C3  UNL     1     -33.646  13.850  -3.975  1.00 20.00     0.104 C 
HETATM    4  C4  UNL     1     -36.269  14.594  -3.704  1.00 20.00     0.071 C 
HETATM    5  C5  UNL     1     -37.631  14.858  -4.339  1.00 20.00     0.023 C 
HETATM    6  C6  UNL     1     -33.964  16.898  -1.768  1.00 20.00     0.310 C 
HETATM    7  N7  UNL     1     -34.389  15.669  -2.442  1.00 20.00     0.086 N 
HETATM    8  S8  UNL     1     -35.164  13.876  -4.963  1.00 20.00    -0.161 SA
ENDROOT
TORSDOF 0
ENDMDL
MODEL 5
REMARK VINA RESULT:      -3.1      1.657      3.231
REMARK  0 active torsions:
REMARK  status: ('A' for Active; 'I' for Inactive)
ROOT
HETATM    1  C1  UNL     1     -34.341  15.999  -5.909  1.00 20.00     0.282 C 
HETATM    2  C2  UNL     1     -34.195  17.232  -3.813  1.00 20.00     0.286 C 
HETATM    3  C3  UNL     1     -34.213  14.616  -5.277  1.00 20.00     0.104 C 
HETATM    4  C4  UNL     1     -34.052  15.995  -2.914  1.00 20.00     0.071 C 
HETATM    5  C5  UNL     1     -34.597  16.271  -1.516  1.00 20.00     0.023 C 
HETATM    6  C6  UNL     1     -33.631  18.296  -5.897  1.00 20.00     0.310 C 
HETATM    7  N7  UNL     1     -33.619  17.034  -5.154  1.00 20.00     0.086 N 
HETATM    8  S8  UNL     1     -34.945  14.571  -3.620  1.00 20.00    -0.161 SA
ENDROOT
TORSDOF 0
ENDMDL
MODEL 6
REMARK VINA RESULT:      -3.1      1.912      2.727
REMARK  0 active torsions:
REMARK  status: ('A' for Active; 'I' for Inactive)
ROOT
HETATM    1  C1  UNL     1     -33.566  15.747  -3.659  1.00 20.00     0.282 C 
HETATM    2  C2  UNL     1     -34.368  16.100  -5.932  1.00 20.00     0.286 C 
HETATM    3  C3  UNL     1     -34.366  14.470  -3.416  1.00 20.00     0.104 C 
HETATM    4  C4  UNL     1     -35.270  14.858  -5.974  1.00 20.00     0.071 C 
HETATM    5  C5  UNL     1     -35.425  14.346  -7.403  1.00 20.00     0.023 C 
HETATM    6  C6  UNL     1     -33.521  17.944  -4.636  1.00 20.00     0.310 C 
HETATM    7  N7  UNL     1     -34.244  16.671  -4.580  1.00 20.00     0.086 N 
HETATM    8  S8  UNL     1     -34.583  13.520  -4.943  1.00 20.00    -0.161 SA
ENDROOT
TORSDOF 0
ENDMDL
MODEL 7
REMARK VINA RESULT:      -3.1     12.191     13.225
REMARK  0 active torsions:
REMARK  status: ('A' for Active; 'I' for Inactive)
ROOT
HETATM    1  C1  UNL     1     -41.574   4.665  -0.857  1.00 20.00     0.282 C 
HETATM    2  C2  UNL     1     -42.675   5.544  -2.844  1.00 20.00     0.286 C 
HETATM    3  C3  UNL     1     -40.807   5.945  -0.534  1.00 20.00     0.104 C 
HETATM    4  C4  UNL     1     -42.045   6.942  -2.767  1.00 20.00     0.071 C 
HETATM    5  C5  UNL     1     -42.955   7.986  -3.407  1.00 20.00     0.023 C 
HETATM    6  C6  UNL     1     -42.381   3.172  -2.560  1.00 20.00     0.310 C 
HETATM    7  N7  UNL     1     -41.801   4.492  -2.299  1.00 20.00     0.086 N 
HETATM    8  S8  UNL     1     -41.733   7.420  -1.035  1.00 20.00    -0.161 SA
ENDROOT
TORSDOF 0
ENDMDL
MODEL 8
REMARK VINA RESULT:      -3.1      1.672      3.379
REMARK  0 active torsions:
REMARK  status: ('A' for Active; 'I' for Inactive)
ROOT
HETATM    1  C1  UNL     1     -34.478  15.046  -3.082  1.00 20.00     0.282 C 
HETATM    2  C2  UNL     1     -34.160  15.782  -5.383  1.00 20.00     0.286 C 
HETATM    3  C3  UNL     1     -33.821  16.266  -2.444  1.00 20.00     0.104 C 
HETATM    4  C4  UNL     1     -33.462  17.103  -5.029  1.00 20.00     0.071 C 
HETATM    5  C5  UNL     1     -33.696  18.151  -6.114  1.00 20.00     0.023 C 
HETATM    6  C6  UNL     1     -34.449  13.446  -4.878  1.00 20.00     0.310 C 
HETATM    7  N7  UNL     1     -33.905  14.719  -4.396  1.00 20.00     0.086 N 
HETATM    8  S8  UNL     1     -34.075  17.757  -3.441  1.00 20.00    -0.161 SA
ENDROOT
TORSDOF 0
ENDMDL
MODEL 9
REMARK VINA RESULT:      -3.1      2.308      2.921
REMARK  0 active torsions:
REMARK  status: ('A' for Active; 'I' for Inactive)
ROOT
HETATM    1  C1  UNL     1     -35.844  15.594  -3.034  1.00 20.00     0.282 C 
HETATM    2  C2  UNL     1     -36.141  15.016  -5.382  1.00 20.00     0.286 C 
HETATM    3  C3  UNL     1     -34.328  15.421  -3.031  1.00 20.00     0.104 C 
HETATM    4  C4  UNL     1     -34.654  14.773  -5.673  1.00 20.00     0.071 C 
HETATM    5  C5  UNL     1     -34.334  15.045  -7.140  1.00 20.00     0.023 C 
HETATM    6  C6  UNL     1     -37.964  14.784  -3.827  1.00 20.00     0.310 C 
HETATM    7  N7  UNL     1     -36.511  14.700  -3.992  1.00 20.00     0.086 N 
HETATM    8  S8  UNL     1     -33.605  15.845  -4.636  1.00 20.00    -0.161 SA
ENDROOT
TORSDOF 0
ENDMDL
