MODEL 1
REMARK VINA RESULT:      -3.7      0.000      0.000
REMARK  2 active torsions:
REMARK  status: ('A' for Active; 'I' for Inactive)
REMARK    1  A    between atoms: C1_1  and  C3_3 
REMARK    2  A    between atoms: C2_2  and  N9_9 
ROOT
HETATM    1  C1  UNL     1     -34.918  15.412  -2.840  1.00 20.00     0.050 C 
HETATM    2  C2  UNL     1     -34.081  14.521  -3.400  1.00 20.00     0.002 C 
HETATM    3  C4  UNL     1     -32.612  14.842  -3.481  1.00 20.00     0.068 C 
ENDROOT
BRANCH   1   4
HETATM    4  C3  UNL     1     -34.459  16.722  -2.288  1.00 20.00     0.026 C 
HETATM    5  C5  UNL     1     -34.412  16.813  -0.778  1.00 20.00     0.070 C 
HETATM    6  N8  UNL     1     -34.102  17.678  -3.079  1.00 20.00    -0.299 NA
HETATM    7  C6  UNL     1     -33.646  18.931  -2.499  1.00 20.00     0.177 C 
ENDBRANCH   1   4
BRANCH   2   8
HETATM    8  N9  UNL     1     -34.434  13.303  -3.913  1.00 20.00    -0.398 N 
HETATM    9  C7  UNL     1     -34.883  13.185  -5.271  1.00 20.00     0.146 C 
HETATM   10  H23 UNL     1     -34.360  12.526  -3.303  1.00 20.00     0.158 HD
ENDBRANCH   2   8
TORSDOF 2
ENDMDL
MODEL 2
REMARK VINA RESULT:      -3.7     11.856     13.682
REMARK  2 active torsions:
REMARK  status: ('A' for Active; 'I' for Inactive)
REMARK    1  A    between atoms: C1_1  and  C3_3 
REMARK    2  A    between atoms: C2_2  and  N9_9 
ROOT
HETATM    1  C1  UNL     1     -40.947   4.050  -1.665  1.00 20.00     0.050 C 
HETATM    2  C2  UNL     1     -41.718   3.414  -2.566  1.00 20.00     0.002 C 
HETATM    3  C4  UNL     1     -43.021   4.038  -2.990  1.00 20.00     0.068 C 
ENDROOT
BRANCH   1   4
HETATM    4  C3  UNL     1     -41.323   5.361  -1.057  1.00 20.00     0.026 C 
HETATM    5  C5  UNL     1     -42.032   5.282   0.277  1.00 20.00     0.070 C 
HETATM    6  N8  UNL     1     -41.017   6.469  -1.646  1.00 20.00    -0.299 NA
HETATM    7  C6  UNL     1     -41.388   7.724  -1.011  1.00 20.00     0.177 C 
ENDBRANCH   1   4
BRANCH   2   8
HETATM    8  N9  UNL     1     -41.427   2.220  -3.168  1.00 20.00    -0.398 N 
HETATM    9  C7  UNL     1     -42.419   1.187  -3.256  1.00 20.00     0.146 C 
HETATM   10  H23 UNL     1     -40.511   2.117  -3.530  1.00 20.00     0.158 HD
ENDBRANCH   2   8
TORSDOF 2
ENDMDL
MODEL 3
REMARK VINA RESULT:      -3.6      1.853      4.183
REMARK  2 active torsions:
REMARK  status: ('A' for Active; 'I' for Inactive)
REMARK    1  A    between atoms: C1_1  and  C3_3 
REMARK    2  A    between atoms: C2_2  and  N9_9 
ROOT
HETATM    1  C1  UNL     1     -35.918  15.265  -3.382  1.00 20.00     0.050 C 
HETATM    2  C2  UNL     1     -35.134  15.962  -2.540  1.00 20.00     0.002 C 
HETATM    3  C4  UNL     1     -33.670  16.116  -2.857  1.00 20.00     0.068 C 
ENDROOT
BRANCH   1   4
HETATM    4  C3  UNL     1     -35.403  14.628  -4.631  1.00 20.00     0.026 C 
HETATM    5  C5  UNL     1     -34.930  13.198  -4.488  1.00 20.00     0.070 C 
HETATM    6  N8  UNL     1     -35.408  15.276  -5.749  1.00 20.00    -0.299 NA
HETATM    7  C6  UNL     1     -34.912  14.613  -6.944  1.00 20.00     0.177 C 
ENDBRANCH   1   4
BRANCH   2   8
HETATM    8  N9  UNL     1     -35.543  16.578  -1.389  1.00 20.00    -0.398 N 
HETATM    9  C7  UNL     1     -34.586  16.997  -0.405  1.00 20.00     0.146 C 
HETATM   10  H23 UNL     1     -36.519  16.713  -1.281  1.00 20.00     0.158 HD
ENDBRANCH   2   8
TORSDOF 2
ENDMDL
MODEL 4
REMARK VINA RESULT:      -3.6     11.136     12.247
REMARK  2 active torsions:
REMARK  status: ('A' for Active; 'I' for Inactive)
REMARK    1  A    between atoms: C1_1  and  C3_3 
REMARK    2  A    between atoms: C2_2  and  N9_9 
ROOT
HETATM    1  C1  UNL     1     -33.621   7.029   4.093  1.00 20.00     0.050 C 
HETATM    2  C2  UNL     1     -32.552   6.869   3.292  1.00 20.00     0.002 C 
HETATM    3  C4  UNL     1     -32.161   5.482   2.856  1.00 20.00     0.068 C 
ENDROOT
BRANCH   1   4
HETATM    4  C3  UNL     1     -34.450   5.885   4.578  1.00 20.00     0.026 C 
HETATM    5  C5  UNL     1     -35.544   5.427   3.639  1.00 20.00     0.070 C 
HETATM    6  N8  UNL     1     -34.197   5.328   5.716  1.00 20.00    -0.299 NA
HETATM    7  C6  UNL     1     -35.019   4.207   6.143  1.00 20.00     0.177 C 
ENDBRANCH   1   4
BRANCH   2   8
HETATM    8  N9  UNL     1     -31.760   7.872   2.804  1.00 20.00    -0.398 N 
HETATM    9  C7  UNL     1     -32.128   8.577   1.609  1.00 20.00     0.146 C 
HETATM   10  H23 UNL     1     -30.936   8.075   3.315  1.00 20.00     0.158 HD
ENDBRANCH   2   8
TORSDOF 2
ENDMDL
MODEL 5
REMARK VINA RESULT:      -3.6      1.953      4.097
REMARK  2 active torsions:
REMARK  status: ('A' for Active; 'I' for Inactive)
REMARK    1  A    between atoms: C1_1  and  C3_3 
REMARK    2  A    between atoms: C2_2  and  N9_9 
ROOT
HETATM    1  C1  UNL     1     -34.814  16.155  -1.993  1.00 20.00     0.050 C 
HETATM    2  C2  UNL     1     -34.515  16.892  -0.908  1.00 20.00     0.002 C 
HETATM    3  C4  UNL     1     -33.344  17.838  -0.961  1.00 20.00     0.068 C 
ENDROOT
BRANCH   1   4
HETATM    4  C3  UNL     1     -34.034  16.228  -3.264  1.00 20.00     0.026 C 
HETATM    5  C5  UNL     1     -33.025  15.120  -3.476  1.00 20.00     0.070 C 
HETATM    6  N8  UNL     1     -34.257  17.172  -4.118  1.00 20.00    -0.299 NA
HETATM    7  C6  UNL     1     -33.486  17.196  -5.350  1.00 20.00     0.177 C 
ENDBRANCH   1   4
BRANCH   2   8
HETATM    8  N9  UNL     1     -35.193  16.881   0.280  1.00 20.00    -0.398 N 
HETATM    9  C7  UNL     1     -34.958  17.899   1.264  1.00 20.00     0.146 C 
HETATM   10  H23 UNL     1     -35.842  16.144   0.414  1.00 20.00     0.158 HD
ENDBRANCH   2   8
TORSDOF 2
ENDMDL
MODEL 6
REMARK VINA RESULT:      -3.5      2.623      3.933
REMARK  2 active torsions:
REMARK  status: ('A' for Active; 'I' for Inactive)
REMARK    1  A    between atoms: C1_1  and  C3_3 
REMARK    2  A    between atoms: C2_2  and  N9_9 
ROOT
HETATM    1  C1  UNL     1     -35.589  14.724  -3.533  1.00 20.00     0.050 C 
HETATM    2  C2  UNL     1     -34.722  14.230  -4.436  1.00 20.00     0.002 C 
HETATM    3  C4  UNL     1     -35.159  14.075  -5.868  1.00 20.00     0.068 C 
ENDROOT
BRANCH   1   4
HETATM    4  C3  UNL     1     -36.983  15.130  -3.885  1.00 20.00     0.026 C 
HETATM    5  C5  UNL     1     -37.152  16.567  -4.328  1.00 20.00     0.070 C 
HETATM    6  N8  UNL     1     -37.948  14.273  -3.833  1.00 20.00    -0.299 NA
HETATM    7  C6  UNL     1     -39.287  14.707  -4.199  1.00 20.00     0.177 C 
ENDBRANCH   1   4
BRANCH   2   8
HETATM    8  N9  UNL     1     -33.432  13.851  -4.183  1.00 20.00    -0.398 N 
HETATM    9  C7  UNL     1     -32.494  14.782  -3.623  1.00 20.00     0.146 C 
HETATM   10  H23 UNL     1     -33.193  12.916  -4.405  1.00 20.00     0.158 HD
ENDBRANCH   2   8
TORSDOF 2
ENDMDL
MODEL 7
REMARK VINA RESULT:      -3.5      1.358      2.099
REMARK  2 active torsions:
REMARK  status: ('A' for Active; 'I' for Inactive)
REMARK    1  A    between atoms: C1_1  and  C3_3 
REMARK    2  A    between atoms: C2_2  and  N9_9 
ROOT
HETATM    1  C1  UNL     1     -33.592  16.011  -2.705  1.00 20.00     0.050 C 
HETATM    2  C2  UNL     1     -34.277  15.155  -3.485  1.00 20.00     0.002 C 
HETATM    3  C4  UNL     1     -35.782  15.150  -3.427  1.00 20.00     0.068 C 
ENDROOT
BRANCH   1   4
HETATM    4  C3  UNL     1     -34.258  16.969  -1.772  1.00 20.00     0.026 C 
HETATM    5  C5  UNL     1     -34.563  18.335  -2.348  1.00 20.00     0.070 C 
HETATM    6  N8  UNL     1     -34.566  16.608  -0.571  1.00 20.00    -0.299 NA
HETATM    7  C6  UNL     1     -35.227  17.567   0.299  1.00 20.00     0.177 C 
ENDBRANCH   1   4
BRANCH   2   8
HETATM    8  N9  UNL     1     -33.732  14.262  -4.366  1.00 20.00    -0.398 N 
HETATM    9  C7  UNL     1     -34.509  13.166  -4.871  1.00 20.00     0.146 C 
HETATM   10  H23 UNL     1     -32.789  14.417  -4.628  1.00 20.00     0.158 HD
ENDBRANCH   2   8
TORSDOF 2
ENDMDL
MODEL 8
REMARK VINA RESULT:      -3.5      1.612      4.437
REMARK  2 active torsions:
REMARK  status: ('A' for Active; 'I' for Inactive)
REMARK    1  A    between atoms: C1_1  and  C3_3 
REMARK    2  A    between atoms: C2_2  and  N9_9 
ROOT
HETATM    1  C1  UNL     1     -34.439  15.954  -2.050  1.00 20.00     0.050 C 
HETATM    2  C2  UNL     1     -35.466  16.815  -1.938  1.00 20.00     0.002 C 
HETATM    3  C4  UNL     1     -36.370  17.040  -3.121  1.00 20.00     0.068 C 
ENDROOT
BRANCH   1   4
HETATM    4  C3  UNL     1     -34.146  15.199  -3.305  1.00 20.00     0.026 C 
HETATM    5  C5  UNL     1     -33.157  15.854  -4.245  1.00 20.00     0.070 C 
HETATM    6  N8  UNL     1     -34.695  14.050  -3.523  1.00 20.00    -0.299 NA
HETATM    7  C6  UNL     1     -34.370  13.342  -4.751  1.00 20.00     0.177 C 
ENDBRANCH   1   4
BRANCH   2   8
HETATM    8  N9  UNL     1     -35.795  17.528  -0.817  1.00 20.00    -0.398 N 
HETATM    9  C7  UNL     1     -35.009  17.414   0.378  1.00 20.00     0.146 C 
HETATM   10  H23 UNL     1     -36.592  18.113  -0.882  1.00 20.00     0.158 HD
ENDBRANCH   2   8
TORSDOF 2
ENDMDL
MODEL 9
REMARK VINA RESULT:      -3.4      1.931      2.195
REMARK  2 active torsions:
REMARK  status: ('A' for Active; 'I' for Inactive)
REMARK    1  A    between atoms: C1_1  and  C3_3 
REMARK    2  A    between atoms: C2_2  and  N9_9 
ROOT
HETATM    1  C1  UNL     1     -35.120  15.267  -3.628  1.00 20.00     0.050 C 
HETATM    2  C2  UNL     1     -34.266  15.470  -4.648  1.00 20.00     0.002 C 
HETATM    3  C4  UNL     1     -33.424  16.718  -4.666  1.00 20.00     0.068 C 
ENDROOT
BRANCH   1   4
HETATM    4  C3  UNL     1     -35.277  16.231  -2.498  1.00 20.00     0.026 C 
HETATM    5  C5  UNL     1     -36.373  17.260  -2.666  1.00 20.00     0.070 C 
HETATM    6  N8  UNL     1     -34.529  16.139  -1.448  1.00 20.00    -0.299 NA
HETATM    7  C6  UNL     1     -34.727  17.088  -0.365  1.00 20.00     0.177 C 
ENDBRANCH   1   4
BRANCH   2   8
HETATM    8  N9  UNL     1     -34.066  14.624  -5.705  1.00 20.00    -0.398 N 
HETATM    9  C7  UNL     1     -34.445  15.013  -7.033  1.00 20.00     0.146 C 
HETATM   10  H23 UNL     1     -33.652  13.748  -5.500  1.00 20.00     0.158 HD
ENDBRANCH   2   8
TORSDOF 2
ENDMDL
