MODEL 1
REMARK VINA RESULT:      -4.8      0.000      0.000
REMARK  1 active torsions:
REMARK  status: ('A' for Active; 'I' for Inactive)
REMARK    1  A    between atoms: C3_3  and  C7_7 
REMARK       I    between atoms: C3_3  and  N8_8 
ROOT
HETATM    1  C1  UNL     1     -35.215   4.828   5.938  1.00 20.00    -0.010 A 
HETATM    2  C2  UNL     1     -34.534   5.744   6.633  1.00 20.00    -0.010 A 
HETATM    3  C3  UNL     1     -33.119   6.173   3.285  1.00 20.00     0.219 C 
HETATM    4  C4  UNL     1     -34.802   4.815   4.508  1.00 20.00     0.153 A 
HETATM    5  C5  UNL     1     -33.567   6.474   5.765  1.00 20.00     0.153 A 
HETATM    6  N8  UNL     1     -33.779   5.853   4.460  1.00 20.00    -0.345 N 
HETATM    7  O9  UNL     1     -33.333   5.622   2.203  1.00 20.00    -0.273 OA
ENDROOT
BRANCH   3   8
HETATM    8  C7  UNL     1     -32.089   7.267   3.396  1.00 20.00     0.098 C 
HETATM    9  C6  UNL     1     -32.071   8.089   2.130  1.00 20.00     0.014 C 
ENDBRANCH   3   8
TORSDOF 1
ENDMDL
MODEL 2
REMARK VINA RESULT:      -4.1     10.001     10.967
REMARK  1 active torsions:
REMARK  status: ('A' for Active; 'I' for Inactive)
REMARK    1  A    between atoms: C3_3  and  C7_7 
REMARK       I    between atoms: C3_3  and  N8_8 
ROOT
HETATM    1  C1  UNL     1     -41.155   6.991  -1.105  1.00 20.00    -0.010 A 
HETATM    2  C2  UNL     1     -40.610   5.984  -0.416  1.00 20.00    -0.010 A 
HETATM    3  C3  UNL     1     -42.644   4.174  -2.863  1.00 20.00     0.219 C 
HETATM    4  C4  UNL     1     -42.047   6.488  -2.186  1.00 20.00     0.153 A 
HETATM    5  C5  UNL     1     -41.062   4.663  -0.938  1.00 20.00     0.153 A 
HETATM    6  N8  UNL     1     -41.951   5.041  -2.034  1.00 20.00    -0.345 N 
HETATM    7  O9  UNL     1     -43.384   4.539  -3.778  1.00 20.00    -0.273 OA
ENDROOT
BRANCH   3   8
HETATM    8  C7  UNL     1     -42.442   2.707  -2.581  1.00 20.00     0.098 C 
HETATM    9  C6  UNL     1     -41.518   2.107  -3.612  1.00 20.00     0.014 C 
ENDBRANCH   3   8
TORSDOF 1
ENDMDL
MODEL 3
REMARK VINA RESULT:      -4.0     11.863     13.278
REMARK  1 active torsions:
REMARK  status: ('A' for Active; 'I' for Inactive)
REMARK    1  A    between atoms: C3_3  and  C7_7 
REMARK       I    between atoms: C3_3  and  N8_8 
ROOT
HETATM    1  C1  UNL     1     -34.860  14.829  -7.361  1.00 20.00    -0.010 A 
HETATM    2  C2  UNL     1     -34.460  16.083  -7.125  1.00 20.00    -0.010 A 
HETATM    3  C3  UNL     1     -34.073  14.563  -3.817  1.00 20.00     0.219 C 
HETATM    4  C4  UNL     1     -34.788  13.997  -6.128  1.00 20.00     0.153 A 
HETATM    5  C5  UNL     1     -34.065  16.267  -5.700  1.00 20.00     0.153 A 
HETATM    6  N8  UNL     1     -34.290  14.939  -5.133  1.00 20.00    -0.345 N 
HETATM    7  O9  UNL     1     -34.276  13.428  -3.383  1.00 20.00    -0.273 OA
ENDROOT
BRANCH   3   8
HETATM    8  C7  UNL     1     -33.557  15.649  -2.909  1.00 20.00     0.098 C 
HETATM    9  C6  UNL     1     -34.638  16.070  -1.943  1.00 20.00     0.014 C 
ENDBRANCH   3   8
TORSDOF 1
ENDMDL
MODEL 4
REMARK VINA RESULT:      -3.8     11.704     12.169
REMARK  1 active torsions:
REMARK  status: ('A' for Active; 'I' for Inactive)
REMARK    1  A    between atoms: C3_3  and  C7_7 
REMARK       I    between atoms: C3_3  and  N8_8 
ROOT
HETATM    1  C1  UNL     1     -35.093  13.291  -4.834  1.00 20.00    -0.010 A 
HETATM    2  C2  UNL     1     -33.845  13.279  -4.355  1.00 20.00    -0.010 A 
HETATM    3  C3  UNL     1     -35.273  16.148  -2.587  1.00 20.00     0.219 C 
HETATM    4  C4  UNL     1     -35.889  14.402  -4.243  1.00 20.00     0.153 A 
HETATM    5  C5  UNL     1     -33.629  14.382  -3.377  1.00 20.00     0.153 A 
HETATM    6  N8  UNL     1     -34.932  15.044  -3.350  1.00 20.00    -0.345 N 
HETATM    7  O9  UNL     1     -36.388  16.673  -2.595  1.00 20.00    -0.273 OA
ENDROOT
BRANCH   3   8
HETATM    8  C7  UNL     1     -34.175  16.697  -1.713  1.00 20.00     0.098 C 
HETATM    9  C6  UNL     1     -34.709  16.977  -0.329  1.00 20.00     0.014 C 
ENDBRANCH   3   8
TORSDOF 1
ENDMDL
MODEL 5
REMARK VINA RESULT:      -3.8     11.965     12.796
REMARK  1 active torsions:
REMARK  status: ('A' for Active; 'I' for Inactive)
REMARK    1  A    between atoms: C3_3  and  C7_7 
REMARK       I    between atoms: C3_3  and  N8_8 
ROOT
HETATM    1  C1  UNL     1     -34.937  14.007  -5.675  1.00 20.00    -0.010 A 
HETATM    2  C2  UNL     1     -34.345  13.315  -4.697  1.00 20.00    -0.010 A 
HETATM    3  C3  UNL     1     -34.389  16.688  -3.275  1.00 20.00     0.219 C 
HETATM    4  C4  UNL     1     -35.071  15.446  -5.316  1.00 20.00     0.153 A 
HETATM    5  C5  UNL     1     -33.996  14.194  -3.545  1.00 20.00     0.153 A 
HETATM    6  N8  UNL     1     -34.471  15.503  -3.988  1.00 20.00    -0.345 N 
HETATM    7  O9  UNL     1     -34.806  17.771  -3.689  1.00 20.00    -0.273 OA
ENDROOT
BRANCH   3   8
HETATM    8  C7  UNL     1     -33.743  16.585  -1.918  1.00 20.00     0.098 C 
HETATM    9  C6  UNL     1     -34.791  16.698  -0.838  1.00 20.00     0.014 C 
ENDBRANCH   3   8
TORSDOF 1
ENDMDL
MODEL 6
REMARK VINA RESULT:      -3.8      1.741      4.158
REMARK  1 active torsions:
REMARK  status: ('A' for Active; 'I' for Inactive)
REMARK    1  A    between atoms: C3_3  and  C7_7 
REMARK       I    between atoms: C3_3  and  N8_8 
ROOT
HETATM    1  C1  UNL     1     -31.799   7.262   2.952  1.00 20.00    -0.010 A 
HETATM    2  C2  UNL     1     -32.521   6.371   2.266  1.00 20.00    -0.010 A 
HETATM    3  C3  UNL     1     -34.085   6.182   5.569  1.00 20.00     0.219 C 
HETATM    4  C4  UNL     1     -32.263   7.364   4.363  1.00 20.00     0.153 A 
HETATM    5  C5  UNL     1     -33.570   5.748   3.121  1.00 20.00     0.153 A 
HETATM    6  N8  UNL     1     -33.360   6.404   4.410  1.00 20.00    -0.345 N 
HETATM    7  O9  UNL     1     -33.873   6.761   6.636  1.00 20.00    -0.273 OA
ENDROOT
BRANCH   3   8
HETATM    8  C7  UNL     1     -35.187   5.160   5.460  1.00 20.00     0.098 C 
HETATM    9  C6  UNL     1     -34.666   3.796   5.841  1.00 20.00     0.014 C 
ENDBRANCH   3   8
TORSDOF 1
ENDMDL
MODEL 7
REMARK VINA RESULT:      -3.7     11.784     13.089
REMARK  1 active torsions:
REMARK  status: ('A' for Active; 'I' for Inactive)
REMARK    1  A    between atoms: C3_3  and  C7_7 
REMARK       I    between atoms: C3_3  and  N8_8 
ROOT
HETATM    1  C1  UNL     1     -34.097  16.090  -2.429  1.00 20.00    -0.010 A 
HETATM    2  C2  UNL     1     -33.827  17.058  -3.311  1.00 20.00    -0.010 A 
HETATM    3  C3  UNL     1     -34.578  14.245  -5.529  1.00 20.00     0.219 C 
HETATM    4  C4  UNL     1     -34.440  14.813  -3.114  1.00 20.00     0.153 A 
HETATM    5  C5  UNL     1     -33.951  16.566  -4.711  1.00 20.00     0.153 A 
HETATM    6  N8  UNL     1     -34.333  15.167  -4.525  1.00 20.00    -0.345 N 
HETATM    7  O9  UNL     1     -34.900  13.073  -5.324  1.00 20.00    -0.273 OA
ENDROOT
BRANCH   3   8
HETATM    8  C7  UNL     1     -34.426  14.762  -6.936  1.00 20.00     0.098 C 
HETATM    9  C6  UNL     1     -35.667  14.449  -7.737  1.00 20.00     0.014 C 
ENDBRANCH   3   8
TORSDOF 1
ENDMDL
MODEL 8
REMARK VINA RESULT:      -3.7     12.034     12.828
REMARK  1 active torsions:
REMARK  status: ('A' for Active; 'I' for Inactive)
REMARK    1  A    between atoms: C3_3  and  C7_7 
REMARK       I    between atoms: C3_3  and  N8_8 
ROOT
HETATM    1  C1  UNL     1     -34.418  18.398  -1.489  1.00 20.00    -0.010 A 
HETATM    2  C2  UNL     1     -34.878  17.303  -0.875  1.00 20.00    -0.010 A 
HETATM    3  C3  UNL     1     -33.367  15.867  -3.883  1.00 20.00     0.219 C 
HETATM    4  C4  UNL     1     -33.743  18.056  -2.771  1.00 20.00     0.153 A 
HETATM    5  C5  UNL     1     -34.577  16.073  -1.661  1.00 20.00     0.153 A 
HETATM    6  N8  UNL     1     -33.873  16.605  -2.826  1.00 20.00    -0.345 N 
HETATM    7  O9  UNL     1     -32.776  16.359  -4.846  1.00 20.00    -0.273 OA
ENDROOT
BRANCH   3   8
HETATM    8  C7  UNL     1     -33.579  14.377  -3.795  1.00 20.00     0.098 C 
HETATM    9  C6  UNL     1     -34.458  13.914  -4.931  1.00 20.00     0.014 C 
ENDBRANCH   3   8
TORSDOF 1
ENDMDL
MODEL 9
REMARK VINA RESULT:      -3.7     12.097     13.725
REMARK  1 active torsions:
REMARK  status: ('A' for Active; 'I' for Inactive)
REMARK    1  A    between atoms: C3_3  and  C7_7 
REMARK       I    between atoms: C3_3  and  N8_8 
ROOT
HETATM    1  C1  UNL     1     -33.068  14.986  -3.596  1.00 20.00    -0.010 A 
HETATM    2  C2  UNL     1     -33.669  13.801  -3.747  1.00 20.00    -0.010 A 
HETATM    3  C3  UNL     1     -34.597  15.488  -6.860  1.00 20.00     0.219 C 
HETATM    4  C4  UNL     1     -33.309  15.869  -4.770  1.00 20.00     0.153 A 
HETATM    5  C5  UNL     1     -34.399  13.725  -5.044  1.00 20.00     0.153 A 
HETATM    6  N8  UNL     1     -34.139  15.037  -5.633  1.00 20.00    -0.345 N 
HETATM    7  O9  UNL     1     -34.350  16.605  -7.319  1.00 20.00    -0.273 OA
ENDROOT
BRANCH   3   8
HETATM    8  C7  UNL     1     -35.444  14.513  -7.636  1.00 20.00     0.098 C 
HETATM    9  C6  UNL     1     -36.876  14.987  -7.672  1.00 20.00     0.014 C 
ENDBRANCH   3   8
TORSDOF 1
ENDMDL
