MODEL 1
REMARK VINA RESULT:      -3.7      0.000      0.000
REMARK  1 active torsions:
REMARK  status: ('A' for Active; 'I' for Inactive)
REMARK    1  A    between atoms: C2_2  and  C5_5 
ROOT
HETATM    1  C1  UNL     1     -32.806   6.552   3.993  1.00 20.00     0.153 A 
HETATM    2  C2  UNL     1     -33.988   6.132   4.848  1.00 20.00     0.096 A 
HETATM    3  C3  UNL     1     -32.416   5.857   2.738  1.00 20.00     0.042 C 
HETATM    4  C4  UNL     1     -34.010   6.539   6.289  1.00 20.00     0.050 C 
HETATM    5  O6  UNL     1     -34.063   7.237   3.934  1.00 20.00    -0.369 OA
ENDROOT
BRANCH   2   6
HETATM    6  C5  UNL     1     -34.849   4.969   4.472  1.00 20.00     0.154 C 
HETATM    7 CL7  UNL     1     -35.045   3.845   5.842  1.00 20.00    -0.127 Cl
ENDBRANCH   2   6
TORSDOF 1
ENDMDL
MODEL 2
REMARK VINA RESULT:      -3.7      2.341      3.452
REMARK  1 active torsions:
REMARK  status: ('A' for Active; 'I' for Inactive)
REMARK    1  A    between atoms: C2_2  and  C5_5 
ROOT
HETATM    1  C1  UNL     1     -35.059   4.420   4.646  1.00 20.00     0.153 A 
HETATM    2  C2  UNL     1     -34.354   5.464   3.799  1.00 20.00     0.096 A 
HETATM    3  C3  UNL     1     -35.020   4.409   6.133  1.00 20.00     0.042 C 
HETATM    4  C4  UNL     1     -34.031   5.132   2.375  1.00 20.00     0.050 C 
HETATM    5  O6  UNL     1     -35.763   5.529   4.073  1.00 20.00    -0.369 OA
ENDROOT
BRANCH   2   6
HETATM    6  C5  UNL     1     -33.560   6.567   4.422  1.00 20.00     0.154 C 
HETATM    7 CL7  UNL     1     -32.112   6.943   3.452  1.00 20.00    -0.127 Cl
ENDBRANCH   2   6
TORSDOF 1
ENDMDL
MODEL 3
REMARK VINA RESULT:      -3.6      1.454      2.027
REMARK  1 active torsions:
REMARK  status: ('A' for Active; 'I' for Inactive)
REMARK    1  A    between atoms: C2_2  and  C5_5 
ROOT
HETATM    1  C1  UNL     1     -32.831   6.736   2.989  1.00 20.00     0.153 A 
HETATM    2  C2  UNL     1     -33.761   6.096   4.005  1.00 20.00     0.096 A 
HETATM    3  C3  UNL     1     -31.787   7.732   3.349  1.00 20.00     0.042 C 
HETATM    4  C4  UNL     1     -35.056   5.518   3.525  1.00 20.00     0.050 C 
HETATM    5  O6  UNL     1     -32.601   5.416   3.500  1.00 20.00    -0.369 OA
ENDROOT
BRANCH   2   6
HETATM    6  C5  UNL     1     -33.683   6.438   5.459  1.00 20.00     0.154 C 
HETATM    7 CL7  UNL     1     -34.720   5.361   6.428  1.00 20.00    -0.127 Cl
ENDBRANCH   2   6
TORSDOF 1
ENDMDL
MODEL 4
REMARK VINA RESULT:      -3.2     12.251     12.851
REMARK  1 active torsions:
REMARK  status: ('A' for Active; 'I' for Inactive)
REMARK    1  A    between atoms: C2_2  and  C5_5 
ROOT
HETATM    1  C1  UNL     1     -33.498  15.862  -4.614  1.00 20.00     0.153 A 
HETATM    2  C2  UNL     1     -34.378  15.126  -3.620  1.00 20.00     0.096 A 
HETATM    3  C3  UNL     1     -33.540  17.335  -4.811  1.00 20.00     0.042 C 
HETATM    4  C4  UNL     1     -34.628  13.664  -3.830  1.00 20.00     0.050 C 
HETATM    5  O6  UNL     1     -33.006  15.442  -3.334  1.00 20.00    -0.369 OA
ENDROOT
BRANCH   2   6
HETATM    6  C5  UNL     1     -35.363  15.853  -2.762  1.00 20.00     0.154 C 
HETATM    7 CL7  UNL     1     -34.626  16.343  -1.214  1.00 20.00    -0.127 Cl
ENDBRANCH   2   6
TORSDOF 1
ENDMDL
MODEL 5
REMARK VINA RESULT:      -3.2     12.365     12.924
REMARK  1 active torsions:
REMARK  status: ('A' for Active; 'I' for Inactive)
REMARK    1  A    between atoms: C2_2  and  C5_5 
ROOT
HETATM    1  C1  UNL     1     -34.221  13.971  -3.519  1.00 20.00     0.153 A 
HETATM    2  C2  UNL     1     -34.332  15.476  -3.355  1.00 20.00     0.096 A 
HETATM    3  C3  UNL     1     -34.515  13.263  -4.792  1.00 20.00     0.042 C 
HETATM    4  C4  UNL     1     -34.506  16.036  -1.977  1.00 20.00     0.050 C 
HETATM    5  O6  UNL     1     -33.069  14.824  -3.559  1.00 20.00    -0.369 OA
ENDROOT
BRANCH   2   6
HETATM    6  C5  UNL     1     -34.756  16.356  -4.488  1.00 20.00     0.154 C 
HETATM    7 CL7  UNL     1     -33.342  17.019  -5.348  1.00 20.00    -0.127 Cl
ENDBRANCH   2   6
TORSDOF 1
ENDMDL
MODEL 6
REMARK VINA RESULT:      -3.2     12.362     13.057
REMARK  1 active torsions:
REMARK  status: ('A' for Active; 'I' for Inactive)
REMARK    1  A    between atoms: C2_2  and  C5_5 
ROOT
HETATM    1  C1  UNL     1     -36.015  14.229  -3.848  1.00 20.00     0.153 A 
HETATM    2  C2  UNL     1     -34.731  13.989  -4.621  1.00 20.00     0.096 A 
HETATM    3  C3  UNL     1     -37.228  14.848  -4.447  1.00 20.00     0.042 C 
HETATM    4  C4  UNL     1     -33.452  13.839  -3.857  1.00 20.00     0.050 C 
HETATM    5  O6  UNL     1     -35.679  12.939  -4.375  1.00 20.00    -0.369 OA
ENDROOT
BRANCH   2   6
HETATM    6  C5  UNL     1     -34.605  14.371  -6.062  1.00 20.00     0.154 C 
HETATM    7 CL7  UNL     1     -33.909  16.003  -6.235  1.00 20.00    -0.127 Cl
ENDBRANCH   2   6
TORSDOF 1
ENDMDL
MODEL 7
REMARK VINA RESULT:      -3.1     12.267     12.953
REMARK  1 active torsions:
REMARK  status: ('A' for Active; 'I' for Inactive)
REMARK    1  A    between atoms: C2_2  and  C5_5 
ROOT
HETATM    1  C1  UNL     1     -33.772  16.425  -2.822  1.00 20.00     0.153 A 
HETATM    2  C2  UNL     1     -34.090  15.837  -4.184  1.00 20.00     0.096 A 
HETATM    3  C3  UNL     1     -34.639  16.241  -1.628  1.00 20.00     0.042 C 
HETATM    4  C4  UNL     1     -33.468  16.460  -5.396  1.00 20.00     0.050 C 
HETATM    5  O6  UNL     1     -33.141  15.228  -3.295  1.00 20.00    -0.369 OA
ENDROOT
BRANCH   2   6
HETATM    6  C5  UNL     1     -35.322  15.021  -4.414  1.00 20.00     0.154 C 
HETATM    7 CL7  UNL     1     -34.992  13.284  -4.186  1.00 20.00    -0.127 Cl
ENDBRANCH   2   6
TORSDOF 1
ENDMDL
MODEL 8
REMARK VINA RESULT:      -3.1     12.450     12.952
REMARK  1 active torsions:
REMARK  status: ('A' for Active; 'I' for Inactive)
REMARK    1  A    between atoms: C2_2  and  C5_5 
ROOT
HETATM    1  C1  UNL     1     -34.982  15.586  -2.212  1.00 20.00     0.153 A 
HETATM    2  C2  UNL     1     -34.340  14.995  -3.454  1.00 20.00     0.096 A 
HETATM    3  C3  UNL     1     -34.354  16.662  -1.399  1.00 20.00     0.042 C 
HETATM    4  C4  UNL     1     -34.771  13.633  -3.904  1.00 20.00     0.050 C 
HETATM    5  O6  UNL     1     -35.378  15.985  -3.531  1.00 20.00    -0.369 OA
ENDROOT
BRANCH   2   6
HETATM    6  C5  UNL     1     -33.008  15.467  -3.944  1.00 20.00     0.154 C 
HETATM    7 CL7  UNL     1     -33.195  16.709  -5.210  1.00 20.00    -0.127 Cl
ENDBRANCH   2   6
TORSDOF 1
ENDMDL
MODEL 9
REMARK VINA RESULT:      -3.1      9.614     10.356
REMARK  1 active torsions:
REMARK  status: ('A' for Active; 'I' for Inactive)
REMARK    1  A    between atoms: C2_2  and  C5_5 
ROOT
HETATM    1  C1  UNL     1     -41.743   5.721  -0.361  1.00 20.00     0.153 A 
HETATM    2  C2  UNL     1     -41.924   5.715  -1.868  1.00 20.00     0.096 A 
HETATM    3  C3  UNL     1     -42.200   4.615   0.523  1.00 20.00     0.042 C 
HETATM    4  C4  UNL     1     -41.900   7.023  -2.596  1.00 20.00     0.050 C 
HETATM    5  O6  UNL     1     -40.673   5.374  -1.250  1.00 20.00    -0.369 OA
ENDROOT
BRANCH   2   6
HETATM    6  C5  UNL     1     -42.590   4.575  -2.570  1.00 20.00     0.154 C 
HETATM    7 CL7  UNL     1     -41.475   3.196  -2.753  1.00 20.00    -0.127 Cl
ENDBRANCH   2   6
TORSDOF 1
ENDMDL
