MODEL 1
REMARK VINA RESULT:      -4.6      0.000      0.000
REMARK  1 active torsions:
REMARK  status: ('A' for Active; 'I' for Inactive)
REMARK    1  A    between atoms: C1_1  and  C9_9 
ROOT
HETATM    1  C1  UNL     1     -34.589  15.992  -2.738  1.00 20.00     0.020 C 
HETATM    2  C2  UNL     1     -36.045  15.985  -3.035  1.00 20.00     0.058 C 
HETATM    3  C3  UNL     1     -36.180  14.727  -3.887  1.00 20.00     0.038 C 
HETATM    4  C4  UNL     1     -34.820  14.564  -4.580  1.00 20.00     0.055 C 
HETATM    5  C5  UNL     1     -34.716  15.336  -5.891  1.00 20.00     0.041 C 
HETATM    6  C6  UNL     1     -34.400  13.108  -4.718  1.00 20.00     0.041 C 
HETATM    7  N10 UNL     1     -33.943  15.242  -3.593  1.00 20.00    -0.224 N 
HETATM    8  O11 UNL     1     -32.678  15.117  -3.613  1.00 20.00    -0.085 OA
ENDROOT
BRANCH   1   9
HETATM    9  C9  UNL     1     -33.907  16.811  -1.713  1.00 20.00     0.025 C 
HETATM   10  C7  UNL     1     -33.661  18.235  -2.222  1.00 20.00     0.016 C 
HETATM   11  C8  UNL     1     -34.704  16.849  -0.403  1.00 20.00     0.016 C 
ENDBRANCH   1   9
TORSDOF 1
ENDMDL
MODEL 2
REMARK VINA RESULT:      -4.1      1.593      3.985
REMARK  1 active torsions:
REMARK  status: ('A' for Active; 'I' for Inactive)
REMARK    1  A    between atoms: C1_1  and  C9_9 
ROOT
HETATM    1  C1  UNL     1     -34.854  15.501  -5.571  1.00 20.00     0.020 C 
HETATM    2  C2  UNL     1     -35.740  14.515  -4.897  1.00 20.00     0.058 C 
HETATM    3  C3  UNL     1     -35.389  14.739  -3.430  1.00 20.00     0.038 C 
HETATM    4  C4  UNL     1     -33.934  15.227  -3.434  1.00 20.00     0.055 C 
HETATM    5  C5  UNL     1     -32.917  14.091  -3.414  1.00 20.00     0.041 C 
HETATM    6  C6  UNL     1     -33.663  16.281  -2.369  1.00 20.00     0.041 C 
HETATM    7  N10 UNL     1     -33.876  15.854  -4.778  1.00 20.00    -0.224 N 
HETATM    8  O11 UNL     1     -32.934  16.638  -5.120  1.00 20.00    -0.085 OA
ENDROOT
BRANCH   1   9
HETATM    9  C9  UNL     1     -34.953  15.952  -6.976  1.00 20.00     0.025 C 
HETATM   10  C7  UNL     1     -35.185  14.766  -7.918  1.00 20.00     0.016 C 
HETATM   11  C8  UNL     1     -36.065  16.993  -7.154  1.00 20.00     0.016 C 
ENDBRANCH   1   9
TORSDOF 1
ENDMDL
MODEL 3
REMARK VINA RESULT:      -4.1      1.974      4.227
REMARK  1 active torsions:
REMARK  status: ('A' for Active; 'I' for Inactive)
REMARK    1  A    between atoms: C1_1  and  C9_9 
ROOT
HETATM    1  C1  UNL     1     -35.109  15.282  -5.610  1.00 20.00     0.020 C 
HETATM    2  C2  UNL     1     -34.508  16.642  -5.618  1.00 20.00     0.058 C 
HETATM    3  C3  UNL     1     -33.277  16.438  -4.740  1.00 20.00     0.038 C 
HETATM    4  C4  UNL     1     -33.654  15.306  -3.775  1.00 20.00     0.055 C 
HETATM    5  C5  UNL     1     -34.363  15.798  -2.517  1.00 20.00     0.041 C 
HETATM    6  C6  UNL     1     -32.487  14.379  -3.470  1.00 20.00     0.041 C 
HETATM    7  N10 UNL     1     -34.657  14.587  -4.600  1.00 20.00    -0.224 N 
HETATM    8  O11 UNL     1     -35.051  13.412  -4.314  1.00 20.00    -0.085 OA
ENDROOT
BRANCH   1   9
HETATM    9  C9  UNL     1     -36.164  14.784  -6.520  1.00 20.00     0.025 C 
HETATM   10  C7  UNL     1     -37.322  15.783  -6.614  1.00 20.00     0.016 C 
HETATM   11  C8  UNL     1     -35.606  14.489  -7.918  1.00 20.00     0.016 C 
ENDBRANCH   1   9
TORSDOF 1
ENDMDL
MODEL 4
REMARK VINA RESULT:      -4.1      1.992      4.202
REMARK  1 active torsions:
REMARK  status: ('A' for Active; 'I' for Inactive)
REMARK    1  A    between atoms: C1_1  and  C9_9 
ROOT
HETATM    1  C1  UNL     1     -35.560  15.045  -5.509  1.00 20.00     0.020 C 
HETATM    2  C2  UNL     1     -35.095  13.669  -5.189  1.00 20.00     0.058 C 
HETATM    3  C3  UNL     1     -34.726  13.803  -3.715  1.00 20.00     0.038 C 
HETATM    4  C4  UNL     1     -34.317  15.272  -3.536  1.00 20.00     0.055 C 
HETATM    5  C5  UNL     1     -32.845  15.530  -3.839  1.00 20.00     0.041 C 
HETATM    6  C6  UNL     1     -34.752  15.845  -2.195  1.00 20.00     0.041 C 
HETATM    7  N10 UNL     1     -35.113  15.896  -4.623  1.00 20.00    -0.224 N 
HETATM    8  O11 UNL     1     -35.304  17.152  -4.687  1.00 20.00    -0.085 OA
ENDROOT
BRANCH   1   9
HETATM    9  C9  UNL     1     -36.315  15.458  -6.711  1.00 20.00     0.025 C 
HETATM   10  C7  UNL     1     -35.945  14.588  -7.917  1.00 20.00     0.016 C 
HETATM   11  C8  UNL     1     -37.829  15.408  -6.468  1.00 20.00     0.016 C 
ENDBRANCH   1   9
TORSDOF 1
ENDMDL
MODEL 5
REMARK VINA RESULT:      -4.0      1.680      2.346
REMARK  1 active torsions:
REMARK  status: ('A' for Active; 'I' for Inactive)
REMARK    1  A    between atoms: C1_1  and  C9_9 
ROOT
HETATM    1  C1  UNL     1     -34.795  16.108  -2.813  1.00 20.00     0.020 C 
HETATM    2  C2  UNL     1     -33.370  16.326  -3.176  1.00 20.00     0.058 C 
HETATM    3  C3  UNL     1     -33.338  15.821  -4.615  1.00 20.00     0.038 C 
HETATM    4  C4  UNL     1     -34.438  14.753  -4.690  1.00 20.00     0.055 C 
HETATM    5  C5  UNL     1     -33.958  13.364  -4.283  1.00 20.00     0.041 C 
HETATM    6  C6  UNL     1     -35.172  14.756  -6.023  1.00 20.00     0.041 C 
HETATM    7  N10 UNL     1     -35.346  15.242  -3.622  1.00 20.00    -0.224 N 
HETATM    8  O11 UNL     1     -36.540  14.819  -3.503  1.00 20.00    -0.085 OA
ENDROOT
BRANCH   1   9
HETATM    9  C9  UNL     1     -35.496  16.671  -1.639  1.00 20.00     0.025 C 
HETATM   10  C7  UNL     1     -34.519  16.929  -0.487  1.00 20.00     0.016 C 
HETATM   11  C8  UNL     1     -36.243  17.962  -1.997  1.00 20.00     0.016 C 
ENDBRANCH   1   9
TORSDOF 1
ENDMDL
MODEL 6
REMARK VINA RESULT:      -4.0      1.167      4.037
REMARK  1 active torsions:
REMARK  status: ('A' for Active; 'I' for Inactive)
REMARK    1  A    between atoms: C1_1  and  C9_9 
ROOT
HETATM    1  C1  UNL     1     -34.780  15.426  -4.381  1.00 20.00     0.020 C 
HETATM    2  C2  UNL     1     -35.966  15.353  -3.488  1.00 20.00     0.058 C 
HETATM    3  C3  UNL     1     -36.040  16.781  -2.956  1.00 20.00     0.038 C 
HETATM    4  C4  UNL     1     -34.592  17.292  -2.977  1.00 20.00     0.055 C 
HETATM    5  C5  UNL     1     -33.814  16.952  -1.711  1.00 20.00     0.041 C 
HETATM    6  C6  UNL     1     -34.494  18.764  -3.353  1.00 20.00     0.041 C 
HETATM    7  N10 UNL     1     -34.041  16.461  -4.077  1.00 20.00    -0.224 N 
HETATM    8  O11 UNL     1     -32.932  16.730  -4.638  1.00 20.00    -0.085 OA
ENDROOT
BRANCH   1   9
HETATM    9  C9  UNL     1     -34.385  14.428  -5.398  1.00 20.00     0.025 C 
HETATM   10  C7  UNL     1     -34.704  13.006  -4.924  1.00 20.00     0.016 C 
HETATM   11  C8  UNL     1     -35.065  14.700  -6.746  1.00 20.00     0.016 C 
ENDBRANCH   1   9
TORSDOF 1
ENDMDL
MODEL 7
REMARK VINA RESULT:      -4.0      2.124      3.188
REMARK  1 active torsions:
REMARK  status: ('A' for Active; 'I' for Inactive)
REMARK    1  A    between atoms: C1_1  and  C9_9 
ROOT
HETATM    1  C1  UNL     1     -34.451  15.476  -4.754  1.00 20.00     0.020 C 
HETATM    2  C2  UNL     1     -33.699  16.293  -5.743  1.00 20.00     0.058 C 
HETATM    3  C3  UNL     1     -34.810  16.721  -6.697  1.00 20.00     0.038 C 
HETATM    4  C4  UNL     1     -35.855  15.599  -6.625  1.00 20.00     0.055 C 
HETATM    5  C5  UNL     1     -35.581  14.456  -7.596  1.00 20.00     0.041 C 
HETATM    6  C6  UNL     1     -37.283  16.119  -6.715  1.00 20.00     0.041 C 
HETATM    7  N10 UNL     1     -35.597  15.092  -5.254  1.00 20.00    -0.224 N 
HETATM    8  O11 UNL     1     -36.415  14.329  -4.649  1.00 20.00    -0.085 OA
ENDROOT
BRANCH   1   9
HETATM    9  C9  UNL     1     -33.962  15.031  -3.431  1.00 20.00     0.025 C 
HETATM   10  C7  UNL     1     -32.508  14.556  -3.516  1.00 20.00     0.016 C 
HETATM   11  C8  UNL     1     -34.095  16.141  -2.382  1.00 20.00     0.016 C 
ENDBRANCH   1   9
TORSDOF 1
ENDMDL
MODEL 8
REMARK VINA RESULT:      -3.9      1.730      4.108
REMARK  1 active torsions:
REMARK  status: ('A' for Active; 'I' for Inactive)
REMARK    1  A    between atoms: C1_1  and  C9_9 
ROOT
HETATM    1  C1  UNL     1     -34.762  15.602  -4.607  1.00 20.00     0.020 C 
HETATM    2  C2  UNL     1     -33.732  16.657  -4.793  1.00 20.00     0.058 C 
HETATM    3  C3  UNL     1     -33.582  17.195  -3.374  1.00 20.00     0.038 C 
HETATM    4  C4  UNL     1     -34.947  16.964  -2.711  1.00 20.00     0.055 C 
HETATM    5  C5  UNL     1     -35.932  18.105  -2.946  1.00 20.00     0.041 C 
HETATM    6  C6  UNL     1     -34.831  16.579  -1.243  1.00 20.00     0.041 C 
HETATM    7  N10 UNL     1     -35.421  15.796  -3.495  1.00 20.00    -0.224 N 
HETATM    8  O11 UNL     1     -36.403  15.081  -3.117  1.00 20.00    -0.085 OA
ENDROOT
BRANCH   1   9
HETATM    9  C9  UNL     1     -35.112  14.538  -5.573  1.00 20.00     0.025 C 
HETATM   10  C7  UNL     1     -34.569  14.864  -6.968  1.00 20.00     0.016 C 
HETATM   11  C8  UNL     1     -34.596  13.169  -5.112  1.00 20.00     0.016 C 
ENDBRANCH   1   9
TORSDOF 1
ENDMDL
MODEL 9
REMARK VINA RESULT:      -3.9      1.828      4.019
REMARK  1 active torsions:
REMARK  status: ('A' for Active; 'I' for Inactive)
REMARK    1  A    between atoms: C1_1  and  C9_9 
ROOT
HETATM    1  C1  UNL     1     -34.334  15.846  -3.420  1.00 20.00     0.020 C 
HETATM    2  C2  UNL     1     -34.186  16.641  -4.667  1.00 20.00     0.058 C 
HETATM    3  C3  UNL     1     -33.725  17.988  -4.120  1.00 20.00     0.038 C 
HETATM    4  C4  UNL     1     -34.330  18.079  -2.712  1.00 20.00     0.055 C 
HETATM    5  C5  UNL     1     -35.742  18.654  -2.699  1.00 20.00     0.041 C 
HETATM    6  C6  UNL     1     -33.404  18.763  -1.717  1.00 20.00     0.041 C 
HETATM    7  N10 UNL     1     -34.434  16.635  -2.383  1.00 20.00    -0.224 N 
HETATM    8  O11 UNL     1     -34.633  16.224  -1.195  1.00 20.00    -0.085 OA
ENDROOT
BRANCH   1   9
HETATM    9  C9  UNL     1     -34.478  14.377  -3.329  1.00 20.00     0.025 C 
HETATM   10  C7  UNL     1     -35.620  13.881  -4.223  1.00 20.00     0.016 C 
HETATM   11  C8  UNL     1     -33.172  13.661  -3.696  1.00 20.00     0.016 C 
ENDBRANCH   1   9
TORSDOF 1
ENDMDL
