MODEL 1
REMARK VINA RESULT:      -3.6      0.000      0.000
REMARK  0 active torsions:
REMARK  status: ('A' for Active; 'I' for Inactive)
ROOT
HETATM    1  C1  UNL     1     -33.543  13.748  -3.915  1.00 20.00     0.280 C 
HETATM    2  C2  UNL     1     -34.862  13.304  -4.533  1.00 20.00     0.104 C 
HETATM    3  C3  UNL     1     -35.447  15.967  -4.550  1.00 20.00     0.114 C 
HETATM    4  C4  UNL     1     -34.031  16.178  -3.973  1.00 20.00     0.159 C 
HETATM    5  C5  UNL     1     -34.062  16.400  -2.447  1.00 20.00     0.049 C 
HETATM    6  C6  UNL     1     -33.445  17.452  -4.617  1.00 20.00     0.049 C 
HETATM    7  N7  UNL     1     -33.120  15.080  -4.342  1.00 20.00     0.093 N 
HETATM    8  S8  UNL     1     -36.220  14.400  -4.051  1.00 20.00    -0.165 SA
HETATM    9  H21 UNL     1     -32.191  15.269  -3.961  1.00 20.00     0.316 HD
ENDROOT
TORSDOF 0
ENDMDL
MODEL 2
REMARK VINA RESULT:      -3.6      1.879      2.901
REMARK  0 active torsions:
REMARK  status: ('A' for Active; 'I' for Inactive)
ROOT
HETATM    1  C1  UNL     1     -33.196  16.207  -4.589  1.00 20.00     0.280 C 
HETATM    2  C2  UNL     1     -32.914  14.981  -3.730  1.00 20.00     0.104 C 
HETATM    3  C3  UNL     1     -34.688  13.739  -5.387  1.00 20.00     0.114 C 
HETATM    4  C4  UNL     1     -34.769  15.083  -6.142  1.00 20.00     0.159 C 
HETATM    5  C5  UNL     1     -36.026  15.886  -5.750  1.00 20.00     0.049 C 
HETATM    6  C6  UNL     1     -34.868  14.772  -7.650  1.00 20.00     0.049 C 
HETATM    7  N7  UNL     1     -33.542  15.882  -5.971  1.00 20.00     0.093 N 
HETATM    8  S8  UNL     1     -34.371  13.912  -3.606  1.00 20.00    -0.165 SA
HETATM    9  H21 UNL     1     -33.626  16.750  -6.503  1.00 20.00     0.316 HD
ENDROOT
TORSDOF 0
ENDMDL
MODEL 3
REMARK VINA RESULT:      -3.5      1.560      2.075
REMARK  0 active torsions:
REMARK  status: ('A' for Active; 'I' for Inactive)
ROOT
HETATM    1  C1  UNL     1     -33.079  15.260  -3.791  1.00 20.00     0.280 C 
HETATM    2  C2  UNL     1     -33.364  13.764  -3.784  1.00 20.00     0.104 C 
HETATM    3  C3  UNL     1     -35.003  14.334  -5.888  1.00 20.00     0.114 C 
HETATM    4  C4  UNL     1     -34.521  15.793  -5.738  1.00 20.00     0.159 C 
HETATM    5  C5  UNL     1     -35.546  16.660  -4.981  1.00 20.00     0.049 C 
HETATM    6  C6  UNL     1     -34.366  16.385  -7.154  1.00 20.00     0.049 C 
HETATM    7  N7  UNL     1     -33.186  15.867  -5.117  1.00 20.00     0.093 N 
HETATM    8  S8  UNL     1     -35.056  13.411  -4.323  1.00 20.00    -0.165 SA
HETATM    9  H21 UNL     1     -32.895  16.844  -5.057  1.00 20.00     0.316 HD
ENDROOT
TORSDOF 0
ENDMDL
MODEL 4
REMARK VINA RESULT:      -3.4      1.472      3.083
REMARK  0 active torsions:
REMARK  status: ('A' for Active; 'I' for Inactive)
ROOT
HETATM    1  C1  UNL     1     -33.401  17.065  -5.242  1.00 20.00     0.280 C 
HETATM    2  C2  UNL     1     -34.322  17.837  -4.306  1.00 20.00     0.104 C 
HETATM    3  C3  UNL     1     -35.107  15.364  -3.468  1.00 20.00     0.114 C 
HETATM    4  C4  UNL     1     -34.059  14.807  -4.455  1.00 20.00     0.159 C 
HETATM    5  C5  UNL     1     -34.707  14.332  -5.771  1.00 20.00     0.049 C 
HETATM    6  C6  UNL     1     -33.394  13.582  -3.795  1.00 20.00     0.049 C 
HETATM    7  N7  UNL     1     -32.975  15.774  -4.705  1.00 20.00     0.093 N 
HETATM    8  S8  UNL     1     -35.859  16.931  -3.998  1.00 20.00    -0.165 SA
HETATM    9  H21 UNL     1     -32.293  15.361  -5.343  1.00 20.00     0.316 HD
ENDROOT
TORSDOF 0
ENDMDL
MODEL 5
REMARK VINA RESULT:      -3.3      1.789      3.197
REMARK  0 active torsions:
REMARK  status: ('A' for Active; 'I' for Inactive)
ROOT
HETATM    1  C1  UNL     1     -34.136  16.489  -6.008  1.00 20.00     0.280 C 
HETATM    2  C2  UNL     1     -33.539  17.660  -5.240  1.00 20.00     0.104 C 
HETATM    3  C3  UNL     1     -33.539  15.934  -3.129  1.00 20.00     0.114 C 
HETATM    4  C4  UNL     1     -34.094  14.886  -4.117  1.00 20.00     0.159 C 
HETATM    5  C5  UNL     1     -35.620  14.718  -3.978  1.00 20.00     0.049 C 
HETATM    6  C6  UNL     1     -33.444  13.528  -3.777  1.00 20.00     0.049 C 
HETATM    7  N7  UNL     1     -33.707  15.185  -5.508  1.00 20.00     0.093 N 
HETATM    8  S8  UNL     1     -34.047  17.639  -3.502  1.00 20.00    -0.165 SA
HETATM    9  H21 UNL     1     -34.073  14.458  -6.125  1.00 20.00     0.316 HD
ENDROOT
TORSDOF 0
ENDMDL
MODEL 6
REMARK VINA RESULT:      -3.3      1.787      2.515
REMARK  0 active torsions:
REMARK  status: ('A' for Active; 'I' for Inactive)
ROOT
HETATM    1  C1  UNL     1     -35.127  14.456  -7.005  1.00 20.00     0.280 C 
HETATM    2  C2  UNL     1     -36.366  15.339  -6.936  1.00 20.00     0.104 C 
HETATM    3  C3  UNL     1     -35.589  15.774  -4.358  1.00 20.00     0.114 C 
HETATM    4  C4  UNL     1     -34.371  14.883  -4.682  1.00 20.00     0.159 C 
HETATM    5  C5  UNL     1     -34.557  13.445  -4.157  1.00 20.00     0.049 C 
HETATM    6  C6  UNL     1     -33.144  15.485  -3.966  1.00 20.00     0.049 C 
HETATM    7  N7  UNL     1     -34.050  14.896  -6.120  1.00 20.00     0.093 N 
HETATM    8  S8  UNL     1     -37.093  15.329  -5.277  1.00 20.00    -0.165 SA
HETATM    9  H21 UNL     1     -33.227  14.315  -6.289  1.00 20.00     0.316 HD
ENDROOT
TORSDOF 0
ENDMDL
MODEL 7
REMARK VINA RESULT:      -3.3      1.978      3.292
REMARK  0 active torsions:
REMARK  status: ('A' for Active; 'I' for Inactive)
ROOT
HETATM    1  C1  UNL     1     -34.185  16.326  -2.230  1.00 20.00     0.280 C 
HETATM    2  C2  UNL     1     -33.755  17.389  -3.232  1.00 20.00     0.104 C 
HETATM    3  C3  UNL     1     -35.216  15.927  -5.011  1.00 20.00     0.114 C 
HETATM    4  C4  UNL     1     -35.564  15.012  -3.818  1.00 20.00     0.159 C 
HETATM    5  C5  UNL     1     -34.701  13.734  -3.805  1.00 20.00     0.049 C 
HETATM    6  C6  UNL     1     -37.037  14.577  -3.973  1.00 20.00     0.049 C 
HETATM    7  N7  UNL     1     -35.485  15.732  -2.534  1.00 20.00     0.093 N 
HETATM    8  S8  UNL     1     -33.573  16.696  -4.895  1.00 20.00    -0.165 SA
HETATM    9  H21 UNL     1     -35.744  15.100  -1.775  1.00 20.00     0.316 HD
ENDROOT
TORSDOF 0
ENDMDL
MODEL 8
REMARK VINA RESULT:      -3.3      1.997      2.648
REMARK  0 active torsions:
REMARK  status: ('A' for Active; 'I' for Inactive)
ROOT
HETATM    1  C1  UNL     1     -36.767  14.971  -3.808  1.00 20.00     0.280 C 
HETATM    2  C2  UNL     1     -35.875  13.866  -4.357  1.00 20.00     0.104 C 
HETATM    3  C3  UNL     1     -33.869  15.229  -3.110  1.00 20.00     0.114 C 
HETATM    4  C4  UNL     1     -34.968  16.196  -2.620  1.00 20.00     0.159 C 
HETATM    5  C5  UNL     1     -35.022  17.481  -3.470  1.00 20.00     0.049 C 
HETATM    6  C6  UNL     1     -34.620  16.609  -1.174  1.00 20.00     0.049 C 
HETATM    7  N7  UNL     1     -36.285  15.538  -2.550  1.00 20.00     0.093 N 
HETATM    8  S8  UNL     1     -34.214  14.483  -4.731  1.00 20.00    -0.165 SA
HETATM    9  H21 UNL     1     -36.977  16.202  -2.200  1.00 20.00     0.316 HD
ENDROOT
TORSDOF 0
ENDMDL
MODEL 9
REMARK VINA RESULT:      -3.2     11.332     12.087
REMARK  0 active torsions:
REMARK  status: ('A' for Active; 'I' for Inactive)
ROOT
HETATM    1  C1  UNL     1     -40.746   6.326  -0.451  1.00 20.00     0.280 C 
HETATM    2  C2  UNL     1     -40.837   4.844  -0.788  1.00 20.00     0.104 C 
HETATM    3  C3  UNL     1     -42.619   5.656  -2.687  1.00 20.00     0.114 C 
HETATM    4  C4  UNL     1     -42.321   7.092  -2.207  1.00 20.00     0.159 C 
HETATM    5  C5  UNL     1     -43.417   7.619  -1.259  1.00 20.00     0.049 C 
HETATM    6  C6  UNL     1     -42.299   8.008  -3.448  1.00 20.00     0.049 C 
HETATM    7  N7  UNL     1     -40.983   7.200  -1.598  1.00 20.00     0.093 N 
HETATM    8  S8  UNL     1     -42.491   4.401  -1.378  1.00 20.00    -0.165 SA
HETATM    9  H21 UNL     1     -40.816   8.167  -1.316  1.00 20.00     0.316 HD
ENDROOT
TORSDOF 0
ENDMDL
