MODEL 1
REMARK VINA RESULT:      -3.9      0.000      0.000
REMARK  3 active torsions:
REMARK  status: ('A' for Active; 'I' for Inactive)
REMARK    1  A    between atoms: C1_1  and  C4_4 
REMARK    2  A    between atoms: C2_2  and  C5_5 
REMARK    3  A    between atoms: C2_2  and  O9_9 
ROOT
HETATM    1  C3  UNL     1     -34.883  15.976  -3.687  1.00 20.00     0.028 A 
HETATM    2  C4  UNL     1     -36.005  15.121  -3.166  1.00 20.00     0.061 A 
HETATM    3  C5  UNL     1     -34.703  14.486  -3.594  1.00 20.00     0.097 A 
ENDROOT
BRANCH   3   4
HETATM    4  C2  UNL     1     -34.624  13.693  -4.826  1.00 20.00     0.263 C 
HETATM    5  O8  UNL     1     -34.829  12.488  -4.879  1.00 20.00    -0.265 OA
BRANCH   4   6
HETATM    6  O9  UNL     1     -34.295  14.505  -5.871  1.00 20.00    -0.326 OA
HETATM    7  C6  UNL     1     -35.126  14.385  -7.029  1.00 20.00     0.213 C 
ENDBRANCH   4   6
ENDBRANCH   3   4
BRANCH   2   8
HETATM    8  C1  UNL     1     -37.220  14.961  -3.974  1.00 20.00     0.236 C 
HETATM    9  O7  UNL     1     -38.150  14.228  -3.658  1.00 20.00    -0.306 OA
ENDBRANCH   2   8
TORSDOF 3
ENDMDL
MODEL 2
REMARK VINA RESULT:      -3.8      1.436      1.606
REMARK  3 active torsions:
REMARK  status: ('A' for Active; 'I' for Inactive)
REMARK    1  A    between atoms: C1_1  and  C4_4 
REMARK    2  A    between atoms: C2_2  and  C5_5 
REMARK    3  A    between atoms: C2_2  and  O9_9 
ROOT
HETATM    1  C3  UNL     1     -33.242  15.740  -3.962  1.00 20.00     0.028 A 
HETATM    2  C4  UNL     1     -34.187  15.343  -2.862  1.00 20.00     0.061 A 
HETATM    3  C5  UNL     1     -33.578  14.289  -3.755  1.00 20.00     0.097 A 
ENDROOT
BRANCH   3   4
HETATM    4  C2  UNL     1     -34.394  13.590  -4.755  1.00 20.00     0.263 C 
HETATM    5  O8  UNL     1     -35.019  12.562  -4.532  1.00 20.00    -0.265 OA
BRANCH   4   6
HETATM    6  O9  UNL     1     -34.338  14.262  -5.940  1.00 20.00    -0.326 OA
HETATM    7  C6  UNL     1     -35.597  14.485  -6.581  1.00 20.00     0.213 C 
ENDBRANCH   4   6
ENDBRANCH   3   4
BRANCH   2   8
HETATM    8  C1  UNL     1     -35.608  15.695  -2.975  1.00 20.00     0.236 C 
HETATM    9  O7  UNL     1     -36.011  16.707  -3.537  1.00 20.00    -0.306 OA
ENDBRANCH   2   8
TORSDOF 3
ENDMDL
MODEL 3
REMARK VINA RESULT:      -3.8     12.370     13.222
REMARK  3 active torsions:
REMARK  status: ('A' for Active; 'I' for Inactive)
REMARK    1  A    between atoms: C1_1  and  C4_4 
REMARK    2  A    between atoms: C2_2  and  C5_5 
REMARK    3  A    between atoms: C2_2  and  O9_9 
ROOT
HETATM    1  C3  UNL     1     -34.005   4.112   5.862  1.00 20.00     0.028 A 
HETATM    2  C4  UNL     1     -34.858   5.225   6.406  1.00 20.00     0.061 A 
HETATM    3  C5  UNL     1     -35.210   4.573   5.090  1.00 20.00     0.097 A 
ENDROOT
BRANCH   3   4
HETATM    4  C2  UNL     1     -35.021   5.289   3.823  1.00 20.00     0.263 C 
HETATM    5  O8  UNL     1     -35.903   5.921   3.256  1.00 20.00    -0.265 OA
BRANCH   4   6
HETATM    6  O9  UNL     1     -33.735   5.135   3.399  1.00 20.00    -0.326 OA
HETATM    7  C6  UNL     1     -33.029   6.349   3.124  1.00 20.00     0.213 C 
ENDBRANCH   4   6
ENDBRANCH   3   4
BRANCH   2   8
HETATM    8  C1  UNL     1     -34.318   6.589   6.448  1.00 20.00     0.236 C 
HETATM    9  O7  UNL     1     -33.144   6.843   6.689  1.00 20.00    -0.306 OA
ENDBRANCH   2   8
TORSDOF 3
ENDMDL
MODEL 4
REMARK VINA RESULT:      -3.8      2.073      3.529
REMARK  3 active torsions:
REMARK  status: ('A' for Active; 'I' for Inactive)
REMARK    1  A    between atoms: C1_1  and  C4_4 
REMARK    2  A    between atoms: C2_2  and  C5_5 
REMARK    3  A    between atoms: C2_2  and  O9_9 
ROOT
HETATM    1  C3  UNL     1     -34.366  15.012  -7.030  1.00 20.00     0.028 A 
HETATM    2  C4  UNL     1     -35.179  14.310  -5.977  1.00 20.00     0.061 A 
HETATM    3  C5  UNL     1     -34.918  15.793  -5.869  1.00 20.00     0.097 A 
ENDROOT
BRANCH   3   4
HETATM    4  C2  UNL     1     -33.996  16.321  -4.856  1.00 20.00     0.263 C 
HETATM    5  O8  UNL     1     -32.788  16.427  -5.019  1.00 20.00    -0.265 OA
BRANCH   4   6
HETATM    6  O9  UNL     1     -34.695  16.663  -3.738  1.00 20.00    -0.326 OA
HETATM    7  C6  UNL     1     -34.243  16.061  -2.521  1.00 20.00     0.213 C 
ENDBRANCH   4   6
ENDBRANCH   3   4
BRANCH   2   8
HETATM    8  C1  UNL     1     -34.516  13.362  -5.073  1.00 20.00     0.236 C 
HETATM    9  O7  UNL     1     -35.123  12.625  -4.305  1.00 20.00    -0.306 OA
ENDBRANCH   2   8
TORSDOF 3
ENDMDL
MODEL 5
REMARK VINA RESULT:      -3.7      1.307      2.012
REMARK  3 active torsions:
REMARK  status: ('A' for Active; 'I' for Inactive)
REMARK    1  A    between atoms: C1_1  and  C4_4 
REMARK    2  A    between atoms: C2_2  and  C5_5 
REMARK    3  A    between atoms: C2_2  and  O9_9 
ROOT
HETATM    1  C3  UNL     1     -36.080  14.826  -6.022  1.00 20.00     0.028 A 
HETATM    2  C4  UNL     1     -36.148  15.482  -4.672  1.00 20.00     0.061 A 
HETATM    3  C5  UNL     1     -34.863  14.842  -5.140  1.00 20.00     0.097 A 
ENDROOT
BRANCH   3   4
HETATM    4  C2  UNL     1     -34.390  13.587  -4.545  1.00 20.00     0.263 C 
HETATM    5  O8  UNL     1     -34.843  12.484  -4.823  1.00 20.00    -0.265 OA
BRANCH   4   6
HETATM    6  O9  UNL     1     -33.390  13.850  -3.657  1.00 20.00    -0.326 OA
HETATM    7  C6  UNL     1     -32.820  15.160  -3.743  1.00 20.00     0.213 C 
ENDBRANCH   4   6
ENDBRANCH   3   4
BRANCH   2   8
HETATM    8  C1  UNL     1     -36.953  14.864  -3.612  1.00 20.00     0.236 C 
HETATM    9  O7  UNL     1     -37.973  14.219  -3.828  1.00 20.00    -0.306 OA
ENDBRANCH   2   8
TORSDOF 3
ENDMDL
MODEL 6
REMARK VINA RESULT:      -3.7      1.878      2.639
REMARK  3 active torsions:
REMARK  status: ('A' for Active; 'I' for Inactive)
REMARK    1  A    between atoms: C1_1  and  C4_4 
REMARK    2  A    between atoms: C2_2  and  C5_5 
REMARK    3  A    between atoms: C2_2  and  O9_9 
ROOT
HETATM    1  C3  UNL     1     -33.687  15.790  -3.043  1.00 20.00     0.028 A 
HETATM    2  C4  UNL     1     -33.610  14.435  -3.691  1.00 20.00     0.061 A 
HETATM    3  C5  UNL     1     -33.317  15.679  -4.496  1.00 20.00     0.097 A 
ENDROOT
BRANCH   3   4
HETATM    4  C2  UNL     1     -34.260  16.152  -5.516  1.00 20.00     0.263 C 
HETATM    5  O8  UNL     1     -35.228  16.862  -5.276  1.00 20.00    -0.265 OA
BRANCH   4   6
HETATM    6  O9  UNL     1     -33.886  15.680  -6.738  1.00 20.00    -0.326 OA
HETATM    7  C6  UNL     1     -34.861  14.881  -7.415  1.00 20.00     0.213 C 
ENDBRANCH   4   6
ENDBRANCH   3   4
BRANCH   2   8
HETATM    8  C1  UNL     1     -34.846  13.673  -3.908  1.00 20.00     0.236 C 
HETATM    9  O7  UNL     1     -34.888  12.617  -4.530  1.00 20.00    -0.306 OA
ENDBRANCH   2   8
TORSDOF 3
ENDMDL
MODEL 7
REMARK VINA RESULT:      -3.7     11.513     12.329
REMARK  3 active torsions:
REMARK  status: ('A' for Active; 'I' for Inactive)
REMARK    1  A    between atoms: C1_1  and  C4_4 
REMARK    2  A    between atoms: C2_2  and  C5_5 
REMARK    3  A    between atoms: C2_2  and  O9_9 
ROOT
HETATM    1  C3  UNL     1     -34.720   4.473   4.280  1.00 20.00     0.028 A 
HETATM    2  C4  UNL     1     -34.920   5.709   5.112  1.00 20.00     0.061 A 
HETATM    3  C5  UNL     1     -34.473   5.827   3.675  1.00 20.00     0.097 A 
ENDROOT
BRANCH   3   4
HETATM    4  C2  UNL     1     -33.099   6.227   3.348  1.00 20.00     0.263 C 
HETATM    5  O8  UNL     1     -32.161   5.445   3.257  1.00 20.00    -0.265 OA
BRANCH   4   6
HETATM    6  O9  UNL     1     -33.047   7.577   3.167  1.00 20.00    -0.326 OA
HETATM    7  C6  UNL     1     -32.071   8.035   2.228  1.00 20.00     0.213 C 
ENDBRANCH   4   6
ENDBRANCH   3   4
BRANCH   2   8
HETATM    8  C1  UNL     1     -33.993   5.990   6.214  1.00 20.00     0.236 C 
HETATM    9  O7  UNL     1     -33.873   7.095   6.731  1.00 20.00    -0.306 OA
ENDBRANCH   2   8
TORSDOF 3
ENDMDL
MODEL 8
REMARK VINA RESULT:      -3.6      2.052      3.063
REMARK  3 active torsions:
REMARK  status: ('A' for Active; 'I' for Inactive)
REMARK    1  A    between atoms: C1_1  and  C4_4 
REMARK    2  A    between atoms: C2_2  and  C5_5 
REMARK    3  A    between atoms: C2_2  and  O9_9 
ROOT
HETATM    1  C3  UNL     1     -34.916  15.251  -2.613  1.00 20.00     0.028 A 
HETATM    2  C4  UNL     1     -34.010  14.279  -3.316  1.00 20.00     0.061 A 
HETATM    3  C5  UNL     1     -33.641  15.741  -3.241  1.00 20.00     0.097 A 
ENDROOT
BRANCH   3   4
HETATM    4  C2  UNL     1     -33.708  16.594  -4.433  1.00 20.00     0.263 C 
HETATM    5  O8  UNL     1     -32.823  16.665  -5.276  1.00 20.00    -0.265 OA
BRANCH   4   6
HETATM    6  O9  UNL     1     -34.890  17.272  -4.443  1.00 20.00    -0.326 OA
HETATM    7  C6  UNL     1     -35.596  17.262  -5.687  1.00 20.00     0.213 C 
ENDBRANCH   4   6
ENDBRANCH   3   4
BRANCH   2   8
HETATM    8  C1  UNL     1     -34.447  13.677  -4.581  1.00 20.00     0.236 C 
HETATM    9  O7  UNL     1     -34.940  12.559  -4.663  1.00 20.00    -0.306 OA
ENDBRANCH   2   8
TORSDOF 3
ENDMDL
MODEL 9
REMARK VINA RESULT:      -3.6     12.236     13.277
REMARK  3 active torsions:
REMARK  status: ('A' for Active; 'I' for Inactive)
REMARK    1  A    between atoms: C1_1  and  C4_4 
REMARK    2  A    between atoms: C2_2  and  C5_5 
REMARK    3  A    between atoms: C2_2  and  O9_9 
ROOT
HETATM    1  C3  UNL     1     -35.621   5.910   3.675  1.00 20.00     0.028 A 
HETATM    2  C4  UNL     1     -34.377   5.235   3.169  1.00 20.00     0.061 A 
HETATM    3  C5  UNL     1     -35.111   4.673   4.362  1.00 20.00     0.097 A 
ENDROOT
BRANCH   3   4
HETATM    4  C2  UNL     1     -34.545   4.783   5.711  1.00 20.00     0.263 C 
HETATM    5  O8  UNL     1     -33.894   3.900   6.255  1.00 20.00    -0.265 OA
BRANCH   4   6
HETATM    6  O9  UNL     1     -34.858   6.000   6.240  1.00 20.00    -0.326 OA
HETATM    7  C6  UNL     1     -33.742   6.811   6.620  1.00 20.00     0.213 C 
ENDBRANCH   4   6
ENDBRANCH   3   4
BRANCH   2   8
HETATM    8  C1  UNL     1     -33.081   5.904   3.330  1.00 20.00     0.236 C 
HETATM    9  O7  UNL     1     -32.884   7.077   3.034  1.00 20.00    -0.306 OA
ENDBRANCH   2   8
TORSDOF 3
ENDMDL
