MODEL 1
REMARK VINA RESULT:      -4.0      0.000      0.000
REMARK  2 active torsions:
REMARK  status: ('A' for Active; 'I' for Inactive)
REMARK       I    between atoms: C1_1  and  N6_6 
REMARK    1  A    between atoms: C4_4  and  C5_5 
REMARK    2  A    between atoms: C5_5  and  N6_6 
ROOT
HETATM    1  C1  UNL     1     -34.713   4.902   5.018  1.00 20.00     0.316 C 
HETATM    2  C3  UNL     1     -34.290   5.023   2.528  1.00 20.00     0.154 C 
HETATM    3  N6  UNL     1     -34.181   5.576   3.884  1.00 20.00    -0.343 N 
HETATM    4  O7  UNL     1     -35.296   3.819   4.932  1.00 20.00    -0.254 OA
HETATM    5 CL8  UNL     1     -34.491   5.689   6.570  1.00 20.00    -0.020 Cl
ENDROOT
BRANCH   3   6
HETATM    6  C5  UNL     1     -33.503   6.838   3.998  1.00 20.00     0.126 C 
BRANCH   6   7
HETATM    7  C4  UNL     1     -32.178   6.856   3.245  1.00 20.00     0.015 C 
HETATM    8  C2  UNL     1     -32.072   8.018   2.268  1.00 20.00     0.006 C 
ENDBRANCH   6   7
ENDBRANCH   3   6
TORSDOF 2
ENDMDL
MODEL 2
REMARK VINA RESULT:      -4.0     11.441     11.922
REMARK  2 active torsions:
REMARK  status: ('A' for Active; 'I' for Inactive)
REMARK       I    between atoms: C1_1  and  N6_6 
REMARK    1  A    between atoms: C4_4  and  C5_5 
REMARK    2  A    between atoms: C5_5  and  N6_6 
ROOT
HETATM    1  C1  UNL     1     -34.607  13.734  -3.874  1.00 20.00     0.316 C 
HETATM    2  C3  UNL     1     -36.873  14.848  -3.734  1.00 20.00     0.154 C 
HETATM    3  N6  UNL     1     -35.412  14.871  -3.585  1.00 20.00    -0.343 N 
HETATM    4  O7  UNL     1     -35.084  12.667  -4.265  1.00 20.00    -0.254 OA
HETATM    5 CL8  UNL     1     -32.877  13.926  -3.656  1.00 20.00    -0.020 Cl
ENDROOT
BRANCH   3   6
HETATM    6  C5  UNL     1     -34.844  16.109  -3.130  1.00 20.00     0.126 C 
BRANCH   6   7
HETATM    7  C4  UNL     1     -34.775  16.193  -1.609  1.00 20.00     0.015 C 
HETATM    8  C2  UNL     1     -33.804  17.259  -1.123  1.00 20.00     0.006 C 
ENDBRANCH   6   7
ENDBRANCH   3   6
TORSDOF 2
ENDMDL
MODEL 3
REMARK VINA RESULT:      -3.8     11.630     11.998
REMARK  2 active torsions:
REMARK  status: ('A' for Active; 'I' for Inactive)
REMARK       I    between atoms: C1_1  and  N6_6 
REMARK    1  A    between atoms: C4_4  and  C5_5 
REMARK    2  A    between atoms: C5_5  and  N6_6 
ROOT
HETATM    1  C1  UNL     1     -35.201  13.889  -3.953  1.00 20.00     0.316 C 
HETATM    2  C3  UNL     1     -32.768  14.523  -3.679  1.00 20.00     0.154 C 
HETATM    3  N6  UNL     1     -34.198  14.857  -3.669  1.00 20.00    -0.343 N 
HETATM    4  O7  UNL     1     -34.932  12.717  -4.225  1.00 20.00    -0.254 OA
HETATM    5 CL8  UNL     1     -36.864  14.444  -3.891  1.00 20.00    -0.020 Cl
ENDROOT
BRANCH   3   6
HETATM    6  C5  UNL     1     -34.525  16.221  -3.354  1.00 20.00     0.126 C 
BRANCH   6   7
HETATM    7  C4  UNL     1     -33.836  16.705  -2.084  1.00 20.00     0.015 C 
HETATM    8  C2  UNL     1     -34.713  16.561  -0.848  1.00 20.00     0.006 C 
ENDBRANCH   6   7
ENDBRANCH   3   6
TORSDOF 2
ENDMDL
MODEL 4
REMARK VINA RESULT:      -3.6     11.378     12.233
REMARK  2 active torsions:
REMARK  status: ('A' for Active; 'I' for Inactive)
REMARK       I    between atoms: C1_1  and  N6_6 
REMARK    1  A    between atoms: C4_4  and  C5_5 
REMARK    2  A    between atoms: C5_5  and  N6_6 
ROOT
HETATM    1  C1  UNL     1     -34.628  13.589  -3.940  1.00 20.00     0.316 C 
HETATM    2  C3  UNL     1     -36.874  14.744  -3.808  1.00 20.00     0.154 C 
HETATM    3  N6  UNL     1     -35.428  14.700  -3.554  1.00 20.00    -0.343 N 
HETATM    4  O7  UNL     1     -35.098  12.600  -4.508  1.00 20.00    -0.254 OA
HETATM    5 CL8  UNL     1     -32.916  13.693  -3.574  1.00 20.00    -0.020 Cl
ENDROOT
BRANCH   3   6
HETATM    6  C5  UNL     1     -34.869  15.846  -2.892  1.00 20.00     0.126 C 
BRANCH   6   7
HETATM    7  C4  UNL     1     -34.817  17.071  -3.797  1.00 20.00     0.015 C 
HETATM    8  C2  UNL     1     -33.567  17.108  -4.666  1.00 20.00     0.006 C 
ENDBRANCH   6   7
ENDBRANCH   3   6
TORSDOF 2
ENDMDL
MODEL 5
REMARK VINA RESULT:      -3.5      1.685      2.146
REMARK  2 active torsions:
REMARK  status: ('A' for Active; 'I' for Inactive)
REMARK       I    between atoms: C1_1  and  N6_6 
REMARK    1  A    between atoms: C4_4  and  C5_5 
REMARK    2  A    between atoms: C5_5  and  N6_6 
ROOT
HETATM    1  C1  UNL     1     -34.613   4.939   5.720  1.00 20.00     0.316 C 
HETATM    2  C3  UNL     1     -33.453   7.078   6.408  1.00 20.00     0.154 C 
HETATM    3  N6  UNL     1     -34.009   6.182   5.386  1.00 20.00    -0.343 N 
HETATM    4  O7  UNL     1     -34.706   4.539   6.883  1.00 20.00    -0.254 OA
HETATM    5 CL8  UNL     1     -35.239   3.989   4.385  1.00 20.00    -0.020 Cl
ENDROOT
BRANCH   3   6
HETATM    6  C5  UNL     1     -33.907   6.636   4.026  1.00 20.00     0.126 C 
BRANCH   6   7
HETATM    7  C4  UNL     1     -32.507   6.446   3.454  1.00 20.00     0.015 C 
HETATM    8  C2  UNL     1     -32.052   7.627   2.608  1.00 20.00     0.006 C 
ENDBRANCH   6   7
ENDBRANCH   3   6
TORSDOF 2
ENDMDL
MODEL 6
REMARK VINA RESULT:      -3.5     12.023     12.388
REMARK  2 active torsions:
REMARK  status: ('A' for Active; 'I' for Inactive)
REMARK       I    between atoms: C1_1  and  N6_6 
REMARK    1  A    between atoms: C4_4  and  C5_5 
REMARK    2  A    between atoms: C5_5  and  N6_6 
ROOT
HETATM    1  C1  UNL     1     -37.229  15.079  -3.655  1.00 20.00     0.316 C 
HETATM    2  C3  UNL     1     -35.268  13.577  -4.198  1.00 20.00     0.154 C 
HETATM    3  N6  UNL     1     -35.837  14.894  -3.879  1.00 20.00    -0.343 N 
HETATM    4  O7  UNL     1     -38.040  14.152  -3.714  1.00 20.00    -0.254 OA
HETATM    5 CL8  UNL     1     -37.749  16.711  -3.274  1.00 20.00    -0.020 Cl
ENDROOT
BRANCH   3   6
HETATM    6  C5  UNL     1     -34.903  15.983  -3.807  1.00 20.00     0.126 C 
BRANCH   6   7
HETATM    7  C4  UNL     1     -33.989  15.885  -2.590  1.00 20.00     0.015 C 
HETATM    8  C2  UNL     1     -34.642  16.412  -1.321  1.00 20.00     0.006 C 
ENDBRANCH   6   7
ENDBRANCH   3   6
TORSDOF 2
ENDMDL
MODEL 7
REMARK VINA RESULT:      -3.5     12.481     12.975
REMARK  2 active torsions:
REMARK  status: ('A' for Active; 'I' for Inactive)
REMARK       I    between atoms: C1_1  and  N6_6 
REMARK    1  A    between atoms: C4_4  and  C5_5 
REMARK    2  A    between atoms: C5_5  and  N6_6 
ROOT
HETATM    1  C1  UNL     1     -34.341  14.611  -5.413  1.00 20.00     0.316 C 
HETATM    2  C3  UNL     1     -33.380  16.926  -5.076  1.00 20.00     0.154 C 
HETATM    3  N6  UNL     1     -33.815  15.621  -4.561  1.00 20.00    -0.343 N 
HETATM    4  O7  UNL     1     -34.464  14.769  -6.630  1.00 20.00    -0.254 OA
HETATM    5 CL8  UNL     1     -34.805  13.104  -4.646  1.00 20.00    -0.020 Cl
ENDROOT
BRANCH   3   6
HETATM    6  C5  UNL     1     -33.677  15.424  -3.144  1.00 20.00     0.126 C 
BRANCH   6   7
HETATM    7  C4  UNL     1     -34.905  15.889  -2.371  1.00 20.00     0.015 C 
HETATM    8  C2  UNL     1     -34.550  16.577  -1.060  1.00 20.00     0.006 C 
ENDBRANCH   6   7
ENDBRANCH   3   6
TORSDOF 2
ENDMDL
MODEL 8
REMARK VINA RESULT:      -3.4     12.689     13.119
REMARK  2 active torsions:
REMARK  status: ('A' for Active; 'I' for Inactive)
REMARK       I    between atoms: C1_1  and  N6_6 
REMARK    1  A    between atoms: C4_4  and  C5_5 
REMARK    2  A    between atoms: C5_5  and  N6_6 
ROOT
HETATM    1  C1  UNL     1     -34.002  15.526  -5.685  1.00 20.00     0.316 C 
HETATM    2  C3  UNL     1     -34.594  13.330  -4.580  1.00 20.00     0.154 C 
HETATM    3  N6  UNL     1     -34.114  14.717  -4.521  1.00 20.00    -0.343 N 
HETATM    4  O7  UNL     1     -34.298  15.115  -6.810  1.00 20.00    -0.254 OA
HETATM    5 CL8  UNL     1     -33.423  17.165  -5.446  1.00 20.00    -0.020 Cl
ENDROOT
BRANCH   3   6
HETATM    6  C5  UNL     1     -33.766  15.208  -3.217  1.00 20.00     0.126 C 
BRANCH   6   7
HETATM    7  C4  UNL     1     -34.975  15.731  -2.451  1.00 20.00     0.015 C 
HETATM    8  C2  UNL     1     -34.589  16.498  -1.194  1.00 20.00     0.006 C 
ENDBRANCH   6   7
ENDBRANCH   3   6
TORSDOF 2
ENDMDL
MODEL 9
REMARK VINA RESULT:      -3.3     11.968     12.615
REMARK  2 active torsions:
REMARK  status: ('A' for Active; 'I' for Inactive)
REMARK       I    between atoms: C1_1  and  N6_6 
REMARK    1  A    between atoms: C4_4  and  C5_5 
REMARK    2  A    between atoms: C5_5  and  N6_6 
ROOT
HETATM    1  C1  UNL     1     -34.209  15.034  -3.217  1.00 20.00     0.316 C 
HETATM    2  C3  UNL     1     -36.611  14.624  -3.894  1.00 20.00     0.154 C 
HETATM    3  N6  UNL     1     -35.166  14.447  -4.090  1.00 20.00    -0.343 N 
HETATM    4  O7  UNL     1     -34.532  15.724  -2.247  1.00 20.00    -0.254 OA
HETATM    5 CL8  UNL     1     -32.522  14.720  -3.580  1.00 20.00    -0.020 Cl
ENDROOT
BRANCH   3   6
HETATM    6  C5  UNL     1     -34.776  13.646  -5.217  1.00 20.00     0.126 C 
BRANCH   6   7
HETATM    7  C4  UNL     1     -35.228  14.247  -6.542  1.00 20.00     0.015 C 
HETATM    8  C2  UNL     1     -34.318  15.369  -7.020  1.00 20.00     0.006 C 
ENDBRANCH   6   7
ENDBRANCH   3   6
TORSDOF 2
ENDMDL
