MODEL 1
REMARK VINA RESULT:      -4.7      0.000      0.000
REMARK  3 active torsions:
REMARK  status: ('A' for Active; 'I' for Inactive)
REMARK    1  A    between atoms: C4_4  and  C10_10 
REMARK    2  A    between atoms: C8_8  and  C10_10 
REMARK    3  A    between atoms: C8_8  and  O11_11 
ROOT
HETATM    1  C1  UNL     1     -34.896  13.785  -5.724  1.00 20.00    -0.030 C 
HETATM    2  C2  UNL     1     -34.974  13.412  -4.439  1.00 20.00    -0.028 C 
HETATM    3  C5  UNL     1     -34.403  15.132  -6.157  1.00 20.00     0.030 C 
HETATM    4  C6  UNL     1     -34.548  14.289  -3.295  1.00 20.00     0.065 C 
HETATM    5  C7  UNL     1     -34.308  16.141  -5.006  1.00 20.00     0.042 C 
HETATM    6  C8  UNL     1     -33.719  15.512  -3.735  1.00 20.00     0.068 C 
ENDROOT
BRANCH   6   7
HETATM    7  C10 UNL     1     -33.639  16.544  -2.607  1.00 20.00     0.038 C 
HETATM    8  C9  UNL     1     -34.680  16.241  -1.530  1.00 20.00     0.017 C 
BRANCH   7   9
HETATM    9  C4  UNL     1     -33.845  17.932  -3.157  1.00 20.00    -0.030 C 
HETATM   10  C3  UNL     1     -33.503  19.050  -2.507  1.00 20.00     0.007 C 
ENDBRANCH   7   9
ENDBRANCH   6   7
BRANCH   6  11
HETATM   11  O11 UNL     1     -32.382  15.089  -4.027  1.00 20.00    -0.389 OA
HETATM   12  H27 UNL     1     -32.031  14.718  -3.206  1.00 20.00     0.210 HD
ENDBRANCH   6  11
TORSDOF 3
ENDMDL
MODEL 2
REMARK VINA RESULT:      -4.6      1.321      2.239
REMARK  3 active torsions:
REMARK  status: ('A' for Active; 'I' for Inactive)
REMARK    1  A    between atoms: C4_4  and  C10_10 
REMARK    2  A    between atoms: C8_8  and  C10_10 
REMARK    3  A    between atoms: C8_8  and  O11_11 
ROOT
HETATM    1  C1  UNL     1     -34.444  16.438  -7.473  1.00 20.00    -0.030 C 
HETATM    2  C2  UNL     1     -34.514  15.145  -7.130  1.00 20.00    -0.028 C 
HETATM    3  C5  UNL     1     -34.338  17.548  -6.472  1.00 20.00     0.030 C 
HETATM    4  C6  UNL     1     -34.463  14.663  -5.707  1.00 20.00     0.065 C 
HETATM    5  C7  UNL     1     -34.641  17.099  -5.037  1.00 20.00     0.042 C 
HETATM    6  C8  UNL     1     -34.000  15.743  -4.709  1.00 20.00     0.068 C 
ENDROOT
BRANCH   6   7
HETATM    7  C10 UNL     1     -34.323  15.325  -3.273  1.00 20.00     0.038 C 
HETATM    8  C9  UNL     1     -35.826  15.103  -3.105  1.00 20.00     0.017 C 
BRANCH   7   9
HETATM    9  C4  UNL     1     -33.838  16.373  -2.305  1.00 20.00    -0.030 C 
HETATM   10  C3  UNL     1     -34.445  16.659  -1.148  1.00 20.00     0.007 C 
ENDBRANCH   7   9
ENDBRANCH   6   7
BRANCH   6  11
HETATM   11  O11 UNL     1     -32.578  15.889  -4.806  1.00 20.00    -0.389 OA
HETATM   12  H27 UNL     1     -32.228  15.005  -4.980  1.00 20.00     0.210 HD
ENDBRANCH   6  11
TORSDOF 3
ENDMDL
MODEL 3
REMARK VINA RESULT:      -4.6      1.519      2.297
REMARK  3 active torsions:
REMARK  status: ('A' for Active; 'I' for Inactive)
REMARK    1  A    between atoms: C4_4  and  C10_10 
REMARK    2  A    between atoms: C8_8  and  C10_10 
REMARK    3  A    between atoms: C8_8  and  O11_11 
ROOT
HETATM    1  C1  UNL     1     -34.574  13.369  -4.417  1.00 20.00    -0.030 C 
HETATM    2  C2  UNL     1     -33.470  13.894  -3.869  1.00 20.00    -0.028 C 
HETATM    3  C5  UNL     1     -35.923  14.013  -4.322  1.00 20.00     0.030 C 
HETATM    4  C6  UNL     1     -33.457  15.200  -3.126  1.00 20.00     0.065 C 
HETATM    5  C7  UNL     1     -35.984  15.138  -3.282  1.00 20.00     0.042 C 
HETATM    6  C8  UNL     1     -34.738  16.034  -3.327  1.00 20.00     0.068 C 
ENDROOT
BRANCH   6   7
HETATM    7  C10 UNL     1     -34.831  17.144  -2.277  1.00 20.00     0.038 C 
HETATM    8  C9  UNL     1     -33.728  18.180  -2.495  1.00 20.00     0.017 C 
BRANCH   7   9
HETATM    9  C4  UNL     1     -34.733  16.560  -0.892  1.00 20.00    -0.030 C 
HETATM   10  C3  UNL     1     -34.885  17.271   0.230  1.00 20.00     0.007 C 
ENDBRANCH   7   9
ENDBRANCH   6   7
BRANCH   6  11
HETATM   11  O11 UNL     1     -34.689  16.662  -4.614  1.00 20.00    -0.389 OA
HETATM   12  H27 UNL     1     -35.572  17.021  -4.773  1.00 20.00     0.210 HD
ENDBRANCH   6  11
TORSDOF 3
ENDMDL
MODEL 4
REMARK VINA RESULT:      -4.5     11.019     12.444
REMARK  3 active torsions:
REMARK  status: ('A' for Active; 'I' for Inactive)
REMARK    1  A    between atoms: C4_4  and  C10_10 
REMARK    2  A    between atoms: C8_8  and  C10_10 
REMARK    3  A    between atoms: C8_8  and  O11_11 
ROOT
HETATM    1  C1  UNL     1     -35.175   4.897   5.730  1.00 20.00    -0.030 C 
HETATM    2  C2  UNL     1     -35.054   4.495   4.458  1.00 20.00    -0.028 C 
HETATM    3  C5  UNL     1     -34.371   6.017   6.316  1.00 20.00     0.030 C 
HETATM    4  C6  UNL     1     -34.123   5.141   3.470  1.00 20.00     0.065 C 
HETATM    5  C7  UNL     1     -33.187   6.437   5.435  1.00 20.00     0.042 C 
HETATM    6  C8  UNL     1     -33.567   6.497   3.949  1.00 20.00     0.068 C 
ENDROOT
BRANCH   6   7
HETATM    7  C10 UNL     1     -32.365   6.918   3.100  1.00 20.00     0.038 C 
HETATM    8  C9  UNL     1     -31.278   7.536   3.980  1.00 20.00     0.017 C 
BRANCH   7   9
HETATM    9  C4  UNL     1     -32.795   7.896   2.037  1.00 20.00    -0.030 C 
HETATM   10  C3  UNL     1     -31.957   8.715   1.394  1.00 20.00     0.007 C 
ENDBRANCH   7   9
ENDBRANCH   6   7
BRANCH   6  11
HETATM   11  O11 UNL     1     -34.579   7.499   3.789  1.00 20.00    -0.389 OA
HETATM   12  H27 UNL     1     -34.731   7.578   2.838  1.00 20.00     0.210 HD
ENDBRANCH   6  11
TORSDOF 3
ENDMDL
MODEL 5
REMARK VINA RESULT:      -4.5      1.658      2.554
REMARK  3 active torsions:
REMARK  status: ('A' for Active; 'I' for Inactive)
REMARK    1  A    between atoms: C4_4  and  C10_10 
REMARK    2  A    between atoms: C8_8  and  C10_10 
REMARK    3  A    between atoms: C8_8  and  O11_11 
ROOT
HETATM    1  C1  UNL     1     -35.097  13.758  -5.377  1.00 20.00    -0.030 C 
HETATM    2  C2  UNL     1     -35.471  14.983  -5.771  1.00 20.00    -0.028 C 
HETATM    3  C5  UNL     1     -34.603  13.456  -3.995  1.00 20.00     0.030 C 
HETATM    4  C6  UNL     1     -35.465  16.181  -4.864  1.00 20.00     0.065 C 
HETATM    5  C7  UNL     1     -34.261  14.714  -3.187  1.00 20.00     0.042 C 
HETATM    6  C8  UNL     1     -35.307  15.821  -3.373  1.00 20.00     0.068 C 
ENDROOT
BRANCH   6   7
HETATM    7  C10 UNL     1     -34.935  17.060  -2.554  1.00 20.00     0.038 C 
HETATM    8  C9  UNL     1     -33.911  17.911  -3.306  1.00 20.00     0.017 C 
BRANCH   7   9
HETATM    9  C4  UNL     1     -34.390  16.652  -1.211  1.00 20.00    -0.030 C 
HETATM   10  C3  UNL     1     -34.844  17.124  -0.045  1.00 20.00     0.007 C 
ENDBRANCH   7   9
ENDBRANCH   6   7
BRANCH   6  11
HETATM   11  O11 UNL     1     -36.560  15.337  -2.875  1.00 20.00    -0.389 OA
HETATM   12  H27 UNL     1     -36.850  15.974  -2.208  1.00 20.00     0.210 HD
ENDBRANCH   6  11
TORSDOF 3
ENDMDL
MODEL 6
REMARK VINA RESULT:      -4.4      0.941      4.166
REMARK  3 active torsions:
REMARK  status: ('A' for Active; 'I' for Inactive)
REMARK    1  A    between atoms: C4_4  and  C10_10 
REMARK    2  A    between atoms: C8_8  and  C10_10 
REMARK    3  A    between atoms: C8_8  and  O11_11 
ROOT
HETATM    1  C1  UNL     1     -33.761  17.878  -2.509  1.00 20.00    -0.030 C 
HETATM    2  C2  UNL     1     -33.850  18.115  -3.825  1.00 20.00    -0.028 C 
HETATM    3  C5  UNL     1     -34.019  16.534  -1.899  1.00 20.00     0.030 C 
HETATM    4  C6  UNL     1     -34.187  17.055  -4.836  1.00 20.00     0.065 C 
HETATM    5  C7  UNL     1     -34.700  15.553  -2.862  1.00 20.00     0.042 C 
HETATM    6  C8  UNL     1     -34.102  15.622  -4.274  1.00 20.00     0.068 C 
ENDROOT
BRANCH   6   7
HETATM    7  C10 UNL     1     -34.803  14.633  -5.208  1.00 20.00     0.038 C 
HETATM    8  C9  UNL     1     -34.453  13.195  -4.824  1.00 20.00     0.017 C 
BRANCH   7   9
HETATM    9  C4  UNL     1     -34.413  14.902  -6.638  1.00 20.00    -0.030 C 
HETATM   10  C3  UNL     1     -35.201  14.645  -7.687  1.00 20.00     0.007 C 
ENDBRANCH   7   9
ENDBRANCH   6   7
BRANCH   6  11
HETATM   11  O11 UNL     1     -32.725  15.234  -4.192  1.00 20.00    -0.389 OA
HETATM   12  H27 UNL     1     -32.700  14.287  -4.385  1.00 20.00     0.210 HD
ENDBRANCH   6  11
TORSDOF 3
ENDMDL
MODEL 7
REMARK VINA RESULT:      -4.4      1.238      4.239
REMARK  3 active torsions:
REMARK  status: ('A' for Active; 'I' for Inactive)
REMARK    1  A    between atoms: C4_4  and  C10_10 
REMARK    2  A    between atoms: C8_8  and  C10_10 
REMARK    3  A    between atoms: C8_8  and  O11_11 
ROOT
HETATM    1  C1  UNL     1     -34.063  16.918  -2.120  1.00 20.00    -0.030 C 
HETATM    2  C2  UNL     1     -33.795  17.895  -2.996  1.00 20.00    -0.028 C 
HETATM    3  C5  UNL     1     -34.356  15.507  -2.530  1.00 20.00     0.030 C 
HETATM    4  C6  UNL     1     -33.729  17.680  -4.482  1.00 20.00     0.065 C 
HETATM    5  C7  UNL     1     -34.639  15.359  -4.031  1.00 20.00     0.042 C 
HETATM    6  C8  UNL     1     -33.672  16.192  -4.884  1.00 20.00     0.068 C 
ENDROOT
BRANCH   6   7
HETATM    7  C10 UNL     1     -33.982  16.023  -6.374  1.00 20.00     0.038 C 
HETATM    8  C9  UNL     1     -34.612  17.297  -6.937  1.00 20.00     0.017 C 
BRANCH   7   9
HETATM    9  C4  UNL     1     -34.901  14.848  -6.584  1.00 20.00    -0.030 C 
HETATM   10  C3  UNL     1     -35.384  14.482  -7.776  1.00 20.00     0.007 C 
ENDBRANCH   7   9
ENDBRANCH   6   7
BRANCH   6  11
HETATM   11  O11 UNL     1     -32.345  15.699  -4.662  1.00 20.00    -0.389 OA
HETATM   12  H27 UNL     1     -31.807  16.036  -5.391  1.00 20.00     0.210 HD
ENDBRANCH   6  11
TORSDOF 3
ENDMDL
MODEL 8
REMARK VINA RESULT:      -4.3      1.802      2.942
REMARK  3 active torsions:
REMARK  status: ('A' for Active; 'I' for Inactive)
REMARK    1  A    between atoms: C4_4  and  C10_10 
REMARK    2  A    between atoms: C8_8  and  C10_10 
REMARK    3  A    between atoms: C8_8  and  O11_11 
ROOT
HETATM    1  C1  UNL     1     -35.125  15.737  -7.891  1.00 20.00    -0.030 C 
HETATM    2  C2  UNL     1     -34.445  16.721  -7.288  1.00 20.00    -0.028 C 
HETATM    3  C5  UNL     1     -35.470  14.445  -7.215  1.00 20.00     0.030 C 
HETATM    4  C6  UNL     1     -33.982  16.653  -5.860  1.00 20.00     0.065 C 
HETATM    5  C7  UNL     1     -34.705  14.226  -5.903  1.00 20.00     0.042 C 
HETATM    6  C8  UNL     1     -34.630  15.506  -5.059  1.00 20.00     0.068 C 
ENDROOT
BRANCH   6   7
HETATM    7  C10 UNL     1     -33.861  15.253  -3.760  1.00 20.00     0.038 C 
HETATM    8  C9  UNL     1     -33.361  13.809  -3.707  1.00 20.00     0.017 C 
BRANCH   7   9
HETATM    9  C4  UNL     1     -34.738  15.546  -2.571  1.00 20.00    -0.030 C 
HETATM   10  C3  UNL     1     -34.414  16.404  -1.598  1.00 20.00     0.007 C 
ENDBRANCH   7   9
ENDBRANCH   6   7
BRANCH   6  11
HETATM   11  O11 UNL     1     -35.965  15.882  -4.702  1.00 20.00    -0.389 OA
HETATM   12  H27 UNL     1     -36.070  15.653  -3.769  1.00 20.00     0.210 HD
ENDBRANCH   6  11
TORSDOF 3
ENDMDL
MODEL 9
REMARK VINA RESULT:      -4.3      1.943      4.093
REMARK  3 active torsions:
REMARK  status: ('A' for Active; 'I' for Inactive)
REMARK    1  A    between atoms: C4_4  and  C10_10 
REMARK    2  A    between atoms: C8_8  and  C10_10 
REMARK    3  A    between atoms: C8_8  and  O11_11 
ROOT
HETATM    1  C1  UNL     1     -35.243  17.438  -1.596  1.00 20.00    -0.030 C 
HETATM    2  C2  UNL     1     -34.519  16.312  -1.565  1.00 20.00    -0.028 C 
HETATM    3  C5  UNL     1     -36.152  17.798  -2.732  1.00 20.00     0.030 C 
HETATM    4  C6  UNL     1     -34.560  15.271  -2.649  1.00 20.00     0.065 C 
HETATM    5  C7  UNL     1     -35.931  16.934  -3.981  1.00 20.00     0.042 C 
HETATM    6  C8  UNL     1     -35.737  15.452  -3.629  1.00 20.00     0.068 C 
ENDROOT
BRANCH   6   7
HETATM    7  C10 UNL     1     -35.518  14.620  -4.895  1.00 20.00     0.038 C 
HETATM    8  C9  UNL     1     -34.959  13.242  -4.539  1.00 20.00     0.017 C 
BRANCH   7   9
HETATM    9  C4  UNL     1     -34.583  15.337  -5.834  1.00 20.00    -0.030 C 
HETATM   10  C3  UNL     1     -34.442  15.027  -7.127  1.00 20.00     0.007 C 
ENDBRANCH   7   9
ENDBRANCH   6   7
BRANCH   6  11
HETATM   11  O11 UNL     1     -36.939  14.982  -3.007  1.00 20.00    -0.389 OA
HETATM   12  H27 UNL     1     -36.912  14.017  -3.065  1.00 20.00     0.210 HD
ENDBRANCH   6  11
TORSDOF 3
ENDMDL
