MODEL 1
REMARK VINA RESULT:      -4.0      0.000      0.000
REMARK  1 active torsions:
REMARK  status: ('A' for Active; 'I' for Inactive)
REMARK    1  A    between atoms: C2_2  and  C5_5 
ROOT
HETATM    1  C1  UNL     1     -33.228   6.162   3.421  1.00 20.00     0.153 A 
HETATM    2  C2  UNL     1     -34.121   5.943   4.628  1.00 20.00     0.096 A 
HETATM    3  C3  UNL     1     -31.968   6.951   3.468  1.00 20.00     0.042 C 
HETATM    4  C4  UNL     1     -33.781   6.519   5.966  1.00 20.00     0.050 C 
HETATM    5  O6  UNL     1     -34.423   6.927   3.626  1.00 20.00    -0.369 OA
ENDROOT
BRANCH   2   6
HETATM    6  C5  UNL     1     -35.056   4.773   4.624  1.00 20.00     0.154 C 
HETATM    7 CL7  UNL     1     -35.259   4.112   6.268  1.00 20.00    -0.127 Cl
ENDBRANCH   2   6
TORSDOF 1
ENDMDL
MODEL 2
REMARK VINA RESULT:      -3.6      2.495      3.473
REMARK  1 active torsions:
REMARK  status: ('A' for Active; 'I' for Inactive)
REMARK    1  A    between atoms: C2_2  and  C5_5 
ROOT
HETATM    1  C1  UNL     1     -33.882   5.122   5.560  1.00 20.00     0.153 A 
HETATM    2  C2  UNL     1     -33.815   5.794   4.202  1.00 20.00     0.096 A 
HETATM    3  C3  UNL     1     -35.065   4.358   6.039  1.00 20.00     0.042 C 
HETATM    4  C4  UNL     1     -34.960   5.726   3.241  1.00 20.00     0.050 C 
HETATM    5  O6  UNL     1     -34.101   6.530   5.402  1.00 20.00    -0.369 OA
ENDROOT
BRANCH   2   6
HETATM    6  C5  UNL     1     -32.470   6.095   3.617  1.00 20.00     0.154 C 
HETATM    7 CL7  UNL     1     -32.533   7.544   2.580  1.00 20.00    -0.127 Cl
ENDBRANCH   2   6
TORSDOF 1
ENDMDL
MODEL 3
REMARK VINA RESULT:      -3.5      1.386      2.020
REMARK  1 active torsions:
REMARK  status: ('A' for Active; 'I' for Inactive)
REMARK    1  A    between atoms: C2_2  and  C5_5 
ROOT
HETATM    1  C1  UNL     1     -32.397   7.197   3.490  1.00 20.00     0.153 A 
HETATM    2  C2  UNL     1     -33.429   6.118   3.760  1.00 20.00     0.096 A 
HETATM    3  C3  UNL     1     -32.191   7.818   2.155  1.00 20.00     0.042 C 
HETATM    4  C4  UNL     1     -34.323   5.606   2.675  1.00 20.00     0.050 C 
HETATM    5  O6  UNL     1     -32.039   5.811   3.568  1.00 20.00    -0.369 OA
ENDROOT
BRANCH   2   6
HETATM    6  C5  UNL     1     -33.903   5.916   5.165  1.00 20.00     0.154 C 
HETATM    7 CL7  UNL     1     -34.943   4.472   5.288  1.00 20.00    -0.127 Cl
ENDBRANCH   2   6
TORSDOF 1
ENDMDL
MODEL 4
REMARK VINA RESULT:      -3.2     11.942     12.641
REMARK  1 active torsions:
REMARK  status: ('A' for Active; 'I' for Inactive)
REMARK    1  A    between atoms: C2_2  and  C5_5 
ROOT
HETATM    1  C1  UNL     1     -34.448  13.791  -3.522  1.00 20.00     0.153 A 
HETATM    2  C2  UNL     1     -35.396  14.066  -4.675  1.00 20.00     0.096 A 
HETATM    3  C3  UNL     1     -32.967  13.841  -3.651  1.00 20.00     0.042 C 
HETATM    4  C4  UNL     1     -34.887  14.413  -6.038  1.00 20.00     0.050 C 
HETATM    5  O6  UNL     1     -35.078  12.730  -4.253  1.00 20.00    -0.369 OA
ENDROOT
BRANCH   2   6
HETATM    6  C5  UNL     1     -36.801  14.477  -4.363  1.00 20.00     0.154 C 
HETATM    7 CL7  UNL     1     -37.531  15.351  -5.735  1.00 20.00    -0.127 Cl
ENDBRANCH   2   6
TORSDOF 1
ENDMDL
MODEL 5
REMARK VINA RESULT:      -3.2     12.522     13.351
REMARK  1 active torsions:
REMARK  status: ('A' for Active; 'I' for Inactive)
REMARK    1  A    between atoms: C2_2  and  C5_5 
ROOT
HETATM    1  C1  UNL     1     -33.815  16.484  -5.206  1.00 20.00     0.153 A 
HETATM    2  C2  UNL     1     -33.817  16.011  -3.765  1.00 20.00     0.096 A 
HETATM    3  C3  UNL     1     -34.203  15.619  -6.352  1.00 20.00     0.042 C 
HETATM    4  C4  UNL     1     -34.218  14.617  -3.402  1.00 20.00     0.050 C 
HETATM    5  O6  UNL     1     -32.609  16.091  -4.539  1.00 20.00    -0.369 OA
ENDROOT
BRANCH   2   6
HETATM    6  C5  UNL     1     -33.903  17.035  -2.675  1.00 20.00     0.154 C 
HETATM    7 CL7  UNL     1     -34.621  16.339  -1.199  1.00 20.00    -0.127 Cl
ENDBRANCH   2   6
TORSDOF 1
ENDMDL
MODEL 6
REMARK VINA RESULT:      -3.2      3.207      4.128
REMARK  1 active torsions:
REMARK  status: ('A' for Active; 'I' for Inactive)
REMARK    1  A    between atoms: C2_2  and  C5_5 
ROOT
HETATM    1  C1  UNL     1     -33.347   6.513   3.345  1.00 20.00     0.153 A 
HETATM    2  C2  UNL     1     -32.106   7.337   3.057  1.00 20.00     0.096 A 
HETATM    3  C3  UNL     1     -33.823   6.203   4.720  1.00 20.00     0.042 C 
HETATM    4  C4  UNL     1     -31.270   7.902   4.162  1.00 20.00     0.050 C 
HETATM    5  O6  UNL     1     -32.099   5.902   2.991  1.00 20.00    -0.369 OA
ENDROOT
BRANCH   2   6
HETATM    6  C5  UNL     1     -31.983   8.002   1.721  1.00 20.00     0.154 C 
HETATM    7 CL7  UNL     1     -32.551   9.691   1.792  1.00 20.00    -0.127 Cl
ENDBRANCH   2   6
TORSDOF 1
ENDMDL
MODEL 7
REMARK VINA RESULT:      -3.2     12.066     12.324
REMARK  1 active torsions:
REMARK  status: ('A' for Active; 'I' for Inactive)
REMARK    1  A    between atoms: C2_2  and  C5_5 
ROOT
HETATM    1  C1  UNL     1     -34.132  14.259  -4.719  1.00 20.00     0.153 A 
HETATM    2  C2  UNL     1     -34.711  14.908  -3.475  1.00 20.00     0.096 A 
HETATM    3  C3  UNL     1     -34.962  13.794  -5.861  1.00 20.00     0.042 C 
HETATM    4  C4  UNL     1     -36.183  15.125  -3.322  1.00 20.00     0.050 C 
HETATM    5  O6  UNL     1     -34.322  13.526  -3.502  1.00 20.00    -0.369 OA
ENDROOT
BRANCH   2   6
HETATM    6  C5  UNL     1     -33.819  15.769  -2.635  1.00 20.00     0.154 C 
HETATM    7 CL7  UNL     1     -34.675  16.352  -1.184  1.00 20.00    -0.127 Cl
ENDBRANCH   2   6
TORSDOF 1
ENDMDL
MODEL 8
REMARK VINA RESULT:      -3.1     12.651     13.340
REMARK  1 active torsions:
REMARK  status: ('A' for Active; 'I' for Inactive)
REMARK    1  A    between atoms: C2_2  and  C5_5 
ROOT
HETATM    1  C1  UNL     1     -34.454  15.052  -3.176  1.00 20.00     0.153 A 
HETATM    2  C2  UNL     1     -33.975  15.171  -4.611  1.00 20.00     0.096 A 
HETATM    3  C3  UNL     1     -34.287  16.129  -2.165  1.00 20.00     0.042 C 
HETATM    4  C4  UNL     1     -33.293  16.408  -5.105  1.00 20.00     0.050 C 
HETATM    5  O6  UNL     1     -33.230  14.449  -3.618  1.00 20.00    -0.369 OA
ENDROOT
BRANCH   2   6
HETATM    6  C5  UNL     1     -34.602  14.295  -5.650  1.00 20.00     0.154 C 
HETATM    7 CL7  UNL     1     -34.353  14.962  -7.285  1.00 20.00    -0.127 Cl
ENDBRANCH   2   6
TORSDOF 1
ENDMDL
MODEL 9
REMARK VINA RESULT:      -3.1      2.073      2.557
REMARK  1 active torsions:
REMARK  status: ('A' for Active; 'I' for Inactive)
REMARK    1  A    between atoms: C2_2  and  C5_5 
ROOT
HETATM    1  C1  UNL     1     -34.346   6.078   3.991  1.00 20.00     0.153 A 
HETATM    2  C2  UNL     1     -34.373   5.339   5.316  1.00 20.00     0.096 A 
HETATM    3  C3  UNL     1     -34.666   5.435   2.688  1.00 20.00     0.042 C 
HETATM    4  C4  UNL     1     -34.733   3.889   5.393  1.00 20.00     0.050 C 
HETATM    5  O6  UNL     1     -33.147   5.602   4.616  1.00 20.00    -0.369 OA
ENDROOT
BRANCH   2   6
HETATM    6  C5  UNL     1     -34.530   6.133   6.575  1.00 20.00     0.154 C 
HETATM    7 CL7  UNL     1     -33.186   7.287   6.776  1.00 20.00    -0.127 Cl
ENDBRANCH   2   6
TORSDOF 1
ENDMDL
