MODEL 1
REMARK VINA RESULT:      -4.2      0.000      0.000
REMARK  2 active torsions:
REMARK  status: ('A' for Active; 'I' for Inactive)
REMARK    1  A    between atoms: C2_2  and  C4_4 
REMARK    2  A    between atoms: C3_3  and  C5_5 
ROOT
HETATM    1  C1  UNL     1     -40.813   4.053  -1.567  1.00 20.00     0.133 A 
HETATM    2  C2  UNL     1     -41.901   3.800  -2.375  1.00 20.00     0.016 A 
HETATM    3  C3  UNL     1     -41.693   6.062  -1.577  1.00 20.00     0.181 A 
HETATM    4  N6  UNL     1     -40.691   5.351  -1.108  1.00 20.00    -0.248 NA
HETATM    5  S10 UNL     1     -42.817   5.236  -2.575  1.00 20.00    -0.068 SA
ENDROOT
BRANCH   3   6
HETATM    6  C5  UNL     1     -41.900   7.501  -1.298  1.00 20.00     0.441 C 
HETATM    7  F7  UNL     1     -42.937   7.760  -0.440  1.00 20.00    -0.164 F 
HETATM    8  F8  UNL     1     -40.819   8.121  -0.729  1.00 20.00    -0.164 F 
HETATM    9  F9  UNL     1     -42.178   8.231  -2.423  1.00 20.00    -0.164 F 
ENDBRANCH   3   6
BRANCH   2  10
HETATM   10  C4  UNL     1     -42.324   2.544  -3.026  1.00 20.00     0.162 C 
HETATM   11 CL11 UNL     1     -41.003   1.849  -4.002  1.00 20.00    -0.125 Cl
ENDBRANCH   2  10
TORSDOF 2
ENDMDL
MODEL 2
REMARK VINA RESULT:      -4.1     10.188     10.938
REMARK  2 active torsions:
REMARK  status: ('A' for Active; 'I' for Inactive)
REMARK    1  A    between atoms: C2_2  and  C4_4 
REMARK    2  A    between atoms: C3_3  and  C5_5 
ROOT
HETATM    1  C1  UNL     1     -33.688   5.931   2.587  1.00 20.00     0.133 A 
HETATM    2  C2  UNL     1     -32.780   6.862   3.047  1.00 20.00     0.016 A 
HETATM    3  C3  UNL     1     -34.015   5.675   4.740  1.00 20.00     0.181 A 
HETATM    4  N6  UNL     1     -34.397   5.249   3.557  1.00 20.00    -0.248 NA
HETATM    5  S10 UNL     1     -32.807   6.893   4.762  1.00 20.00    -0.068 SA
ENDROOT
BRANCH   3   6
HETATM    6  C5  UNL     1     -34.554   5.174   6.025  1.00 20.00     0.441 C 
HETATM    7  F7  UNL     1     -35.713   4.453   5.901  1.00 20.00    -0.164 F 
HETATM    8  F8  UNL     1     -33.701   4.342   6.702  1.00 20.00    -0.164 F 
HETATM    9  F9  UNL     1     -34.851   6.176   6.909  1.00 20.00    -0.164 F 
ENDBRANCH   3   6
BRANCH   2  10
HETATM   10  C4  UNL     1     -31.873   7.751   2.295  1.00 20.00     0.162 C 
HETATM   11 CL11 UNL     1     -32.676   9.288   1.879  1.00 20.00    -0.125 Cl
ENDBRANCH   2  10
TORSDOF 2
ENDMDL
MODEL 3
REMARK VINA RESULT:      -4.1     12.192     13.390
REMARK  2 active torsions:
REMARK  status: ('A' for Active; 'I' for Inactive)
REMARK    1  A    between atoms: C2_2  and  C4_4 
REMARK    2  A    between atoms: C3_3  and  C5_5 
ROOT
HETATM    1  C1  UNL     1     -33.570  17.107  -4.573  1.00 20.00     0.133 A 
HETATM    2  C2  UNL     1     -33.886  17.060  -3.231  1.00 20.00     0.016 A 
HETATM    3  C3  UNL     1     -34.352  15.060  -4.489  1.00 20.00     0.181 A 
HETATM    4  N6  UNL     1     -33.836  15.961  -5.296  1.00 20.00    -0.248 NA
HETATM    5  S10 UNL     1     -34.545  15.523  -2.849  1.00 20.00    -0.068 SA
ENDROOT
BRANCH   3   6
HETATM    6  C5  UNL     1     -34.766  13.702  -4.906  1.00 20.00     0.441 C 
HETATM    7  F7  UNL     1     -35.807  13.187  -4.178  1.00 20.00    -0.164 F 
HETATM    8  F8  UNL     1     -35.185  13.621  -6.209  1.00 20.00    -0.164 F 
HETATM    9  F9  UNL     1     -33.763  12.777  -4.797  1.00 20.00    -0.164 F 
ENDBRANCH   3   6
BRANCH   2  10
HETATM   10  C4  UNL     1     -33.733  18.092  -2.187  1.00 20.00     0.162 C 
HETATM   11 CL11 UNL     1     -34.024  17.413  -0.563  1.00 20.00    -0.125 Cl
ENDBRANCH   2  10
TORSDOF 2
ENDMDL
MODEL 4
REMARK VINA RESULT:      -4.1     12.153     13.353
REMARK  2 active torsions:
REMARK  status: ('A' for Active; 'I' for Inactive)
REMARK    1  A    between atoms: C2_2  and  C4_4 
REMARK    2  A    between atoms: C3_3  and  C5_5 
ROOT
HETATM    1  C1  UNL     1     -33.568  17.071  -4.545  1.00 20.00     0.133 A 
HETATM    2  C2  UNL     1     -33.899  17.010  -3.208  1.00 20.00     0.016 A 
HETATM    3  C3  UNL     1     -34.359  15.026  -4.492  1.00 20.00     0.181 A 
HETATM    4  N6  UNL     1     -33.831  15.933  -5.284  1.00 20.00    -0.248 NA
HETATM    5  S10 UNL     1     -34.568  15.472  -2.849  1.00 20.00    -0.068 SA
ENDROOT
BRANCH   3   6
HETATM    6  C5  UNL     1     -34.773  13.673  -4.928  1.00 20.00     0.441 C 
HETATM    7  F7  UNL     1     -35.204  13.612  -6.228  1.00 20.00    -0.164 F 
HETATM    8  F8  UNL     1     -33.779  12.732  -4.850  1.00 20.00    -0.164 F 
HETATM    9  F9  UNL     1     -35.805  13.163  -4.187  1.00 20.00    -0.164 F 
ENDBRANCH   3   6
BRANCH   2  10
HETATM   10  C4  UNL     1     -33.753  18.030  -2.151  1.00 20.00     0.162 C 
HETATM   11 CL11 UNL     1     -34.114  17.348  -0.543  1.00 20.00    -0.125 Cl
ENDBRANCH   2  10
TORSDOF 2
ENDMDL
MODEL 5
REMARK VINA RESULT:      -4.1     10.029     10.776
REMARK  2 active torsions:
REMARK  status: ('A' for Active; 'I' for Inactive)
REMARK    1  A    between atoms: C2_2  and  C4_4 
REMARK    2  A    between atoms: C3_3  and  C5_5 
ROOT
HETATM    1  C1  UNL     1     -32.474   7.328   4.586  1.00 20.00     0.133 A 
HETATM    2  C2  UNL     1     -32.550   7.075   3.232  1.00 20.00     0.016 A 
HETATM    3  C3  UNL     1     -34.028   5.781   4.625  1.00 20.00     0.181 A 
HETATM    4  N6  UNL     1     -33.321   6.587   5.386  1.00 20.00    -0.248 NA
HETATM    5  S10 UNL     1     -33.726   5.861   2.938  1.00 20.00    -0.068 SA
ENDROOT
BRANCH   3   6
HETATM    6  C5  UNL     1     -35.045   4.830   5.129  1.00 20.00     0.441 C 
HETATM    7  F7  UNL     1     -34.655   3.517   5.079  1.00 20.00    -0.164 F 
HETATM    8  F8  UNL     1     -35.400   5.035   6.437  1.00 20.00    -0.164 F 
HETATM    9  F9  UNL     1     -36.220   4.880   4.428  1.00 20.00    -0.164 F 
ENDBRANCH   3   6
BRANCH   2  10
HETATM   10  C4  UNL     1     -31.800   7.679   2.113  1.00 20.00     0.162 C 
HETATM   11 CL11 UNL     1     -32.448   9.289   1.699  1.00 20.00    -0.125 Cl
ENDBRANCH   2  10
TORSDOF 2
ENDMDL
MODEL 6
REMARK VINA RESULT:      -4.1     12.588     13.358
REMARK  2 active torsions:
REMARK  status: ('A' for Active; 'I' for Inactive)
REMARK    1  A    between atoms: C2_2  and  C4_4 
REMARK    2  A    between atoms: C3_3  and  C5_5 
ROOT
HETATM    1  C1  UNL     1     -33.674  16.508  -4.904  1.00 20.00     0.133 A 
HETATM    2  C2  UNL     1     -34.341  15.307  -4.781  1.00 20.00     0.016 A 
HETATM    3  C3  UNL     1     -34.152  16.612  -2.766  1.00 20.00     0.181 A 
HETATM    4  N6  UNL     1     -33.565  17.259  -3.749  1.00 20.00    -0.248 NA
HETATM    5  S10 UNL     1     -34.856  15.098  -3.158  1.00 20.00    -0.068 SA
ENDROOT
BRANCH   3   6
HETATM    6  C5  UNL     1     -34.237  17.106  -1.373  1.00 20.00     0.441 C 
HETATM    7  F7  UNL     1     -34.750  16.194  -0.487  1.00 20.00    -0.164 F 
HETATM    8  F8  UNL     1     -33.030  17.469  -0.834  1.00 20.00    -0.164 F 
HETATM    9  F9  UNL     1     -35.032  18.213  -1.244  1.00 20.00    -0.164 F 
ENDBRANCH   3   6
BRANCH   2  10
HETATM   10  C4  UNL     1     -34.632  14.278  -5.799  1.00 20.00     0.162 C 
HETATM   11 CL11 UNL     1     -34.417  14.925  -7.447  1.00 20.00    -0.125 Cl
ENDBRANCH   2  10
TORSDOF 2
ENDMDL
MODEL 7
REMARK VINA RESULT:      -4.0      3.318      4.017
REMARK  2 active torsions:
REMARK  status: ('A' for Active; 'I' for Inactive)
REMARK    1  A    between atoms: C2_2  and  C4_4 
REMARK    2  A    between atoms: C3_3  and  C5_5 
ROOT
HETATM    1  C1  UNL     1     -43.081   5.867  -3.367  1.00 20.00     0.133 A 
HETATM    2  C2  UNL     1     -42.785   7.202  -3.184  1.00 20.00     0.016 A 
HETATM    3  C3  UNL     1     -41.747   5.676  -1.637  1.00 20.00     0.181 A 
HETATM    4  N6  UNL     1     -42.486   4.990  -2.480  1.00 20.00    -0.248 NA
HETATM    5  S10 UNL     1     -41.721   7.378  -1.851  1.00 20.00    -0.068 SA
ENDROOT
BRANCH   3   6
HETATM    6  C5  UNL     1     -40.955   5.078  -0.539  1.00 20.00     0.441 C 
HETATM    7  F7  UNL     1     -41.708   4.421   0.400  1.00 20.00    -0.164 F 
HETATM    8  F8  UNL     1     -40.037   4.148  -0.955  1.00 20.00    -0.164 F 
HETATM    9  F9  UNL     1     -40.231   6.001   0.167  1.00 20.00    -0.164 F 
ENDBRANCH   3   6
BRANCH   2  10
HETATM   10  C4  UNL     1     -43.243   8.384  -3.940  1.00 20.00     0.162 C 
HETATM   11 CL11 UNL     1     -41.978   8.963  -5.057  1.00 20.00    -0.125 Cl
ENDBRANCH   2  10
TORSDOF 2
ENDMDL
MODEL 8
REMARK VINA RESULT:      -3.9     12.084     12.687
REMARK  2 active torsions:
REMARK  status: ('A' for Active; 'I' for Inactive)
REMARK    1  A    between atoms: C2_2  and  C4_4 
REMARK    2  A    between atoms: C3_3  and  C5_5 
ROOT
HETATM    1  C1  UNL     1     -36.271  14.945  -3.891  1.00 20.00     0.133 A 
HETATM    2  C2  UNL     1     -35.053  14.633  -4.457  1.00 20.00     0.016 A 
HETATM    3  C3  UNL     1     -34.971  16.027  -2.496  1.00 20.00     0.181 A 
HETATM    4  N6  UNL     1     -36.226  15.745  -2.766  1.00 20.00    -0.248 NA
HETATM    5  S10 UNL     1     -33.793  15.365  -3.553  1.00 20.00    -0.068 SA
ENDROOT
BRANCH   3   6
HETATM    6  C5  UNL     1     -34.527  16.864  -1.359  1.00 20.00     0.441 C 
HETATM    7  F7  UNL     1     -33.174  17.082  -1.320  1.00 20.00    -0.164 F 
HETATM    8  F8  UNL     1     -35.078  18.119  -1.340  1.00 20.00    -0.164 F 
HETATM    9  F9  UNL     1     -34.835  16.322  -0.140  1.00 20.00    -0.164 F 
ENDBRANCH   3   6
BRANCH   2  10
HETATM   10  C4  UNL     1     -34.745  13.813  -5.646  1.00 20.00     0.162 C 
HETATM   11 CL11 UNL     1     -34.369  14.839  -7.056  1.00 20.00    -0.125 Cl
ENDBRANCH   2  10
TORSDOF 2
ENDMDL
MODEL 9
REMARK VINA RESULT:      -3.9     12.515     13.566
REMARK  2 active torsions:
REMARK  status: ('A' for Active; 'I' for Inactive)
REMARK    1  A    between atoms: C2_2  and  C4_4 
REMARK    2  A    between atoms: C3_3  and  C5_5 
ROOT
HETATM    1  C1  UNL     1     -34.903  15.204  -7.230  1.00 20.00     0.133 A 
HETATM    2  C2  UNL     1     -34.443  16.459  -6.892  1.00 20.00     0.016 A 
HETATM    3  C3  UNL     1     -34.303  14.790  -5.161  1.00 20.00     0.181 A 
HETATM    4  N6  UNL     1     -34.823  14.245  -6.239  1.00 20.00    -0.248 NA
HETATM    5  S10 UNL     1     -33.886  16.451  -5.269  1.00 20.00    -0.068 SA
ENDROOT
BRANCH   3   6
HETATM    6  C5  UNL     1     -34.062  14.070  -3.891  1.00 20.00     0.441 C 
HETATM    7  F7  UNL     1     -34.240  14.839  -2.770  1.00 20.00    -0.164 F 
HETATM    8  F8  UNL     1     -34.880  12.987  -3.700  1.00 20.00    -0.164 F 
HETATM    9  F9  UNL     1     -32.788  13.577  -3.786  1.00 20.00    -0.164 F 
ENDBRANCH   3   6
BRANCH   2  10
HETATM   10  C4  UNL     1     -34.383  17.694  -7.699  1.00 20.00     0.162 C 
HETATM   11 CL11 UNL     1     -33.627  19.026  -6.785  1.00 20.00    -0.125 Cl
ENDBRANCH   2  10
TORSDOF 2
ENDMDL
