MODEL 1
REMARK VINA RESULT:      -3.9      0.000      0.000
REMARK  3 active torsions:
REMARK  status: ('A' for Active; 'I' for Inactive)
REMARK    1  A    between atoms: C2_2  and  C3_3 
REMARK    2  A    between atoms: C3_3  and  N8_8 
REMARK    3  A    between atoms: C7_7  and  N8_8 
ROOT
HETATM    1  C3  UNL     1     -34.022   6.389   5.093  1.00 20.00     0.102 C 
HETATM    2  S9  UNL     1     -33.572   6.982   6.603  1.00 20.00    -0.060 SA
ENDROOT
BRANCH   1   3
HETATM    3  C2  UNL     1     -34.894   5.195   4.909  1.00 20.00    -0.034 C 
HETATM    4  C1  UNL     1     -35.690   5.172   3.832  1.00 20.00     0.021 C 
HETATM    5  C4  UNL     1     -34.839   4.115   5.941  1.00 20.00     0.050 C 
ENDBRANCH   1   3
BRANCH   1   6
HETATM    6  N8  UNL     1     -33.569   7.015   3.951  1.00 20.00    -0.377 N 
HETATM    7  H22 UNL     1     -34.233   7.616   3.472  1.00 20.00     0.160 HD
BRANCH   6   8
HETATM    8  C7  UNL     1     -32.242   6.926   3.374  1.00 20.00     0.074 C 
HETATM    9  C5  UNL     1     -32.099   7.986   2.289  1.00 20.00     0.031 C 
HETATM   10  C6  UNL     1     -32.037   5.523   2.822  1.00 20.00     0.031 C 
ENDBRANCH   6   8
ENDBRANCH   1   6
TORSDOF 3
ENDMDL
MODEL 2
REMARK VINA RESULT:      -3.7      1.777      2.271
REMARK  3 active torsions:
REMARK  status: ('A' for Active; 'I' for Inactive)
REMARK    1  A    between atoms: C2_2  and  C3_3 
REMARK    2  A    between atoms: C3_3  and  N8_8 
REMARK    3  A    between atoms: C7_7  and  N8_8 
ROOT
HETATM    1  C3  UNL     1     -33.986   5.992   4.058  1.00 20.00     0.102 C 
HETATM    2  S9  UNL     1     -34.465   5.015   2.773  1.00 20.00    -0.060 SA
ENDROOT
BRANCH   1   3
HETATM    3  C2  UNL     1     -34.280   5.671   5.483  1.00 20.00    -0.034 C 
HETATM    4  C1  UNL     1     -33.950   6.587   6.403  1.00 20.00     0.021 C 
HETATM    5  C4  UNL     1     -34.903   4.349   5.794  1.00 20.00     0.050 C 
ENDBRANCH   1   3
BRANCH   1   6
HETATM    6  N8  UNL     1     -33.294   7.157   3.809  1.00 20.00    -0.377 N 
HETATM    7  H22 UNL     1     -33.730   8.018   4.124  1.00 20.00     0.160 HD
BRANCH   6   8
HETATM    8  C7  UNL     1     -31.999   7.285   3.167  1.00 20.00     0.074 C 
HETATM    9  C5  UNL     1     -30.988   7.799   4.183  1.00 20.00     0.031 C 
HETATM   10  C6  UNL     1     -32.130   8.225   1.978  1.00 20.00     0.031 C 
ENDBRANCH   6   8
ENDBRANCH   1   6
TORSDOF 3
ENDMDL
MODEL 3
REMARK VINA RESULT:      -3.7     12.131     13.834
REMARK  3 active torsions:
REMARK  status: ('A' for Active; 'I' for Inactive)
REMARK    1  A    between atoms: C2_2  and  C3_3 
REMARK    2  A    between atoms: C3_3  and  N8_8 
REMARK    3  A    between atoms: C7_7  and  N8_8 
ROOT
HETATM    1  C3  UNL     1     -33.762  16.556  -5.553  1.00 20.00     0.102 C 
HETATM    2  S9  UNL     1     -33.661  18.236  -5.508  1.00 20.00    -0.060 SA
ENDROOT
BRANCH   1   3
HETATM    3  C2  UNL     1     -34.830  15.820  -6.287  1.00 20.00    -0.034 C 
HETATM    4  C1  UNL     1     -34.447  14.991  -7.266  1.00 20.00     0.021 C 
HETATM    5  C4  UNL     1     -36.252  16.067  -5.897  1.00 20.00     0.050 C 
ENDBRANCH   1   3
BRANCH   1   6
HETATM    6  N8  UNL     1     -32.829  15.798  -4.881  1.00 20.00    -0.377 N 
HETATM    7  H22 UNL     1     -31.921  15.702  -5.324  1.00 20.00     0.160 HD
BRANCH   6   8
HETATM    8  C7  UNL     1     -32.996  15.142  -3.598  1.00 20.00     0.074 C 
HETATM    9  C5  UNL     1     -33.482  13.717  -3.826  1.00 20.00     0.031 C 
HETATM   10  C6  UNL     1     -33.979  15.944  -2.759  1.00 20.00     0.031 C 
ENDBRANCH   6   8
ENDBRANCH   1   6
TORSDOF 3
ENDMDL
MODEL 4
REMARK VINA RESULT:      -3.6     11.847     12.766
REMARK  3 active torsions:
REMARK  status: ('A' for Active; 'I' for Inactive)
REMARK    1  A    between atoms: C2_2  and  C3_3 
REMARK    2  A    between atoms: C3_3  and  N8_8 
REMARK    3  A    between atoms: C7_7  and  N8_8 
ROOT
HETATM    1  C3  UNL     1     -33.779  17.194  -2.508  1.00 20.00     0.102 C 
HETATM    2  S9  UNL     1     -33.928  18.333  -3.739  1.00 20.00    -0.060 SA
ENDROOT
BRANCH   1   3
HETATM    3  C2  UNL     1     -33.848  17.540  -1.061  1.00 20.00    -0.034 C 
HETATM    4  C1  UNL     1     -34.761  16.903  -0.316  1.00 20.00     0.021 C 
HETATM    5  C4  UNL     1     -32.912  18.582  -0.539  1.00 20.00     0.050 C 
ENDBRANCH   1   3
BRANCH   1   6
HETATM    6  N8  UNL     1     -33.574  15.869  -2.826  1.00 20.00    -0.377 N 
HETATM    7  H22 UNL     1     -32.851  15.385  -2.301  1.00 20.00     0.160 HD
BRANCH   6   8
HETATM    8  C7  UNL     1     -34.294  15.084  -3.810  1.00 20.00     0.074 C 
HETATM    9  C5  UNL     1     -35.759  14.997  -3.403  1.00 20.00     0.031 C 
HETATM   10  C6  UNL     1     -33.654  13.707  -3.906  1.00 20.00     0.031 C 
ENDBRANCH   6   8
ENDBRANCH   1   6
TORSDOF 3
ENDMDL
MODEL 5
REMARK VINA RESULT:      -3.5     11.488     12.321
REMARK  3 active torsions:
REMARK  status: ('A' for Active; 'I' for Inactive)
REMARK    1  A    between atoms: C2_2  and  C3_3 
REMARK    2  A    between atoms: C3_3  and  N8_8 
REMARK    3  A    between atoms: C7_7  and  N8_8 
ROOT
HETATM    1  C3  UNL     1     -35.671  14.868  -3.486  1.00 20.00     0.102 C 
HETATM    2  S9  UNL     1     -37.293  15.054  -3.899  1.00 20.00    -0.060 SA
ENDROOT
BRANCH   1   3
HETATM    3  C2  UNL     1     -34.682  14.165  -4.350  1.00 20.00    -0.034 C 
HETATM    4  C1  UNL     1     -35.020  13.955  -5.629  1.00 20.00     0.021 C 
HETATM    5  C4  UNL     1     -33.393  13.726  -3.735  1.00 20.00     0.050 C 
ENDBRANCH   1   3
BRANCH   1   6
HETATM    6  N8  UNL     1     -35.209  15.373  -2.290  1.00 20.00    -0.377 N 
HETATM    7  H22 UNL     1     -34.971  14.694  -1.574  1.00 20.00     0.160 HD
BRANCH   6   8
HETATM    8  C7  UNL     1     -35.004  16.769  -1.951  1.00 20.00     0.074 C 
HETATM    9  C5  UNL     1     -33.867  17.325  -2.799  1.00 20.00     0.031 C 
HETATM   10  C6  UNL     1     -34.700  16.875  -0.464  1.00 20.00     0.031 C 
ENDBRANCH   6   8
ENDBRANCH   1   6
TORSDOF 3
ENDMDL
MODEL 6
REMARK VINA RESULT:      -3.5     11.562     12.566
REMARK  3 active torsions:
REMARK  status: ('A' for Active; 'I' for Inactive)
REMARK    1  A    between atoms: C2_2  and  C3_3 
REMARK    2  A    between atoms: C3_3  and  N8_8 
REMARK    3  A    between atoms: C7_7  and  N8_8 
ROOT
HETATM    1  C3  UNL     1     -33.787  15.722  -3.889  1.00 20.00     0.102 C 
HETATM    2  S9  UNL     1     -33.423  16.652  -5.244  1.00 20.00    -0.060 SA
ENDROOT
BRANCH   1   3
HETATM    3  C2  UNL     1     -34.090  14.264  -3.955  1.00 20.00    -0.034 C 
HETATM    4  C1  UNL     1     -33.122  13.415  -3.588  1.00 20.00     0.021 C 
HETATM    5  C4  UNL     1     -35.441  13.846  -4.440  1.00 20.00     0.050 C 
ENDBRANCH   1   3
BRANCH   1   6
HETATM    6  N8  UNL     1     -33.823  16.313  -2.645  1.00 20.00    -0.377 N 
HETATM    7  H22 UNL     1     -32.962  16.744  -2.324  1.00 20.00     0.160 HD
BRANCH   6   8
HETATM    8  C7  UNL     1     -34.964  16.406  -1.753  1.00 20.00     0.074 C 
HETATM    9  C5  UNL     1     -36.039  17.262  -2.409  1.00 20.00     0.031 C 
HETATM   10  C6  UNL     1     -34.506  16.995  -0.427  1.00 20.00     0.031 C 
ENDBRANCH   6   8
ENDBRANCH   1   6
TORSDOF 3
ENDMDL
MODEL 7
REMARK VINA RESULT:      -3.5     12.116     13.054
REMARK  3 active torsions:
REMARK  status: ('A' for Active; 'I' for Inactive)
REMARK    1  A    between atoms: C2_2  and  C3_3 
REMARK    2  A    between atoms: C3_3  and  N8_8 
REMARK    3  A    between atoms: C7_7  and  N8_8 
ROOT
HETATM    1  C3  UNL     1     -34.250  14.852  -4.033  1.00 20.00     0.102 C 
HETATM    2  S9  UNL     1     -34.413  13.276  -4.603  1.00 20.00    -0.060 SA
ENDROOT
BRANCH   1   3
HETATM    3  C2  UNL     1     -35.180  15.464  -3.043  1.00 20.00    -0.034 C 
HETATM    4  C1  UNL     1     -36.491  15.411  -3.312  1.00 20.00     0.021 C 
HETATM    5  C4  UNL     1     -34.593  16.109  -1.829  1.00 20.00     0.050 C 
ENDBRANCH   1   3
BRANCH   1   6
HETATM    6  N8  UNL     1     -33.219  15.641  -4.494  1.00 20.00    -0.377 N 
HETATM    7  H22 UNL     1     -32.308  15.484  -4.075  1.00 20.00     0.160 HD
BRANCH   6   8
HETATM    8  C7  UNL     1     -33.289  16.655  -5.529  1.00 20.00     0.074 C 
HETATM    9  C5  UNL     1     -33.564  18.007  -4.885  1.00 20.00     0.031 C 
HETATM   10  C6  UNL     1     -34.379  16.272  -6.520  1.00 20.00     0.031 C 
ENDBRANCH   6   8
ENDBRANCH   1   6
TORSDOF 3
ENDMDL
MODEL 8
REMARK VINA RESULT:      -3.5     12.074     13.345
REMARK  3 active torsions:
REMARK  status: ('A' for Active; 'I' for Inactive)
REMARK    1  A    between atoms: C2_2  and  C3_3 
REMARK    2  A    between atoms: C3_3  and  N8_8 
REMARK    3  A    between atoms: C7_7  and  N8_8 
ROOT
HETATM    1  C3  UNL     1     -34.157  15.010  -4.566  1.00 20.00     0.102 C 
HETATM    2  S9  UNL     1     -34.628  13.396  -4.660  1.00 20.00    -0.060 SA
ENDROOT
BRANCH   1   3
HETATM    3  C2  UNL     1     -34.002  15.887  -5.760  1.00 20.00    -0.034 C 
HETATM    4  C1  UNL     1     -34.256  15.348  -6.960  1.00 20.00     0.021 C 
HETATM    5  C4  UNL     1     -33.558  17.298  -5.546  1.00 20.00     0.050 C 
ENDBRANCH   1   3
BRANCH   1   6
HETATM    6  N8  UNL     1     -33.886  15.572  -3.338  1.00 20.00    -0.377 N 
HETATM    7  H22 UNL     1     -32.920  15.831  -3.163  1.00 20.00     0.160 HD
BRANCH   6   8
HETATM    8  C7  UNL     1     -34.834  15.854  -2.277  1.00 20.00     0.074 C 
HETATM    9  C5  UNL     1     -36.094  16.459  -2.883  1.00 20.00     0.031 C 
HETATM   10  C6  UNL     1     -34.184  16.795  -1.274  1.00 20.00     0.031 C 
ENDBRANCH   6   8
ENDBRANCH   1   6
TORSDOF 3
ENDMDL
MODEL 9
REMARK VINA RESULT:      -3.4     11.838     12.801
REMARK  3 active torsions:
REMARK  status: ('A' for Active; 'I' for Inactive)
REMARK    1  A    between atoms: C2_2  and  C3_3 
REMARK    2  A    between atoms: C3_3  and  N8_8 
REMARK    3  A    between atoms: C7_7  and  N8_8 
ROOT
HETATM    1  C3  UNL     1     -33.766  16.259  -3.486  1.00 20.00     0.102 C 
HETATM    2  S9  UNL     1     -33.446  16.836  -5.035  1.00 20.00    -0.060 SA
ENDROOT
BRANCH   1   3
HETATM    3  C2  UNL     1     -33.998  17.148  -2.314  1.00 20.00    -0.034 C 
HETATM    4  C1  UNL     1     -33.693  18.445  -2.452  1.00 20.00     0.021 C 
HETATM    5  C4  UNL     1     -34.535  16.537  -1.060  1.00 20.00     0.050 C 
ENDBRANCH   1   3
BRANCH   1   6
HETATM    6  N8  UNL     1     -33.813  14.900  -3.260  1.00 20.00    -0.377 N 
HETATM    7  H22 UNL     1     -33.024  14.497  -2.764  1.00 20.00     0.160 HD
BRANCH   6   8
HETATM    8  C7  UNL     1     -34.878  13.989  -3.633  1.00 20.00     0.074 C 
HETATM    9  C5  UNL     1     -34.475  13.243  -4.899  1.00 20.00     0.031 C 
HETATM   10  C6  UNL     1     -36.160  14.784  -3.832  1.00 20.00     0.031 C 
ENDBRANCH   6   8
ENDBRANCH   1   6
TORSDOF 3
ENDMDL
