MODEL 1
REMARK VINA RESULT:      -3.6      0.000      0.000
REMARK  0 active torsions:
REMARK  status: ('A' for Active; 'I' for Inactive)
ROOT
HETATM    1  C1  UNL     1     -34.108  15.537  -5.412  1.00 20.00     0.282 C 
HETATM    2  C2  UNL     1     -34.619  14.959  -3.103  1.00 20.00     0.286 C 
HETATM    3  C3  UNL     1     -33.351  16.819  -5.081  1.00 20.00     0.104 C 
HETATM    4  C4  UNL     1     -33.923  16.178  -2.479  1.00 20.00     0.071 C 
HETATM    5  C5  UNL     1     -34.567  16.551  -1.146  1.00 20.00     0.023 C 
HETATM    6  C6  UNL     1     -34.582  13.259  -4.804  1.00 20.00     0.310 C 
HETATM    7  N7  UNL     1     -33.987  14.521  -4.357  1.00 20.00     0.086 N 
HETATM    8  S8  UNL     1     -34.013  17.618  -3.595  1.00 20.00    -0.161 SA
ENDROOT
TORSDOF 0
ENDMDL
MODEL 2
REMARK VINA RESULT:      -3.3      1.925      2.327
REMARK  0 active torsions:
REMARK  status: ('A' for Active; 'I' for Inactive)
ROOT
HETATM    1  C1  UNL     1     -35.569  14.203  -4.884  1.00 20.00     0.282 C 
HETATM    2  C2  UNL     1     -35.864  15.779  -3.052  1.00 20.00     0.286 C 
HETATM    3  C3  UNL     1     -34.140  13.813  -4.515  1.00 20.00     0.104 C 
HETATM    4  C4  UNL     1     -34.464  15.586  -2.452  1.00 20.00     0.071 C 
HETATM    5  C5  UNL     1     -34.007  16.844  -1.718  1.00 20.00     0.023 C 
HETATM    6  C6  UNL     1     -37.774  14.760  -4.104  1.00 20.00     0.310 C 
HETATM    7  N7  UNL     1     -36.375  14.566  -3.711  1.00 20.00     0.086 N 
HETATM    8  S8  UNL     1     -33.248  15.194  -3.753  1.00 20.00    -0.161 SA
ENDROOT
TORSDOF 0
ENDMDL
MODEL 3
REMARK VINA RESULT:      -3.3      2.256      4.035
REMARK  0 active torsions:
REMARK  status: ('A' for Active; 'I' for Inactive)
ROOT
HETATM    1  C1  UNL     1     -33.631  15.812  -3.721  1.00 20.00     0.282 C 
HETATM    2  C2  UNL     1     -34.531  16.179  -5.954  1.00 20.00     0.286 C 
HETATM    3  C3  UNL     1     -33.459  14.304  -3.877  1.00 20.00     0.104 C 
HETATM    4  C4  UNL     1     -34.473  14.707  -6.390  1.00 20.00     0.071 C 
HETATM    5  C5  UNL     1     -35.541  14.407  -7.438  1.00 20.00     0.023 C 
HETATM    6  C6  UNL     1     -33.475  17.977  -4.755  1.00 20.00     0.310 C 
HETATM    7  N7  UNL     1     -33.473  16.531  -4.993  1.00 20.00     0.086 N 
HETATM    8  S8  UNL     1     -34.725  13.598  -4.964  1.00 20.00    -0.161 SA
ENDROOT
TORSDOF 0
ENDMDL
MODEL 4
REMARK VINA RESULT:      -3.1      1.101      1.101
REMARK  0 active torsions:
REMARK  status: ('A' for Active; 'I' for Inactive)
ROOT
HETATM    1  C1  UNL     1     -35.522  15.435  -5.282  1.00 20.00     0.282 C 
HETATM    2  C2  UNL     1     -34.679  14.918  -3.057  1.00 20.00     0.286 C 
HETATM    3  C3  UNL     1     -35.399  16.949  -5.139  1.00 20.00     0.104 C 
HETATM    4  C4  UNL     1     -34.452  16.376  -2.633  1.00 20.00     0.071 C 
HETATM    5  C5  UNL     1     -34.569  16.528  -1.118  1.00 20.00     0.023 C 
HETATM    6  C6  UNL     1     -34.564  13.280  -4.815  1.00 20.00     0.310 C 
HETATM    7  N7  UNL     1     -34.508  14.711  -4.504  1.00 20.00     0.086 N 
HETATM    8  S8  UNL     1     -35.666  17.480  -3.427  1.00 20.00    -0.161 SA
ENDROOT
TORSDOF 0
ENDMDL
MODEL 5
REMARK VINA RESULT:      -3.1      1.914      2.724
REMARK  0 active torsions:
REMARK  status: ('A' for Active; 'I' for Inactive)
ROOT
HETATM    1  C1  UNL     1     -34.429  14.996  -6.201  1.00 20.00     0.282 C 
HETATM    2  C2  UNL     1     -34.586  16.602  -4.378  1.00 20.00     0.286 C 
HETATM    3  C3  UNL     1     -34.818  13.781  -5.363  1.00 20.00     0.104 C 
HETATM    4  C4  UNL     1     -34.994  15.581  -3.305  1.00 20.00     0.071 C 
HETATM    5  C5  UNL     1     -34.548  16.039  -1.919  1.00 20.00     0.023 C 
HETATM    6  C6  UNL     1     -34.790  17.328  -6.662  1.00 20.00     0.310 C 
HETATM    7  N7  UNL     1     -35.057  16.235  -5.723  1.00 20.00     0.086 N 
HETATM    8  S8  UNL     1     -34.258  13.949  -3.648  1.00 20.00    -0.161 SA
ENDROOT
TORSDOF 0
ENDMDL
MODEL 6
REMARK VINA RESULT:      -3.1      1.897      3.713
REMARK  0 active torsions:
REMARK  status: ('A' for Active; 'I' for Inactive)
ROOT
HETATM    1  C1  UNL     1     -34.599  14.325  -3.581  1.00 20.00     0.282 C 
HETATM    2  C2  UNL     1     -34.291  16.435  -4.757  1.00 20.00     0.286 C 
HETATM    3  C3  UNL     1     -34.461  13.443  -4.819  1.00 20.00     0.104 C 
HETATM    4  C4  UNL     1     -34.115  15.813  -6.150  1.00 20.00     0.071 C 
HETATM    5  C5  UNL     1     -34.561  16.784  -7.241  1.00 20.00     0.023 C 
HETATM    6  C6  UNL     1     -33.841  16.277  -2.399  1.00 20.00     0.310 C 
HETATM    7  N7  UNL     1     -33.808  15.559  -3.676  1.00 20.00     0.086 N 
HETATM    8  S8  UNL     1     -35.084  14.276  -6.303  1.00 20.00    -0.161 SA
ENDROOT
TORSDOF 0
ENDMDL
MODEL 7
REMARK VINA RESULT:      -3.1     11.899     13.106
REMARK  0 active torsions:
REMARK  status: ('A' for Active; 'I' for Inactive)
ROOT
HETATM    1  C1  UNL     1     -41.715   7.341  -1.191  1.00 20.00     0.282 C 
HETATM    2  C2  UNL     1     -42.564   5.669  -2.745  1.00 20.00     0.286 C 
HETATM    3  C3  UNL     1     -40.874   6.367  -0.371  1.00 20.00     0.104 C 
HETATM    4  C4  UNL     1     -41.826   4.479  -2.113  1.00 20.00     0.071 C 
HETATM    5  C5  UNL     1     -42.586   3.177  -2.352  1.00 20.00     0.023 C 
HETATM    6  C6  UNL     1     -42.497   7.992  -3.370  1.00 20.00     0.310 C 
HETATM    7  N7  UNL     1     -41.831   6.938  -2.599  1.00 20.00     0.086 N 
HETATM    8  S8  UNL     1     -41.626   4.719  -0.317  1.00 20.00    -0.161 SA
ENDROOT
TORSDOF 0
ENDMDL
MODEL 8
REMARK VINA RESULT:      -3.0      1.595      3.151
REMARK  0 active torsions:
REMARK  status: ('A' for Active; 'I' for Inactive)
ROOT
HETATM    1  C1  UNL     1     -34.017  17.388  -3.300  1.00 20.00     0.282 C 
HETATM    2  C2  UNL     1     -34.554  15.031  -3.006  1.00 20.00     0.286 C 
HETATM    3  C3  UNL     1     -34.363  17.434  -4.786  1.00 20.00     0.104 C 
HETATM    4  C4  UNL     1     -34.967  14.781  -4.464  1.00 20.00     0.071 C 
HETATM    5  C5  UNL     1     -34.732  13.324  -4.854  1.00 20.00     0.023 C 
HETATM    6  C6  UNL     1     -34.577  16.531  -1.124  1.00 20.00     0.310 C 
HETATM    7  N7  UNL     1     -34.827  16.408  -2.563  1.00 20.00     0.086 N 
HETATM    8  S8  UNL     1     -34.022  15.851  -5.599  1.00 20.00    -0.161 SA
ENDROOT
TORSDOF 0
ENDMDL
MODEL 9
REMARK VINA RESULT:      -3.0      1.953      2.816
REMARK  0 active torsions:
REMARK  status: ('A' for Active; 'I' for Inactive)
ROOT
HETATM    1  C1  UNL     1     -34.637  13.702  -5.269  1.00 20.00     0.282 C 
HETATM    2  C2  UNL     1     -34.444  15.999  -6.053  1.00 20.00     0.286 C 
HETATM    3  C3  UNL     1     -34.528  14.042  -3.786  1.00 20.00     0.104 C 
HETATM    4  C4  UNL     1     -34.308  16.629  -4.659  1.00 20.00     0.071 C 
HETATM    5  C5  UNL     1     -33.511  17.930  -4.725  1.00 20.00     0.023 C 
HETATM    6  C6  UNL     1     -35.500  14.327  -7.424  1.00 20.00     0.310 C 
HETATM    7  N7  UNL     1     -35.265  14.777  -6.049  1.00 20.00     0.086 N 
HETATM    8  S8  UNL     1     -33.471  15.488  -3.510  1.00 20.00    -0.161 SA
ENDROOT
TORSDOF 0
ENDMDL
