MODEL 1
REMARK VINA RESULT:      -4.3      0.000      0.000
REMARK  3 active torsions:
REMARK  status: ('A' for Active; 'I' for Inactive)
REMARK    1  A    between atoms: C2_2  and  N9_9 
REMARK    2  A    between atoms: C3_3  and  C8_8 
REMARK    3  A    between atoms: C7_7  and  C8_8 
ROOT
HETATM    1  C3  UNL     1     -33.273   5.695   4.283  1.00 20.00     0.099 C 
HETATM    2  N9  UNL     1     -33.247   6.589   3.349  1.00 20.00    -0.277 NA
ENDROOT
BRANCH   1   3
HETATM    3  C8  UNL     1     -34.583   5.192   4.886  1.00 20.00    -0.001 C 
HETATM    4  C5  UNL     1     -35.714   5.765   4.015  1.00 20.00     0.021 C 
HETATM    5  C6  UNL     1     -34.679   3.658   4.873  1.00 20.00     0.021 C 
BRANCH   3   6
HETATM    6  C7  UNL     1     -34.725   5.760   6.312  1.00 20.00     0.129 C 
HETATM    7 CL10 UNL     1     -33.589   7.093   6.657  1.00 20.00    -0.129 Cl
ENDBRANCH   3   6
ENDBRANCH   1   3
BRANCH   2   8
HETATM    8  C2  UNL     1     -32.007   6.939   2.911  1.00 20.00     0.111 C 
HETATM    9  C1  UNL     1     -31.760   8.058   2.218  1.00 20.00    -0.012 C 
HETATM   10  C4  UNL     1     -32.808   9.052   1.845  1.00 20.00     0.037 C 
ENDBRANCH   2   8
TORSDOF 3
ENDMDL
MODEL 2
REMARK VINA RESULT:      -4.1     11.646     12.462
REMARK  3 active torsions:
REMARK  status: ('A' for Active; 'I' for Inactive)
REMARK    1  A    between atoms: C2_2  and  N9_9 
REMARK    2  A    between atoms: C3_3  and  C8_8 
REMARK    3  A    between atoms: C7_7  and  C8_8 
ROOT
HETATM    1  C3  UNL     1     -34.785  15.515  -2.623  1.00 20.00     0.099 C 
HETATM    2  N9  UNL     1     -34.075  16.286  -1.866  1.00 20.00    -0.277 NA
ENDROOT
BRANCH   1   3
HETATM    3  C8  UNL     1     -34.217  14.874  -3.887  1.00 20.00    -0.001 C 
HETATM    4  C5  UNL     1     -32.697  14.762  -3.675  1.00 20.00     0.021 C 
HETATM    5  C6  UNL     1     -34.785  13.468  -4.135  1.00 20.00     0.021 C 
BRANCH   3   6
HETATM    6  C7  UNL     1     -34.478  15.813  -5.081  1.00 20.00     0.129 C 
HETATM    7 CL10 UNL     1     -34.359  14.993  -6.662  1.00 20.00    -0.129 Cl
ENDBRANCH   3   6
ENDBRANCH   1   3
BRANCH   2   8
HETATM    8  C2  UNL     1     -34.717  16.783  -0.774  1.00 20.00     0.111 C 
HETATM    9  C1  UNL     1     -34.223  17.771  -0.016  1.00 20.00    -0.012 C 
HETATM   10  C4  UNL     1     -32.916  18.442  -0.276  1.00 20.00     0.037 C 
ENDBRANCH   2   8
TORSDOF 3
ENDMDL
MODEL 3
REMARK VINA RESULT:      -4.0     11.826     12.939
REMARK  3 active torsions:
REMARK  status: ('A' for Active; 'I' for Inactive)
REMARK    1  A    between atoms: C2_2  and  N9_9 
REMARK    2  A    between atoms: C3_3  and  C8_8 
REMARK    3  A    between atoms: C7_7  and  C8_8 
ROOT
HETATM    1  C3  UNL     1     -34.078  15.952  -4.747  1.00 20.00     0.099 C 
HETATM    2  N9  UNL     1     -34.714  16.694  -3.900  1.00 20.00    -0.277 NA
ENDROOT
BRANCH   1   3
HETATM    3  C8  UNL     1     -34.795  14.927  -5.622  1.00 20.00    -0.001 C 
HETATM    4  C5  UNL     1     -36.300  15.221  -5.497  1.00 20.00     0.021 C 
HETATM    5  C6  UNL     1     -34.392  15.039  -7.101  1.00 20.00     0.021 C 
BRANCH   3   6
HETATM    6  C7  UNL     1     -34.522  13.517  -5.063  1.00 20.00     0.129 C 
HETATM    7 CL10 UNL     1     -33.303  13.499  -3.759  1.00 20.00    -0.129 Cl
ENDBRANCH   3   6
ENDBRANCH   1   3
BRANCH   2   8
HETATM    8  C2  UNL     1     -33.942  17.562  -3.190  1.00 20.00     0.111 C 
HETATM    9  C1  UNL     1     -33.849  17.541  -1.854  1.00 20.00    -0.012 C 
HETATM   10  C4  UNL     1     -34.577  16.570  -0.987  1.00 20.00     0.037 C 
ENDBRANCH   2   8
TORSDOF 3
ENDMDL
MODEL 4
REMARK VINA RESULT:      -3.9     11.577     12.569
REMARK  3 active torsions:
REMARK  status: ('A' for Active; 'I' for Inactive)
REMARK    1  A    between atoms: C2_2  and  N9_9 
REMARK    2  A    between atoms: C3_3  and  C8_8 
REMARK    3  A    between atoms: C7_7  and  C8_8 
ROOT
HETATM    1  C3  UNL     1     -34.482  15.410  -2.837  1.00 20.00     0.099 C 
HETATM    2  N9  UNL     1     -35.407  14.756  -3.461  1.00 20.00    -0.277 NA
ENDROOT
BRANCH   1   3
HETATM    3  C8  UNL     1     -34.746  16.773  -2.199  1.00 20.00    -0.001 C 
HETATM    4  C5  UNL     1     -36.202  17.138  -2.533  1.00 20.00     0.021 C 
HETATM    5  C6  UNL     1     -34.582  16.742  -0.672  1.00 20.00     0.021 C 
BRANCH   3   6
HETATM    6  C7  UNL     1     -33.816  17.815  -2.851  1.00 20.00     0.129 C 
HETATM    7 CL10 UNL     1     -33.471  17.476  -4.569  1.00 20.00    -0.129 Cl
ENDBRANCH   3   6
ENDBRANCH   1   3
BRANCH   2   8
HETATM    8  C2  UNL     1     -35.024  13.556  -3.977  1.00 20.00     0.111 C 
HETATM    9  C1  UNL     1     -34.734  13.370  -5.271  1.00 20.00    -0.012 C 
HETATM   10  C4  UNL     1     -34.794  14.450  -6.299  1.00 20.00     0.037 C 
ENDBRANCH   2   8
TORSDOF 3
ENDMDL
MODEL 5
REMARK VINA RESULT:      -3.9     11.532     12.513
REMARK  3 active torsions:
REMARK  status: ('A' for Active; 'I' for Inactive)
REMARK    1  A    between atoms: C2_2  and  N9_9 
REMARK    2  A    between atoms: C3_3  and  C8_8 
REMARK    3  A    between atoms: C7_7  and  C8_8 
ROOT
HETATM    1  C3  UNL     1     -33.655  16.102  -3.014  1.00 20.00     0.099 C 
HETATM    2  N9  UNL     1     -34.244  16.520  -1.941  1.00 20.00    -0.277 NA
ENDROOT
BRANCH   1   3
HETATM    3  C8  UNL     1     -34.288  15.059  -3.931  1.00 20.00    -0.001 C 
HETATM    4  C5  UNL     1     -33.472  13.767  -3.754  1.00 20.00     0.021 C 
HETATM    5  C6  UNL     1     -35.752  14.771  -3.563  1.00 20.00     0.021 C 
BRANCH   3   6
HETATM    6  C7  UNL     1     -34.150  15.530  -5.392  1.00 20.00     0.129 C 
HETATM    7 CL10 UNL     1     -34.894  14.412  -6.568  1.00 20.00    -0.129 Cl
ENDBRANCH   3   6
ENDBRANCH   1   3
BRANCH   2   8
HETATM    8  C2  UNL     1     -33.558  17.451  -1.224  1.00 20.00     0.111 C 
HETATM    9  C1  UNL     1     -33.947  17.886  -0.019  1.00 20.00    -0.012 C 
HETATM   10  C4  UNL     1     -35.175  17.404   0.681  1.00 20.00     0.037 C 
ENDBRANCH   2   8
TORSDOF 3
ENDMDL
MODEL 6
REMARK VINA RESULT:      -3.7     11.324     12.396
REMARK  3 active torsions:
REMARK  status: ('A' for Active; 'I' for Inactive)
REMARK    1  A    between atoms: C2_2  and  N9_9 
REMARK    2  A    between atoms: C3_3  and  C8_8 
REMARK    3  A    between atoms: C7_7  and  C8_8 
ROOT
HETATM    1  C3  UNL     1     -34.822  15.452  -2.478  1.00 20.00     0.099 C 
HETATM    2  N9  UNL     1     -33.987  15.046  -3.379  1.00 20.00    -0.277 NA
ENDROOT
BRANCH   1   3
HETATM    3  C8  UNL     1     -34.865  16.906  -2.012  1.00 20.00    -0.001 C 
HETATM    4  C5  UNL     1     -34.653  16.883  -0.488  1.00 20.00     0.021 C 
HETATM    5  C6  UNL     1     -33.756  17.756  -2.651  1.00 20.00     0.021 C 
BRANCH   3   6
HETATM    6  C7  UNL     1     -36.264  17.481  -2.305  1.00 20.00     0.129 C 
HETATM    7 CL10 UNL     1     -37.184  16.525  -3.499  1.00 20.00    -0.129 Cl
ENDBRANCH   3   6
ENDBRANCH   1   3
BRANCH   2   8
HETATM    8  C2  UNL     1     -34.067  13.724  -3.692  1.00 20.00     0.111 C 
HETATM    9  C1  UNL     1     -34.540  13.272  -4.860  1.00 20.00    -0.012 C 
HETATM   10  C4  UNL     1     -35.035  14.158  -5.954  1.00 20.00     0.037 C 
ENDBRANCH   2   8
TORSDOF 3
ENDMDL
MODEL 7
REMARK VINA RESULT:      -3.7      1.356      1.855
REMARK  3 active torsions:
REMARK  status: ('A' for Active; 'I' for Inactive)
REMARK    1  A    between atoms: C2_2  and  N9_9 
REMARK    2  A    between atoms: C3_3  and  C8_8 
REMARK    3  A    between atoms: C7_7  and  C8_8 
ROOT
HETATM    1  C3  UNL     1     -33.247   6.042   3.399  1.00 20.00     0.099 C 
HETATM    2  N9  UNL     1     -32.957   7.268   3.110  1.00 20.00    -0.277 NA
ENDROOT
BRANCH   1   3
HETATM    3  C8  UNL     1     -34.409   5.681   4.322  1.00 20.00    -0.001 C 
HETATM    4  C5  UNL     1     -34.286   6.590   5.557  1.00 20.00     0.021 C 
HETATM    5  C6  UNL     1     -35.775   5.927   3.663  1.00 20.00     0.021 C 
BRANCH   3   6
HETATM    6  C7  UNL     1     -34.250   4.216   4.773  1.00 20.00     0.129 C 
HETATM    7 CL10 UNL     1     -35.024   3.873   6.344  1.00 20.00    -0.129 Cl
ENDBRANCH   3   6
ENDBRANCH   1   3
BRANCH   2   8
HETATM    8  C2  UNL     1     -31.896   7.435   2.274  1.00 20.00     0.111 C 
HETATM    9  C1  UNL     1     -31.700   8.541   1.545  1.00 20.00    -0.012 C 
HETATM   10  C4  UNL     1     -32.617   9.718   1.559  1.00 20.00     0.037 C 
ENDBRANCH   2   8
TORSDOF 3
ENDMDL
MODEL 8
REMARK VINA RESULT:      -3.7      1.018      1.021
REMARK  3 active torsions:
REMARK  status: ('A' for Active; 'I' for Inactive)
REMARK    1  A    between atoms: C2_2  and  N9_9 
REMARK    2  A    between atoms: C3_3  and  C8_8 
REMARK    3  A    between atoms: C7_7  and  C8_8 
ROOT
HETATM    1  C3  UNL     1     -33.382   5.935   3.196  1.00 20.00     0.099 C 
HETATM    2  N9  UNL     1     -32.910   7.138   3.170  1.00 20.00    -0.277 NA
ENDROOT
BRANCH   1   3
HETATM    3  C8  UNL     1     -34.515   5.530   4.136  1.00 20.00    -0.001 C 
HETATM    4  C5  UNL     1     -35.824   5.979   3.462  1.00 20.00     0.021 C 
HETATM    5  C6  UNL     1     -34.573   4.011   4.360  1.00 20.00     0.021 C 
BRANCH   3   6
HETATM    6  C7  UNL     1     -34.358   6.296   5.464  1.00 20.00     0.129 C 
HETATM    7 CL10 UNL     1     -34.745   5.308   6.899  1.00 20.00    -0.129 Cl
ENDBRANCH   3   6
ENDBRANCH   1   3
BRANCH   2   8
HETATM    8  C2  UNL     1     -31.901   7.350   2.281  1.00 20.00     0.111 C 
HETATM    9  C1  UNL     1     -31.769   8.478   1.572  1.00 20.00    -0.012 C 
HETATM   10  C4  UNL     1     -32.707   9.635   1.671  1.00 20.00     0.037 C 
ENDBRANCH   2   8
TORSDOF 3
ENDMDL
MODEL 9
REMARK VINA RESULT:      -3.7      9.692     11.152
REMARK  3 active torsions:
REMARK  status: ('A' for Active; 'I' for Inactive)
REMARK    1  A    between atoms: C2_2  and  N9_9 
REMARK    2  A    between atoms: C3_3  and  C8_8 
REMARK    3  A    between atoms: C7_7  and  C8_8 
ROOT
HETATM    1  C3  UNL     1     -41.334   4.320  -1.795  1.00 20.00     0.099 C 
HETATM    2  N9  UNL     1     -41.988   3.712  -2.731  1.00 20.00    -0.277 NA
ENDROOT
BRANCH   1   3
HETATM    3  C8  UNL     1     -41.790   5.664  -1.232  1.00 20.00    -0.001 C 
HETATM    4  C5  UNL     1     -40.781   6.042  -0.133  1.00 20.00     0.021 C 
HETATM    5  C6  UNL     1     -41.796   6.771  -2.298  1.00 20.00     0.021 C 
BRANCH   3   6
HETATM    6  C7  UNL     1     -43.178   5.488  -0.586  1.00 20.00     0.129 C 
HETATM    7 CL10 UNL     1     -43.112   5.300   1.188  1.00 20.00    -0.129 Cl
ENDBRANCH   3   6
ENDBRANCH   1   3
BRANCH   2   8
HETATM    8  C2  UNL     1     -41.462   2.522  -3.131  1.00 20.00     0.111 C 
HETATM    9  C1  UNL     1     -41.999   1.769  -4.100  1.00 20.00    -0.012 C 
HETATM   10  C4  UNL     1     -43.232   2.141  -4.854  1.00 20.00     0.037 C 
ENDBRANCH   2   8
TORSDOF 3
ENDMDL
