MODEL 1
REMARK VINA RESULT:      -4.3      0.000      0.000
REMARK  2 active torsions:
REMARK  status: ('A' for Active; 'I' for Inactive)
REMARK    1  A    between atoms: C2_2  and  C5_5 
REMARK    2  A    between atoms: C9_9  and  N10_10 
ROOT
HETATM    1  C3  UNL     1     -32.872  15.207  -3.733  1.00 20.00     0.070 C 
HETATM    2  C4  UNL     1     -33.616  15.908  -4.877  1.00 20.00     0.277 C 
HETATM    3  C5  UNL     1     -34.134  15.449  -2.884  1.00 20.00     0.247 C 
HETATM    4  N10 UNL     1     -34.878  15.805  -4.115  1.00 20.00     0.105 N 
ENDROOT
BRANCH   4   5
HETATM    5  C9  UNL     1     -35.661  14.662  -4.587  1.00 20.00     0.150 C 
HETATM    6  C6  UNL     1     -34.957  13.362  -4.181  1.00 20.00     0.048 C 
HETATM    7  C7  UNL     1     -37.056  14.716  -3.954  1.00 20.00     0.048 C 
HETATM    8  C8  UNL     1     -35.782  14.726  -6.114  1.00 20.00     0.048 C 
ENDBRANCH   4   5
BRANCH   3   9
HETATM    9  C2  UNL     1     -34.076  16.599  -1.955  1.00 20.00    -0.002 C 
HETATM   10  C1  UNL     1     -34.666  16.621  -0.754  1.00 20.00     0.009 C 
ENDBRANCH   3   9
TORSDOF 2
ENDMDL
MODEL 2
REMARK VINA RESULT:      -4.3      0.042      1.371
REMARK  2 active torsions:
REMARK  status: ('A' for Active; 'I' for Inactive)
REMARK    1  A    between atoms: C2_2  and  C5_5 
REMARK    2  A    between atoms: C9_9  and  N10_10 
ROOT
HETATM    1  C3  UNL     1     -32.864  15.246  -3.796  1.00 20.00     0.070 C 
HETATM    2  C4  UNL     1     -33.645  15.951  -4.913  1.00 20.00     0.277 C 
HETATM    3  C5  UNL     1     -34.106  15.466  -2.913  1.00 20.00     0.247 C 
HETATM    4  N10 UNL     1     -34.886  15.826  -4.120  1.00 20.00     0.105 N 
ENDROOT
BRANCH   4   5
HETATM    5  C9  UNL     1     -35.669  14.679  -4.583  1.00 20.00     0.150 C 
HETATM    6  C6  UNL     1     -37.061  14.724  -3.941  1.00 20.00     0.048 C 
HETATM    7  C7  UNL     1     -35.799  14.744  -6.108  1.00 20.00     0.048 C 
HETATM    8  C8  UNL     1     -34.958  13.383  -4.177  1.00 20.00     0.048 C 
ENDBRANCH   4   5
BRANCH   3   9
HETATM    9  C2  UNL     1     -34.036  16.607  -1.973  1.00 20.00    -0.002 C 
HETATM   10  C1  UNL     1     -34.639  16.631  -0.779  1.00 20.00     0.009 C 
ENDBRANCH   3   9
TORSDOF 2
ENDMDL
MODEL 3
REMARK VINA RESULT:      -4.1      1.104      3.946
REMARK  2 active torsions:
REMARK  status: ('A' for Active; 'I' for Inactive)
REMARK    1  A    between atoms: C2_2  and  C5_5 
REMARK    2  A    between atoms: C9_9  and  N10_10 
ROOT
HETATM    1  C3  UNL     1     -35.112  13.310  -4.364  1.00 20.00     0.070 C 
HETATM    2  C4  UNL     1     -35.932  14.433  -3.714  1.00 20.00     0.277 C 
HETATM    3  C5  UNL     1     -34.583  14.382  -5.335  1.00 20.00     0.247 C 
HETATM    4  N10 UNL     1     -35.139  15.436  -4.456  1.00 20.00     0.105 N 
ENDROOT
BRANCH   4   5
HETATM    5  C9  UNL     1     -34.092  15.989  -3.596  1.00 20.00     0.150 C 
HETATM    6  C6  UNL     1     -32.842  15.106  -3.687  1.00 20.00     0.048 C 
HETATM    7  C7  UNL     1     -33.759  17.410  -4.064  1.00 20.00     0.048 C 
HETATM    8  C8  UNL     1     -34.591  16.024  -2.147  1.00 20.00     0.048 C 
ENDBRANCH   4   5
BRANCH   3   9
HETATM    9  C2  UNL     1     -35.224  14.418  -6.668  1.00 20.00    -0.002 C 
HETATM   10  C1  UNL     1     -34.656  14.946  -7.758  1.00 20.00     0.009 C 
ENDBRANCH   3   9
TORSDOF 2
ENDMDL
MODEL 4
REMARK VINA RESULT:      -4.1      1.103      3.933
REMARK  2 active torsions:
REMARK  status: ('A' for Active; 'I' for Inactive)
REMARK    1  A    between atoms: C2_2  and  C5_5 
REMARK    2  A    between atoms: C9_9  and  N10_10 
ROOT
HETATM    1  C3  UNL     1     -35.108  13.318  -4.381  1.00 20.00     0.070 C 
HETATM    2  C4  UNL     1     -35.921  14.437  -3.715  1.00 20.00     0.277 C 
HETATM    3  C5  UNL     1     -34.582  14.399  -5.344  1.00 20.00     0.247 C 
HETATM    4  N10 UNL     1     -35.130  15.446  -4.450  1.00 20.00     0.105 N 
ENDROOT
BRANCH   4   5
HETATM    5  C9  UNL     1     -34.076  15.987  -3.591  1.00 20.00     0.150 C 
HETATM    6  C6  UNL     1     -33.723  17.405  -4.055  1.00 20.00     0.048 C 
HETATM    7  C7  UNL     1     -34.579  16.025  -2.144  1.00 20.00     0.048 C 
HETATM    8  C8  UNL     1     -32.835  15.092  -3.686  1.00 20.00     0.048 C 
ENDBRANCH   4   5
BRANCH   3   9
HETATM    9  C2  UNL     1     -35.231  14.451  -6.673  1.00 20.00    -0.002 C 
HETATM   10  C1  UNL     1     -34.651  14.951  -7.770  1.00 20.00     0.009 C 
ENDBRANCH   3   9
TORSDOF 2
ENDMDL
MODEL 5
REMARK VINA RESULT:      -4.0      1.297      2.449
REMARK  2 active torsions:
REMARK  status: ('A' for Active; 'I' for Inactive)
REMARK    1  A    between atoms: C2_2  and  C5_5 
REMARK    2  A    between atoms: C9_9  and  N10_10 
ROOT
HETATM    1  C3  UNL     1     -35.989  16.920  -3.232  1.00 20.00     0.070 C 
HETATM    2  C4  UNL     1     -36.277  15.415  -3.314  1.00 20.00     0.277 C 
HETATM    3  C5  UNL     1     -34.698  16.539  -2.482  1.00 20.00     0.247 C 
HETATM    4  N10 UNL     1     -34.889  15.129  -2.894  1.00 20.00     0.105 N 
ENDROOT
BRANCH   4   5
HETATM    5  C9  UNL     1     -34.060  14.822  -4.061  1.00 20.00     0.150 C 
HETATM    6  C6  UNL     1     -33.171  16.028  -4.384  1.00 20.00     0.048 C 
HETATM    7  C7  UNL     1     -33.187  13.603  -3.747  1.00 20.00     0.048 C 
HETATM    8  C8  UNL     1     -34.966  14.516  -5.260  1.00 20.00     0.048 C 
ENDBRANCH   4   5
BRANCH   3   9
HETATM    9  C2  UNL     1     -34.746  16.667  -1.009  1.00 20.00    -0.002 C 
HETATM   10  C1  UNL     1     -34.028  17.555  -0.311  1.00 20.00     0.009 C 
ENDBRANCH   3   9
TORSDOF 2
ENDMDL
MODEL 6
REMARK VINA RESULT:      -3.9      1.593      2.556
REMARK  2 active torsions:
REMARK  status: ('A' for Active; 'I' for Inactive)
REMARK    1  A    between atoms: C2_2  and  C5_5 
REMARK    2  A    between atoms: C9_9  and  N10_10 
ROOT
HETATM    1  C3  UNL     1     -34.398  14.811  -3.112  1.00 20.00     0.070 C 
HETATM    2  C4  UNL     1     -33.148  15.195  -3.915  1.00 20.00     0.277 C 
HETATM    3  C5  UNL     1     -34.524  16.308  -2.768  1.00 20.00     0.247 C 
HETATM    4  N10 UNL     1     -33.524  16.620  -3.815  1.00 20.00     0.105 N 
ENDROOT
BRANCH   4   5
HETATM    5  C9  UNL     1     -34.190  17.055  -5.044  1.00 20.00     0.150 C 
HETATM    6  C6  UNL     1     -35.687  17.241  -4.770  1.00 20.00     0.048 C 
HETATM    7  C7  UNL     1     -33.578  18.383  -5.502  1.00 20.00     0.048 C 
HETATM    8  C8  UNL     1     -33.995  15.991  -6.130  1.00 20.00     0.048 C 
ENDBRANCH   4   5
BRANCH   3   9
HETATM    9  C2  UNL     1     -34.028  16.707  -1.432  1.00 20.00    -0.002 C 
HETATM   10  C1  UNL     1     -34.822  16.998  -0.395  1.00 20.00     0.009 C 
ENDBRANCH   3   9
TORSDOF 2
ENDMDL
MODEL 7
REMARK VINA RESULT:      -3.9      1.571      2.605
REMARK  2 active torsions:
REMARK  status: ('A' for Active; 'I' for Inactive)
REMARK    1  A    between atoms: C2_2  and  C5_5 
REMARK    2  A    between atoms: C9_9  and  N10_10 
ROOT
HETATM    1  C3  UNL     1     -34.411  14.764  -3.115  1.00 20.00     0.070 C 
HETATM    2  C4  UNL     1     -33.161  15.147  -3.919  1.00 20.00     0.277 C 
HETATM    3  C5  UNL     1     -34.541  16.262  -2.779  1.00 20.00     0.247 C 
HETATM    4  N10 UNL     1     -33.541  16.572  -3.827  1.00 20.00     0.105 N 
ENDROOT
BRANCH   4   5
HETATM    5  C9  UNL     1     -34.207  16.998  -5.059  1.00 20.00     0.150 C 
HETATM    6  C6  UNL     1     -33.594  18.321  -5.535  1.00 20.00     0.048 C 
HETATM    7  C7  UNL     1     -34.014  15.921  -6.131  1.00 20.00     0.048 C 
HETATM    8  C8  UNL     1     -35.703  17.195  -4.784  1.00 20.00     0.048 C 
ENDBRANCH   4   5
BRANCH   3   9
HETATM    9  C2  UNL     1     -34.048  16.670  -1.445  1.00 20.00    -0.002 C 
HETATM   10  C1  UNL     1     -34.844  16.994  -0.420  1.00 20.00     0.009 C 
ENDBRANCH   3   9
TORSDOF 2
ENDMDL
MODEL 8
REMARK VINA RESULT:      -3.9      1.300      2.458
REMARK  2 active torsions:
REMARK  status: ('A' for Active; 'I' for Inactive)
REMARK    1  A    between atoms: C2_2  and  C5_5 
REMARK    2  A    between atoms: C9_9  and  N10_10 
ROOT
HETATM    1  C3  UNL     1     -35.586  13.711  -4.097  1.00 20.00     0.070 C 
HETATM    2  C4  UNL     1     -34.427  13.643  -5.099  1.00 20.00     0.277 C 
HETATM    3  C5  UNL     1     -35.176  15.177  -3.861  1.00 20.00     0.247 C 
HETATM    4  N10 UNL     1     -34.312  15.115  -5.063  1.00 20.00     0.105 N 
ENDROOT
BRANCH   4   5
HETATM    5  C9  UNL     1     -34.996  15.706  -6.214  1.00 20.00     0.150 C 
HETATM    6  C6  UNL     1     -36.466  15.955  -5.857  1.00 20.00     0.048 C 
HETATM    7  C7  UNL     1     -34.318  17.031  -6.574  1.00 20.00     0.048 C 
HETATM    8  C8  UNL     1     -34.913  14.740  -7.402  1.00 20.00     0.048 C 
ENDBRANCH   4   5
BRANCH   3   9
HETATM    9  C2  UNL     1     -34.369  15.434  -2.647  1.00 20.00    -0.002 C 
HETATM   10  C1  UNL     1     -34.717  16.298  -1.686  1.00 20.00     0.009 C 
ENDBRANCH   3   9
TORSDOF 2
ENDMDL
MODEL 9
REMARK VINA RESULT:      -3.8      1.454      3.328
REMARK  2 active torsions:
REMARK  status: ('A' for Active; 'I' for Inactive)
REMARK    1  A    between atoms: C2_2  and  C5_5 
REMARK    2  A    between atoms: C9_9  and  N10_10 
ROOT
HETATM    1  C3  UNL     1     -34.433  14.925  -6.718  1.00 20.00     0.070 C 
HETATM    2  C4  UNL     1     -35.650  14.803  -5.791  1.00 20.00     0.277 C 
HETATM    3  C5  UNL     1     -34.043  16.165  -5.892  1.00 20.00     0.247 C 
HETATM    4  N10 UNL     1     -35.040  15.781  -4.866  1.00 20.00     0.105 N 
ENDROOT
BRANCH   4   5
HETATM    5  C9  UNL     1     -34.388  15.087  -3.755  1.00 20.00     0.150 C 
HETATM    6  C6  UNL     1     -32.872  15.299  -3.844  1.00 20.00     0.048 C 
HETATM    7  C7  UNL     1     -34.913  15.655  -2.432  1.00 20.00     0.048 C 
HETATM    8  C8  UNL     1     -34.702  13.588  -3.838  1.00 20.00     0.048 C 
ENDBRANCH   4   5
BRANCH   3   9
HETATM    9  C2  UNL     1     -34.384  17.474  -6.492  1.00 20.00    -0.002 C 
HETATM   10  C1  UNL     1     -33.692  18.599  -6.278  1.00 20.00     0.009 C 
ENDBRANCH   3   9
TORSDOF 2
ENDMDL
