MODEL 1
REMARK VINA RESULT:      -5.3      0.000      0.000
REMARK  1 active torsions:
REMARK  status: ('A' for Active; 'I' for Inactive)
REMARK    1  A    between atoms: C5_5  and  C8_8 
ROOT
HETATM    1  C1  UNL     1     -35.844  15.463  -2.919  1.00 20.00     0.052 C 
HETATM    2  C2  UNL     1     -34.518  15.651  -2.831  1.00 20.00    -0.080 C 
HETATM    3  C3  UNL     1     -36.399  14.379  -3.766  1.00 20.00     0.150 C 
HETATM    4  C6  UNL     1     -33.520  14.834  -3.615  1.00 20.00     0.043 C 
HETATM    5  C7  UNL     1     -35.436  13.434  -4.455  1.00 20.00     0.092 C 
HETATM    6  C8  UNL     1     -34.127  14.127  -4.836  1.00 20.00     0.024 C 
HETATM    7  C9  UNL     1     -33.939  16.701  -1.927  1.00 20.00     0.043 C 
HETATM    8  O11 UNL     1     -37.617  14.228  -3.843  1.00 20.00    -0.293 OA
ENDROOT
BRANCH   6   9
HETATM    9  C5  UNL     1     -34.321  15.077  -5.987  1.00 20.00    -0.088 C 
HETATM   10  C4  UNL     1     -33.781  16.304  -5.992  1.00 20.00     0.014 C 
HETATM   11  C10 UNL     1     -35.153  14.572  -7.129  1.00 20.00     0.043 C 
ENDBRANCH   6   9
TORSDOF 1
ENDMDL
MODEL 2
REMARK VINA RESULT:      -5.2      0.133      1.068
REMARK  1 active torsions:
REMARK  status: ('A' for Active; 'I' for Inactive)
REMARK    1  A    between atoms: C5_5  and  C8_8 
ROOT
HETATM    1  C1  UNL     1     -35.864  15.469  -2.903  1.00 20.00     0.052 C 
HETATM    2  C2  UNL     1     -34.541  15.656  -2.781  1.00 20.00    -0.080 C 
HETATM    3  C3  UNL     1     -36.398  14.383  -3.762  1.00 20.00     0.150 C 
HETATM    4  C6  UNL     1     -33.524  14.837  -3.537  1.00 20.00     0.043 C 
HETATM    5  C7  UNL     1     -35.419  13.437  -4.424  1.00 20.00     0.092 C 
HETATM    6  C8  UNL     1     -34.099  14.128  -4.772  1.00 20.00     0.024 C 
HETATM    7  C9  UNL     1     -33.985  16.707  -1.864  1.00 20.00     0.043 C 
HETATM    8  O11 UNL     1     -37.614  14.234  -3.870  1.00 20.00    -0.293 OA
ENDROOT
BRANCH   6   9
HETATM    9  C5  UNL     1     -34.263  15.075  -5.929  1.00 20.00    -0.088 C 
HETATM   10  C4  UNL     1     -34.948  14.737  -7.032  1.00 20.00     0.014 C 
HETATM   11  C10 UNL     1     -33.616  16.421  -5.780  1.00 20.00     0.043 C 
ENDBRANCH   6   9
TORSDOF 1
ENDMDL
MODEL 3
REMARK VINA RESULT:      -4.9      1.964      4.123
REMARK  1 active torsions:
REMARK  status: ('A' for Active; 'I' for Inactive)
REMARK    1  A    between atoms: C5_5  and  C8_8 
ROOT
HETATM    1  C1  UNL     1     -34.230  16.145  -6.314  1.00 20.00     0.052 C 
HETATM    2  C2  UNL     1     -34.676  14.880  -6.335  1.00 20.00    -0.080 C 
HETATM    3  C3  UNL     1     -33.406  16.637  -5.182  1.00 20.00     0.150 C 
HETATM    4  C6  UNL     1     -34.431  13.905  -5.208  1.00 20.00     0.043 C 
HETATM    5  C7  UNL     1     -33.004  15.658  -4.100  1.00 20.00     0.092 C 
HETATM    6  C8  UNL     1     -34.067  14.580  -3.878  1.00 20.00     0.024 C 
HETATM    7  C9  UNL     1     -35.454  14.348  -7.503  1.00 20.00     0.043 C 
HETATM    8  O11 UNL     1     -33.015  17.803  -5.175  1.00 20.00    -0.293 OA
ENDROOT
BRANCH   6   9
HETATM    9  C5  UNL     1     -35.282  15.140  -3.189  1.00 20.00    -0.088 C 
HETATM   10  C4  UNL     1     -36.526  14.826  -3.581  1.00 20.00     0.014 C 
HETATM   11  C10 UNL     1     -35.023  16.069  -2.040  1.00 20.00     0.043 C 
ENDBRANCH   6   9
TORSDOF 1
ENDMDL
MODEL 4
REMARK VINA RESULT:      -4.6      1.823      2.281
REMARK  1 active torsions:
REMARK  status: ('A' for Active; 'I' for Inactive)
REMARK    1  A    between atoms: C5_5  and  C8_8 
ROOT
HETATM    1  C1  UNL     1     -34.635  14.344  -3.307  1.00 20.00     0.052 C 
HETATM    2  C2  UNL     1     -34.501  15.665  -3.119  1.00 20.00    -0.080 C 
HETATM    3  C3  UNL     1     -34.638  13.772  -4.676  1.00 20.00     0.150 C 
HETATM    4  C6  UNL     1     -34.406  16.651  -4.259  1.00 20.00     0.043 C 
HETATM    5  C7  UNL     1     -34.395  14.699  -5.848  1.00 20.00     0.092 C 
HETATM    6  C8  UNL     1     -34.941  16.104  -5.591  1.00 20.00     0.024 C 
HETATM    7  C9  UNL     1     -34.429  16.252  -1.739  1.00 20.00     0.043 C 
HETATM    8  O11 UNL     1     -34.773  12.559  -4.829  1.00 20.00    -0.293 OA
ENDROOT
BRANCH   6   9
HETATM    9  C5  UNL     1     -36.445  16.127  -5.636  1.00 20.00    -0.088 C 
HETATM   10  C4  UNL     1     -37.168  16.869  -4.784  1.00 20.00     0.014 C 
HETATM   11  C10 UNL     1     -37.089  15.274  -6.689  1.00 20.00     0.043 C 
ENDBRANCH   6   9
TORSDOF 1
ENDMDL
MODEL 5
REMARK VINA RESULT:      -4.5      1.934      3.467
REMARK  1 active torsions:
REMARK  status: ('A' for Active; 'I' for Inactive)
REMARK    1  A    between atoms: C5_5  and  C8_8 
ROOT
HETATM    1  C1  UNL     1     -36.095  15.579  -6.095  1.00 20.00     0.052 C 
HETATM    2  C2  UNL     1     -36.869  15.473  -5.004  1.00 20.00    -0.080 C 
HETATM    3  C3  UNL     1     -34.940  14.668  -6.293  1.00 20.00     0.150 C 
HETATM    4  C6  UNL     1     -36.594  14.487  -3.895  1.00 20.00     0.043 C 
HETATM    5  C7  UNL     1     -34.709  13.562  -5.285  1.00 20.00     0.092 C 
HETATM    6  C8  UNL     1     -35.148  13.969  -3.877  1.00 20.00     0.024 C 
HETATM    7  C9  UNL     1     -38.080  16.342  -4.822  1.00 20.00     0.043 C 
HETATM    8  O11 UNL     1     -34.235  14.787  -7.294  1.00 20.00    -0.293 OA
ENDROOT
BRANCH   6   9
HETATM    9  C5  UNL     1     -34.205  14.976  -3.276  1.00 20.00    -0.088 C 
HETATM   10  C4  UNL     1     -32.924  15.065  -3.661  1.00 20.00     0.014 C 
HETATM   11  C10 UNL     1     -34.782  15.874  -2.221  1.00 20.00     0.043 C 
ENDBRANCH   6   9
TORSDOF 1
ENDMDL
MODEL 6
REMARK VINA RESULT:      -4.5      1.573      3.537
REMARK  1 active torsions:
REMARK  status: ('A' for Active; 'I' for Inactive)
REMARK    1  A    between atoms: C5_5  and  C8_8 
ROOT
HETATM    1  C1  UNL     1     -34.855  14.303  -5.932  1.00 20.00     0.052 C 
HETATM    2  C2  UNL     1     -35.179  15.541  -6.336  1.00 20.00    -0.080 C 
HETATM    3  C3  UNL     1     -35.334  13.784  -4.628  1.00 20.00     0.150 C 
HETATM    4  C6  UNL     1     -35.984  16.496  -5.488  1.00 20.00     0.043 C 
HETATM    5  C7  UNL     1     -36.269  14.645  -3.806  1.00 20.00     0.092 C 
HETATM    6  C8  UNL     1     -35.990  16.137  -3.994  1.00 20.00     0.024 C 
HETATM    7  C9  UNL     1     -34.757  16.056  -7.682  1.00 20.00     0.043 C 
HETATM    8  O11 UNL     1     -35.018  12.651  -4.269  1.00 20.00    -0.293 OA
ENDROOT
BRANCH   6   9
HETATM    9  C5  UNL     1     -34.709  16.547  -3.320  1.00 20.00    -0.088 C 
HETATM   10  C4  UNL     1     -33.789  17.299  -3.943  1.00 20.00     0.014 C 
HETATM   11  C10 UNL     1     -34.520  16.067  -1.911  1.00 20.00     0.043 C 
ENDBRANCH   6   9
TORSDOF 1
ENDMDL
MODEL 7
REMARK VINA RESULT:      -4.3      1.175      3.401
REMARK  1 active torsions:
REMARK  status: ('A' for Active; 'I' for Inactive)
REMARK    1  A    between atoms: C5_5  and  C8_8 
ROOT
HETATM    1  C1  UNL     1     -36.145  14.570  -5.282  1.00 20.00     0.052 C 
HETATM    2  C2  UNL     1     -35.215  15.382  -5.806  1.00 20.00    -0.080 C 
HETATM    3  C3  UNL     1     -36.968  15.008  -4.128  1.00 20.00     0.150 C 
HETATM    4  C6  UNL     1     -34.902  16.745  -5.237  1.00 20.00     0.043 C 
HETATM    5  C7  UNL     1     -36.799  16.422  -3.615  1.00 20.00     0.092 C 
HETATM    6  C8  UNL     1     -35.365  16.926  -3.784  1.00 20.00     0.024 C 
HETATM    7  C9  UNL     1     -34.421  14.979  -7.015  1.00 20.00     0.043 C 
HETATM    8  O11 UNL     1     -37.808  14.245  -3.654  1.00 20.00    -0.293 OA
ENDROOT
BRANCH   6   9
HETATM    9  C5  UNL     1     -34.428  16.257  -2.816  1.00 20.00    -0.088 C 
HETATM   10  C4  UNL     1     -34.675  16.224  -1.498  1.00 20.00     0.014 C 
HETATM   11  C10 UNL     1     -33.201  15.628  -3.409  1.00 20.00     0.043 C 
ENDBRANCH   6   9
TORSDOF 1
ENDMDL
MODEL 8
REMARK VINA RESULT:      -4.3      1.889      3.057
REMARK  1 active torsions:
REMARK  status: ('A' for Active; 'I' for Inactive)
REMARK    1  A    between atoms: C5_5  and  C8_8 
ROOT
HETATM    1  C1  UNL     1     -35.874  13.870  -4.100  1.00 20.00     0.052 C 
HETATM    2  C2  UNL     1     -36.731  14.852  -3.784  1.00 20.00    -0.080 C 
HETATM    3  C3  UNL     1     -34.432  13.991  -3.775  1.00 20.00     0.150 C 
HETATM    4  C6  UNL     1     -36.293  16.148  -3.145  1.00 20.00     0.043 C 
HETATM    5  C7  UNL     1     -33.964  15.204  -2.999  1.00 20.00     0.092 C 
HETATM    6  C8  UNL     1     -34.797  16.446  -3.321  1.00 20.00     0.024 C 
HETATM    7  C9  UNL     1     -38.203  14.716  -4.046  1.00 20.00     0.043 C 
HETATM    8  O11 UNL     1     -33.659  13.085  -4.083  1.00 20.00    -0.293 OA
ENDROOT
BRANCH   6   9
HETATM    9  C5  UNL     1     -34.494  16.971  -4.698  1.00 20.00    -0.088 C 
HETATM   10  C4  UNL     1     -33.313  16.755  -5.295  1.00 20.00     0.014 C 
HETATM   11  C10 UNL     1     -35.590  17.749  -5.366  1.00 20.00     0.043 C 
ENDBRANCH   6   9
TORSDOF 1
ENDMDL
MODEL 9
REMARK VINA RESULT:      -4.3      2.178      3.900
REMARK  1 active torsions:
REMARK  status: ('A' for Active; 'I' for Inactive)
REMARK    1  A    between atoms: C5_5  and  C8_8 
ROOT
HETATM    1  C1  UNL     1     -35.676  16.204  -5.078  1.00 20.00     0.052 C 
HETATM    2  C2  UNL     1     -35.870  15.251  -4.154  1.00 20.00    -0.080 C 
HETATM    3  C3  UNL     1     -34.334  16.806  -5.272  1.00 20.00     0.150 C 
HETATM    4  C6  UNL     1     -34.780  14.776  -3.224  1.00 20.00     0.043 C 
HETATM    5  C7  UNL     1     -33.172  16.259  -4.469  1.00 20.00     0.092 C 
HETATM    6  C8  UNL     1     -33.611  15.763  -3.090  1.00 20.00     0.024 C 
HETATM    7  C9  UNL     1     -37.206  14.585  -3.992  1.00 20.00     0.043 C 
HETATM    8  O11 UNL     1     -34.177  17.687  -6.116  1.00 20.00    -0.293 OA
ENDROOT
BRANCH   6   9
HETATM    9  C5  UNL     1     -33.954  16.908  -2.176  1.00 20.00    -0.088 C 
HETATM   10  C4  UNL     1     -33.628  18.174  -2.474  1.00 20.00     0.014 C 
HETATM   11  C10 UNL     1     -34.682  16.552  -0.913  1.00 20.00     0.043 C 
ENDBRANCH   6   9
TORSDOF 1
ENDMDL
