MODEL 1
REMARK VINA RESULT:      -4.7      0.000      0.000
REMARK  2 active torsions:
REMARK  status: ('A' for Active; 'I' for Inactive)
REMARK    1  A    between atoms: C7_7  and  C8_8 
REMARK    2  A    between atoms: C8_8  and  O10_10 
ROOT
HETATM    1  C1  UNL     1     -33.538  13.878  -3.667  1.00 20.00     0.071 C 
HETATM    2  C2  UNL     1     -33.694  17.556  -3.424  1.00 20.00     0.000 C 
HETATM    3  C3  UNL     1     -33.901  16.611  -2.246  1.00 20.00     0.002 C 
HETATM    4  C4  UNL     1     -33.377  16.795  -4.707  1.00 20.00     0.002 C 
HETATM    5  C5  UNL     1     -34.972  15.560  -2.547  1.00 20.00     0.027 C 
HETATM    6  C6  UNL     1     -34.445  15.744  -5.019  1.00 20.00     0.027 C 
HETATM    7  C7  UNL     1     -34.705  14.772  -3.849  1.00 20.00     0.070 C 
HETATM    8  N9  UNL     1     -32.624  13.176  -3.524  1.00 20.00    -0.196 NA
ENDROOT
BRANCH   7   9
HETATM    9  C8  UNL     1     -35.927  13.898  -4.175  1.00 20.00     0.188 C 
BRANCH   9  10
HETATM   10  O10 UNL     1     -35.504  12.552  -4.219  1.00 20.00    -0.399 OA
HETATM   11  H23 UNL     1     -35.304  12.281  -3.306  1.00 20.00     0.209 HD
ENDBRANCH   9  10
ENDBRANCH   7   9
TORSDOF 2
ENDMDL
MODEL 2
REMARK VINA RESULT:      -4.5      1.685      1.942
REMARK  2 active torsions:
REMARK  status: ('A' for Active; 'I' for Inactive)
REMARK    1  A    between atoms: C7_7  and  C8_8 
REMARK    2  A    between atoms: C8_8  and  O10_10 
ROOT
HETATM    1  C1  UNL     1     -35.425  13.761  -4.275  1.00 20.00     0.071 C 
HETATM    2  C2  UNL     1     -33.272  16.639  -5.103  1.00 20.00     0.000 C 
HETATM    3  C3  UNL     1     -33.259  15.920  -3.760  1.00 20.00     0.002 C 
HETATM    4  C4  UNL     1     -34.256  15.999  -6.076  1.00 20.00     0.002 C 
HETATM    5  C5  UNL     1     -34.661  15.834  -3.152  1.00 20.00     0.027 C 
HETATM    6  C6  UNL     1     -35.663  15.912  -5.480  1.00 20.00     0.027 C 
HETATM    7  C7  UNL     1     -35.701  15.207  -4.107  1.00 20.00     0.070 C 
HETATM    8  N9  UNL     1     -35.210  12.628  -4.406  1.00 20.00    -0.196 NA
ENDROOT
BRANCH   7   9
HETATM    9  C8  UNL     1     -37.105  15.354  -3.498  1.00 20.00     0.188 C 
BRANCH   9  10
HETATM   10  O10 UNL     1     -37.830  14.174  -3.773  1.00 20.00    -0.399 OA
HETATM   11  H23 UNL     1     -37.361  13.439  -3.342  1.00 20.00     0.209 HD
ENDBRANCH   9  10
ENDBRANCH   7   9
TORSDOF 2
ENDMDL
MODEL 3
REMARK VINA RESULT:      -4.5      1.960      2.670
REMARK  2 active torsions:
REMARK  status: ('A' for Active; 'I' for Inactive)
REMARK    1  A    between atoms: C7_7  and  C8_8 
REMARK    2  A    between atoms: C8_8  and  O10_10 
ROOT
HETATM    1  C1  UNL     1     -36.598  14.586  -3.875  1.00 20.00     0.071 C 
HETATM    2  C2  UNL     1     -34.850  17.740  -3.097  1.00 20.00     0.000 C 
HETATM    3  C3  UNL     1     -35.513  17.437  -4.435  1.00 20.00     0.002 C 
HETATM    4  C4  UNL     1     -35.030  16.594  -2.107  1.00 20.00     0.002 C 
HETATM    5  C5  UNL     1     -35.020  16.113  -5.024  1.00 20.00     0.027 C 
HETATM    6  C6  UNL     1     -34.535  15.266  -2.684  1.00 20.00     0.027 C 
HETATM    7  C7  UNL     1     -35.166  14.922  -4.050  1.00 20.00     0.070 C 
HETATM    8  N9  UNL     1     -37.720  14.322  -3.738  1.00 20.00    -0.196 NA
ENDROOT
BRANCH   7   9
HETATM    9  C8  UNL     1     -34.458  13.692  -4.642  1.00 20.00     0.188 C 
BRANCH   9  10
HETATM   10  O10 UNL     1     -35.158  12.540  -4.224  1.00 20.00    -0.399 OA
HETATM   11  H23 UNL     1     -35.431  12.684  -3.301  1.00 20.00     0.209 HD
ENDBRANCH   9  10
ENDBRANCH   7   9
TORSDOF 2
ENDMDL
MODEL 4
REMARK VINA RESULT:      -4.4      1.834      2.608
REMARK  2 active torsions:
REMARK  status: ('A' for Active; 'I' for Inactive)
REMARK    1  A    between atoms: C7_7  and  C8_8 
REMARK    2  A    between atoms: C8_8  and  O10_10 
ROOT
HETATM    1  C1  UNL     1     -35.840  14.909  -3.962  1.00 20.00     0.071 C 
HETATM    2  C2  UNL     1     -33.535  17.434  -5.349  1.00 20.00     0.000 C 
HETATM    3  C3  UNL     1     -34.594  16.702  -6.165  1.00 20.00     0.002 C 
HETATM    4  C4  UNL     1     -33.571  17.022  -3.881  1.00 20.00     0.002 C 
HETATM    5  C5  UNL     1     -34.475  15.184  -6.012  1.00 20.00     0.027 C 
HETATM    6  C6  UNL     1     -33.448  15.505  -3.717  1.00 20.00     0.027 C 
HETATM    7  C7  UNL     1     -34.489  14.717  -4.540  1.00 20.00     0.070 C 
HETATM    8  N9  UNL     1     -36.898  15.059  -3.509  1.00 20.00    -0.196 NA
ENDROOT
BRANCH   7   9
HETATM    9  C8  UNL     1     -34.156  13.217  -4.479  1.00 20.00     0.188 C 
BRANCH   9  10
HETATM   10  O10 UNL     1     -35.340  12.517  -4.163  1.00 20.00    -0.399 OA
HETATM   11  H23 UNL     1     -35.795  13.017  -3.463  1.00 20.00     0.209 HD
ENDBRANCH   9  10
ENDBRANCH   7   9
TORSDOF 2
ENDMDL
MODEL 5
REMARK VINA RESULT:      -4.4      2.462      3.867
REMARK  2 active torsions:
REMARK  status: ('A' for Active; 'I' for Inactive)
REMARK    1  A    between atoms: C7_7  and  C8_8 
REMARK    2  A    between atoms: C8_8  and  O10_10 
ROOT
HETATM    1  C1  UNL     1     -34.614  13.847  -4.961  1.00 20.00     0.071 C 
HETATM    2  C2  UNL     1     -36.819  15.240  -7.570  1.00 20.00     0.000 C 
HETATM    3  C3  UNL     1     -35.524  14.487  -7.856  1.00 20.00     0.002 C 
HETATM    4  C4  UNL     1     -37.109  15.313  -6.075  1.00 20.00     0.002 C 
HETATM    5  C5  UNL     1     -34.342  15.086  -7.090  1.00 20.00     0.027 C 
HETATM    6  C6  UNL     1     -35.935  15.915  -5.300  1.00 20.00     0.027 C 
HETATM    7  C7  UNL     1     -34.595  15.197  -5.570  1.00 20.00     0.070 C 
HETATM    8  N9  UNL     1     -34.628  12.789  -4.484  1.00 20.00    -0.196 NA
ENDROOT
BRANCH   7   9
HETATM    9  C8  UNL     1     -33.451  15.995  -4.922  1.00 20.00     0.188 C 
BRANCH   9  10
HETATM   10  O10 UNL     1     -32.601  15.083  -4.259  1.00 20.00    -0.399 OA
HETATM   11  H23 UNL     1     -31.686  15.318  -4.491  1.00 20.00     0.209 HD
ENDBRANCH   9  10
ENDBRANCH   7   9
TORSDOF 2
ENDMDL
MODEL 6
REMARK VINA RESULT:      -4.3      1.812      2.429
REMARK  2 active torsions:
REMARK  status: ('A' for Active; 'I' for Inactive)
REMARK    1  A    between atoms: C7_7  and  C8_8 
REMARK    2  A    between atoms: C8_8  and  O10_10 
ROOT
HETATM    1  C1  UNL     1     -34.578  15.762  -5.442  1.00 20.00     0.071 C 
HETATM    2  C2  UNL     1     -34.879  16.393  -1.820  1.00 20.00     0.000 C 
HETATM    3  C3  UNL     1     -33.553  16.318  -2.568  1.00 20.00     0.002 C 
HETATM    4  C4  UNL     1     -36.067  16.213  -2.760  1.00 20.00     0.002 C 
HETATM    5  C5  UNL     1     -33.432  15.022  -3.373  1.00 20.00     0.027 C 
HETATM    6  C6  UNL     1     -35.958  14.917  -3.566  1.00 20.00     0.027 C 
HETATM    7  C7  UNL     1     -34.622  14.785  -4.329  1.00 20.00     0.070 C 
HETATM    8  N9  UNL     1     -34.543  16.527  -6.315  1.00 20.00    -0.196 NA
ENDROOT
BRANCH   7   9
HETATM    9  C8  UNL     1     -34.518  13.374  -4.931  1.00 20.00     0.188 C 
BRANCH   9  10
HETATM   10  O10 UNL     1     -35.348  12.514  -4.180  1.00 20.00    -0.399 OA
HETATM   11  H23 UNL     1     -36.076  13.052  -3.823  1.00 20.00     0.209 HD
ENDBRANCH   9  10
ENDBRANCH   7   9
TORSDOF 2
ENDMDL
MODEL 7
REMARK VINA RESULT:      -4.2      1.850      2.417
REMARK  2 active torsions:
REMARK  status: ('A' for Active; 'I' for Inactive)
REMARK    1  A    between atoms: C7_7  and  C8_8 
REMARK    2  A    between atoms: C8_8  and  O10_10 
ROOT
HETATM    1  C1  UNL     1     -34.613  13.823  -4.954  1.00 20.00     0.071 C 
HETATM    2  C2  UNL     1     -34.892  16.458  -2.387  1.00 20.00     0.000 C 
HETATM    3  C3  UNL     1     -36.076  15.888  -3.160  1.00 20.00     0.002 C 
HETATM    4  C4  UNL     1     -33.584  15.778  -2.777  1.00 20.00     0.002 C 
HETATM    5  C5  UNL     1     -35.847  15.954  -4.672  1.00 20.00     0.027 C 
HETATM    6  C6  UNL     1     -33.344  15.843  -4.287  1.00 20.00     0.027 C 
HETATM    7  C7  UNL     1     -34.523  15.293  -5.117  1.00 20.00     0.070 C 
HETATM    8  N9  UNL     1     -34.683  12.672  -4.827  1.00 20.00    -0.196 NA
ENDROOT
BRANCH   7   9
HETATM    9  C8  UNL     1     -34.282  15.592  -6.606  1.00 20.00     0.188 C 
BRANCH   9  10
HETATM   10  O10 UNL     1     -34.804  14.518  -7.359  1.00 20.00    -0.399 OA
HETATM   11  H23 UNL     1     -35.772  14.615  -7.370  1.00 20.00     0.209 HD
ENDBRANCH   9  10
ENDBRANCH   7   9
TORSDOF 2
ENDMDL
MODEL 8
REMARK VINA RESULT:      -4.1      2.634      3.750
REMARK  2 active torsions:
REMARK  status: ('A' for Active; 'I' for Inactive)
REMARK    1  A    between atoms: C7_7  and  C8_8 
REMARK    2  A    between atoms: C8_8  and  O10_10 
ROOT
HETATM    1  C1  UNL     1     -34.439  16.318  -2.090  1.00 20.00     0.071 C 
HETATM    2  C2  UNL     1     -34.807  13.411  -4.331  1.00 20.00     0.000 C 
HETATM    3  C3  UNL     1     -33.520  13.768  -3.597  1.00 20.00     0.002 C 
HETATM    4  C4  UNL     1     -35.934  14.382  -3.995  1.00 20.00     0.002 C 
HETATM    5  C5  UNL     1     -33.102  15.216  -3.862  1.00 20.00     0.027 C 
HETATM    6  C6  UNL     1     -35.528  15.833  -4.261  1.00 20.00     0.027 C 
HETATM    7  C7  UNL     1     -34.218  16.238  -3.553  1.00 20.00     0.070 C 
HETATM    8  N9  UNL     1     -34.611  16.381  -0.944  1.00 20.00    -0.196 NA
ENDROOT
BRANCH   7   9
HETATM    9  C8  UNL     1     -33.784  17.629  -4.044  1.00 20.00     0.188 C 
BRANCH   9  10
HETATM   10  O10 UNL     1     -33.603  18.457  -2.914  1.00 20.00    -0.399 OA
HETATM   11  H23 UNL     1     -32.915  19.108  -3.138  1.00 20.00     0.209 HD
ENDBRANCH   9  10
ENDBRANCH   7   9
TORSDOF 2
ENDMDL
MODEL 9
REMARK VINA RESULT:      -4.1      2.658      3.402
REMARK  2 active torsions:
REMARK  status: ('A' for Active; 'I' for Inactive)
REMARK    1  A    between atoms: C7_7  and  C8_8 
REMARK    2  A    between atoms: C8_8  and  O10_10 
ROOT
HETATM    1  C1  UNL     1     -37.136  14.742  -4.289  1.00 20.00     0.071 C 
HETATM    2  C2  UNL     1     -33.564  13.966  -3.795  1.00 20.00     0.000 C 
HETATM    3  C3  UNL     1     -34.314  15.060  -3.044  1.00 20.00     0.002 C 
HETATM    4  C4  UNL     1     -34.481  13.207  -4.748  1.00 20.00     0.002 C 
HETATM    5  C5  UNL     1     -35.029  16.014  -4.003  1.00 20.00     0.027 C 
HETATM    6  C6  UNL     1     -35.198  14.152  -5.715  1.00 20.00     0.027 C 
HETATM    7  C7  UNL     1     -35.959  15.290  -5.002  1.00 20.00     0.070 C 
HETATM    8  N9  UNL     1     -38.059  14.312  -3.732  1.00 20.00    -0.196 NA
ENDROOT
BRANCH   7   9
HETATM    9  C8  UNL     1     -36.464  16.297  -6.048  1.00 20.00     0.188 C 
BRANCH   9  10
HETATM   10  O10 UNL     1     -37.828  16.029  -6.293  1.00 20.00    -0.399 OA
HETATM   11  H23 UNL     1     -38.264  15.927  -5.429  1.00 20.00     0.209 HD
ENDBRANCH   9  10
ENDBRANCH   7   9
TORSDOF 2
ENDMDL
