MODEL 1
REMARK VINA RESULT:      -5.2      0.000      0.000
REMARK  2 active torsions:
REMARK  status: ('A' for Active; 'I' for Inactive)
REMARK    1  A    between atoms: C5_5  and  C8_8 
REMARK    2  A    between atoms: C6_6  and  N9_9 
ROOT
HETATM    1  C1  UNL     1     -34.216   5.555   3.202  1.00 20.00     0.006 C 
HETATM    2  C2  UNL     1     -33.010   6.578   5.172  1.00 20.00     0.006 C 
HETATM    3  C3  UNL     1     -35.466   5.356   4.061  1.00 20.00     0.024 C 
HETATM    4  C4  UNL     1     -34.253   6.387   6.042  1.00 20.00     0.024 C 
HETATM    5  C5  UNL     1     -33.373   6.738   3.690  1.00 20.00    -0.015 C 
HETATM    6  C6  UNL     1     -35.157   5.254   5.554  1.00 20.00     0.109 C 
ENDROOT
BRANCH   5   7
HETATM    7  C8  UNL     1     -32.111   6.887   2.840  1.00 20.00     0.000 C 
HETATM    8  C7  UNL     1     -32.094   8.184   2.101  1.00 20.00     0.005 C 
ENDBRANCH   5   7
BRANCH   6   9
HETATM    9  N9  UNL     1     -34.529   3.957   5.844  1.00 20.00    -0.059 NA
HETATM   10  O10 UNL     1     -34.877   3.100   5.034  1.00 20.00    -0.101 OA
ENDBRANCH   6   9
TORSDOF 2
ENDMDL
MODEL 2
REMARK VINA RESULT:      -4.9     12.028     12.579
REMARK  2 active torsions:
REMARK  status: ('A' for Active; 'I' for Inactive)
REMARK    1  A    between atoms: C5_5  and  C8_8 
REMARK    2  A    between atoms: C6_6  and  N9_9 
ROOT
HETATM    1  C1  UNL     1     -33.301  15.891  -2.918  1.00 20.00     0.006 C 
HETATM    2  C2  UNL     1     -35.767  15.342  -2.896  1.00 20.00     0.006 C 
HETATM    3  C3  UNL     1     -33.242  15.598  -4.418  1.00 20.00     0.024 C 
HETATM    4  C4  UNL     1     -35.722  15.048  -4.396  1.00 20.00     0.024 C 
HETATM    5  C5  UNL     1     -34.695  16.359  -2.485  1.00 20.00    -0.015 C 
HETATM    6  C6  UNL     1     -34.333  14.636  -4.885  1.00 20.00     0.109 C 
ENDROOT
BRANCH   5   7
HETATM    7  C8  UNL     1     -34.736  16.603  -0.977  1.00 20.00     0.000 C 
HETATM    8  C7  UNL     1     -33.782  17.676  -0.566  1.00 20.00     0.005 C 
ENDBRANCH   5   7
BRANCH   6   9
HETATM    9  N9  UNL     1     -34.027  13.275  -4.422  1.00 20.00    -0.059 NA
HETATM   10  O10 UNL     1     -34.986  12.521  -4.584  1.00 20.00    -0.101 OA
ENDBRANCH   6   9
TORSDOF 2
ENDMDL
MODEL 3
REMARK VINA RESULT:      -4.8     12.234     12.710
REMARK  2 active torsions:
REMARK  status: ('A' for Active; 'I' for Inactive)
REMARK    1  A    between atoms: C5_5  and  C8_8 
REMARK    2  A    between atoms: C6_6  and  N9_9 
ROOT
HETATM    1  C1  UNL     1     -35.720  15.529  -3.433  1.00 20.00     0.006 C 
HETATM    2  C2  UNL     1     -33.274  14.903  -3.375  1.00 20.00     0.006 C 
HETATM    3  C3  UNL     1     -36.051  14.207  -4.125  1.00 20.00     0.024 C 
HETATM    4  C4  UNL     1     -33.590  13.576  -4.066  1.00 20.00     0.024 C 
HETATM    5  C5  UNL     1     -34.466  15.417  -2.559  1.00 20.00    -0.015 C 
HETATM    6  C6  UNL     1     -34.870  13.625  -4.901  1.00 20.00     0.109 C 
ENDROOT
BRANCH   5   7
HETATM    7  C8  UNL     1     -34.137  16.763  -1.914  1.00 20.00     0.000 C 
HETATM    8  C7  UNL     1     -34.684  16.858  -0.528  1.00 20.00     0.005 C 
ENDBRANCH   5   7
BRANCH   6   9
HETATM    9  N9  UNL     1     -34.638  14.414  -6.119  1.00 20.00    -0.059 NA
HETATM   10  O10 UNL     1     -35.453  14.133  -6.996  1.00 20.00    -0.101 OA
ENDBRANCH   6   9
TORSDOF 2
ENDMDL
MODEL 4
REMARK VINA RESULT:      -4.5     12.025     12.785
REMARK  2 active torsions:
REMARK  status: ('A' for Active; 'I' for Inactive)
REMARK    1  A    between atoms: C5_5  and  C8_8 
REMARK    2  A    between atoms: C6_6  and  N9_9 
ROOT
HETATM    1  C1  UNL     1     -34.221  14.898  -3.210  1.00 20.00     0.006 C 
HETATM    2  C2  UNL     1     -35.897  16.777  -3.007  1.00 20.00     0.006 C 
HETATM    3  C3  UNL     1     -34.885  14.436  -4.508  1.00 20.00     0.024 C 
HETATM    4  C4  UNL     1     -36.570  16.327  -4.304  1.00 20.00     0.024 C 
HETATM    5  C5  UNL     1     -34.410  16.401  -2.978  1.00 20.00    -0.015 C 
HETATM    6  C6  UNL     1     -36.354  14.844  -4.608  1.00 20.00     0.109 C 
ENDROOT
BRANCH   5   7
HETATM    7  C8  UNL     1     -33.773  16.825  -1.655  1.00 20.00     0.000 C 
HETATM    8  C7  UNL     1     -34.749  16.760  -0.527  1.00 20.00     0.005 C 
ENDBRANCH   5   7
BRANCH   6   9
HETATM    9  N9  UNL     1     -37.161  14.027  -3.691  1.00 20.00    -0.059 NA
HETATM   10  O10 UNL     1     -38.355  14.306  -3.776  1.00 20.00    -0.101 OA
ENDBRANCH   6   9
TORSDOF 2
ENDMDL
MODEL 5
REMARK VINA RESULT:      -4.4     11.667     13.338
REMARK  2 active torsions:
REMARK  status: ('A' for Active; 'I' for Inactive)
REMARK    1  A    between atoms: C5_5  and  C8_8 
REMARK    2  A    between atoms: C6_6  and  N9_9 
ROOT
HETATM    1  C1  UNL     1     -35.643  15.781  -5.025  1.00 20.00     0.006 C 
HETATM    2  C2  UNL     1     -33.164  16.187  -4.757  1.00 20.00     0.006 C 
HETATM    3  C3  UNL     1     -35.656  14.960  -3.735  1.00 20.00     0.024 C 
HETATM    4  C4  UNL     1     -33.162  15.370  -3.465  1.00 20.00     0.024 C 
HETATM    5  C5  UNL     1     -34.530  16.834  -5.018  1.00 20.00    -0.015 C 
HETATM    6  C6  UNL     1     -34.297  14.346  -3.402  1.00 20.00     0.109 C 
ENDROOT
BRANCH   5   7
HETATM    7  C8  UNL     1     -34.515  17.610  -6.335  1.00 20.00     0.000 C 
HETATM    8  C7  UNL     1     -34.660  16.702  -7.512  1.00 20.00     0.005 C 
ENDBRANCH   5   7
BRANCH   6   9
HETATM    9  N9  UNL     1     -34.014  13.235  -4.320  1.00 20.00    -0.059 NA
HETATM   10  O10 UNL     1     -35.008  12.531  -4.491  1.00 20.00    -0.101 OA
ENDBRANCH   6   9
TORSDOF 2
ENDMDL
MODEL 6
REMARK VINA RESULT:      -4.3     11.831     13.345
REMARK  2 active torsions:
REMARK  status: ('A' for Active; 'I' for Inactive)
REMARK    1  A    between atoms: C5_5  and  C8_8 
REMARK    2  A    between atoms: C6_6  and  N9_9 
ROOT
HETATM    1  C1  UNL     1     -34.326  16.017  -5.688  1.00 20.00     0.006 C 
HETATM    2  C2  UNL     1     -34.716  13.609  -5.034  1.00 20.00     0.006 C 
HETATM    3  C3  UNL     1     -33.305  16.167  -4.560  1.00 20.00     0.024 C 
HETATM    4  C4  UNL     1     -33.696  13.744  -3.903  1.00 20.00     0.024 C 
HETATM    5  C5  UNL     1     -34.413  14.572  -6.189  1.00 20.00    -0.015 C 
HETATM    6  C6  UNL     1     -33.531  15.183  -3.413  1.00 20.00     0.109 C 
ENDROOT
BRANCH   5   7
HETATM    7  C8  UNL     1     -35.470  14.445  -7.286  1.00 20.00     0.000 C 
HETATM    8  C7  UNL     1     -36.733  15.151  -6.919  1.00 20.00     0.005 C 
ENDBRANCH   5   7
BRANCH   6   9
HETATM    9  N9  UNL     1     -34.714  15.583  -2.640  1.00 20.00    -0.059 NA
HETATM   10  O10 UNL     1     -34.397  16.175  -1.610  1.00 20.00    -0.101 OA
ENDBRANCH   6   9
TORSDOF 2
ENDMDL
MODEL 7
REMARK VINA RESULT:      -4.3     12.642     13.524
REMARK  2 active torsions:
REMARK  status: ('A' for Active; 'I' for Inactive)
REMARK    1  A    between atoms: C5_5  and  C8_8 
REMARK    2  A    between atoms: C6_6  and  N9_9 
ROOT
HETATM    1  C1  UNL     1     -34.840  14.844  -3.142  1.00 20.00     0.006 C 
HETATM    2  C2  UNL     1     -33.821  17.107  -3.613  1.00 20.00     0.006 C 
HETATM    3  C3  UNL     1     -34.324  14.324  -4.484  1.00 20.00     0.024 C 
HETATM    4  C4  UNL     1     -33.297  16.599  -4.957  1.00 20.00     0.024 C 
HETATM    5  C5  UNL     1     -33.959  15.971  -2.592  1.00 20.00    -0.015 C 
HETATM    6  C6  UNL     1     -34.112  15.432  -5.515  1.00 20.00     0.109 C 
ENDROOT
BRANCH   5   7
HETATM    7  C8  UNL     1     -34.522  16.498  -1.272  1.00 20.00     0.000 C 
HETATM    8  C7  UNL     1     -33.742  17.667  -0.768  1.00 20.00     0.005 C 
ENDBRANCH   5   7
BRANCH   6   9
HETATM    9  N9  UNL     1     -35.411  15.918  -5.997  1.00 20.00    -0.059 NA
HETATM   10  O10 UNL     1     -36.008  15.049  -6.630  1.00 20.00    -0.101 OA
ENDBRANCH   6   9
TORSDOF 2
ENDMDL
MODEL 8
REMARK VINA RESULT:      -4.1     12.149     13.471
REMARK  2 active torsions:
REMARK  status: ('A' for Active; 'I' for Inactive)
REMARK    1  A    between atoms: C5_5  and  C8_8 
REMARK    2  A    between atoms: C6_6  and  N9_9 
ROOT
HETATM    1  C1  UNL     1     -36.293  16.113  -5.743  1.00 20.00     0.006 C 
HETATM    2  C2  UNL     1     -34.565  14.487  -4.877  1.00 20.00     0.006 C 
HETATM    3  C3  UNL     1     -36.788  16.358  -4.317  1.00 20.00     0.024 C 
HETATM    4  C4  UNL     1     -35.049  14.723  -3.446  1.00 20.00     0.024 C 
HETATM    5  C5  UNL     1     -34.815  15.708  -5.771  1.00 20.00    -0.015 C 
HETATM    6  C6  UNL     1     -36.503  15.189  -3.375  1.00 20.00     0.109 C 
ENDROOT
BRANCH   5   7
HETATM    7  C8  UNL     1     -34.360  15.430  -7.203  1.00 20.00     0.000 C 
HETATM    8  C7  UNL     1     -35.308  14.524  -7.916  1.00 20.00     0.005 C 
ENDBRANCH   5   7
BRANCH   6   9
HETATM    9  N9  UNL     1     -37.400  14.068  -3.688  1.00 20.00    -0.059 NA
HETATM   10  O10 UNL     1     -38.580  14.406  -3.622  1.00 20.00    -0.101 OA
ENDBRANCH   6   9
TORSDOF 2
ENDMDL
MODEL 9
REMARK VINA RESULT:      -4.1     11.885     13.258
REMARK  2 active torsions:
REMARK  status: ('A' for Active; 'I' for Inactive)
REMARK    1  A    between atoms: C5_5  and  C8_8 
REMARK    2  A    between atoms: C6_6  and  N9_9 
ROOT
HETATM    1  C1  UNL     1     -34.264  15.609  -5.710  1.00 20.00     0.006 C 
HETATM    2  C2  UNL     1     -35.967  15.914  -3.869  1.00 20.00     0.006 C 
HETATM    3  C3  UNL     1     -34.624  14.126  -5.807  1.00 20.00     0.024 C 
HETATM    4  C4  UNL     1     -36.338  14.433  -3.956  1.00 20.00     0.024 C 
HETATM    5  C5  UNL     1     -35.444  16.449  -5.208  1.00 20.00    -0.015 C 
HETATM    6  C6  UNL     1     -35.208  13.565  -4.511  1.00 20.00     0.109 C 
ENDROOT
BRANCH   5   7
HETATM    7  C8  UNL     1     -35.044  17.918  -5.082  1.00 20.00     0.000 C 
HETATM    8  C7  UNL     1     -33.592  18.120  -5.366  1.00 20.00     0.005 C 
ENDBRANCH   5   7
BRANCH   6   9
HETATM    9  N9  UNL     1     -34.146  13.428  -3.505  1.00 20.00    -0.059 NA
HETATM   10  O10 UNL     1     -33.143  12.901  -3.981  1.00 20.00    -0.101 OA
ENDBRANCH   6   9
TORSDOF 2
ENDMDL
