MODEL 1
REMARK VINA RESULT:      -5.4      0.000      0.000
REMARK  2 active torsions:
REMARK  status: ('A' for Active; 'I' for Inactive)
REMARK    1  A    between atoms: C6_6  and  C8_8 
REMARK    2  A    between atoms: C7_7  and  C8_8 
ROOT
HETATM    1  C1  UNL     1     -35.233   4.858   5.972  1.00 20.00     0.001 A 
HETATM    2  C2  UNL     1     -34.505   5.880   6.701  1.00 20.00     0.001 A 
HETATM    3  C3  UNL     1     -34.822   4.840   4.695  1.00 20.00     0.013 A 
HETATM    4  C4  UNL     1     -33.644   6.493   5.872  1.00 20.00     0.013 A 
HETATM    5  C5  UNL     1     -33.805   5.866   4.575  1.00 20.00    -0.018 A 
HETATM    6  C7  UNL     1     -33.133   6.180   3.464  1.00 20.00     0.028 C 
HETATM    7 CL10 UNL     1     -33.487   5.362   1.978  1.00 20.00    -0.088 Cl
ENDROOT
BRANCH   6   8
HETATM    8  C8  UNL     1     -32.089   7.250   3.387  1.00 20.00     0.121 C 
BRANCH   8   9
HETATM    9  C6  UNL     1     -32.099   7.963   2.051  1.00 20.00     0.236 C 
HETATM   10  O9  UNL     1     -32.423   9.133   1.876  1.00 20.00    -0.307 OA
ENDBRANCH   8   9
ENDBRANCH   6   8
TORSDOF 2
ENDMDL
MODEL 2
REMARK VINA RESULT:      -5.1      1.486      1.955
REMARK  2 active torsions:
REMARK  status: ('A' for Active; 'I' for Inactive)
REMARK    1  A    between atoms: C6_6  and  C8_8 
REMARK    2  A    between atoms: C7_7  and  C8_8 
ROOT
HETATM    1  C1  UNL     1     -34.755   5.395   5.925  1.00 20.00     0.001 A 
HETATM    2  C2  UNL     1     -35.259   4.937   4.643  1.00 20.00     0.001 A 
HETATM    3  C3  UNL     1     -33.708   6.211   5.729  1.00 20.00     0.013 A 
HETATM    4  C4  UNL     1     -34.521   5.471   3.656  1.00 20.00     0.013 A 
HETATM    5  C5  UNL     1     -33.515   6.296   4.294  1.00 20.00    -0.018 A 
HETATM    6  C7  UNL     1     -32.574   7.009   3.670  1.00 20.00     0.028 C 
HETATM    7 CL10 UNL     1     -31.411   7.904   4.592  1.00 20.00    -0.088 Cl
ENDROOT
BRANCH   6   8
HETATM    8  C8  UNL     1     -32.411   7.066   2.183  1.00 20.00     0.121 C 
BRANCH   8   9
HETATM    9  C6  UNL     1     -31.902   8.413   1.715  1.00 20.00     0.236 C 
HETATM   10  O9  UNL     1     -32.546   9.457   1.729  1.00 20.00    -0.307 OA
ENDBRANCH   8   9
ENDBRANCH   6   8
TORSDOF 2
ENDMDL
MODEL 3
REMARK VINA RESULT:      -4.6     11.389     12.335
REMARK  2 active torsions:
REMARK  status: ('A' for Active; 'I' for Inactive)
REMARK    1  A    between atoms: C6_6  and  C8_8 
REMARK    2  A    between atoms: C7_7  and  C8_8 
ROOT
HETATM    1  C1  UNL     1     -34.066  18.604  -1.244  1.00 20.00     0.001 A 
HETATM    2  C2  UNL     1     -34.631  17.556  -0.414  1.00 20.00     0.001 A 
HETATM    3  C3  UNL     1     -33.708  18.091  -2.431  1.00 20.00     0.013 A 
HETATM    4  C4  UNL     1     -34.621  16.396  -1.090  1.00 20.00     0.013 A 
HETATM    5  C5  UNL     1     -34.041  16.680  -2.387  1.00 20.00    -0.018 A 
HETATM    6  C7  UNL     1     -33.846  15.798  -3.370  1.00 20.00     0.028 C 
HETATM    7 CL10 UNL     1     -33.089  16.297  -4.847  1.00 20.00    -0.088 Cl
ENDROOT
BRANCH   6   8
HETATM    8  C8  UNL     1     -34.206  14.346  -3.280  1.00 20.00     0.121 C 
BRANCH   8   9
HETATM    9  C6  UNL     1     -34.442  13.731  -4.643  1.00 20.00     0.236 C 
HETATM   10  O9  UNL     1     -34.811  12.579  -4.845  1.00 20.00    -0.307 OA
ENDBRANCH   8   9
ENDBRANCH   6   8
TORSDOF 2
ENDMDL
MODEL 4
REMARK VINA RESULT:      -4.3      2.943      4.588
REMARK  2 active torsions:
REMARK  status: ('A' for Active; 'I' for Inactive)
REMARK    1  A    between atoms: C6_6  and  C8_8 
REMARK    2  A    between atoms: C7_7  and  C8_8 
ROOT
HETATM    1  C1  UNL     1     -31.923   7.110   2.781  1.00 20.00     0.001 A 
HETATM    2  C2  UNL     1     -32.868   6.134   2.270  1.00 20.00     0.001 A 
HETATM    3  C3  UNL     1     -32.162   7.325   4.084  1.00 20.00     0.013 A 
HETATM    4  C4  UNL     1     -33.691   5.749   3.259  1.00 20.00     0.013 A 
HETATM    5  C5  UNL     1     -33.284   6.479   4.443  1.00 20.00    -0.018 A 
HETATM    6  C7  UNL     1     -33.844   6.389   5.652  1.00 20.00     0.028 C 
HETATM    7 CL10 UNL     1     -33.263   7.377   6.951  1.00 20.00    -0.088 Cl
ENDROOT
BRANCH   6   8
HETATM    8  C8  UNL     1     -35.004   5.500   5.976  1.00 20.00     0.121 C 
BRANCH   8   9
HETATM    9  C6  UNL     1     -34.643   4.032   5.880  1.00 20.00     0.236 C 
HETATM   10  O9  UNL     1     -35.047   3.259   5.019  1.00 20.00    -0.307 OA
ENDBRANCH   8   9
ENDBRANCH   6   8
TORSDOF 2
ENDMDL
MODEL 5
REMARK VINA RESULT:      -4.2     11.235     13.468
REMARK  2 active torsions:
REMARK  status: ('A' for Active; 'I' for Inactive)
REMARK    1  A    between atoms: C6_6  and  C8_8 
REMARK    2  A    between atoms: C7_7  and  C8_8 
ROOT
HETATM    1  C1  UNL     1     -33.971  18.977  -4.847  1.00 20.00     0.001 A 
HETATM    2  C2  UNL     1     -33.522  18.074  -5.890  1.00 20.00     0.001 A 
HETATM    3  C3  UNL     1     -34.191  18.284  -3.719  1.00 20.00     0.013 A 
HETATM    4  C4  UNL     1     -33.465  16.823  -5.405  1.00 20.00     0.013 A 
HETATM    5  C5  UNL     1     -33.882  16.900  -4.020  1.00 20.00    -0.018 A 
HETATM    6  C7  UNL     1     -33.968  15.874  -3.168  1.00 20.00     0.028 C 
HETATM    7 CL10 UNL     1     -34.537  16.134  -1.553  1.00 20.00    -0.088 Cl
ENDROOT
BRANCH   6   8
HETATM    8  C8  UNL     1     -33.638  14.457  -3.524  1.00 20.00     0.121 C 
BRANCH   8   9
HETATM    9  C6  UNL     1     -34.870  13.660  -3.897  1.00 20.00     0.236 C 
HETATM   10  O9  UNL     1     -34.877  12.657  -4.602  1.00 20.00    -0.307 OA
ENDBRANCH   8   9
ENDBRANCH   6   8
TORSDOF 2
ENDMDL
MODEL 6
REMARK VINA RESULT:      -4.1     11.461     12.235
REMARK  2 active torsions:
REMARK  status: ('A' for Active; 'I' for Inactive)
REMARK    1  A    between atoms: C6_6  and  C8_8 
REMARK    2  A    between atoms: C7_7  and  C8_8 
ROOT
HETATM    1  C1  UNL     1     -35.786  18.337  -0.988  1.00 20.00     0.001 A 
HETATM    2  C2  UNL     1     -34.818  17.509  -0.294  1.00 20.00     0.001 A 
HETATM    3  C3  UNL     1     -36.094  17.775  -2.167  1.00 20.00     0.013 A 
HETATM    4  C4  UNL     1     -34.528  16.434  -1.046  1.00 20.00     0.013 A 
HETATM    5  C5  UNL     1     -35.317  16.554  -2.256  1.00 20.00    -0.018 A 
HETATM    6  C7  UNL     1     -35.327  15.690  -3.275  1.00 20.00     0.028 C 
HETATM    7 CL10 UNL     1     -36.295  16.013  -4.675  1.00 20.00    -0.088 Cl
ENDROOT
BRANCH   6   8
HETATM    8  C8  UNL     1     -34.506  14.439  -3.324  1.00 20.00     0.121 C 
BRANCH   8   9
HETATM    9  C6  UNL     1     -34.603  13.744  -4.665  1.00 20.00     0.236 C 
HETATM   10  O9  UNL     1     -34.774  12.541  -4.828  1.00 20.00    -0.307 OA
ENDBRANCH   8   9
ENDBRANCH   6   8
TORSDOF 2
ENDMDL
MODEL 7
REMARK VINA RESULT:      -4.1     11.640     12.664
REMARK  2 active torsions:
REMARK  status: ('A' for Active; 'I' for Inactive)
REMARK    1  A    between atoms: C6_6  and  C8_8 
REMARK    2  A    between atoms: C7_7  and  C8_8 
ROOT
HETATM    1  C1  UNL     1     -34.615  17.422  -0.381  1.00 20.00     0.001 A 
HETATM    2  C2  UNL     1     -34.000  18.513  -1.114  1.00 20.00     0.001 A 
HETATM    3  C3  UNL     1     -34.632  16.321  -1.149  1.00 20.00     0.013 A 
HETATM    4  C4  UNL     1     -33.638  18.084  -2.334  1.00 20.00     0.013 A 
HETATM    5  C5  UNL     1     -34.019  16.688  -2.410  1.00 20.00    -0.018 A 
HETATM    6  C7  UNL     1     -33.836  15.881  -3.458  1.00 20.00     0.028 C 
HETATM    7 CL10 UNL     1     -34.400  14.243  -3.399  1.00 20.00    -0.088 Cl
ENDROOT
BRANCH   6   8
HETATM    8  C8  UNL     1     -33.197  16.305  -4.744  1.00 20.00     0.121 C 
BRANCH   8   9
HETATM    9  C6  UNL     1     -34.132  16.152  -5.925  1.00 20.00     0.236 C 
HETATM   10  O9  UNL     1     -34.052  15.279  -6.782  1.00 20.00    -0.307 OA
ENDBRANCH   8   9
ENDBRANCH   6   8
TORSDOF 2
ENDMDL
MODEL 8
REMARK VINA RESULT:      -4.1     11.556     13.267
REMARK  2 active torsions:
REMARK  status: ('A' for Active; 'I' for Inactive)
REMARK    1  A    between atoms: C6_6  and  C8_8 
REMARK    2  A    between atoms: C7_7  and  C8_8 
ROOT
HETATM    1  C1  UNL     1     -34.842  15.225  -7.543  1.00 20.00     0.001 A 
HETATM    2  C2  UNL     1     -34.520  16.607  -7.241  1.00 20.00     0.001 A 
HETATM    3  C3  UNL     1     -34.725  14.484  -6.431  1.00 20.00     0.013 A 
HETATM    4  C4  UNL     1     -34.204  16.719  -5.941  1.00 20.00     0.013 A 
HETATM    5  C5  UNL     1     -34.319  15.390  -5.374  1.00 20.00    -0.018 A 
HETATM    6  C7  UNL     1     -34.091  15.058  -4.100  1.00 20.00     0.028 C 
HETATM    7 CL10 UNL     1     -34.226  13.405  -3.598  1.00 20.00    -0.088 Cl
ENDROOT
BRANCH   6   8
HETATM    8  C8  UNL     1     -33.673  16.030  -3.041  1.00 20.00     0.121 C 
BRANCH   8   9
HETATM    9  C6  UNL     1     -34.678  16.112  -1.911  1.00 20.00     0.236 C 
HETATM   10  O9  UNL     1     -34.450  16.560  -0.793  1.00 20.00    -0.307 OA
ENDBRANCH   8   9
ENDBRANCH   6   8
TORSDOF 2
ENDMDL
MODEL 9
REMARK VINA RESULT:      -4.0     11.603     12.566
REMARK  2 active torsions:
REMARK  status: ('A' for Active; 'I' for Inactive)
REMARK    1  A    between atoms: C6_6  and  C8_8 
REMARK    2  A    between atoms: C7_7  and  C8_8 
ROOT
HETATM    1  C1  UNL     1     -34.836  14.004  -5.817  1.00 20.00     0.001 A 
HETATM    2  C2  UNL     1     -34.749  13.260  -4.575  1.00 20.00     0.001 A 
HETATM    3  C3  UNL     1     -34.533  15.292  -5.591  1.00 20.00     0.013 A 
HETATM    4  C4  UNL     1     -34.392  14.090  -3.581  1.00 20.00     0.013 A 
HETATM    5  C5  UNL     1     -34.240  15.403  -4.175  1.00 20.00    -0.018 A 
HETATM    6  C7  UNL     1     -33.891  16.520  -3.532  1.00 20.00     0.028 C 
HETATM    7 CL10 UNL     1     -33.805  18.024  -4.389  1.00 20.00    -0.088 Cl
ENDROOT
BRANCH   6   8
HETATM    8  C8  UNL     1     -33.598  16.588  -2.065  1.00 20.00     0.121 C 
BRANCH   8   9
HETATM    9  C6  UNL     1     -34.838  16.881  -1.247  1.00 20.00     0.236 C 
HETATM   10  O9  UNL     1     -34.897  16.872  -0.022  1.00 20.00    -0.307 OA
ENDBRANCH   8   9
ENDBRANCH   6   8
TORSDOF 2
ENDMDL
