MODEL 1
REMARK VINA RESULT:      -5.1      0.000      0.000
REMARK  2 active torsions:
REMARK  status: ('A' for Active; 'I' for Inactive)
REMARK    1  A    between atoms: C4_4  and  C8_8 
REMARK    2  A    between atoms: C5_5  and  O9_9 
ROOT
HETATM    1  C1  UNL     1     -34.013   6.466   5.902  1.00 20.00     0.007 C 
HETATM    2  C2  UNL     1     -34.278   5.039   6.367  1.00 20.00     0.032 C 
HETATM    3  C3  UNL     1     -35.489   5.516   4.288  1.00 20.00     0.036 C 
HETATM    4  C4  UNL     1     -34.272   6.437   4.398  1.00 20.00    -0.009 C 
HETATM    5  C5  UNL     1     -35.316   4.474   5.394  1.00 20.00     0.118 C 
ENDROOT
BRANCH   4   6
HETATM    6  C8  UNL     1     -33.073   5.914   3.610  1.00 20.00    -0.019 C 
HETATM    7  C6  UNL     1     -33.522   5.276   2.294  1.00 20.00     0.010 C 
HETATM    8  C7  UNL     1     -32.068   7.035   3.340  1.00 20.00     0.010 C 
ENDBRANCH   4   6
BRANCH   5   9
HETATM    9  O9  UNL     1     -34.837   3.248   4.857  1.00 20.00    -0.396 OA
HETATM   10  H25 UNL     1     -35.541   2.900   4.289  1.00 20.00     0.210 HD
ENDBRANCH   5   9
TORSDOF 2
ENDMDL
MODEL 2
REMARK VINA RESULT:      -4.5     11.856     12.995
REMARK  2 active torsions:
REMARK  status: ('A' for Active; 'I' for Inactive)
REMARK    1  A    between atoms: C4_4  and  C8_8 
REMARK    2  A    between atoms: C5_5  and  O9_9 
ROOT
HETATM    1  C1  UNL     1     -34.056  15.573  -5.333  1.00 20.00     0.007 C 
HETATM    2  C2  UNL     1     -34.784  14.291  -5.718  1.00 20.00     0.032 C 
HETATM    3  C3  UNL     1     -33.430  13.952  -3.700  1.00 20.00     0.036 C 
HETATM    4  C4  UNL     1     -33.789  15.433  -3.836  1.00 20.00    -0.009 C 
HETATM    5  C5  UNL     1     -34.287  13.225  -4.738  1.00 20.00     0.118 C 
ENDROOT
BRANCH   4   6
HETATM    6  C8  UNL     1     -35.000  15.818  -2.990  1.00 20.00    -0.019 C 
HETATM    7  C6  UNL     1     -34.573  16.209  -1.574  1.00 20.00     0.010 C 
HETATM    8  C7  UNL     1     -35.780  16.961  -3.643  1.00 20.00     0.010 C 
ENDBRANCH   4   6
BRANCH   5   9
HETATM    9  O9  UNL     1     -35.404  12.603  -4.116  1.00 20.00    -0.396 OA
HETATM   10  H25 UNL     1     -35.745  11.950  -4.747  1.00 20.00     0.210 HD
ENDBRANCH   5   9
TORSDOF 2
ENDMDL
MODEL 3
REMARK VINA RESULT:      -4.5      1.935      3.771
REMARK  2 active torsions:
REMARK  status: ('A' for Active; 'I' for Inactive)
REMARK    1  A    between atoms: C4_4  and  C8_8 
REMARK    2  A    between atoms: C5_5  and  O9_9 
ROOT
HETATM    1  C1  UNL     1     -34.021   5.123   2.834  1.00 20.00     0.007 C 
HETATM    2  C2  UNL     1     -32.604   5.626   2.589  1.00 20.00     0.032 C 
HETATM    3  C3  UNL     1     -33.955   7.341   3.707  1.00 20.00     0.036 C 
HETATM    4  C4  UNL     1     -34.530   5.956   4.009  1.00 20.00    -0.009 C 
HETATM    5  C5  UNL     1     -32.601   7.087   3.043  1.00 20.00     0.118 C 
ENDROOT
BRANCH   4   6
HETATM    6  C8  UNL     1     -34.060   5.411   5.356  1.00 20.00    -0.019 C 
HETATM    7  C6  UNL     1     -34.046   6.515   6.415  1.00 20.00     0.010 C 
HETATM    8  C7  UNL     1     -34.946   4.250   5.812  1.00 20.00     0.010 C 
ENDBRANCH   4   6
BRANCH   5   9
HETATM    9  O9  UNL     1     -31.543   7.287   3.973  1.00 20.00    -0.396 OA
HETATM   10  H25 UNL     1     -31.374   6.428   4.389  1.00 20.00     0.210 HD
ENDBRANCH   5   9
TORSDOF 2
ENDMDL
MODEL 4
REMARK VINA RESULT:      -4.2     12.368     13.220
REMARK  2 active torsions:
REMARK  status: ('A' for Active; 'I' for Inactive)
REMARK    1  A    between atoms: C4_4  and  C8_8 
REMARK    2  A    between atoms: C5_5  and  O9_9 
ROOT
HETATM    1  C1  UNL     1     -35.047  15.365  -2.623  1.00 20.00     0.007 C 
HETATM    2  C2  UNL     1     -33.733  16.102  -2.852  1.00 20.00     0.032 C 
HETATM    3  C3  UNL     1     -33.702  13.906  -3.947  1.00 20.00     0.036 C 
HETATM    4  C4  UNL     1     -35.148  14.382  -3.787  1.00 20.00    -0.009 C 
HETATM    5  C5  UNL     1     -32.832  15.116  -3.600  1.00 20.00     0.118 C 
ENDROOT
BRANCH   4   6
HETATM    6  C8  UNL     1     -35.689  15.035  -5.057  1.00 20.00    -0.019 C 
HETATM    7  C6  UNL     1     -35.238  14.268  -6.300  1.00 20.00     0.010 C 
HETATM    8  C7  UNL     1     -37.215  15.126  -5.015  1.00 20.00     0.010 C 
ENDBRANCH   4   6
BRANCH   5   9
HETATM    9  O9  UNL     1     -32.341  15.734  -4.783  1.00 20.00    -0.396 OA
HETATM   10  H25 UNL     1     -32.923  15.452  -5.505  1.00 20.00     0.210 HD
ENDBRANCH   5   9
TORSDOF 2
ENDMDL
MODEL 5
REMARK VINA RESULT:      -4.0     12.331     13.572
REMARK  2 active torsions:
REMARK  status: ('A' for Active; 'I' for Inactive)
REMARK    1  A    between atoms: C4_4  and  C8_8 
REMARK    2  A    between atoms: C5_5  and  O9_9 
ROOT
HETATM    1  C1  UNL     1     -33.848  16.309  -4.115  1.00 20.00     0.007 C 
HETATM    2  C2  UNL     1     -32.957  15.155  -3.670  1.00 20.00     0.032 C 
HETATM    3  C3  UNL     1     -35.206  14.351  -4.232  1.00 20.00     0.036 C 
HETATM    4  C4  UNL     1     -34.923  15.656  -4.981  1.00 20.00    -0.009 C 
HETATM    5  C5  UNL     1     -33.865  13.923  -3.634  1.00 20.00     0.118 C 
ENDROOT
BRANCH   4   6
HETATM    6  C8  UNL     1     -34.451  15.415  -6.412  1.00 20.00    -0.019 C 
HETATM    7  C6  UNL     1     -35.314  14.355  -7.100  1.00 20.00     0.010 C 
HETATM    8  C7  UNL     1     -34.467  16.715  -7.218  1.00 20.00     0.010 C 
ENDBRANCH   4   6
BRANCH   5   9
HETATM    9  O9  UNL     1     -33.279  12.887  -4.411  1.00 20.00    -0.396 OA
HETATM   10  H25 UNL     1     -32.858  12.276  -3.787  1.00 20.00     0.210 HD
ENDBRANCH   5   9
TORSDOF 2
ENDMDL
MODEL 6
REMARK VINA RESULT:      -3.9     12.391     13.491
REMARK  2 active torsions:
REMARK  status: ('A' for Active; 'I' for Inactive)
REMARK    1  A    between atoms: C4_4  and  C8_8 
REMARK    2  A    between atoms: C5_5  and  O9_9 
ROOT
HETATM    1  C1  UNL     1     -35.380  15.194  -2.989  1.00 20.00     0.007 C 
HETATM    2  C2  UNL     1     -34.244  14.412  -3.638  1.00 20.00     0.032 C 
HETATM    3  C3  UNL     1     -34.273  16.731  -4.439  1.00 20.00     0.036 C 
HETATM    4  C4  UNL     1     -34.937  16.653  -3.062  1.00 20.00    -0.009 C 
HETATM    5  C5  UNL     1     -33.612  15.368  -4.653  1.00 20.00     0.118 C 
ENDROOT
BRANCH   4   6
HETATM    6  C8  UNL     1     -33.980  17.029  -1.933  1.00 20.00    -0.019 C 
HETATM    7  C6  UNL     1     -33.554  18.494  -2.043  1.00 20.00     0.010 C 
HETATM    8  C7  UNL     1     -34.618  16.763  -0.568  1.00 20.00     0.010 C 
ENDBRANCH   4   6
BRANCH   5   9
HETATM    9  O9  UNL     1     -32.213  15.448  -4.413  1.00 20.00    -0.396 OA
HETATM   10  H25 UNL     1     -32.058  16.287  -3.953  1.00 20.00     0.210 HD
ENDBRANCH   5   9
TORSDOF 2
ENDMDL
MODEL 7
REMARK VINA RESULT:      -3.9     12.390     12.923
REMARK  2 active torsions:
REMARK  status: ('A' for Active; 'I' for Inactive)
REMARK    1  A    between atoms: C4_4  and  C8_8 
REMARK    2  A    between atoms: C5_5  and  O9_9 
ROOT
HETATM    1  C1  UNL     1     -36.089  15.889  -4.234  1.00 20.00     0.007 C 
HETATM    2  C2  UNL     1     -36.586  14.453  -4.129  1.00 20.00     0.032 C 
HETATM    3  C3  UNL     1     -34.504  14.561  -5.422  1.00 20.00     0.036 C 
HETATM    4  C4  UNL     1     -34.587  15.763  -4.478  1.00 20.00    -0.009 C 
HETATM    5  C5  UNL     1     -35.631  13.622  -4.991  1.00 20.00     0.118 C 
ENDROOT
BRANCH   4   6
HETATM    6  C8  UNL     1     -33.803  15.543  -3.186  1.00 20.00    -0.019 C 
HETATM    7  C6  UNL     1     -32.418  14.965  -3.480  1.00 20.00     0.010 C 
HETATM    8  C7  UNL     1     -33.677  16.848  -2.397  1.00 20.00     0.010 C 
ENDBRANCH   4   6
BRANCH   5   9
HETATM    9  O9  UNL     1     -35.117  12.546  -4.216  1.00 20.00    -0.396 OA
HETATM   10  H25 UNL     1     -35.580  11.747  -4.510  1.00 20.00     0.210 HD
ENDBRANCH   5   9
TORSDOF 2
ENDMDL
MODEL 8
REMARK VINA RESULT:      -3.8      8.835     10.057
REMARK  2 active torsions:
REMARK  status: ('A' for Active; 'I' for Inactive)
REMARK    1  A    between atoms: C4_4  and  C8_8 
REMARK    2  A    between atoms: C5_5  and  O9_9 
ROOT
HETATM    1  C1  UNL     1     -42.303   4.247  -2.018  1.00 20.00     0.007 C 
HETATM    2  C2  UNL     1     -42.926   3.935  -0.663  1.00 20.00     0.032 C 
HETATM    3  C3  UNL     1     -40.907   5.303  -0.398  1.00 20.00     0.036 C 
HETATM    4  C4  UNL     1     -41.502   5.527  -1.790  1.00 20.00    -0.009 C 
HETATM    5  C5  UNL     1     -41.964   4.514   0.377  1.00 20.00     0.118 C 
ENDROOT
BRANCH   4   6
HETATM    6  C8  UNL     1     -42.373   6.779  -1.857  1.00 20.00    -0.019 C 
HETATM    7  C6  UNL     1     -41.768   7.909  -1.022  1.00 20.00     0.010 C 
HETATM    8  C7  UNL     1     -42.563   7.234  -3.305  1.00 20.00     0.010 C 
ENDBRANCH   4   6
BRANCH   5   9
HETATM    9  O9  UNL     1     -42.682   5.370   1.256  1.00 20.00    -0.396 OA
HETATM   10  H25 UNL     1     -42.848   4.862   2.065  1.00 20.00     0.210 HD
ENDBRANCH   5   9
TORSDOF 2
ENDMDL
MODEL 9
REMARK VINA RESULT:      -3.7     12.149     13.322
REMARK  2 active torsions:
REMARK  status: ('A' for Active; 'I' for Inactive)
REMARK    1  A    between atoms: C4_4  and  C8_8 
REMARK    2  A    between atoms: C5_5  and  O9_9 
ROOT
HETATM    1  C1  UNL     1     -35.430  14.943  -6.139  1.00 20.00     0.007 C 
HETATM    2  C2  UNL     1     -36.684  15.307  -5.352  1.00 20.00     0.032 C 
HETATM    3  C3  UNL     1     -35.427  13.533  -4.215  1.00 20.00     0.036 C 
HETATM    4  C4  UNL     1     -34.482  14.347  -5.101  1.00 20.00    -0.009 C 
HETATM    5  C5  UNL     1     -36.738  14.320  -4.184  1.00 20.00     0.118 C 
ENDROOT
BRANCH   4   6
HETATM    6  C8  UNL     1     -33.728  15.419  -4.318  1.00 20.00    -0.019 C 
HETATM    7  C6  UNL     1     -32.542  14.812  -3.566  1.00 20.00     0.010 C 
HETATM    8  C7  UNL     1     -33.250  16.538  -5.245  1.00 20.00     0.010 C 
ENDBRANCH   4   6
BRANCH   5   9
HETATM    9  O9  UNL     1     -36.858  15.043  -2.965  1.00 20.00    -0.396 OA
HETATM   10  H25 UNL     1     -37.805  15.093  -2.763  1.00 20.00     0.210 HD
ENDBRANCH   5   9
TORSDOF 2
ENDMDL
