MODEL 1
REMARK VINA RESULT:      -4.8      0.000      0.000
REMARK  2 active torsions:
REMARK  status: ('A' for Active; 'I' for Inactive)
REMARK    1  A    between atoms: C4_4  and  C7_7 
REMARK    2  A    between atoms: C5_5  and  O8_8 
ROOT
HETATM    1  C1  UNL     1     -35.297   5.558   3.755  1.00 20.00     0.007 C 
HETATM    2  C2  UNL     1     -35.265   4.360   4.697  1.00 20.00     0.032 C 
HETATM    3  C3  UNL     1     -34.251   6.329   5.757  1.00 20.00     0.036 C 
HETATM    4  C4  UNL     1     -34.158   6.455   4.234  1.00 20.00    -0.012 C 
HETATM    5  C5  UNL     1     -34.716   4.895   6.022  1.00 20.00     0.118 C 
ENDROOT
BRANCH   4   6
HETATM    6  C7  UNL     1     -32.799   6.011   3.696  1.00 20.00     0.000 C 
HETATM    7  C6  UNL     1     -32.109   7.105   2.946  1.00 20.00     0.005 C 
ENDBRANCH   4   6
BRANCH   5   8
HETATM    8  O8  UNL     1     -33.614   4.106   6.450  1.00 20.00    -0.396 OA
HETATM    9  H22 UNL     1     -33.613   3.308   5.898  1.00 20.00     0.210 HD
ENDBRANCH   5   8
TORSDOF 2
ENDMDL
MODEL 2
REMARK VINA RESULT:      -4.5     11.788     12.657
REMARK  2 active torsions:
REMARK  status: ('A' for Active; 'I' for Inactive)
REMARK    1  A    between atoms: C4_4  and  C7_7 
REMARK    2  A    between atoms: C5_5  and  O8_8 
ROOT
HETATM    1  C1  UNL     1     -33.057  15.172  -3.661  1.00 20.00     0.007 C 
HETATM    2  C2  UNL     1     -33.223  13.659  -3.731  1.00 20.00     0.032 C 
HETATM    3  C3  UNL     1     -34.984  14.787  -5.015  1.00 20.00     0.036 C 
HETATM    4  C4  UNL     1     -34.456  15.725  -3.926  1.00 20.00    -0.012 C 
HETATM    5  C5  UNL     1     -34.377  13.417  -4.706  1.00 20.00     0.118 C 
ENDROOT
BRANCH   4   6
HETATM    6  C7  UNL     1     -35.333  15.717  -2.676  1.00 20.00     0.000 C 
HETATM    7  C6  UNL     1     -34.641  16.334  -1.502  1.00 20.00     0.005 C 
ENDBRANCH   4   6
BRANCH   5   8
HETATM    8  O8  UNL     1     -35.360  12.582  -4.106  1.00 20.00    -0.396 OA
HETATM    9  H22 UNL     1     -34.910  12.083  -3.407  1.00 20.00     0.210 HD
ENDBRANCH   5   8
TORSDOF 2
ENDMDL
MODEL 3
REMARK VINA RESULT:      -4.0     12.177     13.503
REMARK  2 active torsions:
REMARK  status: ('A' for Active; 'I' for Inactive)
REMARK    1  A    between atoms: C4_4  and  C7_7 
REMARK    2  A    between atoms: C5_5  and  O8_8 
ROOT
HETATM    1  C1  UNL     1     -34.967  13.441  -4.215  1.00 20.00     0.007 C 
HETATM    2  C2  UNL     1     -33.521  13.676  -3.797  1.00 20.00     0.032 C 
HETATM    3  C3  UNL     1     -34.618  15.797  -4.366  1.00 20.00     0.036 C 
HETATM    4  C4  UNL     1     -35.315  14.642  -5.091  1.00 20.00    -0.012 C 
HETATM    5  C5  UNL     1     -33.344  15.196  -3.767  1.00 20.00     0.118 C 
ENDROOT
BRANCH   4   6
HETATM    6  C7  UNL     1     -34.824  14.478  -6.528  1.00 20.00     0.000 C 
HETATM    7  C6  UNL     1     -34.585  15.797  -7.193  1.00 20.00     0.005 C 
ENDBRANCH   4   6
BRANCH   5   8
HETATM    8  O8  UNL     1     -32.221  15.574  -4.553  1.00 20.00    -0.396 OA
HETATM    9  H22 UNL     1     -31.506  15.784  -3.933  1.00 20.00     0.210 HD
ENDBRANCH   5   8
TORSDOF 2
ENDMDL
MODEL 4
REMARK VINA RESULT:      -3.9     12.180     13.354
REMARK  2 active torsions:
REMARK  status: ('A' for Active; 'I' for Inactive)
REMARK    1  A    between atoms: C4_4  and  C7_7 
REMARK    2  A    between atoms: C5_5  and  O8_8 
ROOT
HETATM    1  C1  UNL     1     -34.783  15.827  -2.256  1.00 20.00     0.007 C 
HETATM    2  C2  UNL     1     -33.493  16.482  -2.739  1.00 20.00     0.032 C 
HETATM    3  C3  UNL     1     -34.976  15.980  -4.629  1.00 20.00     0.036 C 
HETATM    4  C4  UNL     1     -35.290  15.041  -3.462  1.00 20.00    -0.012 C 
HETATM    5  C5  UNL     1     -33.680  16.698  -4.242  1.00 20.00     0.118 C 
ENDROOT
BRANCH   4   6
HETATM    6  C7  UNL     1     -34.601  13.685  -3.607  1.00 20.00     0.000 C 
HETATM    7  C6  UNL     1     -34.677  13.164  -5.007  1.00 20.00     0.005 C 
ENDBRANCH   4   6
BRANCH   5   8
HETATM    8  O8  UNL     1     -32.589  16.134  -4.958  1.00 20.00    -0.396 OA
HETATM    9  H22 UNL     1     -31.917  16.830  -5.033  1.00 20.00     0.210 HD
ENDBRANCH   5   8
TORSDOF 2
ENDMDL
MODEL 5
REMARK VINA RESULT:      -3.9     12.444     13.188
REMARK  2 active torsions:
REMARK  status: ('A' for Active; 'I' for Inactive)
REMARK    1  A    between atoms: C4_4  and  C7_7 
REMARK    2  A    between atoms: C5_5  and  O8_8 
ROOT
HETATM    1  C1  UNL     1     -36.198  14.571  -3.879  1.00 20.00     0.007 C 
HETATM    2  C2  UNL     1     -36.038  14.941  -5.349  1.00 20.00     0.032 C 
HETATM    3  C3  UNL     1     -34.204  13.485  -4.613  1.00 20.00     0.036 C 
HETATM    4  C4  UNL     1     -34.784  14.234  -3.411  1.00 20.00    -0.012 C 
HETATM    5  C5  UNL     1     -34.835  14.137  -5.846  1.00 20.00     0.118 C 
ENDROOT
BRANCH   4   6
HETATM    6  C7  UNL     1     -33.974  15.479  -3.056  1.00 20.00     0.000 C 
HETATM    7  C6  UNL     1     -34.515  16.173  -1.846  1.00 20.00     0.005 C 
ENDBRANCH   4   6
BRANCH   5   8
HETATM    8  O8  UNL     1     -33.891  15.000  -6.467  1.00 20.00    -0.396 OA
HETATM    9  H22 UNL     1     -33.138  14.446  -6.727  1.00 20.00     0.210 HD
ENDBRANCH   5   8
TORSDOF 2
ENDMDL
MODEL 6
REMARK VINA RESULT:      -3.9     12.605     13.417
REMARK  2 active torsions:
REMARK  status: ('A' for Active; 'I' for Inactive)
REMARK    1  A    between atoms: C4_4  and  C7_7 
REMARK    2  A    between atoms: C5_5  and  O8_8 
ROOT
HETATM    1  C1  UNL     1     -35.807  16.075  -3.630  1.00 20.00     0.007 C 
HETATM    2  C2  UNL     1     -34.953  16.370  -4.857  1.00 20.00     0.032 C 
HETATM    3  C3  UNL     1     -33.938  14.599  -3.495  1.00 20.00     0.036 C 
HETATM    4  C4  UNL     1     -34.833  15.477  -2.618  1.00 20.00    -0.012 C 
HETATM    5  C5  UNL     1     -33.830  15.331  -4.835  1.00 20.00     0.118 C 
ENDROOT
BRANCH   4   6
HETATM    6  C7  UNL     1     -34.042  16.546  -1.867  1.00 20.00     0.000 C 
HETATM    7  C6  UNL     1     -34.644  16.856  -0.533  1.00 20.00     0.005 C 
ENDBRANCH   4   6
BRANCH   5   8
HETATM    8  O8  UNL     1     -32.565  15.975  -4.928  1.00 20.00    -0.396 OA
HETATM    9  H22 UNL     1     -32.501  16.332  -5.827  1.00 20.00     0.210 HD
ENDBRANCH   5   8
TORSDOF 2
ENDMDL
MODEL 7
REMARK VINA RESULT:      -3.9     11.969     12.789
REMARK  2 active torsions:
REMARK  status: ('A' for Active; 'I' for Inactive)
REMARK    1  A    between atoms: C4_4  and  C7_7 
REMARK    2  A    between atoms: C5_5  and  O8_8 
ROOT
HETATM    1  C1  UNL     1     -33.641  14.494  -3.699  1.00 20.00     0.007 C 
HETATM    2  C2  UNL     1     -34.770  13.497  -3.935  1.00 20.00     0.032 C 
HETATM    3  C3  UNL     1     -35.515  15.785  -4.418  1.00 20.00     0.036 C 
HETATM    4  C4  UNL     1     -34.349  15.819  -3.425  1.00 20.00    -0.012 C 
HETATM    5  C5  UNL     1     -35.923  14.313  -4.522  1.00 20.00     0.118 C 
ENDROOT
BRANCH   4   6
HETATM    6  C7  UNL     1     -34.822  15.940  -1.978  1.00 20.00     0.000 C 
HETATM    7  C6  UNL     1     -34.045  16.969  -1.220  1.00 20.00     0.005 C 
ENDBRANCH   4   6
BRANCH   5   8
HETATM    8  O8  UNL     1     -37.111  14.092  -3.773  1.00 20.00    -0.396 OA
HETATM    9  H22 UNL     1     -37.317  13.148  -3.851  1.00 20.00     0.210 HD
ENDBRANCH   5   8
TORSDOF 2
ENDMDL
MODEL 8
REMARK VINA RESULT:      -3.8     12.054     13.322
REMARK  2 active torsions:
REMARK  status: ('A' for Active; 'I' for Inactive)
REMARK    1  A    between atoms: C4_4  and  C7_7 
REMARK    2  A    between atoms: C5_5  and  O8_8 
ROOT
HETATM    1  C1  UNL     1     -33.485  15.540  -4.314  1.00 20.00     0.007 C 
HETATM    2  C2  UNL     1     -33.547  14.140  -3.716  1.00 20.00     0.032 C 
HETATM    3  C3  UNL     1     -34.801  14.243  -5.823  1.00 20.00     0.036 C 
HETATM    4  C4  UNL     1     -34.728  15.638  -5.196  1.00 20.00    -0.012 C 
HETATM    5  C5  UNL     1     -34.277  13.283  -4.752  1.00 20.00     0.118 C 
ENDROOT
BRANCH   4   6
HETATM    6  C7  UNL     1     -35.984  15.983  -4.399  1.00 20.00     0.000 C 
HETATM    7  C6  UNL     1     -37.231  15.555  -5.105  1.00 20.00     0.005 C 
ENDBRANCH   4   6
BRANCH   5   8
HETATM    8  O8  UNL     1     -35.368  12.602  -4.145  1.00 20.00    -0.396 OA
HETATM    9  H22 UNL     1     -36.024  13.279  -3.915  1.00 20.00     0.210 HD
ENDBRANCH   5   8
TORSDOF 2
ENDMDL
MODEL 9
REMARK VINA RESULT:      -3.8      8.849     10.196
REMARK  2 active torsions:
REMARK  status: ('A' for Active; 'I' for Inactive)
REMARK    1  A    between atoms: C4_4  and  C7_7 
REMARK    2  A    between atoms: C5_5  and  O8_8 
ROOT
HETATM    1  C1  UNL     1     -41.587   4.734   0.155  1.00 20.00     0.007 C 
HETATM    2  C2  UNL     1     -40.834   6.048  -0.021  1.00 20.00     0.032 C 
HETATM    3  C3  UNL     1     -42.681   5.881  -1.628  1.00 20.00     0.036 C 
HETATM    4  C4  UNL     1     -42.238   4.479  -1.202  1.00 20.00    -0.012 C 
HETATM    5  C5  UNL     1     -41.620   6.834  -1.072  1.00 20.00     0.118 C 
ENDROOT
BRANCH   4   6
HETATM    6  C7  UNL     1     -41.274   3.845  -2.202  1.00 20.00     0.000 C 
HETATM    7  C6  UNL     1     -41.917   2.738  -2.976  1.00 20.00     0.005 C 
ENDBRANCH   4   6
BRANCH   5   8
HETATM    8  O8  UNL     1     -40.755   7.251  -2.121  1.00 20.00    -0.396 OA
HETATM    9  H22 UNL     1     -41.208   7.044  -2.953  1.00 20.00     0.210 HD
ENDBRANCH   5   8
TORSDOF 2
ENDMDL
