MODEL 1
REMARK VINA RESULT:      -5.7      0.000      0.000
REMARK  1 active torsions:
REMARK  status: ('A' for Active; 'I' for Inactive)
REMARK    1  A    between atoms: C5_5  and  O10_10 
ROOT
HETATM    1  C1  UNL     1     -35.009   4.529   4.662  1.00 20.00     0.050 A 
HETATM    2  C2  UNL     1     -34.465   5.658   6.748  1.00 20.00     0.079 A 
HETATM    3  C3  UNL     1     -34.141   5.388   4.011  1.00 20.00    -0.046 A 
HETATM    4  C4  UNL     1     -33.444   6.378   4.714  1.00 20.00    -0.018 A 
HETATM    5  C5  UNL     1     -33.601   6.530   6.081  1.00 20.00     0.075 A 
HETATM    6  C6  UNL     1     -35.164   4.665   6.043  1.00 20.00     0.119 A 
HETATM    7  C7  UNL     1     -33.841   5.463   2.547  1.00 20.00     0.039 C 
HETATM    8  C8  UNL     1     -32.613   7.206   3.785  1.00 20.00     0.042 C 
HETATM    9  C9  UNL     1     -32.549   6.294   2.551  1.00 20.00     0.009 C 
HETATM   10  F11 UNL     1     -35.994   3.845   6.703  1.00 20.00    -0.206 F 
ENDROOT
BRANCH   5  11
HETATM   11  O10 UNL     1     -32.939   7.498   6.765  1.00 20.00    -0.360 OA
HETATM   12  H20 UNL     1     -33.438   7.753   7.560  1.00 20.00     0.217 HD
ENDBRANCH   5  11
TORSDOF 1
ENDMDL
MODEL 2
REMARK VINA RESULT:      -5.2      2.800      4.335
REMARK  1 active torsions:
REMARK  status: ('A' for Active; 'I' for Inactive)
REMARK    1  A    between atoms: C5_5  and  O10_10 
ROOT
HETATM    1  C1  UNL     1     -32.682   7.099   5.052  1.00 20.00     0.050 A 
HETATM    2  C2  UNL     1     -32.699   6.472   2.701  1.00 20.00     0.079 A 
HETATM    3  C3  UNL     1     -33.714   6.201   5.263  1.00 20.00    -0.046 A 
HETATM    4  C4  UNL     1     -34.243   5.448   4.207  1.00 20.00    -0.018 A 
HETATM    5  C5  UNL     1     -33.750   5.578   2.919  1.00 20.00     0.075 A 
HETATM    6  C6  UNL     1     -32.169   7.227   3.759  1.00 20.00     0.119 A 
HETATM    7  C7  UNL     1     -34.447   5.920   6.536  1.00 20.00     0.039 C 
HETATM    8  C8  UNL     1     -35.377   4.593   4.678  1.00 20.00     0.042 C 
HETATM    9  C9  UNL     1     -35.137   4.591   6.195  1.00 20.00     0.009 C 
HETATM   10  F11 UNL     1     -31.167   8.084   3.524  1.00 20.00    -0.206 F 
ENDROOT
BRANCH   5  11
HETATM   11  O10 UNL     1     -34.268   4.862   1.889  1.00 20.00    -0.360 OA
HETATM   12  H20 UNL     1     -34.363   3.928   2.139  1.00 20.00     0.217 HD
ENDBRANCH   5  11
TORSDOF 1
ENDMDL
MODEL 3
REMARK VINA RESULT:      -5.2     12.520     13.859
REMARK  1 active torsions:
REMARK  status: ('A' for Active; 'I' for Inactive)
REMARK    1  A    between atoms: C5_5  and  O10_10 
ROOT
HETATM    1  C1  UNL     1     -33.735  16.465  -4.401  1.00 20.00     0.050 A 
HETATM    2  C2  UNL     1     -34.344  14.472  -3.145  1.00 20.00     0.079 A 
HETATM    3  C3  UNL     1     -34.222  15.851  -5.542  1.00 20.00    -0.046 A 
HETATM    4  C4  UNL     1     -34.760  14.560  -5.494  1.00 20.00    -0.018 A 
HETATM    5  C5  UNL     1     -34.821  13.855  -4.304  1.00 20.00     0.075 A 
HETATM    6  C6  UNL     1     -33.805  15.767  -3.193  1.00 20.00     0.119 A 
HETATM    7  C7  UNL     1     -34.221  16.376  -6.944  1.00 20.00     0.039 C 
HETATM    8  C8  UNL     1     -35.169  14.101  -6.858  1.00 20.00     0.042 C 
HETATM    9  C9  UNL     1     -35.237  15.438  -7.612  1.00 20.00     0.009 C 
HETATM   10  F11 UNL     1     -33.345  16.336  -2.070  1.00 20.00    -0.206 F 
ENDROOT
BRANCH   5  11
HETATM   11  O10 UNL     1     -35.328  12.596  -4.253  1.00 20.00    -0.360 OA
HETATM   12  H20 UNL     1     -35.682  12.408  -3.368  1.00 20.00     0.217 HD
ENDBRANCH   5  11
TORSDOF 1
ENDMDL
MODEL 4
REMARK VINA RESULT:      -4.9     12.663     13.951
REMARK  1 active torsions:
REMARK  status: ('A' for Active; 'I' for Inactive)
REMARK    1  A    between atoms: C5_5  and  O10_10 
ROOT
HETATM    1  C1  UNL     1     -34.045  16.121  -5.877  1.00 20.00     0.050 A 
HETATM    2  C2  UNL     1     -34.853  13.826  -5.901  1.00 20.00     0.079 A 
HETATM    3  C3  UNL     1     -34.190  16.120  -4.501  1.00 20.00    -0.046 A 
HETATM    4  C4  UNL     1     -34.666  14.990  -3.825  1.00 20.00    -0.018 A 
HETATM    5  C5  UNL     1     -35.008  13.838  -4.513  1.00 20.00     0.075 A 
HETATM    6  C6  UNL     1     -34.375  14.959  -6.578  1.00 20.00     0.119 A 
HETATM    7  C7  UNL     1     -33.941  17.246  -3.547  1.00 20.00     0.039 C 
HETATM    8  C8  UNL     1     -34.779  15.255  -2.357  1.00 20.00     0.042 C 
HETATM    9  C9  UNL     1     -33.882  16.493  -2.209  1.00 20.00     0.009 C 
HETATM   10  F11 UNL     1     -34.243  14.927  -7.911  1.00 20.00    -0.206 F 
ENDROOT
BRANCH   5  11
HETATM   11  O10 UNL     1     -35.485  12.744  -3.865  1.00 20.00    -0.360 OA
HETATM   12  H20 UNL     1     -35.412  11.957  -4.430  1.00 20.00     0.217 HD
ENDBRANCH   5  11
TORSDOF 1
ENDMDL
MODEL 5
REMARK VINA RESULT:      -4.8     12.456     12.921
REMARK  1 active torsions:
REMARK  status: ('A' for Active; 'I' for Inactive)
REMARK    1  A    between atoms: C5_5  and  O10_10 
ROOT
HETATM    1  C1  UNL     1     -33.645  14.535  -3.726  1.00 20.00     0.050 A 
HETATM    2  C2  UNL     1     -35.934  13.831  -4.154  1.00 20.00     0.079 A 
HETATM    3  C3  UNL     1     -34.144  15.558  -2.939  1.00 20.00    -0.046 A 
HETATM    4  C4  UNL     1     -35.523  15.726  -2.762  1.00 20.00    -0.018 A 
HETATM    5  C5  UNL     1     -36.430  14.874  -3.369  1.00 20.00     0.075 A 
HETATM    6  C6  UNL     1     -34.552  13.663  -4.332  1.00 20.00     0.119 A 
HETATM    7  C7  UNL     1     -33.381  16.631  -2.227  1.00 20.00     0.039 C 
HETATM    8  C8  UNL     1     -35.810  16.925  -1.914  1.00 20.00     0.042 C 
HETATM    9  C9  UNL     1     -34.444  17.150  -1.247  1.00 20.00     0.009 C 
HETATM   10  F11 UNL     1     -34.099  12.660  -5.096  1.00 20.00    -0.206 F 
ENDROOT
BRANCH   5  11
HETATM   11  O10 UNL     1     -37.769  15.041  -3.213  1.00 20.00    -0.360 OA
HETATM   12  H20 UNL     1     -38.238  14.211  -3.400  1.00 20.00     0.217 HD
ENDBRANCH   5  11
TORSDOF 1
ENDMDL
MODEL 6
REMARK VINA RESULT:      -4.7     12.757     13.670
REMARK  1 active torsions:
REMARK  status: ('A' for Active; 'I' for Inactive)
REMARK    1  A    between atoms: C5_5  and  O10_10 
ROOT
HETATM    1  C1  UNL     1     -35.968  15.634  -3.024  1.00 20.00     0.050 A 
HETATM    2  C2  UNL     1     -33.558  15.946  -2.904  1.00 20.00     0.079 A 
HETATM    3  C3  UNL     1     -35.843  15.472  -4.393  1.00 20.00    -0.046 A 
HETATM    4  C4  UNL     1     -34.593  15.552  -5.018  1.00 20.00    -0.018 A 
HETATM    5  C5  UNL     1     -33.442  15.795  -4.288  1.00 20.00     0.075 A 
HETATM    6  C6  UNL     1     -34.811  15.867  -2.277  1.00 20.00     0.119 A 
HETATM    7  C7  UNL     1     -36.930  15.255  -5.399  1.00 20.00     0.039 C 
HETATM    8  C8  UNL     1     -34.728  15.394  -6.500  1.00 20.00     0.042 C 
HETATM    9  C9  UNL     1     -36.121  14.756  -6.605  1.00 20.00     0.009 C 
HETATM   10  F11 UNL     1     -34.899  16.023  -0.949  1.00 20.00    -0.206 F 
ENDROOT
BRANCH   5  11
HETATM   11  O10 UNL     1     -32.230  15.888  -4.890  1.00 20.00    -0.360 OA
HETATM   12  H20 UNL     1     -32.259  15.490  -5.776  1.00 20.00     0.217 HD
ENDBRANCH   5  11
TORSDOF 1
ENDMDL
MODEL 7
REMARK VINA RESULT:      -4.7     12.826     14.001
REMARK  1 active torsions:
REMARK  status: ('A' for Active; 'I' for Inactive)
REMARK    1  A    between atoms: C5_5  and  O10_10 
ROOT
HETATM    1  C1  UNL     1     -34.397  14.891  -3.177  1.00 20.00     0.050 A 
HETATM    2  C2  UNL     1     -33.608  15.939  -5.226  1.00 20.00     0.079 A 
HETATM    3  C3  UNL     1     -34.289  16.119  -2.549  1.00 20.00    -0.046 A 
HETATM    4  C4  UNL     1     -33.840  17.249  -3.244  1.00 20.00    -0.018 A 
HETATM    5  C5  UNL     1     -33.489  17.172  -4.581  1.00 20.00     0.075 A 
HETATM    6  C6  UNL     1     -34.058  14.807  -4.529  1.00 20.00     0.119 A 
HETATM    7  C7  UNL     1     -34.554  16.448  -1.113  1.00 20.00     0.039 C 
HETATM    8  C8  UNL     1     -33.763  18.437  -2.337  1.00 20.00     0.042 C 
HETATM    9  C9  UNL     1     -34.654  17.979  -1.173  1.00 20.00     0.009 C 
HETATM   10  F11 UNL     1     -34.156  13.632  -5.167  1.00 20.00    -0.206 F 
ENDROOT
BRANCH   5  11
HETATM   11  O10 UNL     1     -33.038  18.260  -5.256  1.00 20.00    -0.360 OA
HETATM   12  H20 UNL     1     -32.774  18.960  -4.636  1.00 20.00     0.217 HD
ENDBRANCH   5  11
TORSDOF 1
ENDMDL
MODEL 8
REMARK VINA RESULT:      -4.6     12.906     13.443
REMARK  1 active torsions:
REMARK  status: ('A' for Active; 'I' for Inactive)
REMARK    1  A    between atoms: C5_5  and  O10_10 
ROOT
HETATM    1  C1  UNL     1     -33.908  18.341   3.102  1.00 20.00     0.050 A 
HETATM    2  C2  UNL     1     -31.732  19.180   2.405  1.00 20.00     0.079 A 
HETATM    3  C3  UNL     1     -34.204  18.107   1.770  1.00 20.00    -0.046 A 
HETATM    4  C4  UNL     1     -33.282  18.409   0.761  1.00 20.00    -0.018 A 
HETATM    5  C5  UNL     1     -32.045  18.953   1.063  1.00 20.00     0.075 A 
HETATM    6  C6  UNL     1     -32.657  18.877   3.417  1.00 20.00     0.119 A 
HETATM    7  C7  UNL     1     -35.479  17.582   1.188  1.00 20.00     0.039 C 
HETATM    8  C8  UNL     1     -33.854  18.114  -0.590  1.00 20.00     0.042 C 
HETATM    9  C9  UNL     1     -35.017  17.180  -0.222  1.00 20.00     0.009 C 
HETATM   10  F11 UNL     1     -32.339  19.111   4.698  1.00 20.00    -0.206 F 
ENDROOT
BRANCH   5  11
HETATM   11  O10 UNL     1     -31.152  19.263   0.088  1.00 20.00    -0.360 OA
HETATM   12  H20 UNL     1     -30.282  19.456   0.474  1.00 20.00     0.217 HD
ENDBRANCH   5  11
TORSDOF 1
ENDMDL
MODEL 9
REMARK VINA RESULT:      -4.5      9.724     10.700
REMARK  1 active torsions:
REMARK  status: ('A' for Active; 'I' for Inactive)
REMARK    1  A    between atoms: C5_5  and  O10_10 
ROOT
HETATM    1  C1  UNL     1     -41.254   4.897  -0.332  1.00 20.00     0.050 A 
HETATM    2  C2  UNL     1     -40.985   7.205  -1.054  1.00 20.00     0.079 A 
HETATM    3  C3  UNL     1     -42.065   4.684  -1.433  1.00 20.00    -0.046 A 
HETATM    4  C4  UNL     1     -42.342   5.717  -2.336  1.00 20.00    -0.018 A 
HETATM    5  C5  UNL     1     -41.815   6.985  -2.156  1.00 20.00     0.075 A 
HETATM    6  C6  UNL     1     -40.706   6.168  -0.149  1.00 20.00     0.119 A 
HETATM    7  C7  UNL     1     -42.790   3.432  -1.816  1.00 20.00     0.039 C 
HETATM    8  C8  UNL     1     -43.277   5.252  -3.407  1.00 20.00     0.042 C 
HETATM    9  C9  UNL     1     -43.136   3.727  -3.284  1.00 20.00     0.009 C 
HETATM   10  F11 UNL     1     -39.914   6.405   0.906  1.00 20.00    -0.206 F 
ENDROOT
BRANCH   5  11
HETATM   11  O10 UNL     1     -42.092   7.995  -3.019  1.00 20.00    -0.360 OA
HETATM   12  H20 UNL     1     -41.710   8.829  -2.700  1.00 20.00     0.217 HD
ENDBRANCH   5  11
TORSDOF 1
ENDMDL
