MODEL 1
REMARK VINA RESULT:      -4.8      0.000      0.000
REMARK  1 active torsions:
REMARK  status: ('A' for Active; 'I' for Inactive)
REMARK    1  A    between atoms: C1_1  and  C8_8 
ROOT
HETATM    1  C2  UNL     1     -34.907   4.417   5.877  1.00 20.00     0.000 C 
HETATM    2  C3  UNL     1     -35.577   4.590   4.520  1.00 20.00     0.001 C 
HETATM    3  C4  UNL     1     -34.393   5.751   6.407  1.00 20.00     0.006 C 
HETATM    4  C5  UNL     1     -34.567   5.039   3.466  1.00 20.00     0.019 C 
HETATM    5  C6  UNL     1     -34.293   7.438   4.446  1.00 20.00     0.025 A 
HETATM    6  C7  UNL     1     -33.586   6.504   5.393  1.00 20.00     0.004 A 
HETATM    7  C8  UNL     1     -33.660   6.172   3.909  1.00 20.00     0.040 A 
ENDROOT
BRANCH   7   8
HETATM    8  C1  UNL     1     -32.413   6.354   3.126  1.00 20.00     0.228 C 
HETATM    9  O9  UNL     1     -31.620   5.434   2.952  1.00 20.00    -0.279 OA
HETATM   10 CL10 UNL     1     -32.250   7.977   2.525  1.00 20.00    -0.043 Cl
ENDBRANCH   7   8
TORSDOF 1
ENDMDL
MODEL 2
REMARK VINA RESULT:      -4.6     11.733     12.946
REMARK  1 active torsions:
REMARK  status: ('A' for Active; 'I' for Inactive)
REMARK    1  A    between atoms: C1_1  and  C8_8 
ROOT
HETATM    1  C2  UNL     1     -33.899  17.648  -4.061  1.00 20.00     0.000 C 
HETATM    2  C3  UNL     1     -33.388  16.938  -5.309  1.00 20.00     0.001 C 
HETATM    3  C4  UNL     1     -33.589  16.838  -2.807  1.00 20.00     0.006 C 
HETATM    4  C5  UNL     1     -34.128  15.621  -5.530  1.00 20.00     0.019 C 
HETATM    5  C6  UNL     1     -33.015  14.413  -3.506  1.00 20.00     0.025 A 
HETATM    6  C7  UNL     1     -33.995  15.401  -2.931  1.00 20.00     0.004 A 
HETATM    7  C8  UNL     1     -34.265  14.762  -4.286  1.00 20.00     0.040 A 
ENDROOT
BRANCH   7   8
HETATM    8  C1  UNL     1     -35.314  13.715  -4.329  1.00 20.00     0.228 C 
HETATM    9  O9  UNL     1     -35.041  12.535  -4.528  1.00 20.00    -0.279 OA
HETATM   10 CL10 UNL     1     -36.903  14.371  -4.072  1.00 20.00    -0.043 Cl
ENDBRANCH   7   8
TORSDOF 1
ENDMDL
MODEL 3
REMARK VINA RESULT:      -4.5     11.934     13.161
REMARK  1 active torsions:
REMARK  status: ('A' for Active; 'I' for Inactive)
REMARK    1  A    between atoms: C1_1  and  C8_8 
ROOT
HETATM    1  C2  UNL     1     -33.219  16.244  -4.887  1.00 20.00     0.000 C 
HETATM    2  C3  UNL     1     -34.032  15.755  -6.079  1.00 20.00     0.001 C 
HETATM    3  C4  UNL     1     -33.195  15.199  -3.777  1.00 20.00     0.006 C 
HETATM    4  C5  UNL     1     -35.503  15.584  -5.703  1.00 20.00     0.019 C 
HETATM    5  C6  UNL     1     -35.095  13.494  -4.202  1.00 20.00     0.025 A 
HETATM    6  C7  UNL     1     -34.560  14.679  -3.442  1.00 20.00     0.004 A 
HETATM    7  C8  UNL     1     -35.735  14.852  -4.395  1.00 20.00     0.040 A 
ENDROOT
BRANCH   7   8
HETATM    8  C1  UNL     1     -37.071  15.032  -3.775  1.00 20.00     0.228 C 
HETATM    9  O9  UNL     1     -37.877  14.111  -3.700  1.00 20.00    -0.279 OA
HETATM   10 CL10 UNL     1     -37.313  16.656  -3.203  1.00 20.00    -0.043 Cl
ENDBRANCH   7   8
TORSDOF 1
ENDMDL
MODEL 4
REMARK VINA RESULT:      -4.3     12.230     13.169
REMARK  1 active torsions:
REMARK  status: ('A' for Active; 'I' for Inactive)
REMARK    1  A    between atoms: C1_1  and  C8_8 
ROOT
HETATM    1  C2  UNL     1     -34.649  13.316  -4.513  1.00 20.00     0.000 C 
HETATM    2  C3  UNL     1     -35.844  14.160  -4.085  1.00 20.00     0.001 C 
HETATM    3  C4  UNL     1     -33.389  13.733  -3.762  1.00 20.00     0.006 C 
HETATM    4  C5  UNL     1     -35.648  15.622  -4.479  1.00 20.00     0.019 C 
HETATM    5  C6  UNL     1     -33.783  16.068  -2.715  1.00 20.00     0.025 A 
HETATM    6  C7  UNL     1     -33.163  15.213  -3.790  1.00 20.00     0.004 A 
HETATM    7  C8  UNL     1     -34.281  16.186  -4.140  1.00 20.00     0.040 A 
ENDROOT
BRANCH   7   8
HETATM    8  C1  UNL     1     -33.886  17.419  -4.863  1.00 20.00     0.228 C 
HETATM    9  O9  UNL     1     -33.470  18.410  -4.271  1.00 20.00    -0.279 OA
HETATM   10 CL10 UNL     1     -34.092  17.263  -6.582  1.00 20.00    -0.043 Cl
ENDBRANCH   7   8
TORSDOF 1
ENDMDL
MODEL 5
REMARK VINA RESULT:      -4.3     12.149     12.655
REMARK  1 active torsions:
REMARK  status: ('A' for Active; 'I' for Inactive)
REMARK    1  A    between atoms: C1_1  and  C8_8 
ROOT
HETATM    1  C2  UNL     1     -34.932  16.331  -1.668  1.00 20.00     0.000 C 
HETATM    2  C3  UNL     1     -36.091  16.651  -2.604  1.00 20.00     0.001 C 
HETATM    3  C4  UNL     1     -33.607  16.322  -2.423  1.00 20.00     0.006 C 
HETATM    4  C5  UNL     1     -36.270  15.550  -3.648  1.00 20.00     0.019 C 
HETATM    5  C6  UNL     1     -34.098  16.149  -4.958  1.00 20.00     0.025 A 
HETATM    6  C7  UNL     1     -33.659  15.498  -3.673  1.00 20.00     0.004 A 
HETATM    7  C8  UNL     1     -34.982  15.102  -4.314  1.00 20.00     0.040 A 
ENDROOT
BRANCH   7   8
HETATM    8  C1  UNL     1     -35.023  13.783  -4.992  1.00 20.00     0.228 C 
HETATM    9  O9  UNL     1     -35.006  12.731  -4.360  1.00 20.00    -0.279 OA
HETATM   10 CL10 UNL     1     -35.091  13.939  -6.721  1.00 20.00    -0.043 Cl
ENDBRANCH   7   8
TORSDOF 1
ENDMDL
MODEL 6
REMARK VINA RESULT:      -4.3     11.396     12.717
REMARK  1 active torsions:
REMARK  status: ('A' for Active; 'I' for Inactive)
REMARK    1  A    between atoms: C1_1  and  C8_8 
ROOT
HETATM    1  C2  UNL     1     -34.783  17.799  -3.483  1.00 20.00     0.000 C 
HETATM    2  C3  UNL     1     -35.054  17.086  -2.163  1.00 20.00     0.001 C 
HETATM    3  C4  UNL     1     -35.685  17.261  -4.588  1.00 20.00     0.006 C 
HETATM    4  C5  UNL     1     -34.681  15.608  -2.255  1.00 20.00     0.019 C 
HETATM    5  C6  UNL     1     -36.665  14.989  -3.828  1.00 20.00     0.025 A 
HETATM    6  C7  UNL     1     -35.680  15.765  -4.663  1.00 20.00     0.004 A 
HETATM    7  C8  UNL     1     -35.188  14.910  -3.503  1.00 20.00     0.040 A 
ENDROOT
BRANCH   7   8
HETATM    8  C1  UNL     1     -34.515  13.636  -3.856  1.00 20.00     0.228 C 
HETATM    9  O9  UNL     1     -35.142  12.671  -4.284  1.00 20.00    -0.279 OA
HETATM   10 CL10 UNL     1     -32.799  13.706  -3.588  1.00 20.00    -0.043 Cl
ENDBRANCH   7   8
TORSDOF 1
ENDMDL
MODEL 7
REMARK VINA RESULT:      -4.2     11.864     12.977
REMARK  1 active torsions:
REMARK  status: ('A' for Active; 'I' for Inactive)
REMARK    1  A    between atoms: C1_1  and  C8_8 
ROOT
HETATM    1  C2  UNL     1     -35.011  14.253  -6.288  1.00 20.00     0.000 C 
HETATM    2  C3  UNL     1     -34.792  13.298  -5.121  1.00 20.00     0.001 C 
HETATM    3  C4  UNL     1     -34.043  15.429  -6.221  1.00 20.00     0.006 C 
HETATM    4  C5  UNL     1     -35.126  13.974  -3.793  1.00 20.00     0.019 C 
HETATM    5  C6  UNL     1     -33.052  15.552  -3.833  1.00 20.00     0.025 A 
HETATM    6  C7  UNL     1     -34.011  16.075  -4.870  1.00 20.00     0.004 A 
HETATM    7  C8  UNL     1     -34.541  15.364  -3.632  1.00 20.00     0.040 A 
ENDROOT
BRANCH   7   8
HETATM    8  C1  UNL     1     -35.166  16.219  -2.593  1.00 20.00     0.228 C 
HETATM    9  O9  UNL     1     -36.342  16.564  -2.662  1.00 20.00    -0.279 OA
HETATM   10 CL10 UNL     1     -34.047  16.638  -1.331  1.00 20.00    -0.043 Cl
ENDBRANCH   7   8
TORSDOF 1
ENDMDL
MODEL 8
REMARK VINA RESULT:      -4.2     12.705     13.963
REMARK  1 active torsions:
REMARK  status: ('A' for Active; 'I' for Inactive)
REMARK    1  A    between atoms: C1_1  and  C8_8 
ROOT
HETATM    1  C2  UNL     1     -35.194  17.589  -6.059  1.00 20.00     0.000 C 
HETATM    2  C3  UNL     1     -36.465  16.895  -5.583  1.00 20.00     0.001 C 
HETATM    3  C4  UNL     1     -34.482  16.757  -7.120  1.00 20.00     0.006 C 
HETATM    4  C5  UNL     1     -36.136  15.588  -4.865  1.00 20.00     0.019 C 
HETATM    5  C6  UNL     1     -35.400  14.338  -7.030  1.00 20.00     0.025 A 
HETATM    6  C7  UNL     1     -34.308  15.326  -6.712  1.00 20.00     0.004 A 
HETATM    7  C8  UNL     1     -35.131  14.711  -5.588  1.00 20.00     0.040 A 
ENDROOT
BRANCH   7   8
HETATM    8  C1  UNL     1     -34.461  13.674  -4.766  1.00 20.00     0.228 C 
HETATM    9  O9  UNL     1     -34.779  12.491  -4.834  1.00 20.00    -0.279 OA
HETATM   10 CL10 UNL     1     -33.226  14.346  -3.744  1.00 20.00    -0.043 Cl
ENDBRANCH   7   8
TORSDOF 1
ENDMDL
MODEL 9
REMARK VINA RESULT:      -4.2     11.876     12.943
REMARK  1 active torsions:
REMARK  status: ('A' for Active; 'I' for Inactive)
REMARK    1  A    between atoms: C1_1  and  C8_8 
ROOT
HETATM    1  C2  UNL     1     -35.178  13.556  -4.484  1.00 20.00     0.000 C 
HETATM    2  C3  UNL     1     -33.700  13.517  -4.115  1.00 20.00     0.001 C 
HETATM    3  C4  UNL     1     -35.499  14.788  -5.323  1.00 20.00     0.006 C 
HETATM    4  C5  UNL     1     -33.334  14.686  -3.204  1.00 20.00     0.019 C 
HETATM    5  C6  UNL     1     -33.563  16.488  -5.072  1.00 20.00     0.025 A 
HETATM    6  C7  UNL     1     -34.962  16.052  -4.723  1.00 20.00     0.004 A 
HETATM    7  C8  UNL     1     -33.869  16.030  -3.662  1.00 20.00     0.040 A 
ENDROOT
BRANCH   7   8
HETATM    8  C1  UNL     1     -33.923  17.097  -2.632  1.00 20.00     0.228 C 
HETATM    9  O9  UNL     1     -33.577  18.248  -2.877  1.00 20.00    -0.279 OA
HETATM   10 CL10 UNL     1     -34.513  16.505  -1.108  1.00 20.00    -0.043 Cl
ENDBRANCH   7   8
TORSDOF 1
ENDMDL
