MODEL 1
REMARK VINA RESULT:      -4.7      0.000      0.000
REMARK  2 active torsions:
REMARK  status: ('A' for Active; 'I' for Inactive)
REMARK    1  A    between atoms: C4_4  and  C8_8 
REMARK    2  A    between atoms: C5_5  and  O9_9 
ROOT
HETATM    1  C1  UNL     1     -35.386  15.778  -4.234  1.00 20.00     0.007 C 
HETATM    2  C2  UNL     1     -35.407  14.647  -5.269  1.00 20.00     0.032 C 
HETATM    3  C3  UNL     1     -33.571  14.300  -3.728  1.00 20.00     0.036 C 
HETATM    4  C4  UNL     1     -34.564  15.248  -3.059  1.00 20.00    -0.009 C 
HETATM    5  C5  UNL     1     -34.429  13.586  -4.765  1.00 20.00     0.118 C 
ENDROOT
BRANCH   4   6
HETATM    6  C8  UNL     1     -33.893  16.347  -2.253  1.00 20.00    -0.019 C 
HETATM    7  C6  UNL     1     -33.823  17.646  -3.059  1.00 20.00     0.010 C 
HETATM    8  C7  UNL     1     -34.628  16.581  -0.933  1.00 20.00     0.010 C 
ENDBRANCH   4   6
BRANCH   5   9
HETATM    9  O9  UNL     1     -35.167  12.538  -4.145  1.00 20.00    -0.396 OA
HETATM   10  H25 UNL     1     -34.551  11.799  -4.024  1.00 20.00     0.210 HD
ENDBRANCH   5   9
TORSDOF 2
ENDMDL
MODEL 2
REMARK VINA RESULT:      -4.6     11.796     12.622
REMARK  2 active torsions:
REMARK  status: ('A' for Active; 'I' for Inactive)
REMARK    1  A    between atoms: C4_4  and  C8_8 
REMARK    2  A    between atoms: C5_5  and  O9_9 
ROOT
HETATM    1  C1  UNL     1     -33.589   6.342   5.694  1.00 20.00     0.007 C 
HETATM    2  C2  UNL     1     -34.773   5.575   6.296  1.00 20.00     0.032 C 
HETATM    3  C3  UNL     1     -34.896   5.487   3.879  1.00 20.00     0.036 C 
HETATM    4  C4  UNL     1     -33.458   5.838   4.257  1.00 20.00    -0.009 C 
HETATM    5  C5  UNL     1     -35.425   4.816   5.140  1.00 20.00     0.118 C 
ENDROOT
BRANCH   4   6
HETATM    6  C8  UNL     1     -32.825   6.855   3.322  1.00 20.00    -0.019 C 
HETATM    7  C6  UNL     1     -31.643   7.553   3.998  1.00 20.00     0.010 C 
HETATM    8  C7  UNL     1     -32.374   6.189   2.020  1.00 20.00     0.010 C 
ENDBRANCH   4   6
BRANCH   5   9
HETATM    9  O9  UNL     1     -34.997   3.458   5.184  1.00 20.00    -0.396 OA
HETATM   10  H25 UNL     1     -34.425   3.373   5.962  1.00 20.00     0.210 HD
ENDBRANCH   5   9
TORSDOF 2
ENDMDL
MODEL 3
REMARK VINA RESULT:      -4.1      1.831      2.443
REMARK  2 active torsions:
REMARK  status: ('A' for Active; 'I' for Inactive)
REMARK    1  A    between atoms: C4_4  and  C8_8 
REMARK    2  A    between atoms: C5_5  and  O9_9 
ROOT
HETATM    1  C1  UNL     1     -34.892  15.247  -2.824  1.00 20.00     0.007 C 
HETATM    2  C2  UNL     1     -34.645  15.168  -4.335  1.00 20.00     0.032 C 
HETATM    3  C3  UNL     1     -33.769  17.258  -3.479  1.00 20.00     0.036 C 
HETATM    4  C4  UNL     1     -33.915  16.298  -2.299  1.00 20.00    -0.009 C 
HETATM    5  C5  UNL     1     -33.694  16.316  -4.674  1.00 20.00     0.118 C 
ENDROOT
BRANCH   4   6
HETATM    6  C8  UNL     1     -34.395  16.980  -1.029  1.00 20.00    -0.019 C 
HETATM    7  C6  UNL     1     -33.331  17.940  -0.492  1.00 20.00     0.010 C 
HETATM    8  C7  UNL     1     -35.708  17.726  -1.275  1.00 20.00     0.010 C 
ENDBRANCH   4   6
BRANCH   5   9
HETATM    9  O9  UNL     1     -32.374  15.797  -4.802  1.00 20.00    -0.396 OA
HETATM   10  H25 UNL     1     -32.399  15.151  -5.524  1.00 20.00     0.210 HD
ENDBRANCH   5   9
TORSDOF 2
ENDMDL
MODEL 4
REMARK VINA RESULT:      -4.0      1.140      1.681
REMARK  2 active torsions:
REMARK  status: ('A' for Active; 'I' for Inactive)
REMARK    1  A    between atoms: C4_4  and  C8_8 
REMARK    2  A    between atoms: C5_5  and  O9_9 
ROOT
HETATM    1  C1  UNL     1     -33.481  14.519  -3.604  1.00 20.00     0.007 C 
HETATM    2  C2  UNL     1     -34.429  13.495  -4.241  1.00 20.00     0.032 C 
HETATM    3  C3  UNL     1     -35.722  15.228  -3.149  1.00 20.00     0.036 C 
HETATM    4  C4  UNL     1     -34.318  15.779  -3.388  1.00 20.00    -0.009 C 
HETATM    5  C5  UNL     1     -35.827  14.109  -4.178  1.00 20.00     0.118 C 
ENDROOT
BRANCH   4   6
HETATM    6  C8  UNL     1     -33.813  16.645  -2.246  1.00 20.00    -0.019 C 
HETATM    7  C6  UNL     1     -33.747  18.115  -2.666  1.00 20.00     0.010 C 
HETATM    8  C7  UNL     1     -34.699  16.485  -1.010  1.00 20.00     0.010 C 
ENDBRANCH   4   6
BRANCH   5   9
HETATM    9  O9  UNL     1     -36.148  14.652  -5.455  1.00 20.00    -0.396 OA
HETATM   10  H25 UNL     1     -36.270  15.606  -5.327  1.00 20.00     0.210 HD
ENDBRANCH   5   9
TORSDOF 2
ENDMDL
MODEL 5
REMARK VINA RESULT:      -3.9     11.085     11.966
REMARK  2 active torsions:
REMARK  status: ('A' for Active; 'I' for Inactive)
REMARK    1  A    between atoms: C4_4  and  C8_8 
REMARK    2  A    between atoms: C5_5  and  O9_9 
ROOT
HETATM    1  C1  UNL     1     -32.543   7.212   5.043  1.00 20.00     0.007 C 
HETATM    2  C2  UNL     1     -31.489   7.812   4.105  1.00 20.00     0.032 C 
HETATM    3  C3  UNL     1     -32.689   6.051   2.954  1.00 20.00     0.036 C 
HETATM    4  C4  UNL     1     -33.546   6.500   4.136  1.00 20.00    -0.009 C 
HETATM    5  C5  UNL     1     -31.786   7.254   2.713  1.00 20.00     0.118 C 
ENDROOT
BRANCH   4   6
HETATM    6  C8  UNL     1     -34.265   5.351   4.824  1.00 20.00    -0.019 C 
HETATM    7  C6  UNL     1     -34.483   5.657   6.307  1.00 20.00     0.010 C 
HETATM    8  C7  UNL     1     -35.601   5.057   4.140  1.00 20.00     0.010 C 
ENDBRANCH   4   6
BRANCH   5   9
HETATM    9  O9  UNL     1     -32.485   8.242   1.962  1.00 20.00    -0.396 OA
HETATM   10  H25 UNL     1     -33.122   7.769   1.405  1.00 20.00     0.210 HD
ENDBRANCH   5   9
TORSDOF 2
ENDMDL
MODEL 6
REMARK VINA RESULT:      -3.9      2.027      2.928
REMARK  2 active torsions:
REMARK  status: ('A' for Active; 'I' for Inactive)
REMARK    1  A    between atoms: C4_4  and  C8_8 
REMARK    2  A    between atoms: C5_5  and  O9_9 
ROOT
HETATM    1  C1  UNL     1     -35.774  16.637  -3.921  1.00 20.00     0.007 C 
HETATM    2  C2  UNL     1     -37.231  16.431  -4.352  1.00 20.00     0.032 C 
HETATM    3  C3  UNL     1     -36.166  14.278  -4.044  1.00 20.00     0.036 C 
HETATM    4  C4  UNL     1     -35.341  15.316  -3.286  1.00 20.00    -0.009 C 
HETATM    5  C5  UNL     1     -37.531  14.945  -4.155  1.00 20.00     0.118 C 
ENDROOT
BRANCH   4   6
HETATM    6  C8  UNL     1     -33.844  15.072  -3.376  1.00 20.00    -0.019 C 
HETATM    7  C6  UNL     1     -33.553  13.639  -3.829  1.00 20.00     0.010 C 
HETATM    8  C7  UNL     1     -33.185  16.073  -4.326  1.00 20.00     0.010 C 
ENDBRANCH   4   6
BRANCH   5   9
HETATM    9  O9  UNL     1     -38.253  14.780  -2.938  1.00 20.00    -0.396 OA
HETATM   10  H25 UNL     1     -37.592  14.672  -2.236  1.00 20.00     0.210 HD
ENDBRANCH   5   9
TORSDOF 2
ENDMDL
MODEL 7
REMARK VINA RESULT:      -3.9      1.816      3.150
REMARK  2 active torsions:
REMARK  status: ('A' for Active; 'I' for Inactive)
REMARK    1  A    between atoms: C4_4  and  C8_8 
REMARK    2  A    between atoms: C5_5  and  O9_9 
ROOT
HETATM    1  C1  UNL     1     -33.486  15.411  -4.268  1.00 20.00     0.007 C 
HETATM    2  C2  UNL     1     -33.879  14.168  -3.461  1.00 20.00     0.032 C 
HETATM    3  C3  UNL     1     -35.675  14.753  -4.977  1.00 20.00     0.036 C 
HETATM    4  C4  UNL     1     -34.400  15.416  -5.492  1.00 20.00    -0.009 C 
HETATM    5  C5  UNL     1     -35.142  13.612  -4.119  1.00 20.00     0.118 C 
ENDROOT
BRANCH   4   6
HETATM    6  C8  UNL     1     -34.635  16.807  -6.057  1.00 20.00    -0.019 C 
HETATM    7  C6  UNL     1     -33.579  17.788  -5.545  1.00 20.00     0.010 C 
HETATM    8  C7  UNL     1     -34.637  16.779  -7.587  1.00 20.00     0.010 C 
ENDBRANCH   4   6
BRANCH   5   9
HETATM    9  O9  UNL     1     -34.782  12.510  -4.947  1.00 20.00    -0.396 OA
HETATM   10  H25 UNL     1     -33.819  12.552  -5.060  1.00 20.00     0.210 HD
ENDBRANCH   5   9
TORSDOF 2
ENDMDL
MODEL 8
REMARK VINA RESULT:      -3.9      1.680      3.538
REMARK  2 active torsions:
REMARK  status: ('A' for Active; 'I' for Inactive)
REMARK    1  A    between atoms: C4_4  and  C8_8 
REMARK    2  A    between atoms: C5_5  and  O9_9 
ROOT
HETATM    1  C1  UNL     1     -34.514  15.928  -4.330  1.00 20.00     0.007 C 
HETATM    2  C2  UNL     1     -34.406  14.905  -3.193  1.00 20.00     0.032 C 
HETATM    3  C3  UNL     1     -34.823  13.753  -5.282  1.00 20.00     0.036 C 
HETATM    4  C4  UNL     1     -34.280  15.141  -5.619  1.00 20.00    -0.009 C 
HETATM    5  C5  UNL     1     -34.328  13.531  -3.859  1.00 20.00     0.118 C 
ENDROOT
BRANCH   4   6
HETATM    6  C8  UNL     1     -34.948  15.767  -6.832  1.00 20.00    -0.019 C 
HETATM    7  C6  UNL     1     -35.198  14.717  -7.917  1.00 20.00     0.010 C 
HETATM    8  C7  UNL     1     -36.260  16.448  -6.439  1.00 20.00     0.010 C 
ENDBRANCH   4   6
BRANCH   5   9
HETATM    9  O9  UNL     1     -32.969  13.106  -3.878  1.00 20.00    -0.396 OA
HETATM   10  H25 UNL     1     -32.518  13.587  -3.168  1.00 20.00     0.210 HD
ENDBRANCH   5   9
TORSDOF 2
ENDMDL
MODEL 9
REMARK VINA RESULT:      -3.8      2.180      3.998
REMARK  2 active torsions:
REMARK  status: ('A' for Active; 'I' for Inactive)
REMARK    1  A    between atoms: C4_4  and  C8_8 
REMARK    2  A    between atoms: C5_5  and  O9_9 
ROOT
HETATM    1  C1  UNL     1     -34.393  13.806  -5.061  1.00 20.00     0.007 C 
HETATM    2  C2  UNL     1     -33.772  13.851  -3.660  1.00 20.00     0.032 C 
HETATM    3  C3  UNL     1     -33.232  15.889  -4.853  1.00 20.00     0.036 C 
HETATM    4  C4  UNL     1     -34.440  15.256  -5.540  1.00 20.00    -0.009 C 
HETATM    5  C5  UNL     1     -33.282  15.285  -3.455  1.00 20.00     0.118 C 
ENDROOT
BRANCH   4   6
HETATM    6  C8  UNL     1     -34.403  15.387  -7.054  1.00 20.00    -0.019 C 
HETATM    7  C6  UNL     1     -35.447  14.476  -7.704  1.00 20.00     0.010 C 
HETATM    8  C7  UNL     1     -34.627  16.839  -7.479  1.00 20.00     0.010 C 
ENDBRANCH   4   6
BRANCH   5   9
HETATM    9  O9  UNL     1     -34.231  15.985  -2.657  1.00 20.00    -0.396 OA
HETATM   10  H25 UNL     1     -35.089  15.892  -3.101  1.00 20.00     0.210 HD
ENDBRANCH   5   9
TORSDOF 2
ENDMDL
