MODEL 1
REMARK VINA RESULT:      -4.8      0.000      0.000
REMARK  0 active torsions:
REMARK  status: ('A' for Active; 'I' for Inactive)
ROOT
HETATM    1  C1  UNL     1     -34.276  15.150  -2.824  1.00 20.00     0.047 A 
HETATM    2  C2  UNL     1     -34.426  14.876  -4.196  1.00 20.00     0.025 A 
HETATM    3  C3  UNL     1     -34.202  15.969  -4.982  1.00 20.00    -0.002 A 
HETATM    4  C4  UNL     1     -33.934  16.480  -2.633  1.00 20.00     0.075 A 
HETATM    5  C5  UNL     1     -34.756  13.753  -5.031  1.00 20.00     0.161 A 
HETATM    6  C6  UNL     1     -34.348  15.733  -6.438  1.00 20.00     0.055 A 
HETATM    7  C7  UNL     1     -34.730  14.221  -6.494  1.00 20.00     0.089 A 
HETATM    8  O8  UNL     1     -35.013  12.624  -4.645  1.00 20.00    -0.292 OA
HETATM    9  S9  UNL     1     -33.808  17.352  -4.124  1.00 20.00    -0.082 SA
HETATM   10 CL10 UNL     1     -33.645  17.287  -1.149  1.00 20.00    -0.076 Cl
ENDROOT
TORSDOF 0
ENDMDL
MODEL 2
REMARK VINA RESULT:      -4.5      2.484      3.263
REMARK  0 active torsions:
REMARK  status: ('A' for Active; 'I' for Inactive)
ROOT
HETATM    1  C1  UNL     1     -35.077  15.326  -6.529  1.00 20.00     0.047 A 
HETATM    2  C2  UNL     1     -34.391  14.808  -5.414  1.00 20.00     0.025 A 
HETATM    3  C3  UNL     1     -33.606  15.739  -4.796  1.00 20.00    -0.002 A 
HETATM    4  C4  UNL     1     -34.768  16.666  -6.704  1.00 20.00     0.075 A 
HETATM    5  C5  UNL     1     -34.271  13.554  -4.721  1.00 20.00     0.161 A 
HETATM    6  C6  UNL     1     -32.862  15.245  -3.614  1.00 20.00     0.055 A 
HETATM    7  C7  UNL     1     -33.300  13.748  -3.546  1.00 20.00     0.089 A 
HETATM    8  O8  UNL     1     -34.841  12.516  -5.015  1.00 20.00    -0.292 OA
HETATM    9  S9  UNL     1     -33.656  17.252  -5.512  1.00 20.00    -0.082 SA
HETATM   10 CL10 UNL     1     -35.351  17.728  -7.918  1.00 20.00    -0.076 Cl
ENDROOT
TORSDOF 0
ENDMDL
MODEL 3
REMARK VINA RESULT:      -4.4      1.957      2.070
REMARK  0 active torsions:
REMARK  status: ('A' for Active; 'I' for Inactive)
ROOT
HETATM    1  C1  UNL     1     -33.682  16.139  -2.445  1.00 20.00     0.047 A 
HETATM    2  C2  UNL     1     -34.366  15.131  -3.151  1.00 20.00     0.025 A 
HETATM    3  C3  UNL     1     -35.669  15.453  -3.403  1.00 20.00    -0.002 A 
HETATM    4  C4  UNL     1     -34.527  17.207  -2.190  1.00 20.00     0.075 A 
HETATM    5  C5  UNL     1     -34.087  13.831  -3.695  1.00 20.00     0.161 A 
HETATM    6  C6  UNL     1     -36.435  14.425  -4.145  1.00 20.00     0.055 A 
HETATM    7  C7  UNL     1     -35.370  13.302  -4.354  1.00 20.00     0.089 A 
HETATM    8  O8  UNL     1     -33.016  13.247  -3.644  1.00 20.00    -0.292 OA
HETATM    9  S9  UNL     1     -36.123  16.953  -2.814  1.00 20.00    -0.082 SA
HETATM   10 CL10 UNL     1     -34.158  18.664  -1.365  1.00 20.00    -0.076 Cl
ENDROOT
TORSDOF 0
ENDMDL
MODEL 4
REMARK VINA RESULT:      -4.4      2.587      3.035
REMARK  0 active torsions:
REMARK  status: ('A' for Active; 'I' for Inactive)
ROOT
HETATM    1  C1  UNL     1     -37.119  14.752  -3.917  1.00 20.00     0.047 A 
HETATM    2  C2  UNL     1     -35.725  14.586  -3.819  1.00 20.00     0.025 A 
HETATM    3  C3  UNL     1     -35.098  15.673  -3.283  1.00 20.00    -0.002 A 
HETATM    4  C4  UNL     1     -37.491  15.997  -3.434  1.00 20.00     0.075 A 
HETATM    5  C5  UNL     1     -34.745  13.580  -4.128  1.00 20.00     0.161 A 
HETATM    6  C6  UNL     1     -33.628  15.550  -3.157  1.00 20.00     0.055 A 
HETATM    7  C7  UNL     1     -33.363  14.123  -3.733  1.00 20.00     0.089 A 
HETATM    8  O8  UNL     1     -34.971  12.486  -4.619  1.00 20.00    -0.292 OA
HETATM    9  S9  UNL     1     -36.137  16.923  -2.879  1.00 20.00    -0.082 SA
HETATM   10 CL10 UNL     1     -39.070  16.659  -3.344  1.00 20.00    -0.076 Cl
ENDROOT
TORSDOF 0
ENDMDL
MODEL 5
REMARK VINA RESULT:      -4.2      1.170      1.337
REMARK  0 active torsions:
REMARK  status: ('A' for Active; 'I' for Inactive)
ROOT
HETATM    1  C1  UNL     1     -34.734  15.467  -2.507  1.00 20.00     0.047 A 
HETATM    2  C2  UNL     1     -34.410  15.652  -3.864  1.00 20.00     0.025 A 
HETATM    3  C3  UNL     1     -33.972  16.916  -4.136  1.00 20.00    -0.002 A 
HETATM    4  C4  UNL     1     -34.517  16.638  -1.796  1.00 20.00     0.075 A 
HETATM    5  C5  UNL     1     -34.407  14.880  -5.076  1.00 20.00     0.161 A 
HETATM    6  C6  UNL     1     -33.616  17.163  -5.553  1.00 20.00     0.055 A 
HETATM    7  C7  UNL     1     -33.910  15.781  -6.217  1.00 20.00     0.089 A 
HETATM    8  O8  UNL     1     -34.742  13.711  -5.182  1.00 20.00    -0.292 OA
HETATM    9  S9  UNL     1     -33.929  17.922  -2.798  1.00 20.00    -0.082 SA
HETATM   10 CL10 UNL     1     -34.764  16.910  -0.121  1.00 20.00    -0.076 Cl
ENDROOT
TORSDOF 0
ENDMDL
MODEL 6
REMARK VINA RESULT:      -4.2     12.162     13.158
REMARK  0 active torsions:
REMARK  status: ('A' for Active; 'I' for Inactive)
ROOT
HETATM    1  C1  UNL     1     -32.864   7.269   4.249  1.00 20.00     0.047 A 
HETATM    2  C2  UNL     1     -33.709   6.343   4.889  1.00 20.00     0.025 A 
HETATM    3  C3  UNL     1     -34.188   5.388   4.040  1.00 20.00    -0.002 A 
HETATM    4  C4  UNL     1     -32.741   6.958   2.904  1.00 20.00     0.075 A 
HETATM    5  C5  UNL     1     -34.229   6.105   6.208  1.00 20.00     0.161 A 
HETATM    6  C6  UNL     1     -35.084   4.387   4.664  1.00 20.00     0.055 A 
HETATM    7  C7  UNL     1     -35.128   4.861   6.151  1.00 20.00     0.089 A 
HETATM    8  O8  UNL     1     -33.996   6.775   7.201  1.00 20.00    -0.292 OA
HETATM    9  S9  UNL     1     -33.654   5.555   2.461  1.00 20.00    -0.082 SA
HETATM   10 CL10 UNL     1     -31.824   7.786   1.715  1.00 20.00    -0.076 Cl
ENDROOT
TORSDOF 0
ENDMDL
MODEL 7
REMARK VINA RESULT:      -4.1     12.096     13.116
REMARK  0 active torsions:
REMARK  status: ('A' for Active; 'I' for Inactive)
ROOT
HETATM    1  C1  UNL     1     -33.474   5.875   2.997  1.00 20.00     0.047 A 
HETATM    2  C2  UNL     1     -33.970   5.636   4.292  1.00 20.00     0.025 A 
HETATM    3  C3  UNL     1     -33.523   6.546   5.207  1.00 20.00    -0.002 A 
HETATM    4  C4  UNL     1     -32.650   6.990   2.995  1.00 20.00     0.075 A 
HETATM    5  C5  UNL     1     -34.830   4.690   4.949  1.00 20.00     0.161 A 
HETATM    6  C6  UNL     1     -34.016   6.340   6.588  1.00 20.00     0.055 A 
HETATM    7  C7  UNL     1     -34.913   5.070   6.436  1.00 20.00     0.089 A 
HETATM    8  O8  UNL     1     -35.396   3.748   4.419  1.00 20.00    -0.292 OA
HETATM    9  S9  UNL     1     -32.504   7.709   4.563  1.00 20.00    -0.082 SA
HETATM   10 CL10 UNL     1     -31.815   7.675   1.663  1.00 20.00    -0.076 Cl
ENDROOT
TORSDOF 0
ENDMDL
MODEL 8
REMARK VINA RESULT:      -4.0     12.498     13.371
REMARK  0 active torsions:
REMARK  status: ('A' for Active; 'I' for Inactive)
ROOT
HETATM    1  C1  UNL     1     -41.089   4.012  -1.659  1.00 20.00     0.047 A 
HETATM    2  C2  UNL     1     -41.464   5.353  -1.453  1.00 20.00     0.025 A 
HETATM    3  C3  UNL     1     -42.502   5.741  -2.250  1.00 20.00    -0.002 A 
HETATM    4  C4  UNL     1     -41.887   3.433  -2.633  1.00 20.00     0.075 A 
HETATM    5  C5  UNL     1     -41.062   6.459  -0.628  1.00 20.00     0.161 A 
HETATM    6  C6  UNL     1     -42.937   7.146  -2.071  1.00 20.00     0.055 A 
HETATM    7  C7  UNL     1     -41.961   7.659  -0.966  1.00 20.00     0.089 A 
HETATM    8  O8  UNL     1     -40.163   6.449   0.197  1.00 20.00    -0.292 OA
HETATM    9  S9  UNL     1     -43.065   4.534  -3.266  1.00 20.00    -0.082 SA
HETATM   10 CL10 UNL     1     -41.818   1.827  -3.230  1.00 20.00    -0.076 Cl
ENDROOT
TORSDOF 0
ENDMDL
MODEL 9
REMARK VINA RESULT:      -4.0      1.853      2.093
REMARK  0 active torsions:
REMARK  status: ('A' for Active; 'I' for Inactive)
ROOT
HETATM    1  C1  UNL     1     -33.323  16.437  -4.114  1.00 20.00     0.047 A 
HETATM    2  C2  UNL     1     -33.901  15.273  -4.654  1.00 20.00     0.025 A 
HETATM    3  C3  UNL     1     -34.660  15.522  -5.760  1.00 20.00    -0.002 A 
HETATM    4  C4  UNL     1     -33.685  17.546  -4.863  1.00 20.00     0.075 A 
HETATM    5  C5  UNL     1     -33.926  13.864  -4.372  1.00 20.00     0.161 A 
HETATM    6  C6  UNL     1     -35.292  14.328  -6.369  1.00 20.00     0.055 A 
HETATM    7  C7  UNL     1     -34.804  13.179  -5.431  1.00 20.00     0.089 A 
HETATM    8  O8  UNL     1     -33.351  13.307  -3.451  1.00 20.00    -0.292 OA
HETATM    9  S9  UNL     1     -34.714  17.139  -6.195  1.00 20.00    -0.082 SA
HETATM   10 CL10 UNL     1     -33.234  19.180  -4.605  1.00 20.00    -0.076 Cl
ENDROOT
TORSDOF 0
ENDMDL
