MODEL 1
REMARK VINA RESULT:      -3.8      0.000      0.000
REMARK  1 active torsions:
REMARK  status: ('A' for Active; 'I' for Inactive)
REMARK    1  A    between atoms: C2_2  and  C6_6 
ROOT
HETATM    1  C1  UNL     1     -34.638  14.825  -3.263  1.00 20.00     0.134 A 
HETATM    2  C2  UNL     1     -34.020  16.053  -3.156  1.00 20.00     0.006 A 
HETATM    3  C3  UNL     1     -34.269  15.195  -5.393  1.00 20.00     0.167 A 
HETATM    4  N7  UNL     1     -34.782  14.331  -4.545  1.00 20.00    -0.240 NA
HETATM    5  S8  UNL     1     -33.595  16.622  -4.717  1.00 20.00    -0.061 SA
HETATM    6 CL9  UNL     1     -34.251  14.951  -7.089  1.00 20.00    -0.054 Cl
ENDROOT
BRANCH   2   7
HETATM    7  C6  UNL     1     -33.702  16.877  -1.922  1.00 20.00     0.019 C 
HETATM    8  C4  UNL     1     -34.686  16.592  -0.785  1.00 20.00     0.015 C 
HETATM    9  C5  UNL     1     -33.657  18.373  -2.242  1.00 20.00     0.015 C 
ENDBRANCH   2   7
TORSDOF 1
ENDMDL
MODEL 2
REMARK VINA RESULT:      -3.8      2.515      4.361
REMARK  1 active torsions:
REMARK  status: ('A' for Active; 'I' for Inactive)
REMARK    1  A    between atoms: C2_2  and  C6_6 
ROOT
HETATM    1  C1  UNL     1     -34.362  13.968  -4.703  1.00 20.00     0.134 A 
HETATM    2  C2  UNL     1     -34.424  15.106  -5.480  1.00 20.00     0.006 A 
HETATM    3  C3  UNL     1     -34.514  15.456  -3.098  1.00 20.00     0.167 A 
HETATM    4  N7  UNL     1     -34.413  14.167  -3.337  1.00 20.00    -0.240 NA
HETATM    5  S8  UNL     1     -34.554  16.487  -4.471  1.00 20.00    -0.061 SA
HETATM    6 CL9  UNL     1     -34.605  16.117  -1.520  1.00 20.00    -0.054 Cl
ENDROOT
BRANCH   2   7
HETATM    7  C6  UNL     1     -34.394  15.254  -6.989  1.00 20.00     0.019 C 
HETATM    8  C4  UNL     1     -34.532  16.718  -7.414  1.00 20.00     0.015 C 
HETATM    9  C5  UNL     1     -35.464  14.390  -7.661  1.00 20.00     0.015 C 
ENDBRANCH   2   7
TORSDOF 1
ENDMDL
MODEL 3
REMARK VINA RESULT:      -3.7     13.324     14.529
REMARK  1 active torsions:
REMARK  status: ('A' for Active; 'I' for Inactive)
REMARK    1  A    between atoms: C2_2  and  C6_6 
ROOT
HETATM    1  C1  UNL     1     -40.848   4.050  -1.586  1.00 20.00     0.134 A 
HETATM    2  C2  UNL     1     -41.904   3.946  -2.467  1.00 20.00     0.006 A 
HETATM    3  C3  UNL     1     -41.538   6.132  -1.522  1.00 20.00     0.167 A 
HETATM    4  N7  UNL     1     -40.637   5.303  -1.044  1.00 20.00    -0.240 NA
HETATM    5  S8  UNL     1     -42.672   5.471  -2.629  1.00 20.00    -0.061 SA
HETATM    6 CL9  UNL     1     -41.616   7.789  -1.091  1.00 20.00    -0.054 Cl
ENDROOT
BRANCH   2   7
HETATM    7  C6  UNL     1     -42.414   2.742  -3.235  1.00 20.00     0.019 C 
HETATM    8  C4  UNL     1     -43.331   1.870  -2.374  1.00 20.00     0.015 C 
HETATM    9  C5  UNL     1     -41.263   1.915  -3.814  1.00 20.00     0.015 C 
ENDBRANCH   2   7
TORSDOF 1
ENDMDL
MODEL 4
REMARK VINA RESULT:      -3.7      2.860      4.431
REMARK  1 active torsions:
REMARK  status: ('A' for Active; 'I' for Inactive)
REMARK    1  A    between atoms: C2_2  and  C6_6 
ROOT
HETATM    1  C1  UNL     1     -33.577  15.382  -4.302  1.00 20.00     0.134 A 
HETATM    2  C2  UNL     1     -34.891  15.143  -4.646  1.00 20.00     0.006 A 
HETATM    3  C3  UNL     1     -34.523  15.942  -2.404  1.00 20.00     0.167 A 
HETATM    4  N7  UNL     1     -33.364  15.840  -3.017  1.00 20.00    -0.240 NA
HETATM    5  S8  UNL     1     -35.910  15.502  -3.314  1.00 20.00    -0.061 SA
HETATM    6 CL9  UNL     1     -34.687  16.480  -0.785  1.00 20.00    -0.054 Cl
ENDROOT
BRANCH   2   7
HETATM    7  C6  UNL     1     -35.478  14.643  -5.953  1.00 20.00     0.019 C 
HETATM    8  C4  UNL     1     -34.530  14.891  -7.128  1.00 20.00     0.015 C 
HETATM    9  C5  UNL     1     -36.854  15.258  -6.224  1.00 20.00     0.015 C 
ENDBRANCH   2   7
TORSDOF 1
ENDMDL
MODEL 5
REMARK VINA RESULT:      -3.6     13.088     13.789
REMARK  1 active torsions:
REMARK  status: ('A' for Active; 'I' for Inactive)
REMARK    1  A    between atoms: C2_2  and  C6_6 
ROOT
HETATM    1  C1  UNL     1     -43.047   5.526  -3.070  1.00 20.00     0.134 A 
HETATM    2  C2  UNL     1     -41.996   5.515  -2.179  1.00 20.00     0.006 A 
HETATM    3  C3  UNL     1     -42.627   3.373  -3.082  1.00 20.00     0.167 A 
HETATM    4  N7  UNL     1     -43.411   4.299  -3.590  1.00 20.00    -0.240 NA
HETATM    5  S8  UNL     1     -41.432   3.909  -1.972  1.00 20.00    -0.061 SA
HETATM    6 CL9  UNL     1     -42.756   1.710  -3.477  1.00 20.00    -0.054 Cl
ENDROOT
BRANCH   2   7
HETATM    7  C6  UNL     1     -41.345   6.663  -1.429  1.00 20.00     0.019 C 
HETATM    8  C4  UNL     1     -40.699   6.189  -0.125  1.00 20.00     0.015 C 
HETATM    9  C5  UNL     1     -42.339   7.797  -1.163  1.00 20.00     0.015 C 
ENDBRANCH   2   7
TORSDOF 1
ENDMDL
MODEL 6
REMARK VINA RESULT:      -3.6      2.918      4.319
REMARK  1 active torsions:
REMARK  status: ('A' for Active; 'I' for Inactive)
REMARK    1  A    between atoms: C2_2  and  C6_6 
ROOT
HETATM    1  C1  UNL     1     -33.922  16.973  -4.701  1.00 20.00     0.134 A 
HETATM    2  C2  UNL     1     -34.514  15.743  -4.502  1.00 20.00     0.006 A 
HETATM    3  C3  UNL     1     -33.925  16.959  -2.507  1.00 20.00     0.167 A 
HETATM    4  N7  UNL     1     -33.584  17.672  -3.559  1.00 20.00    -0.240 NA
HETATM    5  S8  UNL     1     -34.656  15.438  -2.820  1.00 20.00    -0.061 SA
HETATM    6 CL9  UNL     1     -33.672  17.481  -0.895  1.00 20.00    -0.054 Cl
ENDROOT
BRANCH   2   7
HETATM    7  C6  UNL     1     -35.005  14.726  -5.514  1.00 20.00     0.019 C 
HETATM    8  C4  UNL     1     -34.719  13.293  -5.057  1.00 20.00     0.015 C 
HETATM    9  C5  UNL     1     -34.414  14.982  -6.903  1.00 20.00     0.015 C 
ENDBRANCH   2   7
TORSDOF 1
ENDMDL
MODEL 7
REMARK VINA RESULT:      -3.5      2.998      3.377
REMARK  1 active torsions:
REMARK  status: ('A' for Active; 'I' for Inactive)
REMARK    1  A    between atoms: C2_2  and  C6_6 
ROOT
HETATM    1  C1  UNL     1     -36.018  14.396  -3.771  1.00 20.00     0.134 A 
HETATM    2  C2  UNL     1     -35.678  15.670  -3.368  1.00 20.00     0.006 A 
HETATM    3  C3  UNL     1     -38.032  15.259  -3.668  1.00 20.00     0.167 A 
HETATM    4  N7  UNL     1     -37.368  14.158  -3.943  1.00 20.00    -0.240 NA
HETATM    5  S8  UNL     1     -37.097  16.619  -3.197  1.00 20.00    -0.061 SA
HETATM    6 CL9  UNL     1     -39.740  15.376  -3.763  1.00 20.00    -0.054 Cl
ENDROOT
BRANCH   2   7
HETATM    7  C6  UNL     1     -34.312  16.269  -3.089  1.00 20.00     0.019 C 
HETATM    8  C4  UNL     1     -33.185  15.339  -3.544  1.00 20.00     0.015 C 
HETATM    9  C5  UNL     1     -34.151  16.638  -1.612  1.00 20.00     0.015 C 
ENDBRANCH   2   7
TORSDOF 1
ENDMDL
MODEL 8
REMARK VINA RESULT:      -3.4      3.009      4.309
REMARK  1 active torsions:
REMARK  status: ('A' for Active; 'I' for Inactive)
REMARK    1  A    between atoms: C2_2  and  C6_6 
ROOT
HETATM    1  C1  UNL     1     -36.272  16.473  -3.916  1.00 20.00     0.134 A 
HETATM    2  C2  UNL     1     -35.357  15.502  -4.266  1.00 20.00     0.006 A 
HETATM    3  C3  UNL     1     -35.100  16.439  -2.062  1.00 20.00     0.167 A 
HETATM    4  N7  UNL     1     -36.126  17.011  -2.652  1.00 20.00    -0.240 NA
HETATM    5  S8  UNL     1     -34.264  15.245  -2.970  1.00 20.00    -0.061 SA
HETATM    6 CL9  UNL     1     -34.588  16.832  -0.474  1.00 20.00    -0.054 Cl
ENDROOT
BRANCH   2   7
HETATM    7  C6  UNL     1     -35.224  14.711  -5.554  1.00 20.00     0.019 C 
HETATM    8  C4  UNL     1     -34.744  13.282  -5.291  1.00 20.00     0.015 C 
HETATM    9  C5  UNL     1     -34.308  15.418  -6.556  1.00 20.00     0.015 C 
ENDBRANCH   2   7
TORSDOF 1
ENDMDL
MODEL 9
REMARK VINA RESULT:      -3.4     12.164     12.735
REMARK  1 active torsions:
REMARK  status: ('A' for Active; 'I' for Inactive)
REMARK    1  A    between atoms: C2_2  and  C6_6 
ROOT
HETATM    1  C1  UNL     1     -33.990   5.621   2.869  1.00 20.00     0.134 A 
HETATM    2  C2  UNL     1     -33.055   6.430   3.480  1.00 20.00     0.006 A 
HETATM    3  C3  UNL     1     -34.568   5.274   4.956  1.00 20.00     0.167 A 
HETATM    4  N7  UNL     1     -34.858   4.957   3.714  1.00 20.00    -0.240 NA
HETATM    5  S8  UNL     1     -33.263   6.366   5.181  1.00 20.00    -0.061 SA
HETATM    6 CL9  UNL     1     -35.419   4.655   6.309  1.00 20.00    -0.054 Cl
ENDROOT
BRANCH   2   7
HETATM    7  C6  UNL     1     -31.967   7.291   2.868  1.00 20.00     0.019 C 
HETATM    8  C4  UNL     1     -31.067   7.909   3.941  1.00 20.00     0.015 C 
HETATM    9  C5  UNL     1     -32.551   8.373   1.957  1.00 20.00     0.015 C 
ENDBRANCH   2   7
TORSDOF 1
ENDMDL
