MODEL 1
REMARK VINA RESULT:      -5.1      0.000      0.000
REMARK  0 active torsions:
REMARK  status: ('A' for Active; 'I' for Inactive)
ROOT
HETATM    1  C1  UNL     1     -34.718  13.310  -5.499  1.00 20.00     0.097 A 
HETATM    2  C2  UNL     1     -34.226  13.935  -3.297  1.00 20.00     0.097 A 
HETATM    3  C3  UNL     1     -34.624  14.631  -5.934  1.00 20.00    -0.016 A 
HETATM    4  C4  UNL     1     -34.116  15.276  -3.663  1.00 20.00    -0.016 A 
HETATM    5  C5  UNL     1     -34.292  15.643  -5.012  1.00 20.00     0.045 A 
HETATM    6  C6  UNL     1     -34.828  14.945  -7.392  1.00 20.00     0.044 C 
HETATM    7  C7  UNL     1     -33.760  16.301  -2.619  1.00 20.00     0.044 C 
HETATM    8  C8  UNL     1     -35.159  16.419  -7.598  1.00 20.00     0.025 C 
HETATM    9  C9  UNL     1     -34.146  17.704  -3.070  1.00 20.00     0.025 C 
HETATM   10  C10 UNL     1     -34.168  17.293  -6.840  1.00 20.00     0.123 C 
HETATM   11  C11 UNL     1     -33.641  17.962  -4.484  1.00 20.00     0.123 C 
HETATM   12  N12 UNL     1     -34.519  13.007  -4.213  1.00 20.00    -0.374 N 
HETATM   13  N13 UNL     1     -34.180  16.974  -5.415  1.00 20.00    -0.380 N 
HETATM   14  H28 UNL     1     -34.594  12.034  -3.920  1.00 20.00     0.164 HD
ENDROOT
TORSDOF 0
ENDMDL
MODEL 2
REMARK VINA RESULT:      -4.9      0.670      3.254
REMARK  0 active torsions:
REMARK  status: ('A' for Active; 'I' for Inactive)
ROOT
HETATM    1  C1  UNL     1     -34.364  13.809  -3.394  1.00 20.00     0.097 A 
HETATM    2  C2  UNL     1     -34.695  13.590  -5.702  1.00 20.00     0.097 A 
HETATM    3  C3  UNL     1     -34.407  15.200  -3.483  1.00 20.00    -0.016 A 
HETATM    4  C4  UNL     1     -34.749  14.973  -5.863  1.00 20.00    -0.016 A 
HETATM    5  C5  UNL     1     -34.629  15.808  -4.734  1.00 20.00     0.045 A 
HETATM    6  C6  UNL     1     -34.268  16.025  -2.231  1.00 20.00     0.044 C 
HETATM    7  C7  UNL     1     -34.987  15.550  -7.233  1.00 20.00     0.044 C 
HETATM    8  C8  UNL     1     -33.866  17.458  -2.558  1.00 20.00     0.025 C 
HETATM    9  C9  UNL     1     -34.548  17.007  -7.302  1.00 20.00     0.025 C 
HETATM   10  C10 UNL     1     -34.761  18.021  -3.654  1.00 20.00     0.123 C 
HETATM   11  C11 UNL     1     -35.116  17.786  -6.123  1.00 20.00     0.123 C 
HETATM   12  N12 UNL     1     -34.507  13.058  -4.490  1.00 20.00    -0.374 N 
HETATM   13  N13 UNL     1     -34.688  17.197  -4.858  1.00 20.00    -0.380 N 
HETATM   14  H28 UNL     1     -34.472  12.044  -4.399  1.00 20.00     0.164 HD
ENDROOT
TORSDOF 0
ENDMDL
MODEL 3
REMARK VINA RESULT:      -4.8      1.587      1.674
REMARK  0 active torsions:
REMARK  status: ('A' for Active; 'I' for Inactive)
ROOT
HETATM    1  C1  UNL     1     -34.868  13.461  -5.442  1.00 20.00     0.097 A 
HETATM    2  C2  UNL     1     -33.900  13.897  -3.354  1.00 20.00     0.097 A 
HETATM    3  C3  UNL     1     -35.544  14.681  -5.423  1.00 20.00    -0.016 A 
HETATM    4  C4  UNL     1     -34.546  15.129  -3.270  1.00 20.00    -0.016 A 
HETATM    5  C5  UNL     1     -35.369  15.554  -4.332  1.00 20.00     0.045 A 
HETATM    6  C6  UNL     1     -36.409  15.064  -6.595  1.00 20.00     0.044 C 
HETATM    7  C7  UNL     1     -34.310  16.007  -2.070  1.00 20.00     0.044 C 
HETATM    8  C8  UNL     1     -37.408  16.149  -6.211  1.00 20.00     0.025 C 
HETATM    9  C9  UNL     1     -35.418  17.043  -1.919  1.00 20.00     0.025 C 
HETATM   10  C10 UNL     1     -36.701  17.283  -5.480  1.00 20.00     0.123 C 
HETATM   11  C11 UNL     1     -35.667  17.748  -3.246  1.00 20.00     0.123 C 
HETATM   12  N12 UNL     1     -34.079  13.112  -4.421  1.00 20.00    -0.374 N 
HETATM   13  N13 UNL     1     -36.022  16.786  -4.286  1.00 20.00    -0.380 N 
HETATM   14  H28 UNL     1     -33.595  12.216  -4.459  1.00 20.00     0.164 HD
ENDROOT
TORSDOF 0
ENDMDL
MODEL 4
REMARK VINA RESULT:      -4.8      1.193      4.579
REMARK  0 active torsions:
REMARK  status: ('A' for Active; 'I' for Inactive)
ROOT
HETATM    1  C1  UNL     1     -33.412  18.745  -4.124  1.00 20.00     0.097 A 
HETATM    2  C2  UNL     1     -33.667  18.238  -6.397  1.00 20.00     0.097 A 
HETATM    3  C3  UNL     1     -33.827  17.466  -3.755  1.00 20.00    -0.016 A 
HETATM    4  C4  UNL     1     -34.090  16.943  -6.098  1.00 20.00    -0.016 A 
HETATM    5  C5  UNL     1     -34.152  16.527  -4.753  1.00 20.00     0.045 A 
HETATM    6  C6  UNL     1     -33.870  17.096  -2.296  1.00 20.00     0.044 C 
HETATM    7  C7  UNL     1     -34.423  15.997  -7.221  1.00 20.00     0.044 C 
HETATM    8  C8  UNL     1     -34.768  15.887  -2.061  1.00 20.00     0.025 C 
HETATM    9  C9  UNL     1     -35.292  14.845  -6.732  1.00 20.00     0.025 C 
HETATM   10  C10 UNL     1     -34.423  14.774  -3.041  1.00 20.00     0.123 C 
HETATM   11  C11 UNL     1     -34.696  14.231  -5.471  1.00 20.00     0.123 C 
HETATM   12  N12 UNL     1     -33.346  19.086  -5.415  1.00 20.00    -0.374 N 
HETATM   13  N13 UNL     1     -34.561  15.235  -4.420  1.00 20.00    -0.380 N 
HETATM   14  H28 UNL     1     -33.040  20.027  -5.659  1.00 20.00     0.164 HD
ENDROOT
TORSDOF 0
ENDMDL
MODEL 5
REMARK VINA RESULT:      -4.7      1.138      3.238
REMARK  0 active torsions:
REMARK  status: ('A' for Active; 'I' for Inactive)
ROOT
HETATM    1  C1  UNL     1     -34.318  16.696  -7.011  1.00 20.00     0.097 A 
HETATM    2  C2  UNL     1     -33.821  18.363  -5.442  1.00 20.00     0.097 A 
HETATM    3  C3  UNL     1     -34.574  15.770  -6.000  1.00 20.00    -0.016 A 
HETATM    4  C4  UNL     1     -34.062  17.489  -4.383  1.00 20.00    -0.016 A 
HETATM    5  C5  UNL     1     -34.472  16.168  -4.653  1.00 20.00     0.045 A 
HETATM    6  C6  UNL     1     -35.005  14.375  -6.368  1.00 20.00     0.044 C 
HETATM    7  C7  UNL     1     -33.929  17.988  -2.969  1.00 20.00     0.044 C 
HETATM    8  C8  UNL     1     -34.777  13.406  -5.214  1.00 20.00     0.025 C 
HETATM    9  C9  UNL     1     -33.756  16.833  -1.990  1.00 20.00     0.025 C 
HETATM   10  C10 UNL     1     -35.343  13.981  -3.922  1.00 20.00     0.123 C 
HETATM   11  C11 UNL     1     -34.811  15.763  -2.244  1.00 20.00     0.123 C 
HETATM   12  N12 UNL     1     -33.955  17.945  -6.705  1.00 20.00    -0.374 N 
HETATM   13  N13 UNL     1     -34.730  15.271  -3.616  1.00 20.00    -0.380 N 
HETATM   14  H28 UNL     1     -33.774  18.603  -7.462  1.00 20.00     0.164 HD
ENDROOT
TORSDOF 0
ENDMDL
MODEL 6
REMARK VINA RESULT:      -4.7      1.089      3.985
REMARK  0 active torsions:
REMARK  status: ('A' for Active; 'I' for Inactive)
ROOT
HETATM    1  C1  UNL     1     -33.812  16.682  -3.047  1.00 20.00     0.097 A 
HETATM    2  C2  UNL     1     -33.759  18.151  -4.871  1.00 20.00     0.097 A 
HETATM    3  C3  UNL     1     -34.194  15.621  -3.867  1.00 20.00    -0.016 A 
HETATM    4  C4  UNL     1     -34.138  17.136  -5.747  1.00 20.00    -0.016 A 
HETATM    5  C5  UNL     1     -34.340  15.832  -5.252  1.00 20.00     0.045 A 
HETATM    6  C6  UNL     1     -34.394  14.256  -3.264  1.00 20.00     0.044 C 
HETATM    7  C7  UNL     1     -34.276  17.440  -7.215  1.00 20.00     0.044 C 
HETATM    8  C8  UNL     1     -35.242  13.371  -4.170  1.00 20.00     0.025 C 
HETATM    9  C9  UNL     1     -35.131  16.391  -7.917  1.00 20.00     0.025 C 
HETATM   10  C10 UNL     1     -34.716  13.420  -5.598  1.00 20.00     0.123 C 
HETATM   11  C11 UNL     1     -34.659  14.991  -7.548  1.00 20.00     0.123 C 
HETATM   12  N12 UNL     1     -33.609  17.897  -3.567  1.00 20.00    -0.374 N 
HETATM   13  N13 UNL     1     -34.711  14.790  -6.103  1.00 20.00    -0.380 N 
HETATM   14  H28 UNL     1     -33.331  18.656  -2.947  1.00 20.00     0.164 HD
ENDROOT
TORSDOF 0
ENDMDL
MODEL 7
REMARK VINA RESULT:      -4.7      6.115      8.483
REMARK  0 active torsions:
REMARK  status: ('A' for Active; 'I' for Inactive)
ROOT
HETATM    1  C1  UNL     1     -34.497  18.459   4.457  1.00 20.00     0.097 A 
HETATM    2  C2  UNL     1     -35.999  17.772   2.796  1.00 20.00     0.097 A 
HETATM    3  C3  UNL     1     -33.484  18.644   3.516  1.00 20.00    -0.016 A 
HETATM    4  C4  UNL     1     -35.034  17.936   1.803  1.00 20.00    -0.016 A 
HETATM    5  C5  UNL     1     -33.752  18.405   2.154  1.00 20.00     0.045 A 
HETATM    6  C6  UNL     1     -32.139  19.145   3.968  1.00 20.00     0.044 C 
HETATM    7  C7  UNL     1     -35.394  17.658   0.368  1.00 20.00     0.044 C 
HETATM    8  C8  UNL     1     -31.060  18.837   2.935  1.00 20.00     0.025 C 
HETATM    9  C9  UNL     1     -34.148  17.426  -0.478  1.00 20.00     0.025 C 
HETATM   10  C10 UNL     1     -31.521  19.263   1.548  1.00 20.00     0.123 C 
HETATM   11  C11 UNL     1     -33.127  18.528  -0.229  1.00 20.00     0.123 C 
HETATM   12  N12 UNL     1     -35.705  18.035   4.073  1.00 20.00    -0.374 N 
HETATM   13  N13 UNL     1     -32.765  18.589   1.184  1.00 20.00    -0.380 N 
HETATM   14  H28 UNL     1     -36.428  17.908   4.780  1.00 20.00     0.164 HD
ENDROOT
TORSDOF 0
ENDMDL
MODEL 8
REMARK VINA RESULT:      -4.7      2.374      2.894
REMARK  0 active torsions:
REMARK  status: ('A' for Active; 'I' for Inactive)
ROOT
HETATM    1  C1  UNL     1     -34.946  13.972  -4.951  1.00 20.00     0.097 A 
HETATM    2  C2  UNL     1     -33.262  14.862  -3.589  1.00 20.00     0.097 A 
HETATM    3  C3  UNL     1     -35.908  14.789  -4.357  1.00 20.00    -0.016 A 
HETATM    4  C4  UNL     1     -34.170  15.706  -2.953  1.00 20.00    -0.016 A 
HETATM    5  C5  UNL     1     -35.522  15.698  -3.353  1.00 20.00     0.045 A 
HETATM    6  C6  UNL     1     -37.333  14.721  -4.838  1.00 20.00     0.044 C 
HETATM    7  C7  UNL     1     -33.682  16.649  -1.885  1.00 20.00     0.044 C 
HETATM    8  C8  UNL     1     -38.292  15.293  -3.801  1.00 20.00     0.025 C 
HETATM    9  C9  UNL     1     -34.829  17.122  -1.001  1.00 20.00     0.025 C 
HETATM   10  C10 UNL     1     -37.796  16.649  -3.315  1.00 20.00     0.123 C 
HETATM   11  C11 UNL     1     -35.995  17.600  -1.857  1.00 20.00     0.123 C 
HETATM   12  N12 UNL     1     -33.672  14.033  -4.554  1.00 20.00    -0.374 N 
HETATM   13  N13 UNL     1     -36.456  16.537  -2.745  1.00 20.00    -0.380 N 
HETATM   14  H28 UNL     1     -32.987  13.426  -5.004  1.00 20.00     0.164 HD
ENDROOT
TORSDOF 0
ENDMDL
MODEL 9
REMARK VINA RESULT:      -4.7      1.680      3.665
REMARK  0 active torsions:
REMARK  status: ('A' for Active; 'I' for Inactive)
ROOT
HETATM    1  C1  UNL     1     -33.819  13.976  -3.422  1.00 20.00     0.097 A 
HETATM    2  C2  UNL     1     -34.739  13.557  -5.535  1.00 20.00     0.097 A 
HETATM    3  C3  UNL     1     -34.594  15.125  -3.272  1.00 20.00    -0.016 A 
HETATM    4  C4  UNL     1     -35.543  14.693  -5.451  1.00 20.00    -0.016 A 
HETATM    5  C5  UNL     1     -35.497  15.490  -4.289  1.00 20.00     0.045 A 
HETATM    6  C6  UNL     1     -34.487  15.927  -2.002  1.00 20.00     0.044 C 
HETATM    7  C7  UNL     1     -36.482  15.019  -6.581  1.00 20.00     0.044 C 
HETATM    8  C8  UNL     1     -35.011  17.345  -2.200  1.00 20.00     0.025 C 
HETATM    9  C9  UNL     1     -36.902  16.484  -6.543  1.00 20.00     0.025 C 
HETATM   10  C10 UNL     1     -36.373  17.314  -2.881  1.00 20.00     0.123 C 
HETATM   11  C11 UNL     1     -37.357  16.867  -5.141  1.00 20.00     0.123 C 
HETATM   12  N12 UNL     1     -33.914  13.238  -4.532  1.00 20.00    -0.374 N 
HETATM   13  N13 UNL     1     -36.295  16.629  -4.168  1.00 20.00    -0.380 N 
HETATM   14  H28 UNL     1     -33.337  12.402  -4.618  1.00 20.00     0.164 HD
ENDROOT
TORSDOF 0
ENDMDL
