MODEL 1
REMARK VINA RESULT:      -4.8      0.000      0.000
REMARK  2 active torsions:
REMARK  status: ('A' for Active; 'I' for Inactive)
REMARK    1  A    between atoms: C4_4  and  C7_7 
REMARK    2  A    between atoms: C5_5  and  O8_8 
ROOT
HETATM    1  C1  UNL     1     -34.706   5.377   3.339  1.00 20.00     0.007 C 
HETATM    2  C2  UNL     1     -35.487   4.869   4.554  1.00 20.00     0.032 C 
HETATM    3  C3  UNL     1     -33.764   6.427   5.267  1.00 20.00     0.036 C 
HETATM    4  C4  UNL     1     -33.375   5.884   3.892  1.00 20.00    -0.012 C 
HETATM    5  C5  UNL     1     -34.736   5.376   5.789  1.00 20.00     0.118 C 
ENDROOT
BRANCH   4   6
HETATM    6  C7  UNL     1     -32.714   6.924   3.005  1.00 20.00     0.000 C 
HETATM    7  C6  UNL     1     -31.520   7.543   3.662  1.00 20.00     0.005 C 
ENDBRANCH   4   6
BRANCH   5   8
HETATM    8  O8  UNL     1     -33.994   4.309   6.372  1.00 20.00    -0.396 OA
HETATM    9  H22 UNL     1     -33.330   4.718   6.949  1.00 20.00     0.210 HD
ENDBRANCH   5   8
TORSDOF 2
ENDMDL
MODEL 2
REMARK VINA RESULT:      -4.6      1.541      2.093
REMARK  2 active torsions:
REMARK  status: ('A' for Active; 'I' for Inactive)
REMARK    1  A    between atoms: C4_4  and  C7_7 
REMARK    2  A    between atoms: C5_5  and  O8_8 
ROOT
HETATM    1  C1  UNL     1     -33.545   6.296   5.328  1.00 20.00     0.007 C 
HETATM    2  C2  UNL     1     -34.762   5.377   5.477  1.00 20.00     0.032 C 
HETATM    3  C3  UNL     1     -33.979   5.352   3.177  1.00 20.00     0.036 C 
HETATM    4  C4  UNL     1     -33.467   6.630   3.839  1.00 20.00    -0.012 C 
HETATM    5  C5  UNL     1     -35.157   4.956   4.059  1.00 20.00     0.118 C 
ENDROOT
BRANCH   4   6
HETATM    6  C7  UNL     1     -32.071   7.020   3.386  1.00 20.00     0.000 C 
HETATM    7  C6  UNL     1     -32.103   8.000   2.255  1.00 20.00     0.005 C 
ENDBRANCH   4   6
BRANCH   5   8
HETATM    8  O8  UNL     1     -36.309   5.684   3.644  1.00 20.00    -0.396 OA
HETATM    9  H22 UNL     1     -36.527   5.371   2.752  1.00 20.00     0.210 HD
ENDBRANCH   5   8
TORSDOF 2
ENDMDL
MODEL 3
REMARK VINA RESULT:      -4.4      2.080      3.443
REMARK  2 active torsions:
REMARK  status: ('A' for Active; 'I' for Inactive)
REMARK    1  A    between atoms: C4_4  and  C7_7 
REMARK    2  A    between atoms: C5_5  and  O8_8 
ROOT
HETATM    1  C1  UNL     1     -34.796   5.375   3.710  1.00 20.00     0.007 C 
HETATM    2  C2  UNL     1     -33.924   5.555   2.464  1.00 20.00     0.032 C 
HETATM    3  C3  UNL     1     -32.677   6.194   4.449  1.00 20.00     0.036 C 
HETATM    4  C4  UNL     1     -34.167   6.266   4.780  1.00 20.00    -0.012 C 
HETATM    5  C5  UNL     1     -32.658   6.281   2.928  1.00 20.00     0.118 C 
ENDROOT
BRANCH   4   6
HETATM    6  C7  UNL     1     -34.487   5.819   6.195  1.00 20.00     0.000 C 
HETATM    7  C6  UNL     1     -35.020   4.421   6.234  1.00 20.00     0.005 C 
ENDBRANCH   4   6
BRANCH   5   8
HETATM    8  O8  UNL     1     -32.721   7.651   2.544  1.00 20.00    -0.396 OA
HETATM    9  H22 UNL     1     -31.968   8.092   2.968  1.00 20.00     0.210 HD
ENDBRANCH   5   8
TORSDOF 2
ENDMDL
MODEL 4
REMARK VINA RESULT:      -4.4     11.992     12.436
REMARK  2 active torsions:
REMARK  status: ('A' for Active; 'I' for Inactive)
REMARK    1  A    between atoms: C4_4  and  C7_7 
REMARK    2  A    between atoms: C5_5  and  O8_8 
ROOT
HETATM    1  C1  UNL     1     -33.663  15.401  -4.649  1.00 20.00     0.007 C 
HETATM    2  C2  UNL     1     -34.529  14.429  -5.456  1.00 20.00     0.032 C 
HETATM    3  C3  UNL     1     -35.582  14.899  -3.318  1.00 20.00     0.036 C 
HETATM    4  C4  UNL     1     -34.093  15.217  -3.194  1.00 20.00    -0.012 C 
HETATM    5  C5  UNL     1     -35.633  13.951  -4.509  1.00 20.00     0.118 C 
ENDROOT
BRANCH   4   6
HETATM    6  C7  UNL     1     -33.811  16.433  -2.329  1.00 20.00     0.000 C 
HETATM    7  C6  UNL     1     -34.679  16.466  -1.110  1.00 20.00     0.005 C 
ENDBRANCH   4   6
BRANCH   5   8
HETATM    8  O8  UNL     1     -35.344  12.631  -4.061  1.00 20.00    -0.396 OA
HETATM    9  H22 UNL     1     -34.383  12.518  -4.135  1.00 20.00     0.210 HD
ENDBRANCH   5   8
TORSDOF 2
ENDMDL
MODEL 5
REMARK VINA RESULT:      -4.1      1.326      1.836
REMARK  2 active torsions:
REMARK  status: ('A' for Active; 'I' for Inactive)
REMARK    1  A    between atoms: C4_4  and  C7_7 
REMARK    2  A    between atoms: C5_5  and  O8_8 
ROOT
HETATM    1  C1  UNL     1     -34.098   6.536   5.855  1.00 20.00     0.007 C 
HETATM    2  C2  UNL     1     -34.487   5.233   6.561  1.00 20.00     0.032 C 
HETATM    3  C3  UNL     1     -33.713   4.757   4.307  1.00 20.00     0.036 C 
HETATM    4  C4  UNL     1     -34.148   6.221   4.361  1.00 20.00    -0.012 C 
HETATM    5  C5  UNL     1     -34.444   4.137   5.492  1.00 20.00     0.118 C 
ENDROOT
BRANCH   4   6
HETATM    6  C7  UNL     1     -33.271   7.136   3.526  1.00 20.00     0.000 C 
HETATM    7  C6  UNL     1     -32.011   6.458   3.088  1.00 20.00     0.005 C 
ENDBRANCH   4   6
BRANCH   5   8
HETATM    8  O8  UNL     1     -35.769   3.802   5.092  1.00 20.00    -0.396 OA
HETATM    9  H22 UNL     1     -36.320   4.576   5.288  1.00 20.00     0.210 HD
ENDBRANCH   5   8
TORSDOF 2
ENDMDL
MODEL 6
REMARK VINA RESULT:      -4.0     12.350     13.320
REMARK  2 active torsions:
REMARK  status: ('A' for Active; 'I' for Inactive)
REMARK    1  A    between atoms: C4_4  and  C7_7 
REMARK    2  A    between atoms: C5_5  and  O8_8 
ROOT
HETATM    1  C1  UNL     1     -34.025  17.727  -3.060  1.00 20.00     0.007 C 
HETATM    2  C2  UNL     1     -33.615  17.260  -4.460  1.00 20.00     0.032 C 
HETATM    3  C3  UNL     1     -34.176  15.343  -3.077  1.00 20.00     0.036 C 
HETATM    4  C4  UNL     1     -33.835  16.512  -2.154  1.00 20.00    -0.012 C 
HETATM    5  C5  UNL     1     -33.506  15.734  -4.388  1.00 20.00     0.118 C 
ENDROOT
BRANCH   4   6
HETATM    6  C7  UNL     1     -34.696  16.557  -0.904  1.00 20.00     0.000 C 
HETATM    7  C6  UNL     1     -34.294  17.670   0.013  1.00 20.00     0.005 C 
ENDBRANCH   4   6
BRANCH   5   8
HETATM    8  O8  UNL     1     -32.135  15.352  -4.339  1.00 20.00    -0.396 OA
HETATM    9  H22 UNL     1     -31.831  15.532  -3.435  1.00 20.00     0.210 HD
ENDBRANCH   5   8
TORSDOF 2
ENDMDL
MODEL 7
REMARK VINA RESULT:      -4.0     11.755     12.990
REMARK  2 active torsions:
REMARK  status: ('A' for Active; 'I' for Inactive)
REMARK    1  A    between atoms: C4_4  and  C7_7 
REMARK    2  A    between atoms: C5_5  and  O8_8 
ROOT
HETATM    1  C1  UNL     1     -33.496  15.248  -3.679  1.00 20.00     0.007 C 
HETATM    2  C2  UNL     1     -33.309  13.728  -3.714  1.00 20.00     0.032 C 
HETATM    3  C3  UNL     1     -34.767  14.426  -5.528  1.00 20.00     0.036 C 
HETATM    4  C4  UNL     1     -34.782  15.518  -4.459  1.00 20.00    -0.012 C 
HETATM    5  C5  UNL     1     -34.295  13.198  -4.759  1.00 20.00     0.118 C 
ENDROOT
BRANCH   4   6
HETATM    6  C7  UNL     1     -34.849  16.920  -5.037  1.00 20.00     0.000 C 
HETATM    7  C6  UNL     1     -33.492  17.542  -5.155  1.00 20.00     0.005 C 
ENDBRANCH   4   6
BRANCH   5   8
HETATM    8  O8  UNL     1     -35.413  12.604  -4.107  1.00 20.00    -0.396 OA
HETATM    9  H22 UNL     1     -36.160  12.671  -4.724  1.00 20.00     0.210 HD
ENDBRANCH   5   8
TORSDOF 2
ENDMDL
MODEL 8
REMARK VINA RESULT:      -4.0     12.259     12.581
REMARK  2 active torsions:
REMARK  status: ('A' for Active; 'I' for Inactive)
REMARK    1  A    between atoms: C4_4  and  C7_7 
REMARK    2  A    between atoms: C5_5  and  O8_8 
ROOT
HETATM    1  C1  UNL     1     -35.550  15.185  -3.056  1.00 20.00     0.007 C 
HETATM    2  C2  UNL     1     -35.567  14.021  -4.051  1.00 20.00     0.032 C 
HETATM    3  C3  UNL     1     -33.282  14.752  -3.668  1.00 20.00     0.036 C 
HETATM    4  C4  UNL     1     -34.218  15.898  -3.285  1.00 20.00    -0.012 C 
HETATM    5  C5  UNL     1     -34.141  13.902  -4.596  1.00 20.00     0.118 C 
ENDROOT
BRANCH   4   6
HETATM    6  C7  UNL     1     -33.741  16.679  -2.074  1.00 20.00     0.000 C 
HETATM    7  C6  UNL     1     -34.685  16.554  -0.919  1.00 20.00     0.005 C 
ENDBRANCH   4   6
BRANCH   5   8
HETATM    8  O8  UNL     1     -34.081  14.448  -5.910  1.00 20.00    -0.396 OA
HETATM    9  H22 UNL     1     -34.017  15.411  -5.806  1.00 20.00     0.210 HD
ENDBRANCH   5   8
TORSDOF 2
ENDMDL
MODEL 9
REMARK VINA RESULT:      -3.9      9.301     10.661
REMARK  2 active torsions:
REMARK  status: ('A' for Active; 'I' for Inactive)
REMARK    1  A    between atoms: C4_4  and  C7_7 
REMARK    2  A    between atoms: C5_5  and  O8_8 
ROOT
HETATM    1  C1  UNL     1     -40.834   4.440  -0.985  1.00 20.00     0.007 C 
HETATM    2  C2  UNL     1     -40.720   5.906  -0.554  1.00 20.00     0.032 C 
HETATM    3  C3  UNL     1     -42.625   5.621  -2.036  1.00 20.00     0.036 C 
HETATM    4  C4  UNL     1     -41.664   4.455  -2.267  1.00 20.00    -0.012 C 
HETATM    5  C5  UNL     1     -41.733   6.681  -1.402  1.00 20.00     0.118 C 
ENDROOT
BRANCH   4   6
HETATM    6  C7  UNL     1     -42.374   3.140  -2.536  1.00 20.00     0.000 C 
HETATM    7  C6  UNL     1     -41.558   2.230  -3.401  1.00 20.00     0.005 C 
ENDBRANCH   4   6
BRANCH   5   8
HETATM    8  O8  UNL     1     -41.053   7.389  -2.434  1.00 20.00    -0.396 OA
HETATM    9  H22 UNL     1     -41.735   7.850  -2.948  1.00 20.00     0.210 HD
ENDBRANCH   5   8
TORSDOF 2
ENDMDL
