MODEL 1
REMARK VINA RESULT:      -4.1      0.000      0.000
REMARK  4 active torsions:
REMARK  status: ('A' for Active; 'I' for Inactive)
REMARK    1  A    between atoms: C1_1  and  C7_7 
REMARK    2  A    between atoms: C1_1  and  C8_8 
REMARK    3  A    between atoms: C7_7  and  O10_10 
REMARK    4  A    between atoms: C7_7  and  O11_11 
ROOT
HETATM    1  C1  UNL     1     -35.258  14.060  -4.224  1.00 20.00     0.188 C 
HETATM    2  O9  UNL     1     -35.214  12.833  -4.359  1.00 20.00    -0.292 OA
ENDROOT
BRANCH   1   3
HETATM    3  C7  UNL     1     -36.566  14.810  -4.465  1.00 20.00     0.330 C 
BRANCH   3   4
HETATM    4  O10 UNL     1     -36.737  14.758  -5.881  1.00 20.00    -0.359 OA
HETATM    5  C5  UNL     1     -36.749  16.053  -6.466  1.00 20.00     0.205 C 
ENDBRANCH   3   4
BRANCH   3   6
HETATM    6  O11 UNL     1     -37.624  14.138  -3.791  1.00 20.00    -0.359 OA
HETATM    7  C6  UNL     1     -38.812  14.916  -3.732  1.00 20.00     0.205 C 
ENDBRANCH   3   6
ENDBRANCH   1   3
BRANCH   1   8
HETATM    8  C8  UNL     1     -34.021  14.860  -3.763  1.00 20.00     0.015 C 
HETATM    9  C2  UNL     1     -34.381  15.620  -2.479  1.00 20.00     0.023 C 
HETATM   10  C3  UNL     1     -32.868  13.885  -3.457  1.00 20.00     0.023 C 
HETATM   11  C4  UNL     1     -33.548  15.841  -4.843  1.00 20.00     0.023 C 
ENDBRANCH   1   8
TORSDOF 4
ENDMDL
MODEL 2
REMARK VINA RESULT:      -4.1      0.036      1.307
REMARK  4 active torsions:
REMARK  status: ('A' for Active; 'I' for Inactive)
REMARK    1  A    between atoms: C1_1  and  C7_7 
REMARK    2  A    between atoms: C1_1  and  C8_8 
REMARK    3  A    between atoms: C7_7  and  O10_10 
REMARK    4  A    between atoms: C7_7  and  O11_11 
ROOT
HETATM    1  C1  UNL     1     -35.252  14.040  -4.228  1.00 20.00     0.188 C 
HETATM    2  O9  UNL     1     -35.201  12.816  -4.382  1.00 20.00    -0.292 OA
ENDROOT
BRANCH   1   3
HETATM    3  C7  UNL     1     -36.558  14.790  -4.479  1.00 20.00     0.330 C 
BRANCH   3   4
HETATM    4  O10 UNL     1     -36.730  14.717  -5.894  1.00 20.00    -0.359 OA
HETATM    5  C5  UNL     1     -36.754  16.004  -6.498  1.00 20.00     0.205 C 
ENDBRANCH   3   4
BRANCH   3   6
HETATM    6  O11 UNL     1     -37.617  14.132  -3.794  1.00 20.00    -0.359 OA
HETATM    7  C6  UNL     1     -38.805  14.912  -3.750  1.00 20.00     0.205 C 
ENDBRANCH   3   6
ENDBRANCH   1   3
BRANCH   1   8
HETATM    8  C8  UNL     1     -34.025  14.838  -3.735  1.00 20.00     0.015 C 
HETATM    9  C2  UNL     1     -32.881  13.853  -3.458  1.00 20.00     0.023 C 
HETATM   10  C3  UNL     1     -33.581  15.820  -4.834  1.00 20.00     0.023 C 
HETATM   11  C4  UNL     1     -34.347  15.643  -2.470  1.00 20.00     0.023 C 
ENDBRANCH   1   8
TORSDOF 4
ENDMDL
MODEL 3
REMARK VINA RESULT:      -4.0      0.051      1.309
REMARK  4 active torsions:
REMARK  status: ('A' for Active; 'I' for Inactive)
REMARK    1  A    between atoms: C1_1  and  C7_7 
REMARK    2  A    between atoms: C1_1  and  C8_8 
REMARK    3  A    between atoms: C7_7  and  O10_10 
REMARK    4  A    between atoms: C7_7  and  O11_11 
ROOT
HETATM    1  C1  UNL     1     -35.239  14.034  -4.256  1.00 20.00     0.188 C 
HETATM    2  O9  UNL     1     -35.197  12.811  -4.423  1.00 20.00    -0.292 OA
ENDROOT
BRANCH   1   3
HETATM    3  C7  UNL     1     -36.544  14.793  -4.484  1.00 20.00     0.330 C 
BRANCH   3   4
HETATM    4  O10 UNL     1     -36.750  14.709  -5.894  1.00 20.00    -0.359 OA
HETATM    5  C5  UNL     1     -36.753  15.989  -6.511  1.00 20.00     0.205 C 
ENDBRANCH   3   4
BRANCH   3   6
HETATM    6  O11 UNL     1     -37.593  14.150  -3.768  1.00 20.00    -0.359 OA
HETATM    7  C6  UNL     1     -38.772  14.941  -3.702  1.00 20.00     0.205 C 
ENDBRANCH   3   6
ENDBRANCH   1   3
BRANCH   1   8
HETATM    8  C8  UNL     1     -34.003  14.820  -3.768  1.00 20.00     0.015 C 
HETATM    9  C2  UNL     1     -33.589  15.810  -4.866  1.00 20.00     0.023 C 
HETATM   10  C3  UNL     1     -34.371  15.610  -2.498  1.00 20.00     0.023 C 
HETATM   11  C4  UNL     1     -32.836  13.884  -3.433  1.00 20.00     0.023 C 
ENDBRANCH   1   8
TORSDOF 4
ENDMDL
MODEL 4
REMARK VINA RESULT:      -3.8      2.890      4.034
REMARK  4 active torsions:
REMARK  status: ('A' for Active; 'I' for Inactive)
REMARK    1  A    between atoms: C1_1  and  C7_7 
REMARK    2  A    between atoms: C1_1  and  C8_8 
REMARK    3  A    between atoms: C7_7  and  O10_10 
REMARK    4  A    between atoms: C7_7  and  O11_11 
ROOT
HETATM    1  C1  UNL     1     -33.782  16.071  -4.229  1.00 20.00     0.188 C 
HETATM    2  O9  UNL     1     -32.795  16.430  -4.877  1.00 20.00    -0.292 OA
ENDROOT
BRANCH   1   3
HETATM    3  C7  UNL     1     -34.414  17.016  -3.210  1.00 20.00     0.330 C 
BRANCH   3   4
HETATM    4  O10 UNL     1     -33.679  16.772  -2.011  1.00 20.00    -0.359 OA
HETATM    5  C5  UNL     1     -34.525  16.679  -0.873  1.00 20.00     0.205 C 
ENDBRANCH   3   4
BRANCH   3   6
HETATM    6  O11 UNL     1     -34.255  18.359  -3.652  1.00 20.00    -0.359 OA
HETATM    7  C6  UNL     1     -35.419  18.863  -4.294  1.00 20.00     0.205 C 
ENDBRANCH   3   6
ENDBRANCH   1   3
BRANCH   1   8
HETATM    8  C8  UNL     1     -34.434  14.691  -4.461  1.00 20.00     0.015 C 
HETATM    9  C2  UNL     1     -33.542  13.616  -3.826  1.00 20.00     0.023 C 
HETATM   10  C3  UNL     1     -35.814  14.658  -3.778  1.00 20.00     0.023 C 
HETATM   11  C4  UNL     1     -34.629  14.402  -5.954  1.00 20.00     0.023 C 
ENDBRANCH   1   8
TORSDOF 4
ENDMDL
MODEL 5
REMARK VINA RESULT:      -3.8      2.581      3.617
REMARK  4 active torsions:
REMARK  status: ('A' for Active; 'I' for Inactive)
REMARK    1  A    between atoms: C1_1  and  C7_7 
REMARK    2  A    between atoms: C1_1  and  C8_8 
REMARK    3  A    between atoms: C7_7  and  O10_10 
REMARK    4  A    between atoms: C7_7  and  O11_11 
ROOT
HETATM    1  C1  UNL     1     -35.004  15.608  -3.113  1.00 20.00     0.188 C 
HETATM    2  O9  UNL     1     -36.230  15.482  -3.033  1.00 20.00    -0.292 OA
ENDROOT
BRANCH   1   3
HETATM    3  C7  UNL     1     -34.268  16.552  -2.166  1.00 20.00     0.330 C 
BRANCH   3   4
HETATM    4  O10 UNL     1     -34.712  17.850  -2.559  1.00 20.00    -0.359 OA
HETATM    5  C5  UNL     1     -33.813  18.472  -3.466  1.00 20.00     0.205 C 
ENDBRANCH   3   4
BRANCH   3   6
HETATM    6  O11 UNL     1     -34.644  16.259  -0.825  1.00 20.00    -0.359 OA
HETATM    7  C6  UNL     1     -34.816  17.432  -0.039  1.00 20.00     0.205 C 
ENDBRANCH   3   6
ENDBRANCH   1   3
BRANCH   1   8
HETATM    8  C8  UNL     1     -34.178  14.787  -4.127  1.00 20.00     0.015 C 
HETATM    9  C2  UNL     1     -32.720  14.746  -3.651  1.00 20.00     0.023 C 
HETATM   10  C3  UNL     1     -34.724  13.347  -4.182  1.00 20.00     0.023 C 
HETATM   11  C4  UNL     1     -34.258  15.385  -5.537  1.00 20.00     0.023 C 
ENDBRANCH   1   8
TORSDOF 4
ENDMDL
MODEL 6
REMARK VINA RESULT:      -3.7      1.355      2.851
REMARK  4 active torsions:
REMARK  status: ('A' for Active; 'I' for Inactive)
REMARK    1  A    between atoms: C1_1  and  C7_7 
REMARK    2  A    between atoms: C1_1  and  C8_8 
REMARK    3  A    between atoms: C7_7  and  O10_10 
REMARK    4  A    between atoms: C7_7  and  O11_11 
ROOT
HETATM    1  C1  UNL     1     -36.182  15.860  -3.538  1.00 20.00     0.188 C 
HETATM    2  O9  UNL     1     -36.875  16.856  -3.314  1.00 20.00    -0.292 OA
ENDROOT
BRANCH   1   3
HETATM    3  C7  UNL     1     -36.760  14.685  -4.322  1.00 20.00     0.330 C 
BRANCH   3   4
HETATM    4  O10 UNL     1     -37.948  14.345  -3.608  1.00 20.00    -0.359 OA
HETATM    5  C5  UNL     1     -39.122  14.615  -4.362  1.00 20.00     0.205 C 
ENDBRANCH   3   4
BRANCH   3   6
HETATM    6  O11 UNL     1     -37.056  15.106  -5.649  1.00 20.00    -0.359 OA
HETATM    7  C6  UNL     1     -35.985  14.858  -6.550  1.00 20.00     0.205 C 
ENDBRANCH   3   6
ENDBRANCH   1   3
BRANCH   1   8
HETATM    8  C8  UNL     1     -34.708  15.790  -3.081  1.00 20.00     0.015 C 
HETATM    9  C2  UNL     1     -34.196  14.359  -3.301  1.00 20.00     0.023 C 
HETATM   10  C3  UNL     1     -33.865  16.756  -3.933  1.00 20.00     0.023 C 
HETATM   11  C4  UNL     1     -34.554  16.186  -1.608  1.00 20.00     0.023 C 
ENDBRANCH   1   8
TORSDOF 4
ENDMDL
MODEL 7
REMARK VINA RESULT:      -3.7      1.218      2.414
REMARK  4 active torsions:
REMARK  status: ('A' for Active; 'I' for Inactive)
REMARK    1  A    between atoms: C1_1  and  C7_7 
REMARK    2  A    between atoms: C1_1  and  C8_8 
REMARK    3  A    between atoms: C7_7  and  O10_10 
REMARK    4  A    between atoms: C7_7  and  O11_11 
ROOT
HETATM    1  C1  UNL     1     -35.880  15.726  -3.923  1.00 20.00     0.188 C 
HETATM    2  O9  UNL     1     -36.401  16.836  -3.779  1.00 20.00    -0.292 OA
ENDROOT
BRANCH   1   3
HETATM    3  C7  UNL     1     -36.657  14.596  -4.592  1.00 20.00     0.330 C 
BRANCH   3   4
HETATM    4  O10 UNL     1     -37.737  14.341  -3.694  1.00 20.00    -0.359 OA
HETATM    5  C5  UNL     1     -38.998  14.644  -4.274  1.00 20.00     0.205 C 
ENDBRANCH   3   4
BRANCH   3   6
HETATM    6  O11 UNL     1     -37.131  15.038  -5.859  1.00 20.00    -0.359 OA
HETATM    7  C6  UNL     1     -36.152  14.909  -6.882  1.00 20.00     0.205 C 
ENDBRANCH   3   6
ENDBRANCH   1   3
BRANCH   1   8
HETATM    8  C8  UNL     1     -34.424  15.462  -3.482  1.00 20.00     0.015 C 
HETATM    9  C2  UNL     1     -34.248  15.973  -2.045  1.00 20.00     0.023 C 
HETATM   10  C3  UNL     1     -34.152  13.946  -3.507  1.00 20.00     0.023 C 
HETATM   11  C4  UNL     1     -33.418  16.147  -4.414  1.00 20.00     0.023 C 
ENDBRANCH   1   8
TORSDOF 4
ENDMDL
MODEL 8
REMARK VINA RESULT:      -3.7      2.426      3.314
REMARK  4 active torsions:
REMARK  status: ('A' for Active; 'I' for Inactive)
REMARK    1  A    between atoms: C1_1  and  C7_7 
REMARK    2  A    between atoms: C1_1  and  C8_8 
REMARK    3  A    between atoms: C7_7  and  O10_10 
REMARK    4  A    between atoms: C7_7  and  O11_11 
ROOT
HETATM    1  C1  UNL     1     -33.984  15.995  -4.843  1.00 20.00     0.188 C 
HETATM    2  O9  UNL     1     -32.835  16.433  -4.950  1.00 20.00    -0.292 OA
ENDROOT
BRANCH   1   3
HETATM    3  C7  UNL     1     -35.058  16.410  -5.846  1.00 20.00     0.330 C 
BRANCH   3   4
HETATM    4  O10 UNL     1     -35.231  17.807  -5.608  1.00 20.00    -0.359 OA
HETATM    5  C5  UNL     1     -36.296  18.068  -4.705  1.00 20.00     0.205 C 
ENDBRANCH   3   4
BRANCH   3   6
HETATM    6  O11 UNL     1     -34.589  16.163  -7.166  1.00 20.00    -0.359 OA
HETATM    7  C6  UNL     1     -34.779  14.813  -7.569  1.00 20.00     0.205 C 
ENDBRANCH   3   6
ENDBRANCH   1   3
BRANCH   1   8
HETATM    8  C8  UNL     1     -34.358  14.986  -3.735  1.00 20.00     0.015 C 
HETATM    9  C2  UNL     1     -34.363  15.720  -2.387  1.00 20.00     0.023 C 
HETATM   10  C3  UNL     1     -35.769  14.433  -4.006  1.00 20.00     0.023 C 
HETATM   11  C4  UNL     1     -33.378  13.807  -3.692  1.00 20.00     0.023 C 
ENDBRANCH   1   8
TORSDOF 4
ENDMDL
MODEL 9
REMARK VINA RESULT:      -3.6      1.392      2.642
REMARK  4 active torsions:
REMARK  status: ('A' for Active; 'I' for Inactive)
REMARK    1  A    between atoms: C1_1  and  C7_7 
REMARK    2  A    between atoms: C1_1  and  C8_8 
REMARK    3  A    between atoms: C7_7  and  O10_10 
REMARK    4  A    between atoms: C7_7  and  O11_11 
ROOT
HETATM    1  C1  UNL     1     -35.532  15.184  -3.802  1.00 20.00     0.188 C 
HETATM    2  O9  UNL     1     -35.540  15.542  -2.620  1.00 20.00    -0.292 OA
ENDROOT
BRANCH   1   3
HETATM    3  C7  UNL     1     -36.831  15.153  -4.602  1.00 20.00     0.330 C 
BRANCH   3   4
HETATM    4  O10 UNL     1     -37.681  14.290  -3.845  1.00 20.00    -0.359 OA
HETATM    5  C5  UNL     1     -39.034  14.724  -3.860  1.00 20.00     0.205 C 
ENDBRANCH   3   4
BRANCH   3   6
HETATM    6  O11 UNL     1     -37.367  16.468  -4.681  1.00 20.00    -0.359 OA
HETATM    7  C6  UNL     1     -36.898  17.180  -5.819  1.00 20.00     0.205 C 
ENDBRANCH   3   6
ENDBRANCH   1   3
BRANCH   1   8
HETATM    8  C8  UNL     1     -34.215  14.812  -4.517  1.00 20.00     0.015 C 
HETATM    9  C2  UNL     1     -34.546  14.355  -5.944  1.00 20.00     0.023 C 
HETATM   10  C3  UNL     1     -33.306  16.053  -4.590  1.00 20.00     0.023 C 
HETATM   11  C4  UNL     1     -33.460  13.706  -3.769  1.00 20.00     0.023 C 
ENDBRANCH   1   8
TORSDOF 4
ENDMDL
