MODEL 1
REMARK VINA RESULT:      -4.9      0.000      0.000
REMARK  0 active torsions:
REMARK  status: ('A' for Active; 'I' for Inactive)
ROOT
HETATM    1  C1  UNL     1     -34.634  14.948  -2.849  1.00 20.00     0.047 A 
HETATM    2  C2  UNL     1     -34.501  14.964  -4.250  1.00 20.00     0.026 A 
HETATM    3  C3  UNL     1     -34.187  16.200  -4.738  1.00 20.00    -0.001 A 
HETATM    4  C4  UNL     1     -34.409  16.213  -2.330  1.00 20.00     0.075 A 
HETATM    5  C5  UNL     1     -34.607  14.034  -5.344  1.00 20.00     0.175 A 
HETATM    6  C6  UNL     1     -34.017  16.269  -6.212  1.00 20.00     0.071 A 
HETATM    7  C7  UNL     1     -34.362  14.812  -6.646  1.00 20.00     0.137 A 
HETATM    8  O8  UNL     1     -34.866  12.845  -5.244  1.00 20.00    -0.291 OA
HETATM    9  S9  UNL     1     -34.042  17.378  -3.557  1.00 20.00    -0.082 SA
HETATM   10 CL10 UNL     1     -34.458  16.698  -0.687  1.00 20.00    -0.076 Cl
HETATM   11 BR11 UNL     1     -36.030  14.755  -7.636  1.00 20.00    -0.082 Br
ENDROOT
TORSDOF 0
ENDMDL
MODEL 2
REMARK VINA RESULT:      -4.5      1.921      2.192
REMARK  0 active torsions:
REMARK  status: ('A' for Active; 'I' for Inactive)
ROOT
HETATM    1  C1  UNL     1     -34.420  16.253  -1.527  1.00 20.00     0.047 A 
HETATM    2  C2  UNL     1     -33.960  16.382  -2.850  1.00 20.00     0.026 A 
HETATM    3  C3  UNL     1     -34.094  17.652  -3.335  1.00 20.00    -0.001 A 
HETATM    4  C4  UNL     1     -34.896  17.468  -1.062  1.00 20.00     0.075 A 
HETATM    5  C5  UNL     1     -33.380  15.544  -3.867  1.00 20.00     0.175 A 
HETATM    6  C6  UNL     1     -33.607  17.849  -4.725  1.00 20.00     0.071 A 
HETATM    7  C7  UNL     1     -33.174  16.405  -5.123  1.00 20.00     0.137 A 
HETATM    8  O8  UNL     1     -33.122  14.357  -3.748  1.00 20.00    -0.291 OA
HETATM    9  S9  UNL     1     -34.768  18.727  -2.242  1.00 20.00    -0.082 SA
HETATM   10 CL10 UNL     1     -35.557  17.815   0.482  1.00 20.00    -0.076 Cl
HETATM   11 BR11 UNL     1     -34.350  15.675  -6.482  1.00 20.00    -0.082 Br
ENDROOT
TORSDOF 0
ENDMDL
MODEL 3
REMARK VINA RESULT:      -4.3      4.231      5.191
REMARK  0 active torsions:
REMARK  status: ('A' for Active; 'I' for Inactive)
ROOT
HETATM    1  C1  UNL     1     -34.713  15.522  -2.322  1.00 20.00     0.047 A 
HETATM    2  C2  UNL     1     -34.378  16.797  -1.831  1.00 20.00     0.026 A 
HETATM    3  C3  UNL     1     -33.816  17.600  -2.783  1.00 20.00    -0.001 A 
HETATM    4  C4  UNL     1     -34.375  15.419  -3.663  1.00 20.00     0.075 A 
HETATM    5  C5  UNL     1     -34.454  17.517  -0.587  1.00 20.00     0.175 A 
HETATM    6  C6  UNL     1     -33.458  18.967  -2.322  1.00 20.00     0.071 A 
HETATM    7  C7  UNL     1     -33.830  18.904  -0.809  1.00 20.00     0.137 A 
HETATM    8  O8  UNL     1     -34.914  17.085   0.457  1.00 20.00    -0.291 OA
HETATM    9  S9  UNL     1     -33.665  16.870  -4.283  1.00 20.00    -0.082 SA
HETATM   10 CL10 UNL     1     -34.585  14.067  -4.696  1.00 20.00    -0.076 Cl
HETATM   11 BR11 UNL     1     -32.242  18.971   0.303  1.00 20.00    -0.082 Br
ENDROOT
TORSDOF 0
ENDMDL
MODEL 4
REMARK VINA RESULT:      -4.3      6.494      7.462
REMARK  0 active torsions:
REMARK  status: ('A' for Active; 'I' for Inactive)
ROOT
HETATM    1  C1  UNL     1     -31.517  19.180   2.251  1.00 20.00     0.047 A 
HETATM    2  C2  UNL     1     -32.663  18.911   1.479  1.00 20.00     0.026 A 
HETATM    3  C3  UNL     1     -33.729  18.515   2.235  1.00 20.00    -0.001 A 
HETATM    4  C4  UNL     1     -31.780  18.964   3.594  1.00 20.00     0.075 A 
HETATM    5  C5  UNL     1     -33.045  18.930   0.092  1.00 20.00     0.175 A 
HETATM    6  C6  UNL     1     -34.972  18.234   1.471  1.00 20.00     0.071 A 
HETATM    7  C7  UNL     1     -34.503  18.453   0.000  1.00 20.00     0.137 A 
HETATM    8  O8  UNL     1     -32.324  19.249  -0.840  1.00 20.00    -0.291 OA
HETATM    9  S9  UNL     1     -33.407  18.445   3.878  1.00 20.00    -0.082 SA
HETATM   10 CL10 UNL     1     -30.707  19.154   4.917  1.00 20.00    -0.076 Cl
HETATM   11 BR11 UNL     1     -34.468  16.778  -0.977  1.00 20.00    -0.082 Br
ENDROOT
TORSDOF 0
ENDMDL
MODEL 5
REMARK VINA RESULT:      -4.1      1.782      1.852
REMARK  0 active torsions:
REMARK  status: ('A' for Active; 'I' for Inactive)
ROOT
HETATM    1  C1  UNL     1     -35.370  15.951  -2.323  1.00 20.00     0.047 A 
HETATM    2  C2  UNL     1     -35.717  15.584  -3.636  1.00 20.00     0.026 A 
HETATM    3  C3  UNL     1     -34.897  16.140  -4.576  1.00 20.00    -0.001 A 
HETATM    4  C4  UNL     1     -34.271  16.795  -2.334  1.00 20.00     0.075 A 
HETATM    5  C5  UNL     1     -36.711  14.777  -4.293  1.00 20.00     0.175 A 
HETATM    6  C6  UNL     1     -35.208  15.772  -5.981  1.00 20.00     0.071 A 
HETATM    7  C7  UNL     1     -36.484  14.890  -5.808  1.00 20.00     0.137 A 
HETATM    8  O8  UNL     1     -37.589  14.136  -3.735  1.00 20.00    -0.291 OA
HETATM    9  S9  UNL     1     -33.694  17.115  -3.935  1.00 20.00    -0.082 SA
HETATM   10 CL10 UNL     1     -33.481  17.507  -0.989  1.00 20.00    -0.076 Cl
HETATM   11 BR11 UNL     1     -38.049  15.781  -6.529  1.00 20.00    -0.082 Br
ENDROOT
TORSDOF 0
ENDMDL
MODEL 6
REMARK VINA RESULT:      -3.9      3.083      3.203
REMARK  0 active torsions:
REMARK  status: ('A' for Active; 'I' for Inactive)
ROOT
HETATM    1  C1  UNL     1     -35.184  14.545  -3.622  1.00 20.00     0.047 A 
HETATM    2  C2  UNL     1     -36.262  14.884  -4.460  1.00 20.00     0.026 A 
HETATM    3  C3  UNL     1     -35.862  15.473  -5.625  1.00 20.00    -0.001 A 
HETATM    4  C4  UNL     1     -33.984  14.908  -4.212  1.00 20.00     0.075 A 
HETATM    5  C5  UNL     1     -37.699  14.791  -4.444  1.00 20.00     0.175 A 
HETATM    6  C6  UNL     1     -36.962  15.836  -6.557  1.00 20.00     0.071 A 
HETATM    7  C7  UNL     1     -38.226  15.433  -5.737  1.00 20.00     0.137 A 
HETATM    8  O8  UNL     1     -38.370  14.305  -3.547  1.00 20.00    -0.291 OA
HETATM    9  S9  UNL     1     -34.202  15.646  -5.762  1.00 20.00    -0.082 SA
HETATM   10 CL10 UNL     1     -32.402  14.705  -3.583  1.00 20.00    -0.076 Cl
HETATM   11 BR11 UNL     1     -39.233  17.000  -5.195  1.00 20.00    -0.082 Br
ENDROOT
TORSDOF 0
ENDMDL
MODEL 7
REMARK VINA RESULT:      -3.9      2.222      2.760
REMARK  0 active torsions:
REMARK  status: ('A' for Active; 'I' for Inactive)
ROOT
HETATM    1  C1  UNL     1     -34.341  16.652  -0.923  1.00 20.00     0.047 A 
HETATM    2  C2  UNL     1     -34.495  16.624  -2.321  1.00 20.00     0.026 A 
HETATM    3  C3  UNL     1     -35.524  17.410  -2.756  1.00 20.00    -0.001 A 
HETATM    4  C4  UNL     1     -35.294  17.480  -0.350  1.00 20.00     0.075 A 
HETATM    5  C5  UNL     1     -33.870  15.991  -3.453  1.00 20.00     0.175 A 
HETATM    6  C6  UNL     1     -35.720  17.432  -4.229  1.00 20.00     0.071 A 
HETATM    7  C7  UNL     1     -34.638  16.419  -4.713  1.00 20.00     0.137 A 
HETATM    8  O8  UNL     1     -32.914  15.234  -3.405  1.00 20.00    -0.291 OA
HETATM    9  S9  UNL     1     -36.341  18.200  -1.525  1.00 20.00    -0.082 SA
HETATM   10 CL10 UNL     1     -35.513  17.835   1.313  1.00 20.00    -0.076 Cl
HETATM   11 BR11 UNL     1     -35.457  14.811  -5.424  1.00 20.00    -0.082 Br
ENDROOT
TORSDOF 0
ENDMDL
MODEL 8
REMARK VINA RESULT:      -3.9      3.130      3.328
REMARK  0 active torsions:
REMARK  status: ('A' for Active; 'I' for Inactive)
ROOT
HETATM    1  C1  UNL     1     -34.975  14.312  -3.614  1.00 20.00     0.047 A 
HETATM    2  C2  UNL     1     -36.043  15.151  -3.984  1.00 20.00     0.026 A 
HETATM    3  C3  UNL     1     -35.627  16.380  -4.409  1.00 20.00    -0.001 A 
HETATM    4  C4  UNL     1     -33.767  14.970  -3.781  1.00 20.00     0.075 A 
HETATM    5  C5  UNL     1     -37.480  15.090  -4.041  1.00 20.00     0.175 A 
HETATM    6  C6  UNL     1     -36.714  17.302  -4.830  1.00 20.00     0.071 A 
HETATM    7  C7  UNL     1     -37.989  16.456  -4.525  1.00 20.00     0.137 A 
HETATM    8  O8  UNL     1     -38.163  14.125  -3.738  1.00 20.00    -0.291 OA
HETATM    9  S9  UNL     1     -33.964  16.581  -4.382  1.00 20.00    -0.082 SA
HETATM   10 CL10 UNL     1     -32.193  14.368  -3.465  1.00 20.00    -0.076 Cl
HETATM   11 BR11 UNL     1     -38.993  17.216  -3.049  1.00 20.00    -0.082 Br
ENDROOT
TORSDOF 0
ENDMDL
MODEL 9
REMARK VINA RESULT:      -3.8      2.113      2.427
REMARK  0 active torsions:
REMARK  status: ('A' for Active; 'I' for Inactive)
ROOT
HETATM    1  C1  UNL     1     -36.354  16.811  -2.270  1.00 20.00     0.047 A 
HETATM    2  C2  UNL     1     -35.795  15.707  -2.939  1.00 20.00     0.026 A 
HETATM    3  C3  UNL     1     -34.431  15.690  -2.884  1.00 20.00    -0.001 A 
HETATM    4  C4  UNL     1     -35.354  17.601  -1.727  1.00 20.00     0.075 A 
HETATM    5  C5  UNL     1     -36.254  14.565  -3.686  1.00 20.00     0.175 A 
HETATM    6  C6  UNL     1     -33.788  14.533  -3.560  1.00 20.00     0.071 A 
HETATM    7  C7  UNL     1     -35.017  13.790  -4.167  1.00 20.00     0.137 A 
HETATM    8  O8  UNL     1     -37.421  14.284  -3.910  1.00 20.00    -0.291 OA
HETATM    9  S9  UNL     1     -33.770  16.979  -2.042  1.00 20.00    -0.082 SA
HETATM   10 CL10 UNL     1     -35.533  19.049  -0.826  1.00 20.00    -0.076 Cl
HETATM   11 BR11 UNL     1     -35.018  13.909  -6.103  1.00 20.00    -0.082 Br
ENDROOT
TORSDOF 0
ENDMDL
