MODEL 1
REMARK VINA RESULT:      -4.4      0.000      0.000
REMARK  4 active torsions:
REMARK  status: ('A' for Active; 'I' for Inactive)
REMARK    1  A    between atoms: C1_1  and  C7_7 
REMARK    2  A    between atoms: C1_1  and  O11_11 
REMARK    3  A    between atoms: C7_7  and  C8_8 
REMARK    4  A    between atoms: C8_8  and  C9_9 
ROOT
HETATM    1  C2  UNL     1     -33.240  16.381  -4.488  1.00 20.00     0.011 C 
HETATM    2  C8  UNL     1     -33.739  15.896  -3.114  1.00 20.00    -0.002 C 
ENDROOT
BRANCH   2   3
HETATM    3  C7  UNL     1     -34.601  14.625  -3.314  1.00 20.00     0.116 C 
BRANCH   3   4
HETATM    4  C1  UNL     1     -33.819  13.462  -3.892  1.00 20.00     0.258 C 
HETATM    5  O10 UNL     1     -32.693  13.131  -3.546  1.00 20.00    -0.265 OA
BRANCH   4   6
HETATM    6  O11 UNL     1     -34.589  12.827  -4.824  1.00 20.00    -0.326 OA
HETATM    7  C6  UNL     1     -35.139  13.667  -5.845  1.00 20.00     0.213 C 
ENDBRANCH   4   6
ENDBRANCH   3   4
ENDBRANCH   2   3
BRANCH   2   8
HETATM    8  C9  UNL     1     -34.470  17.021  -2.287  1.00 20.00    -0.048 C 
HETATM    9  C3  UNL     1     -35.889  17.309  -2.813  1.00 20.00     0.015 C 
HETATM   10  C4  UNL     1     -33.662  18.337  -2.326  1.00 20.00     0.015 C 
HETATM   11  C5  UNL     1     -34.579  16.604  -0.803  1.00 20.00     0.015 C 
ENDBRANCH   2   8
TORSDOF 4
ENDMDL
MODEL 2
REMARK VINA RESULT:      -4.4      0.125      1.319
REMARK  4 active torsions:
REMARK  status: ('A' for Active; 'I' for Inactive)
REMARK    1  A    between atoms: C1_1  and  C7_7 
REMARK    2  A    between atoms: C1_1  and  O11_11 
REMARK    3  A    between atoms: C7_7  and  C8_8 
REMARK    4  A    between atoms: C8_8  and  C9_9 
ROOT
HETATM    1  C2  UNL     1     -33.282  16.440  -4.436  1.00 20.00     0.011 C 
HETATM    2  C8  UNL     1     -33.782  15.942  -3.067  1.00 20.00    -0.002 C 
ENDROOT
BRANCH   2   3
HETATM    3  C7  UNL     1     -34.697  14.713  -3.284  1.00 20.00     0.116 C 
BRANCH   3   4
HETATM    4  C1  UNL     1     -33.950  13.500  -3.802  1.00 20.00     0.258 C 
HETATM    5  O10 UNL     1     -32.841  13.144  -3.428  1.00 20.00    -0.265 OA
BRANCH   4   6
HETATM    6  O11 UNL     1     -34.730  12.854  -4.719  1.00 20.00    -0.326 OA
HETATM    7  C6  UNL     1     -35.170  13.651  -5.824  1.00 20.00     0.213 C 
ENDBRANCH   4   6
ENDBRANCH   3   4
ENDBRANCH   2   3
BRANCH   2   8
HETATM    8  C9  UNL     1     -34.455  17.076  -2.204  1.00 20.00    -0.048 C 
HETATM    9  C3  UNL     1     -33.641  18.383  -2.213  1.00 20.00     0.015 C 
HETATM   10  C4  UNL     1     -34.619  16.619  -0.737  1.00 20.00     0.015 C 
HETATM   11  C5  UNL     1     -35.872  17.383  -2.740  1.00 20.00     0.015 C 
ENDBRANCH   2   8
TORSDOF 4
ENDMDL
MODEL 3
REMARK VINA RESULT:      -4.3      1.176      1.909
REMARK  4 active torsions:
REMARK  status: ('A' for Active; 'I' for Inactive)
REMARK    1  A    between atoms: C1_1  and  C7_7 
REMARK    2  A    between atoms: C1_1  and  O11_11 
REMARK    3  A    between atoms: C7_7  and  C8_8 
REMARK    4  A    between atoms: C8_8  and  C9_9 
ROOT
HETATM    1  C2  UNL     1     -33.127  15.256  -3.641  1.00 20.00     0.011 C 
HETATM    2  C8  UNL     1     -34.489  15.311  -2.922  1.00 20.00    -0.002 C 
ENDROOT
BRANCH   2   3
HETATM    3  C7  UNL     1     -35.596  14.873  -3.912  1.00 20.00     0.116 C 
BRANCH   3   4
HETATM    4  C1  UNL     1     -35.212  13.659  -4.734  1.00 20.00     0.258 C 
HETATM    5  O10 UNL     1     -35.003  12.542  -4.282  1.00 20.00    -0.265 OA
BRANCH   4   6
HETATM    6  O11 UNL     1     -35.178  14.008  -6.054  1.00 20.00    -0.326 OA
HETATM    7  C6  UNL     1     -35.973  15.143  -6.412  1.00 20.00     0.213 C 
ENDBRANCH   4   6
ENDBRANCH   3   4
ENDBRANCH   2   3
BRANCH   2   8
HETATM    8  C9  UNL     1     -34.775  16.704  -2.242  1.00 20.00    -0.048 C 
HETATM    9  C3  UNL     1     -34.629  16.650  -0.710  1.00 20.00     0.015 C 
HETATM   10  C4  UNL     1     -36.204  17.189  -2.576  1.00 20.00     0.015 C 
HETATM   11  C5  UNL     1     -33.799  17.772  -2.785  1.00 20.00     0.015 C 
ENDBRANCH   2   8
TORSDOF 4
ENDMDL
MODEL 4
REMARK VINA RESULT:      -4.2      1.751      2.392
REMARK  4 active torsions:
REMARK  status: ('A' for Active; 'I' for Inactive)
REMARK    1  A    between atoms: C1_1  and  C7_7 
REMARK    2  A    between atoms: C1_1  and  O11_11 
REMARK    3  A    between atoms: C7_7  and  C8_8 
REMARK    4  A    between atoms: C8_8  and  C9_9 
ROOT
HETATM    1  C2  UNL     1     -33.132  15.293  -3.269  1.00 20.00     0.011 C 
HETATM    2  C8  UNL     1     -34.585  15.548  -2.824  1.00 20.00    -0.002 C 
ENDROOT
BRANCH   2   3
HETATM    3  C7  UNL     1     -35.521  15.373  -4.045  1.00 20.00     0.116 C 
BRANCH   3   4
HETATM    4  C1  UNL     1     -36.178  14.008  -4.100  1.00 20.00     0.258 C 
HETATM    5  O10 UNL     1     -35.613  12.968  -4.409  1.00 20.00    -0.265 OA
BRANCH   4   6
HETATM    6  O11 UNL     1     -37.482  14.126  -3.712  1.00 20.00    -0.326 OA
HETATM    7  C6  UNL     1     -38.302  14.950  -4.549  1.00 20.00     0.213 C 
ENDBRANCH   4   6
ENDBRANCH   3   4
ENDBRANCH   2   3
BRANCH   2   8
HETATM    8  C9  UNL     1     -34.775  16.927  -2.085  1.00 20.00    -0.048 C 
HETATM    9  C3  UNL     1     -33.754  17.984  -2.545  1.00 20.00     0.015 C 
HETATM   10  C4  UNL     1     -34.633  16.750  -0.557  1.00 20.00     0.015 C 
HETATM   11  C5  UNL     1     -36.195  17.479  -2.344  1.00 20.00     0.015 C 
ENDBRANCH   2   8
TORSDOF 4
ENDMDL
MODEL 5
REMARK VINA RESULT:      -4.0     11.232     12.628
REMARK  4 active torsions:
REMARK  status: ('A' for Active; 'I' for Inactive)
REMARK    1  A    between atoms: C1_1  and  C7_7 
REMARK    2  A    between atoms: C1_1  and  O11_11 
REMARK    3  A    between atoms: C7_7  and  C8_8 
REMARK    4  A    between atoms: C8_8  and  C9_9 
ROOT
HETATM    1  C2  UNL     1     -33.705   7.010   6.560  1.00 20.00     0.011 C 
HETATM    2  C8  UNL     1     -33.594   6.056   5.355  1.00 20.00    -0.002 C 
ENDROOT
BRANCH   2   3
HETATM    3  C7  UNL     1     -33.600   6.892   4.053  1.00 20.00     0.116 C 
BRANCH   3   4
HETATM    4  C1  UNL     1     -32.380   6.651   3.186  1.00 20.00     0.258 C 
HETATM    5  O10 UNL     1     -32.036   5.564   2.743  1.00 20.00    -0.265 OA
BRANCH   4   6
HETATM    6  O11 UNL     1     -31.758   7.844   2.951  1.00 20.00    -0.326 OA
HETATM    7  C6  UNL     1     -32.083   8.474   1.707  1.00 20.00     0.213 C 
ENDBRANCH   4   6
ENDBRANCH   3   4
ENDBRANCH   2   3
BRANCH   2   8
HETATM    8  C9  UNL     1     -34.679   4.913   5.367  1.00 20.00    -0.048 C 
HETATM    9  C3  UNL     1     -34.057   3.513   5.209  1.00 20.00     0.015 C 
HETATM   10  C4  UNL     1     -35.702   5.120   4.228  1.00 20.00     0.015 C 
HETATM   11  C5  UNL     1     -35.471   4.944   6.694  1.00 20.00     0.015 C 
ENDBRANCH   2   8
TORSDOF 4
ENDMDL
MODEL 6
REMARK VINA RESULT:      -4.0      2.425      3.847
REMARK  4 active torsions:
REMARK  status: ('A' for Active; 'I' for Inactive)
REMARK    1  A    between atoms: C1_1  and  C7_7 
REMARK    2  A    between atoms: C1_1  and  O11_11 
REMARK    3  A    between atoms: C7_7  and  C8_8 
REMARK    4  A    between atoms: C8_8  and  C9_9 
ROOT
HETATM    1  C2  UNL     1     -34.764  13.242  -4.418  1.00 20.00     0.011 C 
HETATM    2  C8  UNL     1     -35.075  14.594  -3.749  1.00 20.00    -0.002 C 
ENDROOT
BRANCH   2   3
HETATM    3  C7  UNL     1     -36.228  15.282  -4.521  1.00 20.00     0.116 C 
BRANCH   3   4
HETATM    4  C1  UNL     1     -37.557  15.206  -3.796  1.00 20.00     0.258 C 
HETATM    5  O10 UNL     1     -38.256  14.206  -3.712  1.00 20.00    -0.265 OA
BRANCH   4   6
HETATM    6  O11 UNL     1     -37.822  16.418  -3.224  1.00 20.00    -0.326 OA
HETATM    7  C6  UNL     1     -37.285  17.554  -3.910  1.00 20.00     0.213 C 
ENDBRANCH   4   6
ENDBRANCH   3   4
ENDBRANCH   2   3
BRANCH   2   8
HETATM    8  C9  UNL     1     -33.804  15.510  -3.581  1.00 20.00    -0.048 C 
HETATM    9  C3  UNL     1     -32.496  14.698  -3.546  1.00 20.00     0.015 C 
HETATM   10  C4  UNL     1     -33.896  16.335  -2.278  1.00 20.00     0.015 C 
HETATM   11  C5  UNL     1     -33.717  16.520  -4.747  1.00 20.00     0.015 C 
ENDBRANCH   2   8
TORSDOF 4
ENDMDL
MODEL 7
REMARK VINA RESULT:      -4.0      1.294      2.124
REMARK  4 active torsions:
REMARK  status: ('A' for Active; 'I' for Inactive)
REMARK    1  A    between atoms: C1_1  and  C7_7 
REMARK    2  A    between atoms: C1_1  and  O11_11 
REMARK    3  A    between atoms: C7_7  and  C8_8 
REMARK    4  A    between atoms: C8_8  and  C9_9 
ROOT
HETATM    1  C2  UNL     1     -36.922  15.368  -3.402  1.00 20.00     0.011 C 
HETATM    2  C8  UNL     1     -35.456  15.807  -3.575  1.00 20.00    -0.002 C 
ENDROOT
BRANCH   2   3
HETATM    3  C7  UNL     1     -34.544  14.560  -3.479  1.00 20.00     0.116 C 
BRANCH   3   4
HETATM    4  C1  UNL     1     -34.561  13.713  -4.736  1.00 20.00     0.258 C 
HETATM    5  O10 UNL     1     -34.779  12.510  -4.771  1.00 20.00    -0.265 OA
BRANCH   4   6
HETATM    6  O11 UNL     1     -34.333  14.517  -5.817  1.00 20.00    -0.326 OA
HETATM    7  C6  UNL     1     -35.228  14.334  -6.920  1.00 20.00     0.213 C 
ENDBRANCH   4   6
ENDBRANCH   3   4
ENDBRANCH   2   3
BRANCH   2   8
HETATM    8  C9  UNL     1     -35.035  16.965  -2.593  1.00 20.00    -0.048 C 
HETATM    9  C3  UNL     1     -33.865  17.804  -3.141  1.00 20.00     0.015 C 
HETATM   10  C4  UNL     1     -34.617  16.389  -1.221  1.00 20.00     0.015 C 
HETATM   11  C5  UNL     1     -36.232  17.909  -2.338  1.00 20.00     0.015 C 
ENDBRANCH   2   8
TORSDOF 4
ENDMDL
MODEL 8
REMARK VINA RESULT:      -4.0      2.411      4.408
REMARK  4 active torsions:
REMARK  status: ('A' for Active; 'I' for Inactive)
REMARK    1  A    between atoms: C1_1  and  C7_7 
REMARK    2  A    between atoms: C1_1  and  O11_11 
REMARK    3  A    between atoms: C7_7  and  C8_8 
REMARK    4  A    between atoms: C8_8  and  C9_9 
ROOT
HETATM    1  C2  UNL     1     -33.295  16.631  -5.204  1.00 20.00     0.011 C 
HETATM    2  C8  UNL     1     -34.251  15.971  -4.192  1.00 20.00    -0.002 C 
ENDROOT
BRANCH   2   3
HETATM    3  C7  UNL     1     -33.538  15.869  -2.822  1.00 20.00     0.116 C 
BRANCH   3   4
HETATM    4  C1  UNL     1     -33.935  16.973  -1.862  1.00 20.00     0.258 C 
HETATM    5  O10 UNL     1     -33.680  18.160  -2.011  1.00 20.00    -0.265 OA
BRANCH   4   6
HETATM    6  O11 UNL     1     -34.654  16.432  -0.834  1.00 20.00    -0.326 OA
HETATM    7  C6  UNL     1     -34.941  17.320   0.252  1.00 20.00     0.213 C 
ENDBRANCH   4   6
ENDBRANCH   3   4
ENDBRANCH   2   3
BRANCH   2   8
HETATM    8  C9  UNL     1     -34.834  14.596  -4.695  1.00 20.00    -0.048 C 
HETATM    9  C3  UNL     1     -36.273  14.354  -4.204  1.00 20.00     0.015 C 
HETATM   10  C4  UNL     1     -33.953  13.422  -4.212  1.00 20.00     0.015 C 
HETATM   11  C5  UNL     1     -34.835  14.551  -6.240  1.00 20.00     0.015 C 
ENDBRANCH   2   8
TORSDOF 4
ENDMDL
MODEL 9
REMARK VINA RESULT:      -4.0      2.766      3.797
REMARK  4 active torsions:
REMARK  status: ('A' for Active; 'I' for Inactive)
REMARK    1  A    between atoms: C1_1  and  C7_7 
REMARK    2  A    between atoms: C1_1  and  O11_11 
REMARK    3  A    between atoms: C7_7  and  C8_8 
REMARK    4  A    between atoms: C8_8  and  C9_9 
ROOT
HETATM    1  C2  UNL     1     -34.694  13.136  -4.612  1.00 20.00     0.011 C 
HETATM    2  C8  UNL     1     -35.151  14.402  -3.863  1.00 20.00    -0.002 C 
ENDROOT
BRANCH   2   3
HETATM    3  C7  UNL     1     -36.318  15.053  -4.644  1.00 20.00     0.116 C 
BRANCH   3   4
HETATM    4  C1  UNL     1     -37.517  15.367  -3.770  1.00 20.00     0.258 C 
HETATM    5  O10 UNL     1     -37.706  16.428  -3.191  1.00 20.00    -0.265 OA
BRANCH   4   6
HETATM    6  O11 UNL     1     -38.361  14.293  -3.770  1.00 20.00    -0.326 OA
HETATM    7  C6  UNL     1     -39.589  14.475  -4.483  1.00 20.00     0.213 C 
ENDBRANCH   4   6
ENDBRANCH   3   4
ENDBRANCH   2   3
BRANCH   2   8
HETATM    8  C9  UNL     1     -33.972  15.402  -3.556  1.00 20.00    -0.048 C 
HETATM    9  C3  UNL     1     -32.600  14.702  -3.534  1.00 20.00     0.015 C 
HETATM   10  C4  UNL     1     -34.185  16.093  -2.191  1.00 20.00     0.015 C 
HETATM   11  C5  UNL     1     -33.930  16.518  -4.624  1.00 20.00     0.015 C 
ENDBRANCH   2   8
TORSDOF 4
ENDMDL
