MODEL 1
REMARK VINA RESULT:      -3.9      0.000      0.000
REMARK  2 active torsions:
REMARK  status: ('A' for Active; 'I' for Inactive)
REMARK    1  A    between atoms: C2_2  and  C6_6 
REMARK    2  A    between atoms: C3_3  and  C7_7 
ROOT
HETATM    1  C1  UNL     1     -35.989  15.072  -3.730  1.00 20.00     0.133 A 
HETATM    2  C2  UNL     1     -34.863  14.749  -4.458  1.00 20.00     0.016 A 
HETATM    3  C3  UNL     1     -34.500  16.139  -2.523  1.00 20.00     0.078 A 
HETATM    4  N8  UNL     1     -35.783  15.869  -2.620  1.00 20.00    -0.257 NA
HETATM    5  S9  UNL     1     -33.483  15.469  -3.733  1.00 20.00    -0.076 SA
ENDROOT
BRANCH   3   6
HETATM    6  C7  UNL     1     -33.882  16.992  -1.430  1.00 20.00     0.037 C 
HETATM    7  C4  UNL     1     -34.766  17.031  -0.181  1.00 20.00     0.016 C 
HETATM    8  C5  UNL     1     -33.573  18.406  -1.926  1.00 20.00     0.016 C 
ENDBRANCH   3   6
BRANCH   2   9
HETATM    9  C6  UNL     1     -34.728  13.929  -5.677  1.00 20.00     0.162 C 
HETATM   10 CL10 UNL     1     -34.337  14.941  -7.093  1.00 20.00    -0.125 Cl
ENDBRANCH   2   9
TORSDOF 2
ENDMDL
MODEL 2
REMARK VINA RESULT:      -3.9      1.366      1.530
REMARK  2 active torsions:
REMARK  status: ('A' for Active; 'I' for Inactive)
REMARK    1  A    between atoms: C2_2  and  C6_6 
REMARK    2  A    between atoms: C3_3  and  C7_7 
ROOT
HETATM    1  C1  UNL     1     -33.717  16.170  -5.269  1.00 20.00     0.133 A 
HETATM    2  C2  UNL     1     -34.406  15.025  -4.927  1.00 20.00     0.016 A 
HETATM    3  C3  UNL     1     -33.813  16.478  -3.100  1.00 20.00     0.078 A 
HETATM    4  N8  UNL     1     -33.376  17.004  -4.222  1.00 20.00    -0.257 NA
HETATM    5  S9  UNL     1     -34.641  14.980  -3.228  1.00 20.00    -0.076 SA
ENDROOT
BRANCH   3   6
HETATM    6  C7  UNL     1     -33.629  17.104  -1.729  1.00 20.00     0.037 C 
HETATM    7  C4  UNL     1     -34.716  16.649  -0.753  1.00 20.00     0.016 C 
HETATM    8  C5  UNL     1     -33.572  18.631  -1.810  1.00 20.00     0.016 C 
ENDBRANCH   3   6
BRANCH   2   9
HETATM    9  C6  UNL     1     -34.915  13.936  -5.783  1.00 20.00     0.162 C 
HETATM   10 CL10 UNL     1     -35.151  14.494  -7.462  1.00 20.00    -0.125 Cl
ENDBRANCH   2   9
TORSDOF 2
ENDMDL
MODEL 3
REMARK VINA RESULT:      -3.8     12.190     13.170
REMARK  2 active torsions:
REMARK  status: ('A' for Active; 'I' for Inactive)
REMARK    1  A    between atoms: C2_2  and  C6_6 
REMARK    2  A    between atoms: C3_3  and  C7_7 
ROOT
HETATM    1  C1  UNL     1     -40.969   4.214  -1.601  1.00 20.00     0.133 A 
HETATM    2  C2  UNL     1     -41.991   3.775  -2.417  1.00 20.00     0.016 A 
HETATM    3  C3  UNL     1     -41.901   6.152  -2.035  1.00 20.00     0.078 A 
HETATM    4  N8  UNL     1     -40.916   5.577  -1.381  1.00 20.00    -0.257 NA
HETATM    5  S9  UNL     1     -42.931   5.114  -2.934  1.00 20.00    -0.076 SA
ENDROOT
BRANCH   3   6
HETATM    6  C7  UNL     1     -42.174   7.645  -2.037  1.00 20.00     0.037 C 
HETATM    7  C4  UNL     1     -43.172   8.036  -0.945  1.00 20.00     0.016 C 
HETATM    8  C5  UNL     1     -42.650   8.128  -3.410  1.00 20.00     0.016 C 
ENDBRANCH   3   6
BRANCH   2   9
HETATM    9  C6  UNL     1     -42.331   2.407  -2.853  1.00 20.00     0.162 C 
HETATM   10 CL10 UNL     1     -41.139   1.790  -4.028  1.00 20.00    -0.125 Cl
ENDBRANCH   2   9
TORSDOF 2
ENDMDL
MODEL 4
REMARK VINA RESULT:      -3.8      2.818      4.817
REMARK  2 active torsions:
REMARK  status: ('A' for Active; 'I' for Inactive)
REMARK    1  A    between atoms: C2_2  and  C6_6 
REMARK    2  A    between atoms: C3_3  and  C7_7 
ROOT
HETATM    1  C1  UNL     1     -34.362  15.017  -3.213  1.00 20.00     0.133 A 
HETATM    2  C2  UNL     1     -33.920  16.317  -3.073  1.00 20.00     0.016 A 
HETATM    3  C3  UNL     1     -34.225  15.551  -5.336  1.00 20.00     0.078 A 
HETATM    4  N8  UNL     1     -34.538  14.577  -4.511  1.00 20.00    -0.257 NA
HETATM    5  S9  UNL     1     -33.711  17.024  -4.622  1.00 20.00    -0.076 SA
ENDROOT
BRANCH   3   6
HETATM    6  C7  UNL     1     -34.290  15.448  -6.849  1.00 20.00     0.037 C 
HETATM    7  C4  UNL     1     -34.580  16.805  -7.493  1.00 20.00     0.016 C 
HETATM    8  C5  UNL     1     -35.311  14.400  -7.300  1.00 20.00     0.016 C 
ENDBRANCH   3   6
BRANCH   2   9
HETATM    9  C6  UNL     1     -33.635  17.091  -1.850  1.00 20.00     0.162 C 
HETATM   10 CL10 UNL     1     -34.728  16.622  -0.520  1.00 20.00    -0.125 Cl
ENDBRANCH   2   9
TORSDOF 2
ENDMDL
MODEL 5
REMARK VINA RESULT:      -3.8      2.753      4.723
REMARK  2 active torsions:
REMARK  status: ('A' for Active; 'I' for Inactive)
REMARK    1  A    between atoms: C2_2  and  C6_6 
REMARK    2  A    between atoms: C3_3  and  C7_7 
ROOT
HETATM    1  C1  UNL     1     -33.689  17.660  -3.894  1.00 20.00     0.133 A 
HETATM    2  C2  UNL     1     -33.919  17.086  -2.661  1.00 20.00     0.016 A 
HETATM    3  C3  UNL     1     -34.533  15.751  -4.570  1.00 20.00     0.078 A 
HETATM    4  N8  UNL     1     -34.040  16.895  -4.990  1.00 20.00    -0.257 NA
HETATM    5  S9  UNL     1     -34.604  15.527  -2.870  1.00 20.00    -0.076 SA
ENDROOT
BRANCH   3   6
HETATM    6  C7  UNL     1     -35.031  14.644  -5.481  1.00 20.00     0.037 C 
HETATM    7  C4  UNL     1     -34.653  13.262  -4.945  1.00 20.00     0.016 C 
HETATM    8  C5  UNL     1     -34.533  14.829  -6.917  1.00 20.00     0.016 C 
ENDBRANCH   3   6
BRANCH   2   9
HETATM    9  C6  UNL     1     -33.663  17.618  -1.309  1.00 20.00     0.162 C 
HETATM   10 CL10 UNL     1     -34.799  16.927  -0.119  1.00 20.00    -0.125 Cl
ENDBRANCH   2   9
TORSDOF 2
ENDMDL
MODEL 6
REMARK VINA RESULT:      -3.7      2.746      4.818
REMARK  2 active torsions:
REMARK  status: ('A' for Active; 'I' for Inactive)
REMARK    1  A    between atoms: C2_2  and  C6_6 
REMARK    2  A    between atoms: C3_3  and  C7_7 
ROOT
HETATM    1  C1  UNL     1     -33.733  17.716  -4.224  1.00 20.00     0.133 A 
HETATM    2  C2  UNL     1     -33.878  17.216  -2.947  1.00 20.00     0.016 A 
HETATM    3  C3  UNL     1     -34.102  15.615  -4.734  1.00 20.00     0.078 A 
HETATM    4  N8  UNL     1     -33.861  16.800  -5.250  1.00 20.00    -0.257 NA
HETATM    5  S9  UNL     1     -34.189  15.529  -3.022  1.00 20.00    -0.076 SA
ENDROOT
BRANCH   3   6
HETATM    6  C7  UNL     1     -34.305  14.350  -5.546  1.00 20.00     0.037 C 
HETATM    7  C4  UNL     1     -35.131  14.617  -6.807  1.00 20.00     0.016 C 
HETATM    8  C5  UNL     1     -34.935  13.236  -4.706  1.00 20.00     0.016 C 
ENDBRANCH   3   6
BRANCH   2   9
HETATM    9  C6  UNL     1     -33.801  17.907  -1.646  1.00 20.00     0.162 C 
HETATM   10 CL10 UNL     1     -34.577  16.946  -0.359  1.00 20.00    -0.125 Cl
ENDBRANCH   2   9
TORSDOF 2
ENDMDL
MODEL 7
REMARK VINA RESULT:      -3.7      1.920      2.296
REMARK  2 active torsions:
REMARK  status: ('A' for Active; 'I' for Inactive)
REMARK    1  A    between atoms: C2_2  and  C6_6 
REMARK    2  A    between atoms: C3_3  and  C7_7 
ROOT
HETATM    1  C1  UNL     1     -33.713  17.150  -4.563  1.00 20.00     0.133 A 
HETATM    2  C2  UNL     1     -34.168  15.881  -4.274  1.00 20.00     0.016 A 
HETATM    3  C3  UNL     1     -34.085  17.414  -2.417  1.00 20.00     0.078 A 
HETATM    4  N8  UNL     1     -33.665  18.030  -3.499  1.00 20.00    -0.257 NA
HETATM    5  S9  UNL     1     -34.553  15.773  -2.605  1.00 20.00    -0.076 SA
ENDROOT
BRANCH   3   6
HETATM    6  C7  UNL     1     -34.175  18.053  -1.044  1.00 20.00     0.037 C 
HETATM    7  C4  UNL     1     -32.803  18.513  -0.546  1.00 20.00     0.016 C 
HETATM    8  C5  UNL     1     -34.840  17.119  -0.030  1.00 20.00     0.016 C 
ENDBRANCH   3   6
BRANCH   2   9
HETATM    9  C6  UNL     1     -34.344  14.715  -5.161  1.00 20.00     0.162 C 
HETATM   10 CL10 UNL     1     -34.997  13.317  -4.265  1.00 20.00    -0.125 Cl
ENDBRANCH   2   9
TORSDOF 2
ENDMDL
MODEL 8
REMARK VINA RESULT:      -3.6      2.738      4.611
REMARK  2 active torsions:
REMARK  status: ('A' for Active; 'I' for Inactive)
REMARK    1  A    between atoms: C2_2  and  C6_6 
REMARK    2  A    between atoms: C3_3  and  C7_7 
ROOT
HETATM    1  C1  UNL     1     -34.355  16.320  -1.841  1.00 20.00     0.133 A 
HETATM    2  C2  UNL     1     -33.935  17.458  -2.498  1.00 20.00     0.016 A 
HETATM    3  C3  UNL     1     -34.623  15.628  -3.905  1.00 20.00     0.078 A 
HETATM    4  N8  UNL     1     -34.751  15.270  -2.647  1.00 20.00    -0.257 NA
HETATM    5  S9  UNL     1     -34.033  17.214  -4.194  1.00 20.00    -0.076 SA
ENDROOT
BRANCH   3   6
HETATM    6  C7  UNL     1     -34.959  14.740  -5.089  1.00 20.00     0.037 C 
HETATM    7  C4  UNL     1     -34.587  13.280  -4.820  1.00 20.00     0.016 C 
HETATM    8  C5  UNL     1     -34.300  15.243  -6.376  1.00 20.00     0.016 C 
ENDBRANCH   3   6
BRANCH   2   9
HETATM    9  C6  UNL     1     -33.455  18.742  -1.952  1.00 20.00     0.162 C 
HETATM   10 CL10 UNL     1     -32.807  18.539  -0.303  1.00 20.00    -0.125 Cl
ENDBRANCH   2   9
TORSDOF 2
ENDMDL
MODEL 9
REMARK VINA RESULT:      -3.5     11.944     12.358
REMARK  2 active torsions:
REMARK  status: ('A' for Active; 'I' for Inactive)
REMARK    1  A    between atoms: C2_2  and  C6_6 
REMARK    2  A    between atoms: C3_3  and  C7_7 
ROOT
HETATM    1  C1  UNL     1     -33.314   5.945   2.242  1.00 20.00     0.133 A 
HETATM    2  C2  UNL     1     -32.635   7.004   2.807  1.00 20.00     0.016 A 
HETATM    3  C3  UNL     1     -34.110   5.796   4.280  1.00 20.00     0.078 A 
HETATM    4  N8  UNL     1     -34.160   5.251   3.086  1.00 20.00    -0.257 NA
HETATM    5  S9  UNL     1     -33.067   7.148   4.462  1.00 20.00    -0.076 SA
ENDROOT
BRANCH   3   6
HETATM    6  C7  UNL     1     -34.904   5.312   5.480  1.00 20.00     0.037 C 
HETATM    7  C4  UNL     1     -34.422   5.969   6.775  1.00 20.00     0.016 C 
HETATM    8  C5  UNL     1     -34.874   3.786   5.596  1.00 20.00     0.016 C 
ENDBRANCH   3   6
BRANCH   2   9
HETATM    9  C6  UNL     1     -31.668   7.939   2.201  1.00 20.00     0.162 C 
HETATM   10 CL10 UNL     1     -32.478   9.421   1.627  1.00 20.00    -0.125 Cl
ENDBRANCH   2   9
TORSDOF 2
ENDMDL
