MODEL 1
REMARK VINA RESULT:      -4.6      0.000      0.000
REMARK  2 active torsions:
REMARK  status: ('A' for Active; 'I' for Inactive)
REMARK    1  A    between atoms: C1_1  and  C4_4 
REMARK    2  A    between atoms: C1_1  and  C5_5 
ROOT
HETATM    1  C2  UNL     1     -35.196   4.744   6.312  1.00 20.00     0.055 A 
HETATM    2  C3  UNL     1     -34.604   3.771   5.336  1.00 20.00     0.055 A 
HETATM    3  C4  UNL     1     -34.915   5.177   4.899  1.00 20.00     0.164 A 
HETATM    4  F7  UNL     1     -36.035   5.314   4.084  1.00 20.00    -0.235 F 
ENDROOT
BRANCH   3   5
HETATM    5  C1  UNL     1     -33.824   6.114   4.626  1.00 20.00     0.179 C 
HETATM    6  O6  UNL     1     -33.406   6.863   5.509  1.00 20.00    -0.293 OA
BRANCH   5   7
HETATM    7  C5  UNL     1     -33.273   6.090   3.219  1.00 20.00     0.196 C 
HETATM    8 CL8  UNL     1     -31.989   7.294   3.029  1.00 20.00    -0.122 Cl
ENDBRANCH   5   7
ENDBRANCH   3   5
TORSDOF 2
ENDMDL
MODEL 2
REMARK VINA RESULT:      -4.5      1.816      1.886
REMARK  2 active torsions:
REMARK  status: ('A' for Active; 'I' for Inactive)
REMARK    1  A    between atoms: C1_1  and  C4_4 
REMARK    2  A    between atoms: C1_1  and  C5_5 
ROOT
HETATM    1  C2  UNL     1     -33.832   4.238   6.179  1.00 20.00     0.055 A 
HETATM    2  C3  UNL     1     -35.324   4.384   6.190  1.00 20.00     0.055 A 
HETATM    3  C4  UNL     1     -34.463   5.520   5.710  1.00 20.00     0.164 A 
HETATM    4  F7  UNL     1     -34.352   6.596   6.586  1.00 20.00    -0.235 F 
ENDROOT
BRANCH   3   5
HETATM    5  C1  UNL     1     -34.440   5.867   4.287  1.00 20.00     0.179 C 
HETATM    6  O6  UNL     1     -35.281   5.405   3.517  1.00 20.00    -0.293 OA
BRANCH   5   7
HETATM    7  C5  UNL     1     -33.335   6.804   3.858  1.00 20.00     0.196 C 
HETATM    8 CL8  UNL     1     -32.057   5.918   3.011  1.00 20.00    -0.122 Cl
ENDBRANCH   5   7
ENDBRANCH   3   5
TORSDOF 2
ENDMDL
MODEL 3
REMARK VINA RESULT:      -4.5      1.730      1.887
REMARK  2 active torsions:
REMARK  status: ('A' for Active; 'I' for Inactive)
REMARK    1  A    between atoms: C1_1  and  C4_4 
REMARK    2  A    between atoms: C1_1  and  C5_5 
ROOT
HETATM    1  C2  UNL     1     -34.226   4.300   5.453  1.00 20.00     0.055 A 
HETATM    2  C3  UNL     1     -35.474   4.904   4.882  1.00 20.00     0.055 A 
HETATM    3  C4  UNL     1     -34.186   5.682   4.857  1.00 20.00     0.164 A 
HETATM    4  F7  UNL     1     -34.102   6.725   5.774  1.00 20.00    -0.235 F 
ENDROOT
BRANCH   3   5
HETATM    5  C1  UNL     1     -33.495   5.908   3.586  1.00 20.00     0.179 C 
HETATM    6  O6  UNL     1     -33.930   5.424   2.542  1.00 20.00    -0.293 OA
BRANCH   5   7
HETATM    7  C5  UNL     1     -32.245   6.753   3.660  1.00 20.00     0.196 C 
HETATM    8 CL8  UNL     1     -32.165   7.873   2.291  1.00 20.00    -0.122 Cl
ENDBRANCH   5   7
ENDBRANCH   3   5
TORSDOF 2
ENDMDL
MODEL 4
REMARK VINA RESULT:      -4.4      2.330      3.448
REMARK  2 active torsions:
REMARK  status: ('A' for Active; 'I' for Inactive)
REMARK    1  A    between atoms: C1_1  and  C4_4 
REMARK    2  A    between atoms: C1_1  and  C5_5 
ROOT
HETATM    1  C2  UNL     1     -31.952   6.047   3.169  1.00 20.00     0.055 A 
HETATM    2  C3  UNL     1     -32.755   7.269   2.839  1.00 20.00     0.055 A 
HETATM    3  C4  UNL     1     -33.453   6.002   3.252  1.00 20.00     0.164 A 
HETATM    4  F7  UNL     1     -34.087   5.308   2.226  1.00 20.00    -0.235 F 
ENDROOT
BRANCH   3   5
HETATM    5  C1  UNL     1     -34.110   5.925   4.559  1.00 20.00     0.179 C 
HETATM    6  O6  UNL     1     -33.745   6.645   5.487  1.00 20.00    -0.293 OA
BRANCH   5   7
HETATM    7  C5  UNL     1     -35.233   4.920   4.671  1.00 20.00     0.196 C 
HETATM    8 CL8  UNL     1     -35.198   4.115   6.247  1.00 20.00    -0.122 Cl
ENDBRANCH   5   7
ENDBRANCH   3   5
TORSDOF 2
ENDMDL
MODEL 5
REMARK VINA RESULT:      -4.3      2.091      3.048
REMARK  2 active torsions:
REMARK  status: ('A' for Active; 'I' for Inactive)
REMARK    1  A    between atoms: C1_1  and  C4_4 
REMARK    2  A    between atoms: C1_1  and  C5_5 
ROOT
HETATM    1  C2  UNL     1     -33.978   5.284   2.814  1.00 20.00     0.055 A 
HETATM    2  C3  UNL     1     -33.936   6.496   3.696  1.00 20.00     0.055 A 
HETATM    3  C4  UNL     1     -35.006   5.458   3.899  1.00 20.00     0.164 A 
HETATM    4  F7  UNL     1     -36.277   5.819   3.464  1.00 20.00    -0.235 F 
ENDROOT
BRANCH   3   5
HETATM    5  C1  UNL     1     -34.971   4.595   5.082  1.00 20.00     0.179 C 
HETATM    6  O6  UNL     1     -34.918   3.372   4.963  1.00 20.00    -0.293 OA
BRANCH   5   7
HETATM    7  C5  UNL     1     -35.004   5.306   6.415  1.00 20.00     0.196 C 
HETATM    8 CL8  UNL     1     -33.787   6.591   6.469  1.00 20.00    -0.122 Cl
ENDBRANCH   5   7
ENDBRANCH   3   5
TORSDOF 2
ENDMDL
MODEL 6
REMARK VINA RESULT:      -4.2     12.512     12.917
REMARK  2 active torsions:
REMARK  status: ('A' for Active; 'I' for Inactive)
REMARK    1  A    between atoms: C1_1  and  C4_4 
REMARK    2  A    between atoms: C1_1  and  C5_5 
ROOT
HETATM    1  C2  UNL     1     -34.102  15.292  -2.942  1.00 20.00     0.055 A 
HETATM    2  C3  UNL     1     -33.310  15.732  -4.137  1.00 20.00     0.055 A 
HETATM    3  C4  UNL     1     -33.622  14.273  -3.941  1.00 20.00     0.164 A 
HETATM    4  F7  UNL     1     -32.553  13.486  -3.523  1.00 20.00    -0.235 F 
ENDROOT
BRANCH   3   5
HETATM    5  C1  UNL     1     -34.583  13.607  -4.822  1.00 20.00     0.179 C 
HETATM    6  O6  UNL     1     -35.114  12.550  -4.485  1.00 20.00    -0.293 OA
BRANCH   5   7
HETATM    7  C5  UNL     1     -34.859  14.301  -6.136  1.00 20.00     0.196 C 
HETATM    8 CL8  UNL     1     -36.412  15.148  -6.083  1.00 20.00    -0.122 Cl
ENDBRANCH   5   7
ENDBRANCH   3   5
TORSDOF 2
ENDMDL
MODEL 7
REMARK VINA RESULT:      -4.2      2.731      3.655
REMARK  2 active torsions:
REMARK  status: ('A' for Active; 'I' for Inactive)
REMARK    1  A    between atoms: C1_1  and  C4_4 
REMARK    2  A    between atoms: C1_1  and  C5_5 
ROOT
HETATM    1  C2  UNL     1     -32.740   7.363   2.952  1.00 20.00     0.055 A 
HETATM    2  C3  UNL     1     -31.929   6.145   3.279  1.00 20.00     0.055 A 
HETATM    3  C4  UNL     1     -33.286   6.332   3.902  1.00 20.00     0.164 A 
HETATM    4  F7  UNL     1     -33.281   6.696   5.245  1.00 20.00    -0.235 F 
ENDROOT
BRANCH   3   5
HETATM    5  C1  UNL     1     -34.402   5.478   3.489  1.00 20.00     0.179 C 
HETATM    6  O6  UNL     1     -34.474   5.057   2.335  1.00 20.00    -0.293 OA
BRANCH   5   7
HETATM    7  C5  UNL     1     -35.424   5.169   4.559  1.00 20.00     0.196 C 
HETATM    8 CL8  UNL     1     -34.795   3.965   5.694  1.00 20.00    -0.122 Cl
ENDBRANCH   5   7
ENDBRANCH   3   5
TORSDOF 2
ENDMDL
MODEL 8
REMARK VINA RESULT:      -4.1      2.891      3.896
REMARK  2 active torsions:
REMARK  status: ('A' for Active; 'I' for Inactive)
REMARK    1  A    between atoms: C1_1  and  C4_4 
REMARK    2  A    between atoms: C1_1  and  C5_5 
ROOT
HETATM    1  C2  UNL     1     -31.728   7.580   3.823  1.00 20.00     0.055 A 
HETATM    2  C3  UNL     1     -32.342   7.554   2.455  1.00 20.00     0.055 A 
HETATM    3  C4  UNL     1     -32.484   6.362   3.363  1.00 20.00     0.164 A 
HETATM    4  F7  UNL     1     -31.698   5.263   3.031  1.00 20.00    -0.235 F 
ENDROOT
BRANCH   3   5
HETATM    5  C1  UNL     1     -33.786   6.046   3.953  1.00 20.00     0.179 C 
HETATM    6  O6  UNL     1     -34.712   5.648   3.249  1.00 20.00    -0.293 OA
BRANCH   5   7
HETATM    7  C5  UNL     1     -33.895   6.244   5.447  1.00 20.00     0.196 C 
HETATM    8 CL8  UNL     1     -34.888   4.972   6.176  1.00 20.00    -0.122 Cl
ENDBRANCH   5   7
ENDBRANCH   3   5
TORSDOF 2
ENDMDL
MODEL 9
REMARK VINA RESULT:      -4.0     12.318     12.882
REMARK  2 active torsions:
REMARK  status: ('A' for Active; 'I' for Inactive)
REMARK    1  A    between atoms: C1_1  and  C4_4 
REMARK    2  A    between atoms: C1_1  and  C5_5 
ROOT
HETATM    1  C2  UNL     1     -34.654  13.698  -5.419  1.00 20.00     0.055 A 
HETATM    2  C3  UNL     1     -35.310  13.694  -4.070  1.00 20.00     0.055 A 
HETATM    3  C4  UNL     1     -33.921  14.252  -4.227  1.00 20.00     0.164 A 
HETATM    4  F7  UNL     1     -32.897  13.450  -3.732  1.00 20.00    -0.235 F 
ENDROOT
BRANCH   3   5
HETATM    5  C1  UNL     1     -33.697  15.694  -4.115  1.00 20.00     0.179 C 
HETATM    6  O6  UNL     1     -32.723  16.220  -4.652  1.00 20.00    -0.293 OA
BRANCH   5   7
HETATM    7  C5  UNL     1     -34.724  16.458  -3.312  1.00 20.00     0.196 C 
HETATM    8 CL8  UNL     1     -34.489  16.189  -1.578  1.00 20.00    -0.122 Cl
ENDBRANCH   5   7
ENDBRANCH   3   5
TORSDOF 2
ENDMDL
