MODEL 1
REMARK VINA RESULT:      -5.0      0.000      0.000
REMARK  2 active torsions:
REMARK  status: ('A' for Active; 'I' for Inactive)
REMARK    1  A    between atoms: C7_7  and  C9_9 
REMARK    2  A    between atoms: C8_8  and  C10_10 
ROOT
HETATM    1  C1  UNL     1     -33.986  14.429  -4.064  1.00 20.00     0.131 C 
HETATM    2  C2  UNL     1     -34.805  14.701  -5.305  1.00 20.00     0.083 C 
HETATM    3  C6  UNL     1     -33.076  16.314  -5.030  1.00 20.00     0.018 C 
HETATM    4  C7  UNL     1     -33.283  15.704  -3.637  1.00 20.00     0.060 C 
HETATM    5  C8  UNL     1     -34.563  16.220  -5.410  1.00 20.00    -0.002 C 
HETATM    6  O11 UNL     1     -33.920  13.356  -3.483  1.00 20.00    -0.298 OA
ENDROOT
BRANCH   4   7
HETATM    7  C9  UNL     1     -34.310  16.675  -3.033  1.00 20.00     0.001 C 
HETATM    8  C4  UNL     1     -33.814  18.027  -2.533  1.00 20.00     0.006 C 
HETATM    9  C3  UNL     1     -33.589  17.865  -1.035  1.00 20.00     0.001 C 
HETATM   10  C5  UNL     1     -34.615  16.826  -0.595  1.00 20.00     0.005 C 
HETATM   11  C10 UNL     1     -34.822  15.902  -1.791  1.00 20.00    -0.005 C 
ENDBRANCH   4   7
TORSDOF 2
ENDMDL
MODEL 2
REMARK VINA RESULT:      -4.9      1.851      3.960
REMARK  2 active torsions:
REMARK  status: ('A' for Active; 'I' for Inactive)
REMARK    1  A    between atoms: C7_7  and  C9_9 
REMARK    2  A    between atoms: C8_8  and  C10_10 
ROOT
HETATM    1  C1  UNL     1     -34.479  13.558  -4.246  1.00 20.00     0.131 C 
HETATM    2  C2  UNL     1     -33.123  13.624  -3.581  1.00 20.00     0.083 C 
HETATM    3  C6  UNL     1     -34.330  15.657  -3.306  1.00 20.00     0.018 C 
HETATM    4  C7  UNL     1     -34.976  14.966  -4.514  1.00 20.00     0.060 C 
HETATM    5  C8  UNL     1     -32.916  15.151  -3.636  1.00 20.00    -0.002 C 
HETATM    6  O11 UNL     1     -35.070  12.531  -4.543  1.00 20.00    -0.298 OA
ENDROOT
BRANCH   4   7
HETATM    7  C9  UNL     1     -34.175  15.578  -5.674  1.00 20.00     0.001 C 
HETATM    8  C4  UNL     1     -34.400  17.049  -6.007  1.00 20.00     0.006 C 
HETATM    9  C3  UNL     1     -35.415  17.071  -7.143  1.00 20.00     0.001 C 
HETATM   10  C5  UNL     1     -35.166  15.782  -7.918  1.00 20.00     0.005 C 
HETATM   11  C10 UNL     1     -34.667  14.764  -6.898  1.00 20.00    -0.005 C 
ENDBRANCH   4   7
TORSDOF 2
ENDMDL
MODEL 3
REMARK VINA RESULT:      -4.7      1.567      1.913
REMARK  2 active torsions:
REMARK  status: ('A' for Active; 'I' for Inactive)
REMARK    1  A    between atoms: C7_7  and  C9_9 
REMARK    2  A    between atoms: C8_8  and  C10_10 
ROOT
HETATM    1  C1  UNL     1     -36.201  14.336  -4.205  1.00 20.00     0.131 C 
HETATM    2  C2  UNL     1     -35.713  14.498  -5.626  1.00 20.00     0.083 C 
HETATM    3  C6  UNL     1     -33.919  14.021  -4.136  1.00 20.00     0.018 C 
HETATM    4  C7  UNL     1     -35.046  14.565  -3.248  1.00 20.00     0.060 C 
HETATM    5  C8  UNL     1     -34.266  14.936  -5.322  1.00 20.00    -0.002 C 
HETATM    6  O11 UNL     1     -37.351  14.085  -3.879  1.00 20.00    -0.298 OA
ENDROOT
BRANCH   4   7
HETATM    7  C9  UNL     1     -34.704  16.063  -3.210  1.00 20.00     0.001 C 
HETATM    8  C4  UNL     1     -33.553  16.515  -2.318  1.00 20.00     0.006 C 
HETATM    9  C3  UNL     1     -34.190  16.973  -1.012  1.00 20.00     0.001 C 
HETATM   10  C5  UNL     1     -35.563  17.504  -1.409  1.00 20.00     0.005 C 
HETATM   11  C10 UNL     1     -35.994  16.695  -2.628  1.00 20.00    -0.005 C 
ENDBRANCH   4   7
TORSDOF 2
ENDMDL
MODEL 4
REMARK VINA RESULT:      -4.6      1.767      3.600
REMARK  2 active torsions:
REMARK  status: ('A' for Active; 'I' for Inactive)
REMARK    1  A    between atoms: C7_7  and  C9_9 
REMARK    2  A    between atoms: C8_8  and  C10_10 
ROOT
HETATM    1  C1  UNL     1     -34.665  13.651  -3.975  1.00 20.00     0.131 C 
HETATM    2  C2  UNL     1     -33.211  13.978  -3.722  1.00 20.00     0.083 C 
HETATM    3  C6  UNL     1     -34.656  15.509  -2.611  1.00 20.00     0.018 C 
HETATM    4  C7  UNL     1     -35.508  14.888  -3.725  1.00 20.00     0.060 C 
HETATM    5  C8  UNL     1     -33.362  15.486  -3.442  1.00 20.00    -0.002 C 
HETATM    6  O11 UNL     1     -35.091  12.568  -4.347  1.00 20.00    -0.298 OA
ENDROOT
BRANCH   4   7
HETATM    7  C9  UNL     1     -35.291  15.893  -4.867  1.00 20.00     0.001 C 
HETATM    8  C4  UNL     1     -35.971  17.254  -4.766  1.00 20.00     0.006 C 
HETATM    9  C3  UNL     1     -37.262  17.139  -5.566  1.00 20.00     0.001 C 
HETATM   10  C5  UNL     1     -36.953  16.131  -6.667  1.00 20.00     0.005 C 
HETATM   11  C10 UNL     1     -35.921  15.171  -6.084  1.00 20.00    -0.005 C 
ENDBRANCH   4   7
TORSDOF 2
ENDMDL
MODEL 5
REMARK VINA RESULT:      -4.4      1.625      4.159
REMARK  2 active torsions:
REMARK  status: ('A' for Active; 'I' for Inactive)
REMARK    1  A    between atoms: C7_7  and  C9_9 
REMARK    2  A    between atoms: C8_8  and  C10_10 
ROOT
HETATM    1  C1  UNL     1     -33.806  14.032  -3.934  1.00 20.00     0.131 C 
HETATM    2  C2  UNL     1     -32.932  15.143  -3.400  1.00 20.00     0.083 C 
HETATM    3  C6  UNL     1     -35.238  15.587  -3.015  1.00 20.00     0.018 C 
HETATM    4  C7  UNL     1     -35.210  14.561  -4.156  1.00 20.00     0.060 C 
HETATM    5  C8  UNL     1     -33.953  16.295  -3.477  1.00 20.00    -0.002 C 
HETATM    6  O11 UNL     1     -33.434  12.893  -4.171  1.00 20.00    -0.298 OA
ENDROOT
BRANCH   4   7
HETATM    7  C9  UNL     1     -35.220  15.481  -5.388  1.00 20.00     0.001 C 
HETATM    8  C4  UNL     1     -36.542  16.119  -5.799  1.00 20.00     0.006 C 
HETATM    9  C3  UNL     1     -37.122  15.222  -6.885  1.00 20.00     0.001 C 
HETATM   10  C5  UNL     1     -35.909  14.625  -7.591  1.00 20.00     0.005 C 
HETATM   11  C10 UNL     1     -34.813  14.521  -6.535  1.00 20.00    -0.005 C 
ENDBRANCH   4   7
TORSDOF 2
ENDMDL
MODEL 6
REMARK VINA RESULT:      -4.4     11.758     12.998
REMARK  2 active torsions:
REMARK  status: ('A' for Active; 'I' for Inactive)
REMARK    1  A    between atoms: C7_7  and  C9_9 
REMARK    2  A    between atoms: C8_8  and  C10_10 
ROOT
HETATM    1  C1  UNL     1     -35.325   5.319   4.580  1.00 20.00     0.131 C 
HETATM    2  C2  UNL     1     -34.992   4.182   5.519  1.00 20.00     0.083 C 
HETATM    3  C6  UNL     1     -34.214   6.267   6.364  1.00 20.00     0.018 C 
HETATM    4  C7  UNL     1     -34.395   6.486   4.856  1.00 20.00     0.060 C 
HETATM    5  C8  UNL     1     -33.761   4.806   6.206  1.00 20.00    -0.002 C 
HETATM    6  O11 UNL     1     -36.191   5.293   3.719  1.00 20.00    -0.298 OA
ENDROOT
BRANCH   4   7
HETATM    7  C9  UNL     1     -32.989   6.153   4.332  1.00 20.00     0.001 C 
HETATM    8  C4  UNL     1     -31.939   7.258   4.338  1.00 20.00     0.006 C 
HETATM    9  C3  UNL     1     -31.951   7.855   2.936  1.00 20.00     0.001 C 
HETATM   10  C5  UNL     1     -32.345   6.701   2.021  1.00 20.00     0.005 C 
HETATM   11  C10 UNL     1     -33.252   5.796   2.847  1.00 20.00    -0.005 C 
ENDBRANCH   4   7
TORSDOF 2
ENDMDL
MODEL 7
REMARK VINA RESULT:      -4.3      1.986      4.396
REMARK  2 active torsions:
REMARK  status: ('A' for Active; 'I' for Inactive)
REMARK    1  A    between atoms: C7_7  and  C9_9 
REMARK    2  A    between atoms: C8_8  and  C10_10 
ROOT
HETATM    1  C1  UNL     1     -33.719  17.313  -3.583  1.00 20.00     0.131 C 
HETATM    2  C2  UNL     1     -34.267  16.645  -2.343  1.00 20.00     0.083 C 
HETATM    3  C6  UNL     1     -33.004  15.123  -3.667  1.00 20.00     0.018 C 
HETATM    4  C7  UNL     1     -33.401  16.255  -4.623  1.00 20.00     0.060 C 
HETATM    5  C8  UNL     1     -34.315  15.196  -2.866  1.00 20.00    -0.002 C 
HETATM    6  O11 UNL     1     -33.577  18.517  -3.732  1.00 20.00    -0.298 OA
ENDROOT
BRANCH   4   7
HETATM    7  C9  UNL     1     -34.711  15.708  -5.212  1.00 20.00     0.001 C 
HETATM    8  C4  UNL     1     -34.642  14.457  -6.080  1.00 20.00     0.006 C 
HETATM    9  C3  UNL     1     -34.596  14.949  -7.522  1.00 20.00     0.001 C 
HETATM   10  C5  UNL     1     -35.382  16.256  -7.516  1.00 20.00     0.005 C 
HETATM   11  C10 UNL     1     -35.183  16.863  -6.131  1.00 20.00    -0.005 C 
ENDBRANCH   4   7
TORSDOF 2
ENDMDL
MODEL 8
REMARK VINA RESULT:      -4.2      2.112      4.068
REMARK  2 active torsions:
REMARK  status: ('A' for Active; 'I' for Inactive)
REMARK    1  A    between atoms: C7_7  and  C9_9 
REMARK    2  A    between atoms: C8_8  and  C10_10 
ROOT
HETATM    1  C1  UNL     1     -35.903  17.442  -2.670  1.00 20.00     0.131 C 
HETATM    2  C2  UNL     1     -35.710  17.573  -1.177  1.00 20.00     0.083 C 
HETATM    3  C6  UNL     1     -33.641  17.208  -2.296  1.00 20.00     0.018 C 
HETATM    4  C7  UNL     1     -34.718  16.708  -3.267  1.00 20.00     0.060 C 
HETATM    5  C8  UNL     1     -34.409  16.756  -1.043  1.00 20.00    -0.002 C 
HETATM    6  O11 UNL     1     -36.874  17.844  -3.294  1.00 20.00    -0.298 OA
ENDROOT
BRANCH   4   7
HETATM    7  C9  UNL     1     -34.796  15.220  -2.890  1.00 20.00     0.001 C 
HETATM    8  C4  UNL     1     -33.671  14.300  -3.352  1.00 20.00     0.006 C 
HETATM    9  C3  UNL     1     -34.163  13.651  -4.640  1.00 20.00     0.001 C 
HETATM   10  C5  UNL     1     -35.677  13.563  -4.482  1.00 20.00     0.005 C 
HETATM   11  C10 UNL     1     -36.083  14.750  -3.614  1.00 20.00    -0.005 C 
ENDBRANCH   4   7
TORSDOF 2
ENDMDL
MODEL 9
REMARK VINA RESULT:      -4.2      1.646      2.488
REMARK  2 active torsions:
REMARK  status: ('A' for Active; 'I' for Inactive)
REMARK    1  A    between atoms: C7_7  and  C9_9 
REMARK    2  A    between atoms: C8_8  and  C10_10 
ROOT
HETATM    1  C1  UNL     1     -34.925  15.535  -5.402  1.00 20.00     0.131 C 
HETATM    2  C2  UNL     1     -34.493  14.087  -5.366  1.00 20.00     0.083 C 
HETATM    3  C6  UNL     1     -36.111  14.557  -3.684  1.00 20.00     0.018 C 
HETATM    4  C7  UNL     1     -35.508  15.918  -4.055  1.00 20.00     0.060 C 
HETATM    5  C8  UNL     1     -34.788  13.798  -3.880  1.00 20.00    -0.002 C 
HETATM    6  O11 UNL     1     -34.801  16.285  -6.358  1.00 20.00    -0.298 OA
ENDROOT
BRANCH   4   7
HETATM    7  C9  UNL     1     -34.375  16.037  -3.023  1.00 20.00     0.001 C 
HETATM    8  C4  UNL     1     -34.752  16.160  -1.551  1.00 20.00     0.006 C 
HETATM    9  C3  UNL     1     -34.736  17.650  -1.237  1.00 20.00     0.001 C 
HETATM   10  C5  UNL     1     -33.678  18.236  -2.165  1.00 20.00     0.005 C 
HETATM   11  C10 UNL     1     -33.688  17.368  -3.419  1.00 20.00    -0.005 C 
ENDBRANCH   4   7
TORSDOF 2
ENDMDL
