MODEL 1
REMARK VINA RESULT:      -3.8      0.000      0.000
REMARK  0 active torsions:
REMARK  status: ('A' for Active; 'I' for Inactive)
ROOT
HETATM    1  C1  UNL     1     -34.664   5.266   3.573  1.00 20.00     0.064 C 
HETATM    2  C2  UNL     1     -34.015   6.614   3.860  1.00 20.00     0.170 C 
HETATM    3  C3  UNL     1     -33.935   6.370   6.216  1.00 20.00     0.205 C 
HETATM    4  C4  UNL     1     -35.339   4.727   4.796  1.00 20.00     0.258 A 
HETATM    5  C5  UNL     1     -34.943   5.271   6.142  1.00 20.00     0.277 A 
HETATM    6  N6  UNL     1     -34.534   3.937   5.733  1.00 20.00     0.099 N 
HETATM    7  O7  UNL     1     -33.172   6.503   5.009  1.00 20.00    -0.389 OA
HETATM    8  H16 UNL     1     -35.121   3.236   6.185  1.00 20.00     0.317 HD
ENDROOT
TORSDOF 0
ENDMDL
MODEL 2
REMARK VINA RESULT:      -3.6      1.349      2.219
REMARK  0 active torsions:
REMARK  status: ('A' for Active; 'I' for Inactive)
ROOT
HETATM    1  C1  UNL     1     -35.155   4.432   5.917  1.00 20.00     0.064 C 
HETATM    2  C2  UNL     1     -33.995   5.251   6.467  1.00 20.00     0.170 C 
HETATM    3  C3  UNL     1     -33.582   6.485   4.486  1.00 20.00     0.205 C 
HETATM    4  C4  UNL     1     -35.139   4.422   4.420  1.00 20.00     0.258 A 
HETATM    5  C5  UNL     1     -34.362   5.487   3.695  1.00 20.00     0.277 A 
HETATM    6  N6  UNL     1     -35.815   5.517   3.717  1.00 20.00     0.099 N 
HETATM    7  O7  UNL     1     -33.992   6.545   5.859  1.00 20.00    -0.389 OA
HETATM    8  H16 UNL     1     -36.186   5.180   2.829  1.00 20.00     0.317 HD
ENDROOT
TORSDOF 0
ENDMDL
MODEL 3
REMARK VINA RESULT:      -3.6      1.625      2.784
REMARK  0 active torsions:
REMARK  status: ('A' for Active; 'I' for Inactive)
ROOT
HETATM    1  C1  UNL     1     -33.765   6.496   5.882  1.00 20.00     0.064 C 
HETATM    2  C2  UNL     1     -34.671   5.437   6.496  1.00 20.00     0.170 C 
HETATM    3  C3  UNL     1     -35.163   4.307   4.472  1.00 20.00     0.205 C 
HETATM    4  C4  UNL     1     -34.010   6.621   4.410  1.00 20.00     0.258 A 
HETATM    5  C5  UNL     1     -34.695   5.491   3.691  1.00 20.00     0.277 A 
HETATM    6  N6  UNL     1     -33.272   5.727   3.512  1.00 20.00     0.099 N 
HETATM    7  O7  UNL     1     -34.545   4.217   5.763  1.00 20.00    -0.389 OA
HETATM    8  H16 UNL     1     -33.103   6.194   2.622  1.00 20.00     0.317 HD
ENDROOT
TORSDOF 0
ENDMDL
MODEL 4
REMARK VINA RESULT:      -3.4      9.178      9.768
REMARK  0 active torsions:
REMARK  status: ('A' for Active; 'I' for Inactive)
ROOT
HETATM    1  C1  UNL     1     -42.368   4.819  -2.668  1.00 20.00     0.064 C 
HETATM    2  C2  UNL     1     -42.405   6.340  -2.586  1.00 20.00     0.170 C 
HETATM    3  C3  UNL     1     -40.888   6.541  -0.776  1.00 20.00     0.205 C 
HETATM    4  C4  UNL     1     -41.866   4.227  -1.388  1.00 20.00     0.258 A 
HETATM    5  C5  UNL     1     -41.087   5.099  -0.442  1.00 20.00     0.277 A 
HETATM    6  N6  UNL     1     -40.417   4.073  -1.224  1.00 20.00     0.099 N 
HETATM    7  O7  UNL     1     -41.130   6.826  -2.161  1.00 20.00    -0.389 OA
HETATM    8  H16 UNL     1     -40.221   3.260  -0.641  1.00 20.00     0.317 HD
ENDROOT
TORSDOF 0
ENDMDL
MODEL 5
REMARK VINA RESULT:      -3.4     12.668     13.508
REMARK  0 active torsions:
REMARK  status: ('A' for Active; 'I' for Inactive)
ROOT
HETATM    1  C1  UNL     1     -34.355  14.805  -6.090  1.00 20.00     0.064 C 
HETATM    2  C2  UNL     1     -33.903  16.196  -5.665  1.00 20.00     0.170 C 
HETATM    3  C3  UNL     1     -33.284  15.606  -3.454  1.00 20.00     0.205 C 
HETATM    4  C4  UNL     1     -34.650  13.951  -4.897  1.00 20.00     0.258 A 
HETATM    5  C5  UNL     1     -34.078  14.346  -3.563  1.00 20.00     0.277 A 
HETATM    6  N6  UNL     1     -33.541  13.208  -4.292  1.00 20.00     0.099 N 
HETATM    7  O7  UNL     1     -32.829  16.084  -4.728  1.00 20.00    -0.389 OA
HETATM    8  H16 UNL     1     -33.887  12.338  -3.888  1.00 20.00     0.317 HD
ENDROOT
TORSDOF 0
ENDMDL
MODEL 6
REMARK VINA RESULT:      -3.4     12.898     13.675
REMARK  0 active torsions:
REMARK  status: ('A' for Active; 'I' for Inactive)
ROOT
HETATM    1  C1  UNL     1     -34.445  13.355  -4.640  1.00 20.00     0.064 C 
HETATM    2  C2  UNL     1     -35.055  14.134  -5.798  1.00 20.00     0.170 C 
HETATM    3  C3  UNL     1     -33.818  16.127  -5.453  1.00 20.00     0.205 C 
HETATM    4  C4  UNL     1     -33.822  14.280  -3.642  1.00 20.00     0.258 A 
HETATM    5  C5  UNL     1     -33.477  15.681  -4.069  1.00 20.00     0.277 A 
HETATM    6  N6  UNL     1     -32.432  14.692  -3.860  1.00 20.00     0.099 N 
HETATM    7  O7  UNL     1     -34.079  15.028  -6.338  1.00 20.00    -0.389 OA
HETATM    8  H16 UNL     1     -31.974  14.850  -2.963  1.00 20.00     0.317 HD
ENDROOT
TORSDOF 0
ENDMDL
MODEL 7
REMARK VINA RESULT:      -3.4     12.595     12.706
REMARK  0 active torsions:
REMARK  status: ('A' for Active; 'I' for Inactive)
ROOT
HETATM    1  C1  UNL     1     -33.062  14.754  -3.713  1.00 20.00     0.064 C 
HETATM    2  C2  UNL     1     -33.703  15.971  -3.058  1.00 20.00     0.170 C 
HETATM    3  C3  UNL     1     -35.944  15.221  -3.248  1.00 20.00     0.205 C 
HETATM    4  C4  UNL     1     -34.061  14.000  -4.535  1.00 20.00     0.258 A 
HETATM    5  C5  UNL     1     -35.527  14.219  -4.274  1.00 20.00     0.277 A 
HETATM    6  N6  UNL     1     -34.877  12.984  -3.864  1.00 20.00     0.099 N 
HETATM    7  O7  UNL     1     -34.879  15.569  -2.352  1.00 20.00    -0.389 OA
HETATM    8  H16 UNL     1     -35.102  12.235  -4.518  1.00 20.00     0.317 HD
ENDROOT
TORSDOF 0
ENDMDL
MODEL 8
REMARK VINA RESULT:      -3.4      1.664      2.220
REMARK  0 active torsions:
REMARK  status: ('A' for Active; 'I' for Inactive)
ROOT
HETATM    1  C1  UNL     1     -33.925   6.512   3.961  1.00 20.00     0.064 C 
HETATM    2  C2  UNL     1     -34.710   5.318   3.433  1.00 20.00     0.170 C 
HETATM    3  C3  UNL     1     -35.147   4.336   5.545  1.00 20.00     0.205 C 
HETATM    4  C4  UNL     1     -33.416   6.247   5.344  1.00 20.00     0.258 A 
HETATM    5  C5  UNL     1     -34.061   5.159   6.158  1.00 20.00     0.277 A 
HETATM    6  N6  UNL     1     -34.299   6.558   6.473  1.00 20.00     0.099 N 
HETATM    7  O7  UNL     1     -35.715   4.951   4.380  1.00 20.00    -0.389 OA
HETATM    8  H16 UNL     1     -33.742   6.836   7.280  1.00 20.00     0.317 HD
ENDROOT
TORSDOF 0
ENDMDL
MODEL 9
REMARK VINA RESULT:      -3.4     12.877     13.765
REMARK  0 active torsions:
REMARK  status: ('A' for Active; 'I' for Inactive)
ROOT
HETATM    1  C1  UNL     1     -33.537  13.735  -3.834  1.00 20.00     0.064 C 
HETATM    2  C2  UNL     1     -34.815  13.277  -4.524  1.00 20.00     0.170 C 
HETATM    3  C3  UNL     1     -35.199  15.286  -5.723  1.00 20.00     0.205 C 
HETATM    4  C4  UNL     1     -33.436  15.229  -3.832  1.00 20.00     0.258 A 
HETATM    5  C5  UNL     1     -34.261  16.012  -4.816  1.00 20.00     0.277 A 
HETATM    6  N6  UNL     1     -32.825  15.878  -4.996  1.00 20.00     0.099 N 
HETATM    7  O7  UNL     1     -34.904  13.885  -5.815  1.00 20.00    -0.389 OA
HETATM    8  H16 UNL     1     -32.353  16.734  -4.706  1.00 20.00     0.317 HD
ENDROOT
TORSDOF 0
ENDMDL
