MODEL 1
REMARK VINA RESULT:      -3.6      0.000      0.000
REMARK  0 active torsions:
REMARK  status: ('A' for Active; 'I' for Inactive)
ROOT
HETATM    1  C1  UNL     1     -33.492  13.875  -3.824  1.00 20.00     0.136 A 
HETATM    2  C2  UNL     1     -32.872  15.121  -3.725  1.00 20.00     0.136 A 
HETATM    3  C3  UNL     1     -35.329  14.416  -6.817  1.00 20.00     0.083 A 
HETATM    4  C4  UNL     1     -34.225  16.635  -6.640  1.00 20.00     0.083 A 
HETATM    5  C5  UNL     1     -34.519  14.514  -5.711  1.00 20.00     0.092 A 
HETATM    6  C6  UNL     1     -33.882  15.795  -5.609  1.00 20.00     0.092 A 
HETATM    7  N7  UNL     1     -34.342  13.508  -4.816  1.00 20.00    -0.257 NA
HETATM    8  N8  UNL     1     -33.034  16.139  -4.607  1.00 20.00    -0.257 NA
HETATM    9  S9  UNL     1     -35.316  15.874  -7.728  1.00 20.00    -0.109 SA
ENDROOT
TORSDOF 0
ENDMDL
MODEL 2
REMARK VINA RESULT:      -3.6      0.015      2.047
REMARK  0 active torsions:
REMARK  status: ('A' for Active; 'I' for Inactive)
ROOT
HETATM    1  C1  UNL     1     -32.861  15.119  -3.722  1.00 20.00     0.136 A 
HETATM    2  C2  UNL     1     -33.473  13.870  -3.823  1.00 20.00     0.136 A 
HETATM    3  C3  UNL     1     -34.236  16.634  -6.627  1.00 20.00     0.083 A 
HETATM    4  C4  UNL     1     -35.324  14.407  -6.806  1.00 20.00     0.083 A 
HETATM    5  C5  UNL     1     -33.883  15.792  -5.601  1.00 20.00     0.092 A 
HETATM    6  C6  UNL     1     -34.511  14.507  -5.705  1.00 20.00     0.092 A 
HETATM    7  N7  UNL     1     -33.033  16.140  -4.601  1.00 20.00    -0.257 NA
HETATM    8  N8  UNL     1     -34.324  13.501  -4.813  1.00 20.00    -0.257 NA
HETATM    9  S9  UNL     1     -35.326  15.867  -7.714  1.00 20.00    -0.109 SA
ENDROOT
TORSDOF 0
ENDMDL
MODEL 3
REMARK VINA RESULT:      -3.5      1.379      1.624
REMARK  0 active torsions:
REMARK  status: ('A' for Active; 'I' for Inactive)
ROOT
HETATM    1  C1  UNL     1     -34.468  13.265  -4.822  1.00 20.00     0.136 A 
HETATM    2  C2  UNL     1     -33.635  13.768  -3.823  1.00 20.00     0.136 A 
HETATM    3  C3  UNL     1     -34.882  16.233  -6.730  1.00 20.00     0.083 A 
HETATM    4  C4  UNL     1     -33.399  17.128  -4.949  1.00 20.00     0.083 A 
HETATM    5  C5  UNL     1     -34.537  15.279  -5.805  1.00 20.00     0.092 A 
HETATM    6  C6  UNL     1     -33.681  15.796  -4.777  1.00 20.00     0.092 A 
HETATM    7  N7  UNL     1     -34.959  13.990  -5.860  1.00 20.00    -0.257 NA
HETATM    8  N8  UNL     1     -33.201  15.051  -3.749  1.00 20.00    -0.257 NA
HETATM    9  S9  UNL     1     -34.171  17.752  -6.353  1.00 20.00    -0.109 SA
ENDROOT
TORSDOF 0
ENDMDL
MODEL 4
REMARK VINA RESULT:      -3.5      3.357      4.258
REMARK  0 active torsions:
REMARK  status: ('A' for Active; 'I' for Inactive)
ROOT
HETATM    1  C1  UNL     1     -37.545  16.528  -3.207  1.00 20.00     0.136 A 
HETATM    2  C2  UNL     1     -38.158  15.350  -3.634  1.00 20.00     0.136 A 
HETATM    3  C3  UNL     1     -34.155  15.482  -3.406  1.00 20.00     0.083 A 
HETATM    4  C4  UNL     1     -35.248  13.383  -4.165  1.00 20.00     0.083 A 
HETATM    5  C5  UNL     1     -35.525  15.583  -3.434  1.00 20.00     0.092 A 
HETATM    6  C6  UNL     1     -36.155  14.371  -3.873  1.00 20.00     0.092 A 
HETATM    7  N7  UNL     1     -36.205  16.705  -3.086  1.00 20.00    -0.257 NA
HETATM    8  N8  UNL     1     -37.499  14.218  -3.987  1.00 20.00    -0.257 NA
HETATM    9  S9  UNL     1     -33.635  13.922  -3.909  1.00 20.00    -0.109 SA
ENDROOT
TORSDOF 0
ENDMDL
MODEL 5
REMARK VINA RESULT:      -3.4      2.301      2.373
REMARK  0 active torsions:
REMARK  status: ('A' for Active; 'I' for Inactive)
ROOT
HETATM    1  C1  UNL     1     -33.355  13.671  -3.746  1.00 20.00     0.136 A 
HETATM    2  C2  UNL     1     -32.843  14.966  -3.662  1.00 20.00     0.136 A 
HETATM    3  C3  UNL     1     -36.810  14.462  -3.979  1.00 20.00     0.083 A 
HETATM    4  C4  UNL     1     -35.899  16.769  -3.826  1.00 20.00     0.083 A 
HETATM    5  C5  UNL     1     -35.441  14.481  -3.874  1.00 20.00     0.092 A 
HETATM    6  C6  UNL     1     -34.915  15.812  -3.786  1.00 20.00     0.092 A 
HETATM    7  N7  UNL     1     -34.672  13.362  -3.857  1.00 20.00    -0.257 NA
HETATM    8  N8  UNL     1     -33.593  16.097  -3.677  1.00 20.00    -0.257 NA
HETATM    9  S9  UNL     1     -37.457  16.055  -3.969  1.00 20.00    -0.109 SA
ENDROOT
TORSDOF 0
ENDMDL
MODEL 6
REMARK VINA RESULT:      -3.4      3.398      3.780
REMARK  0 active torsions:
REMARK  status: ('A' for Active; 'I' for Inactive)
ROOT
HETATM    1  C1  UNL     1     -38.253  15.327  -3.636  1.00 20.00     0.136 A 
HETATM    2  C2  UNL     1     -37.661  16.526  -3.236  1.00 20.00     0.136 A 
HETATM    3  C3  UNL     1     -35.306  13.416  -4.171  1.00 20.00     0.083 A 
HETATM    4  C4  UNL     1     -34.252  15.551  -3.460  1.00 20.00     0.083 A 
HETATM    5  C5  UNL     1     -36.232  14.389  -3.884  1.00 20.00     0.092 A 
HETATM    6  C6  UNL     1     -35.624  15.621  -3.474  1.00 20.00     0.092 A 
HETATM    7  N7  UNL     1     -37.574  14.203  -3.978  1.00 20.00    -0.257 NA
HETATM    8  N8  UNL     1     -36.324  16.733  -3.135  1.00 20.00    -0.257 NA
HETATM    9  S9  UNL     1     -33.703  13.995  -3.945  1.00 20.00    -0.109 SA
ENDROOT
TORSDOF 0
ENDMDL
MODEL 7
REMARK VINA RESULT:      -3.4      2.322      3.154
REMARK  0 active torsions:
REMARK  status: ('A' for Active; 'I' for Inactive)
ROOT
HETATM    1  C1  UNL     1     -32.865  14.964  -3.686  1.00 20.00     0.136 A 
HETATM    2  C2  UNL     1     -33.380  13.672  -3.793  1.00 20.00     0.136 A 
HETATM    3  C3  UNL     1     -35.918  16.778  -3.769  1.00 20.00     0.083 A 
HETATM    4  C4  UNL     1     -36.836  14.477  -3.961  1.00 20.00     0.083 A 
HETATM    5  C5  UNL     1     -34.936  15.819  -3.764  1.00 20.00     0.092 A 
HETATM    6  C6  UNL     1     -35.466  14.490  -3.875  1.00 20.00     0.092 A 
HETATM    7  N7  UNL     1     -33.611  16.098  -3.666  1.00 20.00    -0.257 NA
HETATM    8  N8  UNL     1     -34.699  13.371  -3.893  1.00 20.00    -0.257 NA
HETATM    9  S9  UNL     1     -37.479  16.071  -3.908  1.00 20.00    -0.109 SA
ENDROOT
TORSDOF 0
ENDMDL
MODEL 8
REMARK VINA RESULT:      -3.3      2.279      2.983
REMARK  0 active torsions:
REMARK  status: ('A' for Active; 'I' for Inactive)
ROOT
HETATM    1  C1  UNL     1     -34.663  13.299  -4.669  1.00 20.00     0.136 A 
HETATM    2  C2  UNL     1     -34.827  13.995  -5.867  1.00 20.00     0.136 A 
HETATM    3  C3  UNL     1     -33.982  16.051  -2.528  1.00 20.00     0.083 A 
HETATM    4  C4  UNL     1     -34.273  17.290  -4.662  1.00 20.00     0.083 A 
HETATM    5  C5  UNL     1     -34.267  15.220  -3.584  1.00 20.00     0.092 A 
HETATM    6  C6  UNL     1     -34.434  15.936  -4.815  1.00 20.00     0.092 A 
HETATM    7  N7  UNL     1     -34.377  13.871  -3.472  1.00 20.00    -0.257 NA
HETATM    8  N8  UNL     1     -34.721  15.341  -6.001  1.00 20.00    -0.257 NA
HETATM    9  S9  UNL     1     -33.918  17.695  -3.028  1.00 20.00    -0.109 SA
ENDROOT
TORSDOF 0
ENDMDL
MODEL 9
REMARK VINA RESULT:      -3.3      2.302      3.227
REMARK  0 active torsions:
REMARK  status: ('A' for Active; 'I' for Inactive)
ROOT
HETATM    1  C1  UNL     1     -34.799  14.027  -5.839  1.00 20.00     0.136 A 
HETATM    2  C2  UNL     1     -34.649  13.328  -4.641  1.00 20.00     0.136 A 
HETATM    3  C3  UNL     1     -34.264  17.321  -4.619  1.00 20.00     0.083 A 
HETATM    4  C4  UNL     1     -33.998  16.075  -2.485  1.00 20.00     0.083 A 
HETATM    5  C5  UNL     1     -34.423  15.966  -4.778  1.00 20.00     0.092 A 
HETATM    6  C6  UNL     1     -34.269  15.247  -3.546  1.00 20.00     0.092 A 
HETATM    7  N7  UNL     1     -34.694  15.374  -5.969  1.00 20.00    -0.257 NA
HETATM    8  N8  UNL     1     -34.378  13.899  -3.440  1.00 20.00    -0.257 NA
HETATM    9  S9  UNL     1     -33.931  17.721  -2.980  1.00 20.00    -0.109 SA
ENDROOT
TORSDOF 0
ENDMDL
