MODEL 1
REMARK VINA RESULT:      -3.9      0.000      0.000
REMARK  1 active torsions:
REMARK  status: ('A' for Active; 'I' for Inactive)
REMARK    1  A    between atoms: C2_2  and  C6_6 
ROOT
HETATM    1  C1  UNL     1     -33.300   6.628   5.605  1.00 20.00    -0.021 C 
HETATM    2  C2  UNL     1     -33.012   6.538   4.293  1.00 20.00    -0.061 C 
HETATM    3  C3  UNL     1     -34.421   5.917   6.305  1.00 20.00     0.037 C 
HETATM    4  C4  UNL     1     -33.797   5.726   3.296  1.00 20.00     0.108 C 
HETATM    5  C5  UNL     1     -35.039   4.760   5.531  1.00 20.00     0.078 C 
HETATM    6  S7  UNL     1     -35.464   5.277   3.849  1.00 20.00    -0.165 SA
ENDROOT
BRANCH   2   7
HETATM    7  C6  UNL     1     -31.834   7.277   3.718  1.00 20.00     0.149 C 
HETATM    8 CL8  UNL     1     -32.367   7.963   2.184  1.00 20.00    -0.126 Cl
ENDBRANCH   2   7
TORSDOF 1
ENDMDL
MODEL 2
REMARK VINA RESULT:      -3.8      1.115      1.978
REMARK  1 active torsions:
REMARK  status: ('A' for Active; 'I' for Inactive)
REMARK    1  A    between atoms: C2_2  and  C6_6 
ROOT
HETATM    1  C1  UNL     1     -33.470   5.850   2.947  1.00 20.00    -0.021 C 
HETATM    2  C2  UNL     1     -32.921   6.600   3.921  1.00 20.00    -0.061 C 
HETATM    3  C3  UNL     1     -34.679   4.973   3.094  1.00 20.00     0.037 C 
HETATM    4  C4  UNL     1     -33.418   6.657   5.343  1.00 20.00     0.108 C 
HETATM    5  C5  UNL     1     -35.523   5.235   4.335  1.00 20.00     0.078 C 
HETATM    6  S7  UNL     1     -34.483   5.268   5.816  1.00 20.00    -0.165 SA
ENDROOT
BRANCH   2   7
HETATM    7  C6  UNL     1     -31.726   7.467   3.636  1.00 20.00     0.149 C 
HETATM    8 CL8  UNL     1     -31.968   8.150   2.029  1.00 20.00    -0.126 Cl
ENDBRANCH   2   7
TORSDOF 1
ENDMDL
MODEL 3
REMARK VINA RESULT:      -3.6     12.014     12.589
REMARK  1 active torsions:
REMARK  status: ('A' for Active; 'I' for Inactive)
REMARK    1  A    between atoms: C2_2  and  C6_6 
ROOT
HETATM    1  C1  UNL     1     -34.918  15.040  -2.997  1.00 20.00    -0.021 C 
HETATM    2  C2  UNL     1     -34.064  16.058  -3.216  1.00 20.00    -0.061 C 
HETATM    3  C3  UNL     1     -35.347  14.023  -4.014  1.00 20.00     0.037 C 
HETATM    4  C4  UNL     1     -33.417  16.364  -4.542  1.00 20.00     0.108 C 
HETATM    5  C5  UNL     1     -34.481  13.952  -5.265  1.00 20.00     0.078 C 
HETATM    6  S7  UNL     1     -34.242  15.604  -5.966  1.00 20.00    -0.165 SA
ENDROOT
BRANCH   2   7
HETATM    7  C6  UNL     1     -33.686  16.992  -2.099  1.00 20.00     0.149 C 
HETATM    8 CL8  UNL     1     -34.665  16.538  -0.706  1.00 20.00    -0.126 Cl
ENDBRANCH   2   7
TORSDOF 1
ENDMDL
MODEL 4
REMARK VINA RESULT:      -3.6     11.634     12.108
REMARK  1 active torsions:
REMARK  status: ('A' for Active; 'I' for Inactive)
REMARK    1  A    between atoms: C2_2  and  C6_6 
ROOT
HETATM    1  C1  UNL     1     -33.623  14.696  -3.336  1.00 20.00    -0.021 C 
HETATM    2  C2  UNL     1     -34.364  15.748  -2.939  1.00 20.00    -0.061 C 
HETATM    3  C3  UNL     1     -34.064  13.625  -4.291  1.00 20.00     0.037 C 
HETATM    4  C4  UNL     1     -35.785  16.007  -3.369  1.00 20.00     0.108 C 
HETATM    5  C5  UNL     1     -35.300  13.960  -5.116  1.00 20.00     0.078 C 
HETATM    6  S7  UNL     1     -36.634  14.555  -4.046  1.00 20.00    -0.165 SA
ENDROOT
BRANCH   2   7
HETATM    7  C6  UNL     1     -33.792  16.775  -2.002  1.00 20.00     0.149 C 
HETATM    8 CL8  UNL     1     -34.702  16.652  -0.498  1.00 20.00    -0.126 Cl
ENDBRANCH   2   7
TORSDOF 1
ENDMDL
MODEL 5
REMARK VINA RESULT:      -3.5     10.021     10.943
REMARK  1 active torsions:
REMARK  status: ('A' for Active; 'I' for Inactive)
REMARK    1  A    between atoms: C2_2  and  C6_6 
ROOT
HETATM    1  C1  UNL     1     -41.237   4.533  -1.334  1.00 20.00    -0.021 C 
HETATM    2  C2  UNL     1     -42.203   4.418  -2.265  1.00 20.00    -0.061 C 
HETATM    3  C3  UNL     1     -40.757   5.817  -0.724  1.00 20.00     0.037 C 
HETATM    4  C4  UNL     1     -42.946   5.578  -2.877  1.00 20.00     0.108 C 
HETATM    5  C5  UNL     1     -41.674   7.016  -0.931  1.00 20.00     0.078 C 
HETATM    6  S7  UNL     1     -42.120   7.180  -2.677  1.00 20.00    -0.165 SA
ENDROOT
BRANCH   2   7
HETATM    7  C6  UNL     1     -42.619   3.065  -2.772  1.00 20.00     0.149 C 
HETATM    8 CL8  UNL     1     -41.183   2.324  -3.474  1.00 20.00    -0.126 Cl
ENDBRANCH   2   7
TORSDOF 1
ENDMDL
MODEL 6
REMARK VINA RESULT:      -3.5     11.726     12.868
REMARK  1 active torsions:
REMARK  status: ('A' for Active; 'I' for Inactive)
REMARK    1  A    between atoms: C2_2  and  C6_6 
ROOT
HETATM    1  C1  UNL     1     -33.741  16.326  -5.010  1.00 20.00    -0.021 C 
HETATM    2  C2  UNL     1     -33.994  15.900  -3.758  1.00 20.00    -0.061 C 
HETATM    3  C3  UNL     1     -34.073  15.583  -6.271  1.00 20.00     0.037 C 
HETATM    4  C4  UNL     1     -34.631  14.579  -3.414  1.00 20.00     0.108 C 
HETATM    5  C5  UNL     1     -35.071  14.443  -6.109  1.00 20.00     0.078 C 
HETATM    6  S7  UNL     1     -34.575  13.355  -4.750  1.00 20.00    -0.165 SA
ENDROOT
BRANCH   2   7
HETATM    7  C6  UNL     1     -33.641  16.758  -2.574  1.00 20.00     0.149 C 
HETATM    8 CL8  UNL     1     -34.717  16.279  -1.263  1.00 20.00    -0.126 Cl
ENDBRANCH   2   7
TORSDOF 1
ENDMDL
MODEL 7
REMARK VINA RESULT:      -3.4     12.215     12.923
REMARK  1 active torsions:
REMARK  status: ('A' for Active; 'I' for Inactive)
REMARK    1  A    between atoms: C2_2  and  C6_6 
ROOT
HETATM    1  C1  UNL     1     -34.606  16.629  -0.760  1.00 20.00    -0.021 C 
HETATM    2  C2  UNL     1     -34.050  17.820  -0.468  1.00 20.00    -0.061 C 
HETATM    3  C3  UNL     1     -34.677  16.008  -2.125  1.00 20.00     0.037 C 
HETATM    4  C4  UNL     1     -33.430  18.749  -1.479  1.00 20.00     0.108 C 
HETATM    5  C5  UNL     1     -33.749  16.621  -3.166  1.00 20.00     0.078 C 
HETATM    6  S7  UNL     1     -33.926  18.422  -3.192  1.00 20.00    -0.165 SA
ENDROOT
BRANCH   2   7
HETATM    7  C6  UNL     1     -34.010  18.316   0.952  1.00 20.00     0.149 C 
HETATM    8 CL8  UNL     1     -35.332  17.520   1.803  1.00 20.00    -0.126 Cl
ENDBRANCH   2   7
TORSDOF 1
ENDMDL
MODEL 8
REMARK VINA RESULT:      -3.4     12.380     13.101
REMARK  1 active torsions:
REMARK  status: ('A' for Active; 'I' for Inactive)
REMARK    1  A    between atoms: C2_2  and  C6_6 
ROOT
HETATM    1  C1  UNL     1     -34.441  16.662  -0.913  1.00 20.00    -0.021 C 
HETATM    2  C2  UNL     1     -33.852  17.868  -0.806  1.00 20.00    -0.061 C 
HETATM    3  C3  UNL     1     -34.740  15.945  -2.197  1.00 20.00     0.037 C 
HETATM    4  C4  UNL     1     -33.421  18.719  -1.973  1.00 20.00     0.108 C 
HETATM    5  C5  UNL     1     -34.008  16.477  -3.423  1.00 20.00     0.078 C 
HETATM    6  S7  UNL     1     -34.201  18.272  -3.547  1.00 20.00    -0.165 SA
ENDROOT
BRANCH   2   7
HETATM    7  C6  UNL     1     -33.575  18.465   0.547  1.00 20.00     0.149 C 
HETATM    8 CL8  UNL     1     -31.862  18.873   0.578  1.00 20.00    -0.126 Cl
ENDBRANCH   2   7
TORSDOF 1
ENDMDL
MODEL 9
REMARK VINA RESULT:      -3.4     12.125     12.865
REMARK  1 active torsions:
REMARK  status: ('A' for Active; 'I' for Inactive)
REMARK    1  A    between atoms: C2_2  and  C6_6 
ROOT
HETATM    1  C1  UNL     1     -34.480  16.310  -1.452  1.00 20.00    -0.021 C 
HETATM    2  C2  UNL     1     -34.019  16.820  -2.610  1.00 20.00    -0.061 C 
HETATM    3  C3  UNL     1     -34.787  17.095  -0.210  1.00 20.00     0.037 C 
HETATM    4  C4  UNL     1     -33.703  18.275  -2.840  1.00 20.00     0.108 C 
HETATM    5  C5  UNL     1     -34.909  18.600  -0.408  1.00 20.00     0.078 C 
HETATM    6  S7  UNL     1     -33.481  19.238  -1.320  1.00 20.00    -0.165 SA
ENDROOT
BRANCH   2   7
HETATM    7  C6  UNL     1     -33.784  15.928  -3.797  1.00 20.00     0.149 C 
HETATM    8 CL8  UNL     1     -34.324  14.315  -3.335  1.00 20.00    -0.126 Cl
ENDBRANCH   2   7
TORSDOF 1
ENDMDL
