MODEL 1
REMARK VINA RESULT:      -4.8      0.000      0.000
REMARK  3 active torsions:
REMARK  status: ('A' for Active; 'I' for Inactive)
REMARK    1  A    between atoms: C1_1  and  O7_7 
REMARK    2  A    between atoms: C4_4  and  C5_5 
REMARK    3  A    between atoms: C5_5  and  O7_7 
ROOT
HETATM    1  C5  UNL     1     -34.599   5.444   3.594  1.00 20.00     0.184 C 
ENDROOT
BRANCH   1   2
HETATM    2  C4  UNL     1     -35.251   5.167   4.904  1.00 20.00     0.010 A 
HETATM    3  C2  UNL     1     -34.764   4.039   5.770  1.00 20.00     0.007 A 
HETATM    4  C3  UNL     1     -34.527   5.462   6.188  1.00 20.00     0.007 A 
ENDBRANCH   1   2
BRANCH   1   5
HETATM    5  O7  UNL     1     -33.898   6.687   3.653  1.00 20.00    -0.308 OA
BRANCH   5   6
HETATM    6  C1  UNL     1     -32.626   6.690   3.137  1.00 20.00     0.357 C 
HETATM    7  O6  UNL     1     -31.846   5.751   3.270  1.00 20.00    -0.246 OA
HETATM    8 CL8  UNL     1     -32.252   8.165   2.284  1.00 20.00    -0.012 Cl
ENDBRANCH   5   6
ENDBRANCH   1   5
TORSDOF 3
ENDMDL
MODEL 2
REMARK VINA RESULT:      -4.5      2.483      3.945
REMARK  3 active torsions:
REMARK  status: ('A' for Active; 'I' for Inactive)
REMARK    1  A    between atoms: C1_1  and  O7_7 
REMARK    2  A    between atoms: C4_4  and  C5_5 
REMARK    3  A    between atoms: C5_5  and  O7_7 
ROOT
HETATM    1  C5  UNL     1     -34.048   6.580   3.817  1.00 20.00     0.184 C 
ENDROOT
BRANCH   1   2
HETATM    2  C4  UNL     1     -32.710   6.529   3.164  1.00 20.00     0.010 A 
HETATM    3  C2  UNL     1     -32.207   7.706   2.376  1.00 20.00     0.007 A 
HETATM    4  C3  UNL     1     -31.576   7.360   3.695  1.00 20.00     0.007 A 
ENDBRANCH   1   2
BRANCH   1   5
HETATM    5  O7  UNL     1     -34.620   5.272   3.856  1.00 20.00    -0.308 OA
BRANCH   5   6
HETATM    6  C1  UNL     1     -34.772   4.713   5.101  1.00 20.00     0.357 C 
HETATM    7  O6  UNL     1     -35.109   3.546   5.276  1.00 20.00    -0.246 OA
HETATM    8 CL8  UNL     1     -34.434   5.842   6.388  1.00 20.00    -0.012 Cl
ENDBRANCH   5   6
ENDBRANCH   1   5
TORSDOF 3
ENDMDL
MODEL 3
REMARK VINA RESULT:      -4.4      1.327      1.327
REMARK  3 active torsions:
REMARK  status: ('A' for Active; 'I' for Inactive)
REMARK    1  A    between atoms: C1_1  and  O7_7 
REMARK    2  A    between atoms: C4_4  and  C5_5 
REMARK    3  A    between atoms: C5_5  and  O7_7 
ROOT
HETATM    1  C5  UNL     1     -34.632   5.467   3.624  1.00 20.00     0.184 C 
ENDROOT
BRANCH   1   2
HETATM    2  C4  UNL     1     -35.266   5.122   4.928  1.00 20.00     0.010 A 
HETATM    3  C2  UNL     1     -34.713   4.005   5.767  1.00 20.00     0.007 A 
HETATM    4  C3  UNL     1     -34.559   5.429   6.218  1.00 20.00     0.007 A 
ENDBRANCH   1   2
BRANCH   1   5
HETATM    5  O7  UNL     1     -34.017   6.753   3.707  1.00 20.00    -0.308 OA
BRANCH   5   6
HETATM    6  C1  UNL     1     -32.801   6.885   3.084  1.00 20.00     0.357 C 
HETATM    7  O6  UNL     1     -32.410   7.940   2.593  1.00 20.00    -0.246 OA
HETATM    8 CL8  UNL     1     -31.889   5.397   3.071  1.00 20.00    -0.012 Cl
ENDBRANCH   5   6
ENDBRANCH   1   5
TORSDOF 3
ENDMDL
MODEL 4
REMARK VINA RESULT:      -4.0      2.492      4.481
REMARK  3 active torsions:
REMARK  status: ('A' for Active; 'I' for Inactive)
REMARK    1  A    between atoms: C1_1  and  O7_7 
REMARK    2  A    between atoms: C4_4  and  C5_5 
REMARK    3  A    between atoms: C5_5  and  O7_7 
ROOT
HETATM    1  C5  UNL     1     -32.620   6.882   2.713  1.00 20.00     0.184 C 
ENDROOT
BRANCH   1   2
HETATM    2  C4  UNL     1     -31.883   8.130   2.368  1.00 20.00     0.010 A 
HETATM    3  C2  UNL     1     -31.717   8.540   0.932  1.00 20.00     0.007 A 
HETATM    4  C3  UNL     1     -32.625   9.325   1.836  1.00 20.00     0.007 A 
ENDBRANCH   1   2
BRANCH   1   5
HETATM    5  O7  UNL     1     -32.757   6.773   4.130  1.00 20.00    -0.308 OA
BRANCH   5   6
HETATM    6  C1  UNL     1     -33.893   6.151   4.584  1.00 20.00     0.357 C 
HETATM    7  O6  UNL     1     -34.667   5.548   3.846  1.00 20.00    -0.246 OA
HETATM    8 CL8  UNL     1     -34.105   6.316   6.307  1.00 20.00    -0.012 Cl
ENDBRANCH   5   6
ENDBRANCH   1   5
TORSDOF 3
ENDMDL
MODEL 5
REMARK VINA RESULT:      -3.9     11.846     12.138
REMARK  3 active torsions:
REMARK  status: ('A' for Active; 'I' for Inactive)
REMARK    1  A    between atoms: C1_1  and  O7_7 
REMARK    2  A    between atoms: C4_4  and  C5_5 
REMARK    3  A    between atoms: C5_5  and  O7_7 
ROOT
HETATM    1  C5  UNL     1     -33.439  15.428  -3.407  1.00 20.00     0.184 C 
ENDROOT
BRANCH   1   2
HETATM    2  C4  UNL     1     -34.611  15.574  -2.500  1.00 20.00     0.010 A 
HETATM    3  C2  UNL     1     -34.525  16.459  -1.288  1.00 20.00     0.007 A 
HETATM    4  C3  UNL     1     -35.378  16.866  -2.455  1.00 20.00     0.007 A 
ENDBRANCH   1   2
BRANCH   1   5
HETATM    5  O7  UNL     1     -33.320  14.070  -3.833  1.00 20.00    -0.308 OA
BRANCH   5   6
HETATM    6  C1  UNL     1     -34.303  13.610  -4.673  1.00 20.00     0.357 C 
HETATM    7  O6  UNL     1     -34.990  12.624  -4.423  1.00 20.00    -0.246 OA
HETATM    8 CL8  UNL     1     -34.459  14.577  -6.116  1.00 20.00    -0.012 Cl
ENDBRANCH   5   6
ENDBRANCH   1   5
TORSDOF 3
ENDMDL
MODEL 6
REMARK VINA RESULT:      -3.9      1.932      2.427
REMARK  3 active torsions:
REMARK  status: ('A' for Active; 'I' for Inactive)
REMARK    1  A    between atoms: C1_1  and  O7_7 
REMARK    2  A    between atoms: C4_4  and  C5_5 
REMARK    3  A    between atoms: C5_5  and  O7_7 
ROOT
HETATM    1  C5  UNL     1     -32.521   6.530   2.972  1.00 20.00     0.184 C 
ENDROOT
BRANCH   1   2
HETATM    2  C4  UNL     1     -33.827   6.601   3.684  1.00 20.00     0.010 A 
HETATM    3  C2  UNL     1     -34.753   5.416   3.687  1.00 20.00     0.007 A 
HETATM    4  C3  UNL     1     -34.044   5.818   4.949  1.00 20.00     0.007 A 
ENDBRANCH   1   2
BRANCH   1   5
HETATM    5  O7  UNL     1     -31.889   7.811   2.987  1.00 20.00    -0.308 OA
BRANCH   5   6
HETATM    6  C1  UNL     1     -31.983   8.546   1.831  1.00 20.00     0.357 C 
HETATM    7  O6  UNL     1     -31.509   8.176   0.761  1.00 20.00    -0.246 OA
HETATM    8 CL8  UNL     1     -32.843  10.046   2.059  1.00 20.00    -0.012 Cl
ENDBRANCH   5   6
ENDBRANCH   1   5
TORSDOF 3
ENDMDL
MODEL 7
REMARK VINA RESULT:      -3.8     11.827     12.187
REMARK  3 active torsions:
REMARK  status: ('A' for Active; 'I' for Inactive)
REMARK    1  A    between atoms: C1_1  and  O7_7 
REMARK    2  A    between atoms: C4_4  and  C5_5 
REMARK    3  A    between atoms: C5_5  and  O7_7 
ROOT
HETATM    1  C5  UNL     1     -35.926  15.757  -3.280  1.00 20.00     0.184 C 
ENDROOT
BRANCH   1   2
HETATM    2  C4  UNL     1     -34.760  15.640  -2.360  1.00 20.00     0.010 A 
HETATM    3  C2  UNL     1     -33.758  16.755  -2.262  1.00 20.00     0.007 A 
HETATM    4  C3  UNL     1     -34.690  16.480  -1.116  1.00 20.00     0.007 A 
ENDBRANCH   1   2
BRANCH   1   5
HETATM    5  O7  UNL     1     -36.313  14.463  -3.743  1.00 20.00    -0.308 OA
BRANCH   5   6
HETATM    6  C1  UNL     1     -35.391  13.793  -4.510  1.00 20.00     0.357 C 
HETATM    7  O6  UNL     1     -35.012  12.653  -4.259  1.00 20.00    -0.246 OA
HETATM    8 CL8  UNL     1     -34.830  14.740  -5.863  1.00 20.00    -0.012 Cl
ENDBRANCH   5   6
ENDBRANCH   1   5
TORSDOF 3
ENDMDL
MODEL 8
REMARK VINA RESULT:      -3.5     11.450     12.904
REMARK  3 active torsions:
REMARK  status: ('A' for Active; 'I' for Inactive)
REMARK    1  A    between atoms: C1_1  and  O7_7 
REMARK    2  A    between atoms: C4_4  and  C5_5 
REMARK    3  A    between atoms: C5_5  and  O7_7 
ROOT
HETATM    1  C5  UNL     1     -35.740  14.382  -5.166  1.00 20.00     0.184 C 
ENDROOT
BRANCH   1   2
HETATM    2  C4  UNL     1     -34.869  14.256  -6.368  1.00 20.00     0.010 A 
HETATM    3  C2  UNL     1     -35.379  14.670  -7.719  1.00 20.00     0.007 A 
HETATM    4  C3  UNL     1     -34.318  15.485  -7.035  1.00 20.00     0.007 A 
ENDBRANCH   1   2
BRANCH   1   5
HETATM    5  O7  UNL     1     -35.258  13.531  -4.125  1.00 20.00    -0.308 OA
BRANCH   5   6
HETATM    6  C1  UNL     1     -34.021  13.838  -3.615  1.00 20.00     0.357 C 
HETATM    7  O6  UNL     1     -33.083  13.046  -3.612  1.00 20.00    -0.246 OA
HETATM    8 CL8  UNL     1     -33.940  15.461  -2.983  1.00 20.00    -0.012 Cl
ENDBRANCH   5   6
ENDBRANCH   1   5
TORSDOF 3
ENDMDL
MODEL 9
REMARK VINA RESULT:      -3.5     11.810     12.223
REMARK  3 active torsions:
REMARK  status: ('A' for Active; 'I' for Inactive)
REMARK    1  A    between atoms: C1_1  and  O7_7 
REMARK    2  A    between atoms: C4_4  and  C5_5 
REMARK    3  A    between atoms: C5_5  and  O7_7 
ROOT
HETATM    1  C5  UNL     1     -35.345  16.473  -2.781  1.00 20.00     0.184 C 
ENDROOT
BRANCH   1   2
HETATM    2  C4  UNL     1     -34.466  16.317  -1.588  1.00 20.00     0.010 A 
HETATM    3  C2  UNL     1     -33.648  17.477  -1.094  1.00 20.00     0.007 A 
HETATM    4  C3  UNL     1     -34.822  16.991  -0.293  1.00 20.00     0.007 A 
ENDBRANCH   1   2
BRANCH   1   5
HETATM    5  O7  UNL     1     -34.762  15.810  -3.904  1.00 20.00    -0.308 OA
BRANCH   5   6
HETATM    6  C1  UNL     1     -34.899  14.444  -3.941  1.00 20.00     0.357 C 
HETATM    7  O6  UNL     1     -35.985  13.883  -4.054  1.00 20.00    -0.246 OA
HETATM    8 CL8  UNL     1     -33.371  13.613  -3.810  1.00 20.00    -0.012 Cl
ENDBRANCH   5   6
ENDBRANCH   1   5
TORSDOF 3
ENDMDL
