MODEL 1
REMARK VINA RESULT:      -5.2      0.000      0.000
REMARK  4 active torsions:
REMARK  status: ('A' for Active; 'I' for Inactive)
REMARK    1  A    between atoms: C1_1  and  C8_8 
REMARK    2  A    between atoms: C1_1  and  C9_9 
REMARK    3  A    between atoms: C6_6  and  C8_8 
REMARK    4  A    between atoms: C7_7  and  C9_9 
ROOT
HETATM    1  C1  UNL     1     -33.252   6.265   3.379  1.00 20.00     0.127 C 
HETATM    2  O10 UNL     1     -33.761   5.492   2.570  1.00 20.00    -0.298 OA
ENDROOT
BRANCH   1   3
HETATM    3  C8  UNL     1     -32.194   7.279   2.977  1.00 20.00     0.082 C 
BRANCH   3   4
HETATM    4  C6  UNL     1     -32.605   8.111   1.776  1.00 20.00    -0.008 A 
HETATM    5  C2  UNL     1     -32.449   9.607   1.801  1.00 20.00     0.005 A 
HETATM    6  C3  UNL     1     -31.561   8.774   0.920  1.00 20.00     0.005 A 
ENDBRANCH   3   4
ENDBRANCH   1   3
BRANCH   1   7
HETATM    7  C9  UNL     1     -33.641   6.273   4.848  1.00 20.00     0.082 C 
BRANCH   7   8
HETATM    8  C7  UNL     1     -34.867   5.426   5.135  1.00 20.00    -0.008 A 
HETATM    9  C4  UNL     1     -34.728   3.947   5.367  1.00 20.00     0.005 A 
HETATM   10  C5  UNL     1     -35.088   4.856   6.509  1.00 20.00     0.005 A 
ENDBRANCH   7   8
ENDBRANCH   1   7
TORSDOF 4
ENDMDL
MODEL 2
REMARK VINA RESULT:      -5.2      0.813      5.240
REMARK  4 active torsions:
REMARK  status: ('A' for Active; 'I' for Inactive)
REMARK    1  A    between atoms: C1_1  and  C8_8 
REMARK    2  A    between atoms: C1_1  and  C9_9 
REMARK    3  A    between atoms: C6_6  and  C8_8 
REMARK    4  A    between atoms: C7_7  and  C9_9 
ROOT
HETATM    1  C1  UNL     1     -32.536   6.411   3.371  1.00 20.00     0.127 C 
HETATM    2  O10 UNL     1     -32.024   5.356   3.000  1.00 20.00    -0.298 OA
ENDROOT
BRANCH   1   3
HETATM    3  C8  UNL     1     -33.808   6.446   4.202  1.00 20.00     0.082 C 
BRANCH   3   4
HETATM    4  C6  UNL     1     -33.954   5.234   5.103  1.00 20.00    -0.008 A 
HETATM    5  C2  UNL     1     -34.832   5.298   6.323  1.00 20.00     0.005 A 
HETATM    6  C3  UNL     1     -35.248   4.470   5.140  1.00 20.00     0.005 A 
ENDBRANCH   3   4
ENDBRANCH   1   3
BRANCH   1   7
HETATM    7  C9  UNL     1     -31.939   7.766   3.030  1.00 20.00     0.082 C 
BRANCH   7   8
HETATM    8  C7  UNL     1     -32.571   8.393   1.801  1.00 20.00    -0.008 A 
HETATM    9  C4  UNL     1     -32.441   9.870   1.553  1.00 20.00     0.005 A 
HETATM   10  C5  UNL     1     -31.706   8.894   0.677  1.00 20.00     0.005 A 
ENDBRANCH   7   8
ENDBRANCH   1   7
TORSDOF 4
ENDMDL
MODEL 3
REMARK VINA RESULT:      -4.9      1.444      4.830
REMARK  4 active torsions:
REMARK  status: ('A' for Active; 'I' for Inactive)
REMARK    1  A    between atoms: C1_1  and  C8_8 
REMARK    2  A    between atoms: C1_1  and  C9_9 
REMARK    3  A    between atoms: C6_6  and  C8_8 
REMARK    4  A    between atoms: C7_7  and  C9_9 
ROOT
HETATM    1  C1  UNL     1     -35.000   5.309   3.548  1.00 20.00     0.127 C 
HETATM    2  O10 UNL     1     -36.009   5.967   3.300  1.00 20.00    -0.298 OA
ENDROOT
BRANCH   1   3
HETATM    3  C8  UNL     1     -35.015   4.136   4.515  1.00 20.00     0.082 C 
BRANCH   3   4
HETATM    4  C6  UNL     1     -35.043   4.575   5.968  1.00 20.00    -0.008 A 
HETATM    5  C2  UNL     1     -33.773   4.617   6.772  1.00 20.00     0.005 A 
HETATM    6  C3  UNL     1     -34.451   5.897   6.371  1.00 20.00     0.005 A 
ENDBRANCH   3   4
ENDBRANCH   1   3
BRANCH   1   7
HETATM    7  C9  UNL     1     -33.655   5.614   2.910  1.00 20.00     0.082 C 
BRANCH   7   8
HETATM    8  C7  UNL     1     -33.125   6.986   3.283  1.00 20.00    -0.008 A 
HETATM    9  C4  UNL     1     -31.676   7.167   3.641  1.00 20.00     0.005 A 
HETATM   10  C5  UNL     1     -32.206   7.722   2.348  1.00 20.00     0.005 A 
ENDBRANCH   7   8
ENDBRANCH   1   7
TORSDOF 4
ENDMDL
MODEL 4
REMARK VINA RESULT:      -4.7      1.405      2.068
REMARK  4 active torsions:
REMARK  status: ('A' for Active; 'I' for Inactive)
REMARK    1  A    between atoms: C1_1  and  C8_8 
REMARK    2  A    between atoms: C1_1  and  C9_9 
REMARK    3  A    between atoms: C6_6  and  C8_8 
REMARK    4  A    between atoms: C7_7  and  C9_9 
ROOT
HETATM    1  C1  UNL     1     -34.875   5.295   3.493  1.00 20.00     0.127 C 
HETATM    2  O10 UNL     1     -35.882   5.943   3.216  1.00 20.00    -0.298 OA
ENDROOT
BRANCH   1   3
HETATM    3  C8  UNL     1     -33.510   5.629   2.914  1.00 20.00     0.082 C 
BRANCH   3   4
HETATM    4  C6  UNL     1     -33.040   7.023   3.287  1.00 20.00    -0.008 A 
HETATM    5  C2  UNL     1     -31.598   7.269   3.636  1.00 20.00     0.005 A 
HETATM    6  C3  UNL     1     -32.162   7.803   2.349  1.00 20.00     0.005 A 
ENDBRANCH   3   4
ENDBRANCH   1   3
BRANCH   1   7
HETATM    7  C9  UNL     1     -34.911   4.105   4.438  1.00 20.00     0.082 C 
BRANCH   7   8
HETATM    8  C7  UNL     1     -34.365   4.434   5.815  1.00 20.00    -0.008 A 
HETATM    9  C4  UNL     1     -34.479   5.830   6.362  1.00 20.00     0.005 A 
HETATM   10  C5  UNL     1     -35.305   4.722   6.953  1.00 20.00     0.005 A 
ENDBRANCH   7   8
ENDBRANCH   1   7
TORSDOF 4
ENDMDL
MODEL 5
REMARK VINA RESULT:      -4.6     10.646     12.192
REMARK  4 active torsions:
REMARK  status: ('A' for Active; 'I' for Inactive)
REMARK    1  A    between atoms: C1_1  and  C8_8 
REMARK    2  A    between atoms: C1_1  and  C9_9 
REMARK    3  A    between atoms: C6_6  and  C8_8 
REMARK    4  A    between atoms: C7_7  and  C9_9 
ROOT
HETATM    1  C1  UNL     1     -34.061  13.737  -3.953  1.00 20.00     0.127 C 
HETATM    2  O10 UNL     1     -33.025  13.164  -3.623  1.00 20.00    -0.298 OA
ENDROOT
BRANCH   1   3
HETATM    3  C8  UNL     1     -34.652  14.877  -3.140  1.00 20.00     0.082 C 
BRANCH   3   4
HETATM    4  C6  UNL     1     -33.631  15.949  -2.806  1.00 20.00    -0.008 A 
HETATM    5  C2  UNL     1     -33.920  17.393  -3.112  1.00 20.00     0.005 A 
HETATM    6  C3  UNL     1     -33.890  16.918  -1.686  1.00 20.00     0.005 A 
ENDBRANCH   3   4
ENDBRANCH   1   3
BRANCH   1   7
HETATM    7  C9  UNL     1     -34.837  13.353  -5.202  1.00 20.00     0.082 C 
BRANCH   7   8
HETATM    8  C7  UNL     1     -35.277  14.558  -6.012  1.00 20.00    -0.008 A 
HETATM    9  C4  UNL     1     -34.288  15.291  -6.876  1.00 20.00     0.005 A 
HETATM   10  C5  UNL     1     -35.374  14.468  -7.511  1.00 20.00     0.005 A 
ENDBRANCH   7   8
ENDBRANCH   1   7
TORSDOF 4
ENDMDL
MODEL 6
REMARK VINA RESULT:      -4.6     10.683     12.118
REMARK  4 active torsions:
REMARK  status: ('A' for Active; 'I' for Inactive)
REMARK    1  A    between atoms: C1_1  and  C8_8 
REMARK    2  A    between atoms: C1_1  and  C9_9 
REMARK    3  A    between atoms: C6_6  and  C8_8 
REMARK    4  A    between atoms: C7_7  and  C9_9 
ROOT
HETATM    1  C1  UNL     1     -34.924  13.761  -4.382  1.00 20.00     0.127 C 
HETATM    2  O10 UNL     1     -35.049  12.540  -4.435  1.00 20.00    -0.298 OA
ENDROOT
BRANCH   1   3
HETATM    3  C8  UNL     1     -35.506  14.683  -5.442  1.00 20.00     0.082 C 
BRANCH   3   4
HETATM    4  C6  UNL     1     -34.461  15.184  -6.421  1.00 20.00    -0.008 A 
HETATM    5  C2  UNL     1     -34.862  16.057  -7.578  1.00 20.00     0.005 A 
HETATM    6  C3  UNL     1     -34.073  16.637  -6.438  1.00 20.00     0.005 A 
ENDBRANCH   3   4
ENDBRANCH   1   3
BRANCH   1   7
HETATM    7  C9  UNL     1     -34.178  14.452  -3.252  1.00 20.00     0.082 C 
BRANCH   7   8
HETATM    8  C7  UNL     1     -34.840  15.747  -2.818  1.00 20.00    -0.008 A 
HETATM    9  C4  UNL     1     -34.593  16.299  -1.441  1.00 20.00     0.005 A 
HETATM   10  C5  UNL     1     -34.020  16.995  -2.644  1.00 20.00     0.005 A 
ENDBRANCH   7   8
ENDBRANCH   1   7
TORSDOF 4
ENDMDL
MODEL 7
REMARK VINA RESULT:      -4.5     11.183     12.513
REMARK  4 active torsions:
REMARK  status: ('A' for Active; 'I' for Inactive)
REMARK    1  A    between atoms: C1_1  and  C8_8 
REMARK    2  A    between atoms: C1_1  and  C9_9 
REMARK    3  A    between atoms: C6_6  and  C8_8 
REMARK    4  A    between atoms: C7_7  and  C9_9 
ROOT
HETATM    1  C1  UNL     1     -36.574  14.699  -3.913  1.00 20.00     0.127 C 
HETATM    2  O10 UNL     1     -37.650  14.127  -3.747  1.00 20.00    -0.298 OA
ENDROOT
BRANCH   1   3
HETATM    3  C8  UNL     1     -36.162  15.906  -3.087  1.00 20.00     0.082 C 
BRANCH   3   4
HETATM    4  C6  UNL     1     -34.921  15.650  -2.252  1.00 20.00    -0.008 A 
HETATM    5  C2  UNL     1     -33.749  16.589  -2.327  1.00 20.00     0.005 A 
HETATM    6  C3  UNL     1     -34.595  16.542  -1.086  1.00 20.00     0.005 A 
ENDBRANCH   3   4
ENDBRANCH   1   3
BRANCH   1   7
HETATM    7  C9  UNL     1     -35.566  14.245  -4.956  1.00 20.00     0.082 C 
BRANCH   7   8
HETATM    8  C7  UNL     1     -35.337  15.282  -6.040  1.00 20.00    -0.008 A 
HETATM    9  C4  UNL     1     -34.001  15.961  -6.167  1.00 20.00     0.005 A 
HETATM   10  C5  UNL     1     -34.442  14.970  -7.208  1.00 20.00     0.005 A 
ENDBRANCH   7   8
ENDBRANCH   1   7
TORSDOF 4
ENDMDL
MODEL 8
REMARK VINA RESULT:      -4.5     11.216     12.100
REMARK  4 active torsions:
REMARK  status: ('A' for Active; 'I' for Inactive)
REMARK    1  A    between atoms: C1_1  and  C8_8 
REMARK    2  A    between atoms: C1_1  and  C9_9 
REMARK    3  A    between atoms: C6_6  and  C8_8 
REMARK    4  A    between atoms: C7_7  and  C9_9 
ROOT
HETATM    1  C1  UNL     1     -36.636  14.709  -3.885  1.00 20.00     0.127 C 
HETATM    2  O10 UNL     1     -37.725  14.156  -3.742  1.00 20.00    -0.298 OA
ENDROOT
BRANCH   1   3
HETATM    3  C8  UNL     1     -35.616  14.239  -4.909  1.00 20.00     0.082 C 
BRANCH   3   4
HETATM    4  C6  UNL     1     -35.375  15.259  -6.007  1.00 20.00    -0.008 A 
HETATM    5  C2  UNL     1     -34.016  15.879  -6.181  1.00 20.00     0.005 A 
HETATM    6  C3  UNL     1     -34.533  14.902  -7.200  1.00 20.00     0.005 A 
ENDBRANCH   3   4
ENDBRANCH   1   3
BRANCH   1   7
HETATM    7  C9  UNL     1     -36.220  15.908  -3.049  1.00 20.00     0.082 C 
BRANCH   7   8
HETATM    8  C7  UNL     1     -34.934  15.670  -2.280  1.00 20.00    -0.008 A 
HETATM    9  C4  UNL     1     -33.803  16.657  -2.371  1.00 20.00     0.005 A 
HETATM   10  C5  UNL     1     -34.589  16.530  -1.096  1.00 20.00     0.005 A 
ENDBRANCH   7   8
ENDBRANCH   1   7
TORSDOF 4
ENDMDL
MODEL 9
REMARK VINA RESULT:      -4.5     10.984     12.213
REMARK  4 active torsions:
REMARK  status: ('A' for Active; 'I' for Inactive)
REMARK    1  A    between atoms: C1_1  and  C8_8 
REMARK    2  A    between atoms: C1_1  and  C9_9 
REMARK    3  A    between atoms: C6_6  and  C8_8 
REMARK    4  A    between atoms: C7_7  and  C9_9 
ROOT
HETATM    1  C1  UNL     1     -33.895  16.834  -4.471  1.00 20.00     0.127 C 
HETATM    2  O10 UNL     1     -32.918  16.976  -5.203  1.00 20.00    -0.298 OA
ENDROOT
BRANCH   1   3
HETATM    3  C8  UNL     1     -34.094  17.666  -3.214  1.00 20.00     0.082 C 
BRANCH   3   4
HETATM    4  C6  UNL     1     -33.694  16.924  -1.951  1.00 20.00    -0.008 A 
HETATM    5  C2  UNL     1     -33.768  17.609  -0.614  1.00 20.00     0.005 A 
HETATM    6  C3  UNL     1     -34.739  16.513  -0.952  1.00 20.00     0.005 A 
ENDBRANCH   3   4
ENDBRANCH   1   3
BRANCH   1   7
HETATM    7  C9  UNL     1     -34.986  15.817  -4.761  1.00 20.00     0.082 C 
BRANCH   7   8
HETATM    8  C7  UNL     1     -34.441  14.417  -4.976  1.00 20.00    -0.008 A 
HETATM    9  C4  UNL     1     -33.668  13.730  -3.885  1.00 20.00     0.005 A 
HETATM   10  C5  UNL     1     -35.045  13.249  -4.247  1.00 20.00     0.005 A 
ENDBRANCH   7   8
ENDBRANCH   1   7
TORSDOF 4
ENDMDL
