MODEL 1
REMARK VINA RESULT:      -5.0      0.000      0.000
REMARK  3 active torsions:
REMARK  status: ('A' for Active; 'I' for Inactive)
REMARK    1  A    between atoms: C2_2  and  C6_6 
REMARK    2  A    between atoms: C3_3  and  C6_6 
REMARK    3  A    between atoms: C3_3  and  C7_7 
ROOT
HETATM    1  C3  UNL     1     -32.737   6.341   3.423  1.00 20.00     0.240 C 
HETATM    2  O8  UNL     1     -32.085   5.300   3.340  1.00 20.00    -0.287 OA
ENDROOT
BRANCH   1   3
HETATM    3  C6  UNL     1     -34.140   6.379   4.022  1.00 20.00     0.088 C 
HETATM    4  C5  UNL     1     -35.023   5.440   3.199  1.00 20.00     0.023 C 
BRANCH   3   5
HETATM    5  C2  UNL     1     -34.035   6.095   5.510  1.00 20.00    -0.082 C 
HETATM    6  C1  UNL     1     -33.531   6.953   6.413  1.00 20.00     0.014 C 
HETATM    7  C4  UNL     1     -34.563   4.755   5.955  1.00 20.00     0.043 C 
ENDBRANCH   3   5
ENDBRANCH   1   3
BRANCH   1   8
HETATM    8  C7  UNL     1     -32.166   7.649   2.956  1.00 20.00     0.451 C 
HETATM    9  F9  UNL     1     -31.232   8.126   3.817  1.00 20.00    -0.163 F 
HETATM   10  F10 UNL     1     -33.117   8.610   2.836  1.00 20.00    -0.163 F 
HETATM   11  F11 UNL     1     -31.567   7.536   1.744  1.00 20.00    -0.163 F 
ENDBRANCH   1   8
TORSDOF 3
ENDMDL
MODEL 2
REMARK VINA RESULT:      -5.0      0.061      1.143
REMARK  3 active torsions:
REMARK  status: ('A' for Active; 'I' for Inactive)
REMARK    1  A    between atoms: C2_2  and  C6_6 
REMARK    2  A    between atoms: C3_3  and  C6_6 
REMARK    3  A    between atoms: C3_3  and  C7_7 
ROOT
HETATM    1  C3  UNL     1     -32.790   6.319   3.408  1.00 20.00     0.240 C 
HETATM    2  O8  UNL     1     -32.182   5.257   3.278  1.00 20.00    -0.287 OA
ENDROOT
BRANCH   1   3
HETATM    3  C6  UNL     1     -34.176   6.393   4.043  1.00 20.00     0.088 C 
HETATM    4  C5  UNL     1     -35.106   5.485   3.238  1.00 20.00     0.023 C 
BRANCH   3   5
HETATM    5  C2  UNL     1     -34.041   6.096   5.526  1.00 20.00    -0.082 C 
HETATM    6  C1  UNL     1     -33.544   6.956   6.431  1.00 20.00     0.014 C 
HETATM    7  C4  UNL     1     -34.529   4.739   5.964  1.00 20.00     0.043 C 
ENDBRANCH   3   5
ENDBRANCH   1   3
BRANCH   1   8
HETATM    8  C7  UNL     1     -32.180   7.619   2.965  1.00 20.00     0.451 C 
HETATM    9  F9  UNL     1     -33.114   8.594   2.834  1.00 20.00    -0.163 F 
HETATM   10  F10 UNL     1     -31.555   7.509   1.767  1.00 20.00    -0.163 F 
HETATM   11  F11 UNL     1     -31.257   8.071   3.851  1.00 20.00    -0.163 F 
ENDBRANCH   1   8
TORSDOF 3
ENDMDL
MODEL 3
REMARK VINA RESULT:      -4.5      1.407      2.329
REMARK  3 active torsions:
REMARK  status: ('A' for Active; 'I' for Inactive)
REMARK    1  A    between atoms: C2_2  and  C6_6 
REMARK    2  A    between atoms: C3_3  and  C6_6 
REMARK    3  A    between atoms: C3_3  and  C7_7 
ROOT
HETATM    1  C3  UNL     1     -33.507   6.919   4.038  1.00 20.00     0.240 C 
HETATM    2  O8  UNL     1     -34.444   7.593   3.608  1.00 20.00    -0.287 OA
ENDROOT
BRANCH   1   3
HETATM    3  C6  UNL     1     -33.627   6.064   5.296  1.00 20.00     0.088 C 
HETATM    4  C5  UNL     1     -33.722   7.010   6.495  1.00 20.00     0.023 C 
BRANCH   3   5
HETATM    5  C2  UNL     1     -34.770   5.083   5.103  1.00 20.00    -0.082 C 
HETATM    6  C1  UNL     1     -35.446   4.921   3.953  1.00 20.00     0.014 C 
HETATM    7  C4  UNL     1     -35.116   4.244   6.306  1.00 20.00     0.043 C 
ENDBRANCH   3   5
ENDBRANCH   1   3
BRANCH   1   8
HETATM    8  C7  UNL     1     -32.188   6.884   3.320  1.00 20.00     0.451 C 
HETATM    9  F9  UNL     1     -31.722   5.617   3.187  1.00 20.00    -0.163 F 
HETATM   10  F10 UNL     1     -31.231   7.588   3.973  1.00 20.00    -0.163 F 
HETATM   11  F11 UNL     1     -32.278   7.407   2.071  1.00 20.00    -0.163 F 
ENDBRANCH   1   8
TORSDOF 3
ENDMDL
MODEL 4
REMARK VINA RESULT:      -4.4     10.870     12.223
REMARK  3 active torsions:
REMARK  status: ('A' for Active; 'I' for Inactive)
REMARK    1  A    between atoms: C2_2  and  C6_6 
REMARK    2  A    between atoms: C3_3  and  C6_6 
REMARK    3  A    between atoms: C3_3  and  C7_7 
ROOT
HETATM    1  C3  UNL     1     -34.424  13.847  -4.885  1.00 20.00     0.240 C 
HETATM    2  O8  UNL     1     -34.769  12.668  -4.969  1.00 20.00    -0.287 OA
ENDROOT
BRANCH   1   3
HETATM    3  C6  UNL     1     -34.939  14.918  -5.842  1.00 20.00     0.088 C 
HETATM    4  C5  UNL     1     -35.279  14.235  -7.168  1.00 20.00     0.023 C 
BRANCH   3   5
HETATM    5  C2  UNL     1     -36.060  15.677  -5.153  1.00 20.00    -0.082 C 
HETATM    6  C1  UNL     1     -37.249  15.144  -4.827  1.00 20.00     0.014 C 
HETATM    7  C4  UNL     1     -35.760  17.115  -4.817  1.00 20.00     0.043 C 
ENDBRANCH   3   5
ENDBRANCH   1   3
BRANCH   1   8
HETATM    8  C7  UNL     1     -33.483  14.301  -3.806  1.00 20.00     0.451 C 
HETATM    9  F9  UNL     1     -34.145  14.630  -2.668  1.00 20.00    -0.163 F 
HETATM   10  F10 UNL     1     -32.768  15.393  -4.175  1.00 20.00    -0.163 F 
HETATM   11  F11 UNL     1     -32.586  13.337  -3.477  1.00 20.00    -0.163 F 
ENDBRANCH   1   8
TORSDOF 3
ENDMDL
MODEL 5
REMARK VINA RESULT:      -4.4      3.283      4.358
REMARK  3 active torsions:
REMARK  status: ('A' for Active; 'I' for Inactive)
REMARK    1  A    between atoms: C2_2  and  C6_6 
REMARK    2  A    between atoms: C3_3  and  C6_6 
REMARK    3  A    between atoms: C3_3  and  C7_7 
ROOT
HETATM    1  C3  UNL     1     -34.945   5.522   4.498  1.00 20.00     0.240 C 
HETATM    2  O8  UNL     1     -35.807   5.538   3.620  1.00 20.00    -0.287 OA
ENDROOT
BRANCH   1   3
HETATM    3  C6  UNL     1     -33.965   6.675   4.700  1.00 20.00     0.088 C 
HETATM    4  C5  UNL     1     -33.636   6.750   6.192  1.00 20.00     0.023 C 
BRANCH   3   5
HETATM    5  C2  UNL     1     -32.798   6.486   3.747  1.00 20.00    -0.082 C 
HETATM    6  C1  UNL     1     -32.709   5.497   2.843  1.00 20.00     0.014 C 
HETATM    7  C4  UNL     1     -31.702   7.515   3.851  1.00 20.00     0.043 C 
ENDBRANCH   3   5
ENDBRANCH   1   3
BRANCH   1   8
HETATM    8  C7  UNL     1     -34.827   4.362   5.446  1.00 20.00     0.451 C 
HETATM    9  F9  UNL     1     -35.646   4.504   6.518  1.00 20.00    -0.163 F 
HETATM   10  F10 UNL     1     -33.567   4.220   5.928  1.00 20.00    -0.163 F 
HETATM   11  F11 UNL     1     -35.155   3.188   4.850  1.00 20.00    -0.163 F 
ENDBRANCH   1   8
TORSDOF 3
ENDMDL
MODEL 6
REMARK VINA RESULT:      -4.3     10.900     12.351
REMARK  3 active torsions:
REMARK  status: ('A' for Active; 'I' for Inactive)
REMARK    1  A    between atoms: C2_2  and  C6_6 
REMARK    2  A    between atoms: C3_3  and  C6_6 
REMARK    3  A    between atoms: C3_3  and  C7_7 
ROOT
HETATM    1  C3  UNL     1     -34.809  15.627  -2.849  1.00 20.00     0.240 C 
HETATM    2  O8  UNL     1     -35.951  15.194  -3.009  1.00 20.00    -0.287 OA
ENDROOT
BRANCH   1   3
HETATM    3  C6  UNL     1     -33.649  15.222  -3.754  1.00 20.00     0.088 C 
HETATM    4  C5  UNL     1     -33.616  13.693  -3.813  1.00 20.00     0.023 C 
BRANCH   3   5
HETATM    5  C2  UNL     1     -33.790  15.958  -5.074  1.00 20.00    -0.082 C 
HETATM    6  C1  UNL     1     -33.449  17.243  -5.268  1.00 20.00     0.014 C 
HETATM    7  C4  UNL     1     -34.335  15.141  -6.218  1.00 20.00     0.043 C 
ENDBRANCH   3   5
ENDBRANCH   1   3
BRANCH   1   8
HETATM    8  C7  UNL     1     -34.502  16.610  -1.755  1.00 20.00     0.451 C 
HETATM    9  F9  UNL     1     -35.174  17.776  -1.924  1.00 20.00    -0.163 F 
HETATM   10  F10 UNL     1     -33.183  16.921  -1.702  1.00 20.00    -0.163 F 
HETATM   11  F11 UNL     1     -34.843  16.130  -0.533  1.00 20.00    -0.163 F 
ENDBRANCH   1   8
TORSDOF 3
ENDMDL
MODEL 7
REMARK VINA RESULT:      -4.3      3.397      4.277
REMARK  3 active torsions:
REMARK  status: ('A' for Active; 'I' for Inactive)
REMARK    1  A    between atoms: C2_2  and  C6_6 
REMARK    2  A    between atoms: C3_3  and  C6_6 
REMARK    3  A    between atoms: C3_3  and  C7_7 
ROOT
HETATM    1  C3  UNL     1     -34.242   5.630   5.228  1.00 20.00     0.240 C 
HETATM    2  O8  UNL     1     -33.873   6.641   5.826  1.00 20.00    -0.287 OA
ENDROOT
BRANCH   1   3
HETATM    3  C6  UNL     1     -34.286   5.554   3.704  1.00 20.00     0.088 C 
HETATM    4  C5  UNL     1     -35.679   5.999   3.256  1.00 20.00     0.023 C 
BRANCH   3   5
HETATM    5  C2  UNL     1     -33.105   6.331   3.151  1.00 20.00    -0.082 C 
HETATM    6  C1  UNL     1     -33.167   7.602   2.719  1.00 20.00     0.014 C 
HETATM    7  C4  UNL     1     -31.794   5.588   3.124  1.00 20.00     0.043 C 
ENDBRANCH   3   5
ENDBRANCH   1   3
BRANCH   1   8
HETATM    8  C7  UNL     1     -34.650   4.394   5.978  1.00 20.00     0.451 C 
HETATM    9  F9  UNL     1     -33.661   3.954   6.797  1.00 20.00    -0.163 F 
HETATM   10  F10 UNL     1     -34.958   3.368   5.146  1.00 20.00    -0.163 F 
HETATM   11  F11 UNL     1     -35.741   4.611   6.756  1.00 20.00    -0.163 F 
ENDBRANCH   1   8
TORSDOF 3
ENDMDL
MODEL 8
REMARK VINA RESULT:      -4.2     10.943     11.772
REMARK  3 active torsions:
REMARK  status: ('A' for Active; 'I' for Inactive)
REMARK    1  A    between atoms: C2_2  and  C6_6 
REMARK    2  A    between atoms: C3_3  and  C6_6 
REMARK    3  A    between atoms: C3_3  and  C7_7 
ROOT
HETATM    1  C3  UNL     1     -33.962  15.122  -3.424  1.00 20.00     0.240 C 
HETATM    2  O8  UNL     1     -32.996  15.880  -3.520  1.00 20.00    -0.287 OA
ENDROOT
BRANCH   1   3
HETATM    3  C6  UNL     1     -35.204  15.482  -2.614  1.00 20.00     0.088 C 
HETATM    4  C5  UNL     1     -34.770  16.421  -1.488  1.00 20.00     0.023 C 
BRANCH   3   5
HETATM    5  C2  UNL     1     -36.266  15.998  -3.569  1.00 20.00    -0.082 C 
HETATM    6  C1  UNL     1     -36.117  17.072  -4.362  1.00 20.00     0.014 C 
HETATM    7  C4  UNL     1     -37.547  15.204  -3.607  1.00 20.00     0.043 C 
ENDBRANCH   3   5
ENDBRANCH   1   3
BRANCH   1   8
HETATM    8  C7  UNL     1     -33.976  13.795  -4.130  1.00 20.00     0.451 C 
HETATM    9  F9  UNL     1     -32.844  13.087  -3.892  1.00 20.00    -0.163 F 
HETATM   10  F10 UNL     1     -34.079  13.932  -5.475  1.00 20.00    -0.163 F 
HETATM   11  F11 UNL     1     -35.018  13.022  -3.732  1.00 20.00    -0.163 F 
ENDBRANCH   1   8
TORSDOF 3
ENDMDL
MODEL 9
REMARK VINA RESULT:      -4.2     11.446     13.031
REMARK  3 active torsions:
REMARK  status: ('A' for Active; 'I' for Inactive)
REMARK    1  A    between atoms: C2_2  and  C6_6 
REMARK    2  A    between atoms: C3_3  and  C6_6 
REMARK    3  A    between atoms: C3_3  and  C7_7 
ROOT
HETATM    1  C3  UNL     1     -33.694  15.339  -4.623  1.00 20.00     0.240 C 
HETATM    2  O8  UNL     1     -32.686  16.046  -4.597  1.00 20.00    -0.287 OA
ENDROOT
BRANCH   1   3
HETATM    3  C6  UNL     1     -34.991  15.792  -5.287  1.00 20.00     0.088 C 
HETATM    4  C5  UNL     1     -35.473  17.047  -4.558  1.00 20.00     0.023 C 
BRANCH   3   5
HETATM    5  C2  UNL     1     -34.747  15.916  -6.781  1.00 20.00    -0.082 C 
HETATM    6  C1  UNL     1     -34.659  14.875  -7.625  1.00 20.00     0.014 C 
HETATM    7  C4  UNL     1     -34.624  17.324  -7.304  1.00 20.00     0.043 C 
ENDBRANCH   3   5
ENDBRANCH   1   3
BRANCH   1   8
HETATM    8  C7  UNL     1     -33.690  13.964  -4.017  1.00 20.00     0.451 C 
HETATM    9  F9  UNL     1     -32.458  13.618  -3.564  1.00 20.00    -0.163 F 
HETATM   10  F10 UNL     1     -34.063  13.011  -4.907  1.00 20.00    -0.163 F 
HETATM   11  F11 UNL     1     -34.539  13.874  -2.963  1.00 20.00    -0.163 F 
ENDBRANCH   1   8
TORSDOF 3
ENDMDL
