MODEL 1
REMARK VINA RESULT:      -4.2      0.000      0.000
REMARK  1 active torsions:
REMARK  status: ('A' for Active; 'I' for Inactive)
REMARK    1  A    between atoms: C6_6  and  O8_8 
ROOT
HETATM    1  C1  UNL     1     -34.055  16.685  -1.679  1.00 20.00     0.015 C 
HETATM    2  C2  UNL     1     -33.882  16.020  -2.664  1.00 20.00    -0.077 C 
HETATM    3  C3  UNL     1     -34.834  15.263  -4.834  1.00 20.00     0.080 C 
HETATM    4  C4  UNL     1     -34.655  13.979  -5.619  1.00 20.00     0.171 C 
HETATM    5  C5  UNL     1     -33.580  13.722  -3.562  1.00 20.00     0.219 C 
HETATM    6  C6  UNL     1     -33.672  15.209  -3.864  1.00 20.00     0.143 C 
HETATM    7  O7  UNL     1     -34.079  13.025  -4.718  1.00 20.00    -0.387 OA
ENDROOT
BRANCH   6   8
HETATM    8  O8  UNL     1     -32.474  15.615  -4.523  1.00 20.00    -0.375 OA
HETATM    9  H16 UNL     1     -31.758  15.049  -4.187  1.00 20.00     0.211 HD
ENDBRANCH   6   8
TORSDOF 1
ENDMDL
MODEL 2
REMARK VINA RESULT:      -3.8      1.734      2.300
REMARK  1 active torsions:
REMARK  status: ('A' for Active; 'I' for Inactive)
REMARK    1  A    between atoms: C6_6  and  O8_8 
ROOT
HETATM    1  C1  UNL     1     -34.422  16.638  -1.172  1.00 20.00     0.015 C 
HETATM    2  C2  UNL     1     -34.808  15.991  -2.108  1.00 20.00    -0.077 C 
HETATM    3  C3  UNL     1     -34.454  13.956  -3.493  1.00 20.00     0.080 C 
HETATM    4  C4  UNL     1     -34.727  13.674  -4.956  1.00 20.00     0.171 C 
HETATM    5  C5  UNL     1     -35.134  15.941  -4.571  1.00 20.00     0.219 C 
HETATM    6  C6  UNL     1     -35.277  15.205  -3.249  1.00 20.00     0.143 C 
HETATM    7  O7  UNL     1     -34.926  14.944  -5.589  1.00 20.00    -0.387 OA
ENDROOT
BRANCH   6   8
HETATM    8  O8  UNL     1     -36.646  14.853  -3.069  1.00 20.00    -0.375 OA
HETATM    9  H16 UNL     1     -37.173  15.475  -3.598  1.00 20.00     0.211 HD
ENDBRANCH   6   8
TORSDOF 1
ENDMDL
MODEL 3
REMARK VINA RESULT:      -3.8     11.942     13.124
REMARK  1 active torsions:
REMARK  status: ('A' for Active; 'I' for Inactive)
REMARK    1  A    between atoms: C6_6  and  O8_8 
ROOT
HETATM    1  C1  UNL     1     -32.383   6.623   2.983  1.00 20.00     0.015 C 
HETATM    2  C2  UNL     1     -33.302   6.149   3.594  1.00 20.00    -0.077 C 
HETATM    3  C3  UNL     1     -34.357   5.851   5.827  1.00 20.00     0.080 C 
HETATM    4  C4  UNL     1     -35.205   4.732   6.398  1.00 20.00     0.171 C 
HETATM    5  C5  UNL     1     -34.435   4.053   4.300  1.00 20.00     0.219 C 
HETATM    6  C6  UNL     1     -34.422   5.573   4.339  1.00 20.00     0.143 C 
HETATM    7  O7  UNL     1     -35.037   3.605   5.529  1.00 20.00    -0.387 OA
ENDROOT
BRANCH   6   8
HETATM    8  O8  UNL     1     -35.657   6.052   3.812  1.00 20.00    -0.375 OA
HETATM    9  H16 UNL     1     -35.528   6.989   3.591  1.00 20.00     0.211 HD
ENDBRANCH   6   8
TORSDOF 1
ENDMDL
MODEL 4
REMARK VINA RESULT:      -3.7      1.410      3.321
REMARK  1 active torsions:
REMARK  status: ('A' for Active; 'I' for Inactive)
REMARK    1  A    between atoms: C6_6  and  O8_8 
ROOT
HETATM    1  C1  UNL     1     -34.772  13.043  -4.944  1.00 20.00     0.015 C 
HETATM    2  C2  UNL     1     -34.204  14.001  -4.491  1.00 20.00    -0.077 C 
HETATM    3  C3  UNL     1     -34.170  15.717  -2.692  1.00 20.00     0.080 C 
HETATM    4  C4  UNL     1     -33.678  17.150  -2.677  1.00 20.00     0.171 C 
HETATM    5  C5  UNL     1     -33.548  16.366  -4.873  1.00 20.00     0.219 C 
HETATM    6  C6  UNL     1     -33.513  15.166  -3.941  1.00 20.00     0.143 C 
HETATM    7  O7  UNL     1     -33.521  17.544  -4.045  1.00 20.00    -0.387 OA
ENDROOT
BRANCH   6   8
HETATM    8  O8  UNL     1     -32.152  14.842  -3.666  1.00 20.00    -0.375 OA
HETATM    9  H16 UNL     1     -31.652  14.996  -4.486  1.00 20.00     0.211 HD
ENDBRANCH   6   8
TORSDOF 1
ENDMDL
MODEL 5
REMARK VINA RESULT:      -3.6      1.798      3.144
REMARK  1 active torsions:
REMARK  status: ('A' for Active; 'I' for Inactive)
REMARK    1  A    between atoms: C6_6  and  O8_8 
ROOT
HETATM    1  C1  UNL     1     -38.107  14.745  -3.844  1.00 20.00     0.015 C 
HETATM    2  C2  UNL     1     -36.934  14.516  -3.966  1.00 20.00    -0.077 C 
HETATM    3  C3  UNL     1     -34.650  14.927  -3.073  1.00 20.00     0.080 C 
HETATM    4  C4  UNL     1     -33.297  14.980  -3.753  1.00 20.00     0.171 C 
HETATM    5  C5  UNL     1     -34.931  14.788  -5.411  1.00 20.00     0.219 C 
HETATM    6  C6  UNL     1     -35.506  14.238  -4.116  1.00 20.00     0.143 C 
HETATM    7  O7  UNL     1     -33.550  15.105  -5.158  1.00 20.00    -0.387 OA
ENDROOT
BRANCH   6   8
HETATM    8  O8  UNL     1     -35.276  12.832  -4.076  1.00 20.00    -0.375 OA
HETATM    9  H16 UNL     1     -34.717  12.656  -3.300  1.00 20.00     0.211 HD
ENDBRANCH   6   8
TORSDOF 1
ENDMDL
MODEL 6
REMARK VINA RESULT:      -3.6      1.573      3.521
REMARK  1 active torsions:
REMARK  status: ('A' for Active; 'I' for Inactive)
REMARK    1  A    between atoms: C6_6  and  O8_8 
ROOT
HETATM    1  C1  UNL     1     -34.474  15.115  -6.979  1.00 20.00     0.015 C 
HETATM    2  C2  UNL     1     -34.058  15.453  -5.904  1.00 20.00    -0.077 C 
HETATM    3  C3  UNL     1     -34.365  15.320  -3.439  1.00 20.00     0.080 C 
HETATM    4  C4  UNL     1     -34.042  16.301  -2.330  1.00 20.00     0.171 C 
HETATM    5  C5  UNL     1     -33.648  17.366  -4.371  1.00 20.00     0.219 C 
HETATM    6  C6  UNL     1     -33.551  15.865  -4.595  1.00 20.00     0.143 C 
HETATM    7  O7  UNL     1     -33.822  17.570  -2.957  1.00 20.00    -0.387 OA
ENDROOT
BRANCH   6   8
HETATM    8  O8  UNL     1     -32.188  15.471  -4.453  1.00 20.00    -0.375 OA
HETATM    9  H16 UNL     1     -31.726  16.199  -4.004  1.00 20.00     0.211 HD
ENDBRANCH   6   8
TORSDOF 1
ENDMDL
MODEL 7
REMARK VINA RESULT:      -3.6     12.384     13.293
REMARK  1 active torsions:
REMARK  status: ('A' for Active; 'I' for Inactive)
REMARK    1  A    between atoms: C6_6  and  O8_8 
ROOT
HETATM    1  C1  UNL     1     -40.925   7.366  -0.804  1.00 20.00     0.015 C 
HETATM    2  C2  UNL     1     -41.184   6.211  -1.005  1.00 20.00    -0.077 C 
HETATM    3  C3  UNL     1     -42.224   4.571  -2.560  1.00 20.00     0.080 C 
HETATM    4  C4  UNL     1     -42.922   3.250  -2.309  1.00 20.00     0.171 C 
HETATM    5  C5  UNL     1     -42.482   4.235  -0.238  1.00 20.00     0.219 C 
HETATM    6  C6  UNL     1     -41.499   4.803  -1.250  1.00 20.00     0.143 C 
HETATM    7  O7  UNL     1     -43.233   3.208  -0.912  1.00 20.00    -0.387 OA
ENDROOT
BRANCH   6   8
HETATM    8  O8  UNL     1     -40.307   4.022  -1.214  1.00 20.00    -0.375 OA
HETATM    9  H16 UNL     1     -40.577   3.094  -1.113  1.00 20.00     0.211 HD
ENDBRANCH   6   8
TORSDOF 1
ENDMDL
MODEL 8
REMARK VINA RESULT:      -3.6      2.180      2.836
REMARK  1 active torsions:
REMARK  status: ('A' for Active; 'I' for Inactive)
REMARK    1  A    between atoms: C6_6  and  O8_8 
ROOT
HETATM    1  C1  UNL     1     -32.515  14.360  -3.474  1.00 20.00     0.015 C 
HETATM    2  C2  UNL     1     -33.650  14.225  -3.846  1.00 20.00    -0.077 C 
HETATM    3  C3  UNL     1     -35.259  14.549  -5.715  1.00 20.00     0.080 C 
HETATM    4  C4  UNL     1     -36.750  14.818  -5.724  1.00 20.00     0.171 C 
HETATM    5  C5  UNL     1     -36.015  14.906  -3.509  1.00 20.00     0.219 C 
HETATM    6  C6  UNL     1     -35.031  14.060  -4.299  1.00 20.00     0.143 C 
HETATM    7  O7  UNL     1     -37.100  15.232  -4.398  1.00 20.00    -0.387 OA
ENDROOT
BRANCH   6   8
HETATM    8  O8  UNL     1     -35.419  12.692  -4.193  1.00 20.00    -0.375 OA
HETATM    9  H16 UNL     1     -34.992  12.217  -4.926  1.00 20.00     0.211 HD
ENDBRANCH   6   8
TORSDOF 1
ENDMDL
MODEL 9
REMARK VINA RESULT:      -3.5      1.654      1.680
REMARK  1 active torsions:
REMARK  status: ('A' for Active; 'I' for Inactive)
REMARK    1  A    between atoms: C6_6  and  O8_8 
ROOT
HETATM    1  C1  UNL     1     -33.700  17.944  -4.257  1.00 20.00     0.015 C 
HETATM    2  C2  UNL     1     -33.859  16.774  -4.480  1.00 20.00    -0.077 C 
HETATM    3  C3  UNL     1     -35.465  14.875  -4.481  1.00 20.00     0.080 C 
HETATM    4  C4  UNL     1     -35.266  13.389  -4.262  1.00 20.00     0.171 C 
HETATM    5  C5  UNL     1     -33.235  14.458  -3.830  1.00 20.00     0.219 C 
HETATM    6  C6  UNL     1     -34.051  15.349  -4.752  1.00 20.00     0.143 C 
HETATM    7  O7  UNL     1     -33.971  13.231  -3.670  1.00 20.00    -0.387 OA
ENDROOT
BRANCH   6   8
HETATM    8  O8  UNL     1     -33.695  15.057  -6.101  1.00 20.00    -0.375 OA
HETATM    9  H16 UNL     1     -33.535  15.907  -6.544  1.00 20.00     0.211 HD
ENDBRANCH   6   8
TORSDOF 1
ENDMDL
