MODEL 1
REMARK VINA RESULT:      -4.4      0.000      0.000
REMARK  2 active torsions:
REMARK  status: ('A' for Active; 'I' for Inactive)
REMARK    1  A    between atoms: C1_1  and  C9_9 
REMARK    2  A    between atoms: C9_9  and  N10_10 
ROOT
HETATM    1  C2  UNL     1     -33.836  18.592  -2.106  1.00 20.00     0.003 C 
HETATM    2  C3  UNL     1     -33.758  18.187  -3.573  1.00 20.00     0.030 C 
HETATM    3  C4  UNL     1     -33.697  17.368  -1.206  1.00 20.00     0.030 C 
HETATM    4  C5  UNL     1     -34.748  17.065  -3.893  1.00 20.00     0.273 C 
HETATM    5  C6  UNL     1     -34.688  16.273  -1.602  1.00 20.00     0.273 C 
HETATM    6  N10 UNL     1     -34.535  15.905  -3.018  1.00 20.00     0.099 N 
ENDROOT
BRANCH   6   7
HETATM    7  C9  UNL     1     -35.456  14.824  -3.367  1.00 20.00     0.287 C 
HETATM    8  C8  UNL     1     -36.464  15.258  -4.416  1.00 20.00     0.051 C 
BRANCH   7   9
HETATM    9  C1  UNL     1     -34.618  13.662  -3.876  1.00 20.00     0.155 C 
HETATM   10  C7  UNL     1     -33.128  13.769  -3.676  1.00 20.00     0.093 C 
HETATM   11  O11 UNL     1     -35.118  12.661  -4.389  1.00 20.00    -0.296 OA
ENDBRANCH   7   9
ENDBRANCH   6   7
TORSDOF 2
ENDMDL
MODEL 2
REMARK VINA RESULT:      -4.2      2.285      4.216
REMARK  2 active torsions:
REMARK  status: ('A' for Active; 'I' for Inactive)
REMARK    1  A    between atoms: C1_1  and  C9_9 
REMARK    2  A    between atoms: C9_9  and  N10_10 
ROOT
HETATM    1  C2  UNL     1     -34.523  13.324  -4.603  1.00 20.00     0.003 C 
HETATM    2  C3  UNL     1     -35.740  14.118  -4.143  1.00 20.00     0.030 C 
HETATM    3  C4  UNL     1     -33.311  13.657  -3.740  1.00 20.00     0.030 C 
HETATM    4  C5  UNL     1     -35.429  15.614  -4.060  1.00 20.00     0.273 C 
HETATM    5  C6  UNL     1     -33.078  15.167  -3.669  1.00 20.00     0.273 C 
HETATM    6  N10 UNL     1     -34.276  15.867  -3.184  1.00 20.00     0.099 N 
ENDROOT
BRANCH   6   7
HETATM    7  C9  UNL     1     -34.021  17.303  -3.077  1.00 20.00     0.287 C 
HETATM    8  C8  UNL     1     -35.144  18.124  -3.684  1.00 20.00     0.051 C 
BRANCH   7   9
HETATM    9  C1  UNL     1     -33.860  17.625  -1.600  1.00 20.00     0.155 C 
HETATM   10  C7  UNL     1     -34.616  16.749  -0.634  1.00 20.00     0.093 C 
HETATM   11  O11 UNL     1     -33.121  18.523  -1.196  1.00 20.00    -0.296 OA
ENDBRANCH   7   9
ENDBRANCH   6   7
TORSDOF 2
ENDMDL
MODEL 3
REMARK VINA RESULT:      -4.2      1.652      2.084
REMARK  2 active torsions:
REMARK  status: ('A' for Active; 'I' for Inactive)
REMARK    1  A    between atoms: C1_1  and  C9_9 
REMARK    2  A    between atoms: C9_9  and  N10_10 
ROOT
HETATM    1  C2  UNL     1     -34.492  18.509  -0.454  1.00 20.00     0.003 C 
HETATM    2  C3  UNL     1     -33.489  18.920  -1.526  1.00 20.00     0.030 C 
HETATM    3  C4  UNL     1     -34.550  16.990  -0.332  1.00 20.00     0.030 C 
HETATM    4  C5  UNL     1     -33.763  18.201  -2.848  1.00 20.00     0.273 C 
HETATM    5  C6  UNL     1     -34.789  16.332  -1.692  1.00 20.00     0.273 C 
HETATM    6  N10 UNL     1     -33.768  16.742  -2.667  1.00 20.00     0.099 N 
ENDROOT
BRANCH   6   7
HETATM    7  C9  UNL     1     -33.983  16.068  -3.947  1.00 20.00     0.287 C 
HETATM    8  C8  UNL     1     -33.344  16.824  -5.098  1.00 20.00     0.051 C 
BRANCH   7   9
HETATM    9  C1  UNL     1     -33.392  14.673  -3.828  1.00 20.00     0.155 C 
HETATM   10  C7  UNL     1     -34.304  13.524  -4.178  1.00 20.00     0.093 C 
HETATM   11  O11 UNL     1     -32.221  14.476  -3.505  1.00 20.00    -0.296 OA
ENDBRANCH   7   9
ENDBRANCH   6   7
TORSDOF 2
ENDMDL
MODEL 4
REMARK VINA RESULT:      -4.2      2.134      3.462
REMARK  2 active torsions:
REMARK  status: ('A' for Active; 'I' for Inactive)
REMARK    1  A    between atoms: C1_1  and  C9_9 
REMARK    2  A    between atoms: C9_9  and  N10_10 
ROOT
HETATM    1  C2  UNL     1     -33.995  18.216  -7.000  1.00 20.00     0.003 C 
HETATM    2  C3  UNL     1     -33.811  18.282  -5.489  1.00 20.00     0.030 C 
HETATM    3  C4  UNL     1     -34.888  17.040  -7.379  1.00 20.00     0.030 C 
HETATM    4  C5  UNL     1     -33.340  16.939  -4.927  1.00 20.00     0.273 C 
HETATM    5  C6  UNL     1     -34.384  15.737  -6.757  1.00 20.00     0.273 C 
HETATM    6  N10 UNL     1     -34.264  15.857  -5.296  1.00 20.00     0.099 N 
ENDROOT
BRANCH   6   7
HETATM    7  C9  UNL     1     -33.826  14.590  -4.713  1.00 20.00     0.287 C 
HETATM    8  C8  UNL     1     -32.850  14.801  -3.570  1.00 20.00     0.051 C 
BRANCH   7   9
HETATM    9  C1  UNL     1     -35.069  13.861  -4.229  1.00 20.00     0.155 C 
HETATM   10  C7  UNL     1     -36.179  14.719  -3.676  1.00 20.00     0.093 C 
HETATM   11  O11 UNL     1     -35.196  12.640  -4.316  1.00 20.00    -0.296 OA
ENDBRANCH   7   9
ENDBRANCH   6   7
TORSDOF 2
ENDMDL
MODEL 5
REMARK VINA RESULT:      -4.1      1.429      2.466
REMARK  2 active torsions:
REMARK  status: ('A' for Active; 'I' for Inactive)
REMARK    1  A    between atoms: C1_1  and  C9_9 
REMARK    2  A    between atoms: C9_9  and  N10_10 
ROOT
HETATM    1  C2  UNL     1     -35.805  17.803  -1.536  1.00 20.00     0.003 C 
HETATM    2  C3  UNL     1     -34.825  16.771  -0.992  1.00 20.00     0.030 C 
HETATM    3  C4  UNL     1     -36.592  17.227  -2.708  1.00 20.00     0.030 C 
HETATM    4  C5  UNL     1     -33.948  16.196  -2.106  1.00 20.00     0.273 C 
HETATM    5  C6  UNL     1     -35.659  16.637  -3.767  1.00 20.00     0.273 C 
HETATM    6  N10 UNL     1     -34.767  15.624  -3.184  1.00 20.00     0.099 N 
ENDROOT
BRANCH   6   7
HETATM    7  C9  UNL     1     -33.916  15.037  -4.217  1.00 20.00     0.287 C 
HETATM    8  C8  UNL     1     -32.591  14.555  -3.653  1.00 20.00     0.051 C 
BRANCH   7   9
HETATM    9  C1  UNL     1     -34.686  13.882  -4.836  1.00 20.00     0.155 C 
HETATM   10  C7  UNL     1     -35.127  14.057  -6.267  1.00 20.00     0.093 C 
HETATM   11  O11 UNL     1     -34.910  12.835  -4.228  1.00 20.00    -0.296 OA
ENDBRANCH   7   9
ENDBRANCH   6   7
TORSDOF 2
ENDMDL
MODEL 6
REMARK VINA RESULT:      -4.1      1.888      2.820
REMARK  2 active torsions:
REMARK  status: ('A' for Active; 'I' for Inactive)
REMARK    1  A    between atoms: C1_1  and  C9_9 
REMARK    2  A    between atoms: C9_9  and  N10_10 
ROOT
HETATM    1  C2  UNL     1     -33.791  17.156  -1.982  1.00 20.00     0.003 C 
HETATM    2  C3  UNL     1     -34.819  16.034  -1.902  1.00 20.00     0.030 C 
HETATM    3  C4  UNL     1     -33.759  17.753  -3.384  1.00 20.00     0.030 C 
HETATM    4  C5  UNL     1     -34.602  15.003  -3.011  1.00 20.00     0.273 C 
HETATM    5  C6  UNL     1     -33.576  16.666  -4.446  1.00 20.00     0.273 C 
HETATM    6  N10 UNL     1     -34.620  15.637  -4.336  1.00 20.00     0.099 N 
ENDROOT
BRANCH   6   7
HETATM    7  C9  UNL     1     -34.459  14.632  -5.387  1.00 20.00     0.287 C 
HETATM    8  C8  UNL     1     -34.459  13.222  -4.825  1.00 20.00     0.051 C 
BRANCH   7   9
HETATM    9  C1  UNL     1     -35.604  14.818  -6.369  1.00 20.00     0.155 C 
HETATM   10  C7  UNL     1     -35.274  14.637  -7.829  1.00 20.00     0.093 C 
HETATM   11  O11 UNL     1     -36.755  15.061  -6.006  1.00 20.00    -0.296 OA
ENDBRANCH   7   9
ENDBRANCH   6   7
TORSDOF 2
ENDMDL
MODEL 7
REMARK VINA RESULT:      -4.1      0.825      2.285
REMARK  2 active torsions:
REMARK  status: ('A' for Active; 'I' for Inactive)
REMARK    1  A    between atoms: C1_1  and  C9_9 
REMARK    2  A    between atoms: C9_9  and  N10_10 
ROOT
HETATM    1  C2  UNL     1     -34.180  18.292  -1.458  1.00 20.00     0.003 C 
HETATM    2  C3  UNL     1     -34.839  16.978  -1.058  1.00 20.00     0.030 C 
HETATM    3  C4  UNL     1     -34.358  18.545  -2.951  1.00 20.00     0.030 C 
HETATM    4  C5  UNL     1     -34.365  15.825  -1.944  1.00 20.00     0.273 C 
HETATM    5  C6  UNL     1     -33.900  17.343  -3.777  1.00 20.00     0.273 C 
HETATM    6  N10 UNL     1     -34.601  16.118  -3.365  1.00 20.00     0.099 N 
ENDROOT
BRANCH   6   7
HETATM    7  C9  UNL     1     -34.186  14.988  -4.195  1.00 20.00     0.287 C 
HETATM    8  C8  UNL     1     -32.906  14.350  -3.685  1.00 20.00     0.051 C 
BRANCH   7   9
HETATM    9  C1  UNL     1     -35.325  13.981  -4.191  1.00 20.00     0.155 C 
HETATM   10  C7  UNL     1     -36.723  14.546  -4.182  1.00 20.00     0.093 C 
HETATM   11  O11 UNL     1     -35.133  12.766  -4.235  1.00 20.00    -0.296 OA
ENDBRANCH   7   9
ENDBRANCH   6   7
TORSDOF 2
ENDMDL
MODEL 8
REMARK VINA RESULT:      -4.0      1.741      2.064
REMARK  2 active torsions:
REMARK  status: ('A' for Active; 'I' for Inactive)
REMARK    1  A    between atoms: C1_1  and  C9_9 
REMARK    2  A    between atoms: C9_9  and  N10_10 
ROOT
HETATM    1  C2  UNL     1     -34.716  18.927  -4.279  1.00 20.00     0.003 C 
HETATM    2  C3  UNL     1     -33.541  18.256  -4.982  1.00 20.00     0.030 C 
HETATM    3  C4  UNL     1     -35.447  17.927  -3.391  1.00 20.00     0.030 C 
HETATM    4  C5  UNL     1     -33.980  16.984  -5.709  1.00 20.00     0.273 C 
HETATM    5  C6  UNL     1     -35.826  16.666  -4.168  1.00 20.00     0.273 C 
HETATM    6  N10 UNL     1     -34.643  16.050  -4.788  1.00 20.00     0.099 N 
ENDROOT
BRANCH   6   7
HETATM    7  C9  UNL     1     -35.015  14.820  -5.487  1.00 20.00     0.287 C 
HETATM    8  C8  UNL     1     -34.481  14.795  -6.908  1.00 20.00     0.051 C 
BRANCH   7   9
HETATM    9  C1  UNL     1     -34.456  13.657  -4.684  1.00 20.00     0.155 C 
HETATM   10  C7  UNL     1     -33.295  13.964  -3.773  1.00 20.00     0.093 C 
HETATM   11  O11 UNL     1     -34.943  12.527  -4.731  1.00 20.00    -0.296 OA
ENDBRANCH   7   9
ENDBRANCH   6   7
TORSDOF 2
ENDMDL
MODEL 9
REMARK VINA RESULT:      -4.0      1.729      2.609
REMARK  2 active torsions:
REMARK  status: ('A' for Active; 'I' for Inactive)
REMARK    1  A    between atoms: C1_1  and  C9_9 
REMARK    2  A    between atoms: C9_9  and  N10_10 
ROOT
HETATM    1  C2  UNL     1     -34.381  18.185  -6.699  1.00 20.00     0.003 C 
HETATM    2  C3  UNL     1     -34.598  16.764  -7.204  1.00 20.00     0.030 C 
HETATM    3  C4  UNL     1     -33.670  18.170  -5.350  1.00 20.00     0.030 C 
HETATM    4  C5  UNL     1     -35.288  15.898  -6.149  1.00 20.00     0.273 C 
HETATM    5  C6  UNL     1     -34.390  17.259  -4.354  1.00 20.00     0.273 C 
HETATM    6  N10 UNL     1     -34.533  15.897  -4.888  1.00 20.00     0.099 N 
ENDROOT
BRANCH   6   7
HETATM    7  C9  UNL     1     -35.180  15.028  -3.905  1.00 20.00     0.287 C 
HETATM    8  C8  UNL     1     -36.671  14.900  -4.159  1.00 20.00     0.051 C 
BRANCH   7   9
HETATM    9  C1  UNL     1     -34.503  13.669  -3.988  1.00 20.00     0.155 C 
HETATM   10  C7  UNL     1     -33.049  13.617  -3.596  1.00 20.00     0.093 C 
HETATM   11  O11 UNL     1     -35.108  12.649  -4.314  1.00 20.00    -0.296 OA
ENDBRANCH   7   9
ENDBRANCH   6   7
TORSDOF 2
ENDMDL
