MODEL 1
REMARK VINA RESULT:      -3.9      0.000      0.000
REMARK  2 active torsions:
REMARK  status: ('A' for Active; 'I' for Inactive)
REMARK    1  A    between atoms: C1_1  and  C7_7 
REMARK    2  A    between atoms: C7_7  and  N8_8 
ROOT
HETATM    1  C1  UNL     1     -34.675  15.612  -2.641  1.00 20.00    -0.053 C 
HETATM    2  C2  UNL     1     -34.714  16.268  -1.637  1.00 20.00    -0.021 C 
HETATM    3 BR9  UNL     1     -34.775  17.306  -0.047  1.00 20.00     0.010 Br
ENDROOT
BRANCH   1   4
HETATM    4  C7  UNL     1     -34.629  14.803  -3.876  1.00 20.00     0.214 C 
HETATM    5  C3  UNL     1     -35.946  14.034  -4.044  1.00 20.00     0.063 C 
HETATM    6  C4  UNL     1     -33.454  13.821  -3.813  1.00 20.00     0.063 C 
BRANCH   4   7
HETATM    7  N8  UNL     1     -34.447  15.670  -5.044  1.00 20.00     0.100 N 
HETATM    8  C5  UNL     1     -34.515  14.885  -6.275  1.00 20.00     0.311 C 
HETATM    9  C6  UNL     1     -33.173  16.379  -4.957  1.00 20.00     0.311 C 
ENDBRANCH   4   7
ENDBRANCH   1   4
TORSDOF 2
ENDMDL
MODEL 2
REMARK VINA RESULT:      -3.9      1.222      2.221
REMARK  2 active torsions:
REMARK  status: ('A' for Active; 'I' for Inactive)
REMARK    1  A    between atoms: C1_1  and  C7_7 
REMARK    2  A    between atoms: C7_7  and  N8_8 
ROOT
HETATM    1  C1  UNL     1     -34.426  15.951  -2.311  1.00 20.00    -0.053 C 
HETATM    2  C2  UNL     1     -34.622  16.523  -1.274  1.00 20.00    -0.021 C 
HETATM    3 BR9  UNL     1     -34.934  17.430   0.366  1.00 20.00     0.010 Br
ENDROOT
BRANCH   1   4
HETATM    4  C7  UNL     1     -34.183  15.248  -3.587  1.00 20.00     0.214 C 
HETATM    5  C3  UNL     1     -32.738  14.736  -3.632  1.00 20.00     0.063 C 
HETATM    6  C4  UNL     1     -34.439  16.198  -4.762  1.00 20.00     0.063 C 
BRANCH   4   7
HETATM    7  N8  UNL     1     -35.086  14.100  -3.715  1.00 20.00     0.100 N 
HETATM    8  C5  UNL     1     -34.643  13.223  -4.797  1.00 20.00     0.311 C 
HETATM    9  C6  UNL     1     -36.454  14.553  -3.948  1.00 20.00     0.311 C 
ENDBRANCH   4   7
ENDBRANCH   1   4
TORSDOF 2
ENDMDL
MODEL 3
REMARK VINA RESULT:      -3.4     12.323     13.525
REMARK  2 active torsions:
REMARK  status: ('A' for Active; 'I' for Inactive)
REMARK    1  A    between atoms: C1_1  and  C7_7 
REMARK    2  A    between atoms: C7_7  and  N8_8 
ROOT
HETATM    1  C1  UNL     1     -41.909   4.589  -2.059  1.00 20.00    -0.053 C 
HETATM    2  C2  UNL     1     -41.916   3.525  -2.615  1.00 20.00    -0.021 C 
HETATM    3 BR9  UNL     1     -41.928   1.840  -3.492  1.00 20.00     0.010 Br
ENDROOT
BRANCH   1   4
HETATM    4  C7  UNL     1     -41.897   5.898  -1.375  1.00 20.00     0.214 C 
HETATM    5  C3  UNL     1     -41.804   7.025  -2.411  1.00 20.00     0.063 C 
HETATM    6  C4  UNL     1     -40.707   5.972  -0.412  1.00 20.00     0.063 C 
BRANCH   4   7
HETATM    7  N8  UNL     1     -43.130   6.078  -0.603  1.00 20.00     0.100 N 
HETATM    8  C5  UNL     1     -43.410   7.501  -0.418  1.00 20.00     0.311 C 
HETATM    9  C6  UNL     1     -43.026   5.403   0.687  1.00 20.00     0.311 C 
ENDBRANCH   4   7
ENDBRANCH   1   4
TORSDOF 2
ENDMDL
MODEL 4
REMARK VINA RESULT:      -3.4     12.448     13.646
REMARK  2 active torsions:
REMARK  status: ('A' for Active; 'I' for Inactive)
REMARK    1  A    between atoms: C1_1  and  C7_7 
REMARK    2  A    between atoms: C7_7  and  N8_8 
ROOT
HETATM    1  C1  UNL     1     -41.842   4.028  -1.914  1.00 20.00    -0.053 C 
HETATM    2  C2  UNL     1     -41.696   3.138  -2.706  1.00 20.00    -0.021 C 
HETATM    3 BR9  UNL     1     -41.466   1.728  -3.958  1.00 20.00     0.010 Br
ENDROOT
BRANCH   1   4
HETATM    4  C7  UNL     1     -42.021   5.123  -0.938  1.00 20.00     0.214 C 
HETATM    5  C3  UNL     1     -40.657   5.713  -0.562  1.00 20.00     0.063 C 
HETATM    6  C4  UNL     1     -42.727   4.593   0.314  1.00 20.00     0.063 C 
BRANCH   4   7
HETATM    7  N8  UNL     1     -42.844   6.189  -1.518  1.00 20.00     0.100 N 
HETATM    8  C5  UNL     1     -42.095   6.903  -2.551  1.00 20.00     0.311 C 
HETATM    9  C6  UNL     1     -43.289   7.111  -0.476  1.00 20.00     0.311 C 
ENDBRANCH   4   7
ENDBRANCH   1   4
TORSDOF 2
ENDMDL
MODEL 5
REMARK VINA RESULT:      -3.3      2.707      3.491
REMARK  2 active torsions:
REMARK  status: ('A' for Active; 'I' for Inactive)
REMARK    1  A    between atoms: C1_1  and  C7_7 
REMARK    2  A    between atoms: C7_7  and  N8_8 
ROOT
HETATM    1  C1  UNL     1     -34.246  16.085  -4.804  1.00 20.00    -0.053 C 
HETATM    2  C2  UNL     1     -34.350  16.816  -5.751  1.00 20.00    -0.021 C 
HETATM    3 BR9  UNL     1     -34.513  17.972  -7.249  1.00 20.00     0.010 Br
ENDROOT
BRANCH   1   4
HETATM    4  C7  UNL     1     -34.119  15.188  -3.638  1.00 20.00     0.214 C 
HETATM    5  C3  UNL     1     -34.449  15.956  -2.352  1.00 20.00     0.063 C 
HETATM    6  C4  UNL     1     -32.694  14.629  -3.563  1.00 20.00     0.063 C 
BRANCH   4   7
HETATM    7  N8  UNL     1     -35.052  14.064  -3.758  1.00 20.00     0.100 N 
HETATM    8  C5  UNL     1     -34.688  13.221  -4.895  1.00 20.00     0.311 C 
HETATM    9  C6  UNL     1     -36.421  14.552  -3.898  1.00 20.00     0.311 C 
ENDBRANCH   4   7
ENDBRANCH   1   4
TORSDOF 2
ENDMDL
MODEL 6
REMARK VINA RESULT:      -3.3      2.503      3.043
REMARK  2 active torsions:
REMARK  status: ('A' for Active; 'I' for Inactive)
REMARK    1  A    between atoms: C1_1  and  C7_7 
REMARK    2  A    between atoms: C7_7  and  N8_8 
ROOT
HETATM    1  C1  UNL     1     -36.588  14.872  -4.006  1.00 20.00    -0.053 C 
HETATM    2  C2  UNL     1     -37.776  14.799  -4.153  1.00 20.00    -0.021 C 
HETATM    3 BR9  UNL     1     -39.658  14.682  -4.389  1.00 20.00     0.010 Br
ENDROOT
BRANCH   1   4
HETATM    4  C7  UNL     1     -35.125  14.966  -3.824  1.00 20.00     0.214 C 
HETATM    5  C3  UNL     1     -34.509  13.561  -3.828  1.00 20.00     0.063 C 
HETATM    6  C4  UNL     1     -34.808  15.673  -2.501  1.00 20.00     0.063 C 
BRANCH   4   7
HETATM    7  N8  UNL     1     -34.526  15.737  -4.917  1.00 20.00     0.100 N 
HETATM    8  C5  UNL     1     -34.503  14.945  -6.145  1.00 20.00     0.311 C 
HETATM    9  C6  UNL     1     -33.177  16.166  -4.557  1.00 20.00     0.311 C 
ENDBRANCH   4   7
ENDBRANCH   1   4
TORSDOF 2
ENDMDL
MODEL 7
REMARK VINA RESULT:      -3.3      2.534      3.047
REMARK  2 active torsions:
REMARK  status: ('A' for Active; 'I' for Inactive)
REMARK    1  A    between atoms: C1_1  and  C7_7 
REMARK    2  A    between atoms: C7_7  and  N8_8 
ROOT
HETATM    1  C1  UNL     1     -36.173  14.775  -4.680  1.00 20.00    -0.053 C 
HETATM    2  C2  UNL     1     -37.327  14.889  -4.369  1.00 20.00    -0.021 C 
HETATM    3 BR9  UNL     1     -39.153  15.072  -3.877  1.00 20.00     0.010 Br
ENDROOT
BRANCH   1   4
HETATM    4  C7  UNL     1     -34.753  14.635  -5.060  1.00 20.00     0.214 C 
HETATM    5  C3  UNL     1     -34.598  14.831  -6.574  1.00 20.00     0.063 C 
HETATM    6  C4  UNL     1     -34.240  13.248  -4.656  1.00 20.00     0.063 C 
BRANCH   4   7
HETATM    7  N8  UNL     1     -33.942  15.647  -4.376  1.00 20.00     0.100 N 
HETATM    8  C5  UNL     1     -33.424  16.618  -5.338  1.00 20.00     0.311 C 
HETATM    9  C6  UNL     1     -32.848  15.013  -3.646  1.00 20.00     0.311 C 
ENDBRANCH   4   7
ENDBRANCH   1   4
TORSDOF 2
ENDMDL
MODEL 8
REMARK VINA RESULT:      -3.2     11.237     12.314
REMARK  2 active torsions:
REMARK  status: ('A' for Active; 'I' for Inactive)
REMARK    1  A    between atoms: C1_1  and  C7_7 
REMARK    2  A    between atoms: C7_7  and  N8_8 
ROOT
HETATM    1  C1  UNL     1     -42.226   7.320  -2.848  1.00 20.00    -0.053 C 
HETATM    2  C2  UNL     1     -42.343   8.020  -3.816  1.00 20.00    -0.021 C 
HETATM    3 BR9  UNL     1     -42.531   9.127  -5.348  1.00 20.00     0.010 Br
ENDROOT
BRANCH   1   4
HETATM    4  C7  UNL     1     -42.079   6.457  -1.658  1.00 20.00     0.214 C 
HETATM    5  C3  UNL     1     -43.410   6.387  -0.898  1.00 20.00     0.063 C 
HETATM    6  C4  UNL     1     -40.982   7.013  -0.744  1.00 20.00     0.063 C 
BRANCH   4   7
HETATM    7  N8  UNL     1     -41.703   5.098  -2.060  1.00 20.00     0.100 N 
HETATM    8  C5  UNL     1     -42.891   4.254  -2.170  1.00 20.00     0.311 C 
HETATM    9  C6  UNL     1     -40.755   4.530  -1.105  1.00 20.00     0.311 C 
ENDBRANCH   4   7
ENDBRANCH   1   4
TORSDOF 2
ENDMDL
MODEL 9
REMARK VINA RESULT:      -3.2      2.840      3.727
REMARK  2 active torsions:
REMARK  status: ('A' for Active; 'I' for Inactive)
REMARK    1  A    between atoms: C1_1  and  C7_7 
REMARK    2  A    between atoms: C7_7  and  N8_8 
ROOT
HETATM    1  C1  UNL     1     -34.344  15.595  -5.378  1.00 20.00    -0.053 C 
HETATM    2  C2  UNL     1     -34.460  16.368  -6.289  1.00 20.00    -0.021 C 
HETATM    3 BR9  UNL     1     -34.646  17.592  -7.729  1.00 20.00     0.010 Br
ENDROOT
BRANCH   1   4
HETATM    4  C7  UNL     1     -34.202  14.643  -4.257  1.00 20.00     0.214 C 
HETATM    5  C3  UNL     1     -32.808  14.778  -3.633  1.00 20.00     0.063 C 
HETATM    6  C4  UNL     1     -34.415  13.211  -4.760  1.00 20.00     0.063 C 
BRANCH   4   7
HETATM    7  N8  UNL     1     -35.202  14.924  -3.223  1.00 20.00     0.100 N 
HETATM    8  C5  UNL     1     -36.551  14.810  -3.776  1.00 20.00     0.311 C 
HETATM    9  C6  UNL     1     -34.989  16.254  -2.658  1.00 20.00     0.311 C 
ENDBRANCH   4   7
ENDBRANCH   1   4
TORSDOF 2
ENDMDL
