MODEL 1
REMARK VINA RESULT:      -5.2      0.000      0.000
REMARK  1 active torsions:
REMARK  status: ('A' for Active; 'I' for Inactive)
REMARK    1  A    between atoms: C11_11  and  N13_13 
ROOT
HETATM    1  C1  UNL     1     -34.665  13.620  -5.063  1.00 20.00     0.089 C 
HETATM    2  C11 UNL     1     -34.507  14.911  -5.729  1.00 20.00     0.395 C 
HETATM    3  N12 UNL     1     -34.791  12.593  -4.536  1.00 20.00    -0.195 NA
ENDROOT
BRANCH   2   4
HETATM    4  N13 UNL     1     -33.937  15.903  -4.818  1.00 20.00     0.101 N 
HETATM    5  C7  UNL     1     -34.081  17.255  -5.376  1.00 20.00     0.274 C 
HETATM    6  C6  UNL     1     -33.454  18.309  -4.458  1.00 20.00     0.035 C 
HETATM    7  C9  UNL     1     -34.055  18.234  -3.052  1.00 20.00    -0.007 C 
HETATM    8  C4  UNL     1     -33.401  19.239  -2.098  1.00 20.00     0.005 C 
HETATM    9  C10 UNL     1     -33.923  16.800  -2.510  1.00 20.00     0.018 C 
HETATM   10  C2  UNL     1     -33.995  19.131  -0.694  1.00 20.00     0.000 C 
HETATM   11  C3  UNL     1     -33.923  17.706  -0.152  1.00 20.00     0.000 C 
HETATM   12  C5  UNL     1     -34.546  16.695  -1.113  1.00 20.00     0.007 C 
HETATM   13  C8  UNL     1     -34.557  15.799  -3.489  1.00 20.00     0.278 C 
ENDBRANCH   2   4
TORSDOF 1
ENDMDL
MODEL 2
REMARK VINA RESULT:      -5.0      1.344      2.409
REMARK  1 active torsions:
REMARK  status: ('A' for Active; 'I' for Inactive)
REMARK    1  A    between atoms: C11_11  and  N13_13 
ROOT
HETATM    1  C1  UNL     1     -34.854  15.084  -7.259  1.00 20.00     0.089 C 
HETATM    2  C11 UNL     1     -33.989  16.038  -6.567  1.00 20.00     0.395 C 
HETATM    3  N12 UNL     1     -35.539  14.326  -7.809  1.00 20.00    -0.195 NA
ENDROOT
BRANCH   2   4
HETATM    4  N13 UNL     1     -34.437  16.247  -5.191  1.00 20.00     0.101 N 
HETATM    5  C7  UNL     1     -34.279  15.014  -4.407  1.00 20.00     0.274 C 
HETATM    6  C6  UNL     1     -34.780  15.196  -2.971  1.00 20.00     0.035 C 
HETATM    7  C9  UNL     1     -34.069  16.369  -2.290  1.00 20.00    -0.007 C 
HETATM    8  C4  UNL     1     -34.597  16.610  -0.872  1.00 20.00     0.005 C 
HETATM    9  C10 UNL     1     -34.221  17.635  -3.152  1.00 20.00     0.018 C 
HETATM   10  C2  UNL     1     -33.894  17.800  -0.218  1.00 20.00     0.000 C 
HETATM   11  C3  UNL     1     -33.986  19.058  -1.078  1.00 20.00     0.000 C 
HETATM   12  C5  UNL     1     -33.490  18.817  -2.502  1.00 20.00     0.007 C 
HETATM   13  C8  UNL     1     -33.714  17.372  -4.579  1.00 20.00     0.278 C 
ENDBRANCH   2   4
TORSDOF 1
ENDMDL
MODEL 3
REMARK VINA RESULT:      -4.9      1.229      1.292
REMARK  1 active torsions:
REMARK  status: ('A' for Active; 'I' for Inactive)
REMARK    1  A    between atoms: C11_11  and  N13_13 
ROOT
HETATM    1  C1  UNL     1     -36.408  14.018  -4.342  1.00 20.00     0.089 C 
HETATM    2  C11 UNL     1     -34.973  13.928  -4.604  1.00 20.00     0.395 C 
HETATM    3  N12 UNL     1     -37.548  14.086  -4.134  1.00 20.00    -0.195 NA
ENDROOT
BRANCH   2   4
HETATM    4  N13 UNL     1     -34.267  15.083  -4.049  1.00 20.00     0.101 N 
HETATM    5  C7  UNL     1     -34.427  16.252  -4.926  1.00 20.00     0.274 C 
HETATM    6  C6  UNL     1     -33.661  17.464  -4.388  1.00 20.00     0.035 C 
HETATM    7  C9  UNL     1     -34.099  17.794  -2.958  1.00 20.00    -0.007 C 
HETATM    8  C4  UNL     1     -33.304  18.966  -2.374  1.00 20.00     0.005 C 
HETATM    9  C10 UNL     1     -33.956  16.542  -2.073  1.00 20.00     0.018 C 
HETATM   10  C2  UNL     1     -33.736  19.263  -0.939  1.00 20.00     0.000 C 
HETATM   11  C3  UNL     1     -33.652  18.024  -0.050  1.00 20.00     0.000 C 
HETATM   12  C5  UNL     1     -34.417  16.841  -0.642  1.00 20.00     0.007 C 
HETATM   13  C8  UNL     1     -34.734  15.366  -2.684  1.00 20.00     0.278 C 
ENDBRANCH   2   4
TORSDOF 1
ENDMDL
MODEL 4
REMARK VINA RESULT:      -4.9      2.162      5.379
REMARK  1 active torsions:
REMARK  status: ('A' for Active; 'I' for Inactive)
REMARK    1  A    between atoms: C11_11  and  N13_13 
ROOT
HETATM    1  C1  UNL     1     -32.532  19.169  -0.628  1.00 20.00     0.089 C 
HETATM    2  C11 UNL     1     -33.703  19.054  -1.495  1.00 20.00     0.395 C 
HETATM    3  N12 UNL     1     -31.603  19.262   0.062  1.00 20.00    -0.195 NA
ENDROOT
BRANCH   2   4
HETATM    4  N13 UNL     1     -33.716  17.767  -2.189  1.00 20.00     0.101 N 
HETATM    5  C7  UNL     1     -34.740  16.884  -1.613  1.00 20.00     0.274 C 
HETATM    6  C6  UNL     1     -34.744  15.513  -2.296  1.00 20.00     0.035 C 
HETATM    7  C9  UNL     1     -34.939  15.658  -3.808  1.00 20.00    -0.007 C 
HETATM    8  C4  UNL     1     -34.886  14.304  -4.523  1.00 20.00     0.005 C 
HETATM    9  C10 UNL     1     -33.876  16.616  -4.375  1.00 20.00     0.018 C 
HETATM   10  C2  UNL     1     -35.055  14.471  -6.032  1.00 20.00     0.000 C 
HETATM   11  C3  UNL     1     -34.045  15.457  -6.613  1.00 20.00     0.000 C 
HETATM   12  C5  UNL     1     -34.070  16.800  -5.885  1.00 20.00     0.007 C 
HETATM   13  C8  UNL     1     -33.919  17.961  -3.632  1.00 20.00     0.278 C 
ENDBRANCH   2   4
TORSDOF 1
ENDMDL
MODEL 5
REMARK VINA RESULT:      -4.7      1.617      1.783
REMARK  1 active torsions:
REMARK  status: ('A' for Active; 'I' for Inactive)
REMARK    1  A    between atoms: C11_11  and  N13_13 
ROOT
HETATM    1  C1  UNL     1     -34.670  13.768  -4.835  1.00 20.00     0.089 C 
HETATM    2  C11 UNL     1     -34.195  15.044  -5.365  1.00 20.00     0.395 C 
HETATM    3  N12 UNL     1     -35.046  12.753  -4.415  1.00 20.00    -0.195 NA
ENDROOT
BRANCH   2   4
HETATM    4  N13 UNL     1     -34.605  16.153  -4.504  1.00 20.00     0.101 N 
HETATM    5  C7  UNL     1     -35.997  16.531  -4.783  1.00 20.00     0.274 C 
HETATM    6  C6  UNL     1     -36.437  17.719  -3.923  1.00 20.00     0.035 C 
HETATM    7  C9  UNL     1     -36.244  17.416  -2.434  1.00 20.00    -0.007 C 
HETATM    8  C4  UNL     1     -36.620  18.613  -1.555  1.00 20.00     0.005 C 
HETATM    9  C10 UNL     1     -34.787  16.988  -2.181  1.00 20.00     0.018 C 
HETATM   10  C2  UNL     1     -36.395  18.300  -0.076  1.00 20.00     0.000 C 
HETATM   11  C3  UNL     1     -34.970  17.824   0.196  1.00 20.00     0.000 C 
HETATM   12  C5  UNL     1     -34.577  16.650  -0.700  1.00 20.00     0.007 C 
HETATM   13  C8  UNL     1     -34.412  15.806  -3.089  1.00 20.00     0.278 C 
ENDBRANCH   2   4
TORSDOF 1
ENDMDL
MODEL 6
REMARK VINA RESULT:      -4.7      2.153      5.250
REMARK  1 active torsions:
REMARK  status: ('A' for Active; 'I' for Inactive)
REMARK    1  A    between atoms: C11_11  and  N13_13 
ROOT
HETATM    1  C1  UNL     1     -33.861  17.395  -0.862  1.00 20.00     0.089 C 
HETATM    2  C11 UNL     1     -34.762  16.408  -1.454  1.00 20.00     0.395 C 
HETATM    3  N12 UNL     1     -33.146  18.178  -0.390  1.00 20.00    -0.195 NA
ENDROOT
BRANCH   2   4
HETATM    4  N13 UNL     1     -34.665  16.421  -2.914  1.00 20.00     0.101 N 
HETATM    5  C7  UNL     1     -33.388  15.838  -3.349  1.00 20.00     0.274 C 
HETATM    6  C6  UNL     1     -33.245  15.879  -4.873  1.00 20.00     0.035 C 
HETATM    7  C9  UNL     1     -34.423  15.173  -5.550  1.00 20.00    -0.007 C 
HETATM    8  C4  UNL     1     -34.335  15.253  -7.077  1.00 20.00     0.005 C 
HETATM    9  C10 UNL     1     -35.746  15.780  -5.047  1.00 20.00     0.018 C 
HETATM   10  C2  UNL     1     -35.532  14.567  -7.734  1.00 20.00     0.000 C 
HETATM   11  C3  UNL     1     -36.859  15.114  -7.215  1.00 20.00     0.000 C 
HETATM   12  C5  UNL     1     -36.942  15.067  -5.690  1.00 20.00     0.007 C 
HETATM   13  C8  UNL     1     -35.811  15.720  -3.513  1.00 20.00     0.278 C 
ENDBRANCH   2   4
TORSDOF 1
ENDMDL
MODEL 7
REMARK VINA RESULT:      -4.6      2.287      4.943
REMARK  1 active torsions:
REMARK  status: ('A' for Active; 'I' for Inactive)
REMARK    1  A    between atoms: C11_11  and  N13_13 
ROOT
HETATM    1  C1  UNL     1     -32.524  18.891   0.047  1.00 20.00     0.089 C 
HETATM    2  C11 UNL     1     -33.946  18.566  -0.040  1.00 20.00     0.395 C 
HETATM    3  N12 UNL     1     -31.394  19.149   0.119  1.00 20.00    -0.195 NA
ENDROOT
BRANCH   2   4
HETATM    4  N13 UNL     1     -34.307  18.162  -1.399  1.00 20.00     0.101 N 
HETATM    5  C7  UNL     1     -33.550  18.945  -2.386  1.00 20.00     0.274 C 
HETATM    6  C6  UNL     1     -33.942  18.570  -3.818  1.00 20.00     0.035 C 
HETATM    7  C9  UNL     1     -33.757  17.069  -4.058  1.00 20.00    -0.007 C 
HETATM    8  C4  UNL     1     -34.201  16.657  -5.465  1.00 20.00     0.005 C 
HETATM    9  C10 UNL     1     -34.531  16.277  -2.988  1.00 20.00     0.018 C 
HETATM   10  C2  UNL     1     -34.035  15.153  -5.677  1.00 20.00     0.000 C 
HETATM   11  C3  UNL     1     -34.751  14.343  -4.599  1.00 20.00     0.000 C 
HETATM   12  C5  UNL     1     -34.337  14.769  -3.191  1.00 20.00     0.007 C 
HETATM   13  C8  UNL     1     -34.099  16.718  -1.581  1.00 20.00     0.278 C 
ENDBRANCH   2   4
TORSDOF 1
ENDMDL
MODEL 8
REMARK VINA RESULT:      -4.5     11.366     12.943
REMARK  1 active torsions:
REMARK  status: ('A' for Active; 'I' for Inactive)
REMARK    1  A    between atoms: C11_11  and  N13_13 
ROOT
HETATM    1  C1  UNL     1     -32.155   8.887   0.982  1.00 20.00     0.089 C 
HETATM    2  C11 UNL     1     -31.720   8.130   2.153  1.00 20.00     0.395 C 
HETATM    3  N12 UNL     1     -32.499   9.489   0.051  1.00 20.00    -0.195 NA
ENDROOT
BRANCH   2   4
HETATM    4  N13 UNL     1     -32.825   7.352   2.714  1.00 20.00     0.101 N 
HETATM    5  C7  UNL     1     -32.903   6.033   2.070  1.00 20.00     0.274 C 
HETATM    6  C6  UNL     1     -34.079   5.216   2.610  1.00 20.00     0.035 C 
HETATM    7  C9  UNL     1     -33.990   5.073   4.132  1.00 20.00    -0.007 C 
HETATM    8  C4  UNL     1     -35.189   4.309   4.705  1.00 20.00     0.005 C 
HETATM    9  C10 UNL     1     -33.872   6.467   4.775  1.00 20.00     0.018 C 
HETATM   10  C2  UNL     1     -35.095   4.200   6.226  1.00 20.00     0.000 C 
HETATM   11  C3  UNL     1     -34.926   5.566   6.887  1.00 20.00     0.000 C 
HETATM   12  C5  UNL     1     -33.751   6.346   6.299  1.00 20.00     0.007 C 
HETATM   13  C8  UNL     1     -32.684   7.233   4.172  1.00 20.00     0.278 C 
ENDBRANCH   2   4
TORSDOF 1
ENDMDL
MODEL 9
REMARK VINA RESULT:      -4.4      1.948      5.307
REMARK  1 active torsions:
REMARK  status: ('A' for Active; 'I' for Inactive)
REMARK    1  A    between atoms: C11_11  and  N13_13 
ROOT
HETATM    1  C1  UNL     1     -35.064  18.776  -1.610  1.00 20.00     0.089 C 
HETATM    2  C11 UNL     1     -33.708  18.262  -1.794  1.00 20.00     0.395 C 
HETATM    3  N12 UNL     1     -36.139  19.186  -1.462  1.00 20.00    -0.195 NA
ENDROOT
BRANCH   2   4
HETATM    4  N13 UNL     1     -33.710  17.084  -2.663  1.00 20.00     0.101 N 
HETATM    5  C7  UNL     1     -34.625  16.061  -2.139  1.00 20.00     0.274 C 
HETATM    6  C6  UNL     1     -34.612  14.801  -3.008  1.00 20.00     0.035 C 
HETATM    7  C9  UNL     1     -34.951  15.139  -4.463  1.00 20.00    -0.007 C 
HETATM    8  C4  UNL     1     -34.885  13.903  -5.366  1.00 20.00     0.005 C 
HETATM    9  C10 UNL     1     -34.000  16.238  -4.971  1.00 20.00     0.018 C 
HETATM   10  C2  UNL     1     -35.199  14.265  -6.817  1.00 20.00     0.000 C 
HETATM   11  C3  UNL     1     -34.304  15.389  -7.331  1.00 20.00     0.000 C 
HETATM   12  C5  UNL     1     -34.340  16.614  -6.418  1.00 20.00     0.007 C 
HETATM   13  C8  UNL     1     -34.053  17.461  -4.042  1.00 20.00     0.278 C 
ENDBRANCH   2   4
TORSDOF 1
ENDMDL
