MODEL 1
REMARK VINA RESULT:      -4.5      0.000      0.000
REMARK  2 active torsions:
REMARK  status: ('A' for Active; 'I' for Inactive)
REMARK    1  A    between atoms: C2_2  and  C4_4 
REMARK       I    between atoms: C2_2  and  N6_6 
REMARK    2  A    between atoms: C4_4  and  C5_5 
ROOT
HETATM    1  C1  UNL     1     -32.154   7.673   2.500  1.00 20.00     0.166 C 
HETATM    2  C2  UNL     1     -33.349   6.076   3.412  1.00 20.00     0.244 C 
HETATM    3  N6  UNL     1     -32.189   6.818   3.304  1.00 20.00    -0.199 NA
HETATM    4  O7  UNL     1     -33.847   5.368   2.538  1.00 20.00    -0.271 OA
HETATM    5  S8  UNL     1     -32.070   8.842   1.421  1.00 20.00    -0.055 SA
ENDROOT
BRANCH   2   6
HETATM    6  C4  UNL     1     -33.963   6.185   4.801  1.00 20.00     0.105 C 
BRANCH   6   7
HETATM    7  C5  UNL     1     -35.136   5.235   5.029  1.00 20.00     0.005 C 
HETATM    8  C3  UNL     1     -34.762   4.046   5.903  1.00 20.00     0.005 C 
ENDBRANCH   6   7
ENDBRANCH   2   6
TORSDOF 2
ENDMDL
MODEL 2
REMARK VINA RESULT:      -4.2      1.657      2.017
REMARK  2 active torsions:
REMARK  status: ('A' for Active; 'I' for Inactive)
REMARK    1  A    between atoms: C2_2  and  C4_4 
REMARK       I    between atoms: C2_2  and  N6_6 
REMARK    2  A    between atoms: C4_4  and  C5_5 
ROOT
HETATM    1  C1  UNL     1     -33.096   6.192   3.004  1.00 20.00     0.166 C 
HETATM    2  C2  UNL     1     -34.899   5.236   3.807  1.00 20.00     0.244 C 
HETATM    3  N6  UNL     1     -33.698   5.192   3.125  1.00 20.00    -0.199 NA
HETATM    4  O7  UNL     1     -35.898   5.879   3.486  1.00 20.00    -0.271 OA
HETATM    5  S8  UNL     1     -32.251   7.530   2.818  1.00 20.00    -0.055 SA
ENDROOT
BRANCH   2   6
HETATM    6  C4  UNL     1     -34.886   4.335   5.033  1.00 20.00     0.105 C 
BRANCH   6   7
HETATM    7  C5  UNL     1     -35.009   5.092   6.353  1.00 20.00     0.005 C 
HETATM    8  C3  UNL     1     -34.094   6.307   6.416  1.00 20.00     0.005 C 
ENDBRANCH   6   7
ENDBRANCH   2   6
TORSDOF 2
ENDMDL
MODEL 3
REMARK VINA RESULT:      -4.0      2.644      4.437
REMARK  2 active torsions:
REMARK  status: ('A' for Active; 'I' for Inactive)
REMARK    1  A    between atoms: C2_2  and  C4_4 
REMARK       I    between atoms: C2_2  and  N6_6 
REMARK    2  A    between atoms: C4_4  and  C5_5 
ROOT
HETATM    1  C1  UNL     1     -34.120   6.086   4.793  1.00 20.00     0.166 C 
HETATM    2  C2  UNL     1     -32.579   6.478   3.282  1.00 20.00     0.244 C 
HETATM    3  N6  UNL     1     -33.869   6.592   3.764  1.00 20.00    -0.199 NA
HETATM    4  O7  UNL     1     -31.999   5.434   2.989  1.00 20.00    -0.271 OA
HETATM    5  S8  UNL     1     -34.498   5.413   6.187  1.00 20.00    -0.055 SA
ENDROOT
BRANCH   2   6
HETATM    6  C4  UNL     1     -31.923   7.839   3.096  1.00 20.00     0.105 C 
BRANCH   6   7
HETATM    7  C5  UNL     1     -31.923   8.327   1.650  1.00 20.00     0.005 C 
HETATM    8  C3  UNL     1     -32.476   9.739   1.511  1.00 20.00     0.005 C 
ENDBRANCH   6   7
ENDBRANCH   2   6
TORSDOF 2
ENDMDL
MODEL 4
REMARK VINA RESULT:      -3.8     11.666     11.965
REMARK  2 active torsions:
REMARK  status: ('A' for Active; 'I' for Inactive)
REMARK    1  A    between atoms: C2_2  and  C4_4 
REMARK       I    between atoms: C2_2  and  N6_6 
REMARK    2  A    between atoms: C4_4  and  C5_5 
ROOT
HETATM    1  C1  UNL     1     -34.619  14.751  -6.300  1.00 20.00     0.166 C 
HETATM    2  C2  UNL     1     -34.871  14.021  -4.247  1.00 20.00     0.244 C 
HETATM    3  N6  UNL     1     -34.188  14.741  -5.208  1.00 20.00    -0.199 NA
HETATM    4  O7  UNL     1     -35.076  12.807  -4.252  1.00 20.00    -0.271 OA
HETATM    5  S8  UNL     1     -35.175  14.789  -7.793  1.00 20.00    -0.055 SA
ENDROOT
BRANCH   2   6
HETATM    6  C4  UNL     1     -35.334  14.907  -3.099  1.00 20.00     0.105 C 
BRANCH   6   7
HETATM    7  C5  UNL     1     -34.239  15.814  -2.545  1.00 20.00     0.005 C 
HETATM    8  C3  UNL     1     -34.632  16.465  -1.226  1.00 20.00     0.005 C 
ENDBRANCH   6   7
ENDBRANCH   2   6
TORSDOF 2
ENDMDL
MODEL 5
REMARK VINA RESULT:      -3.6     11.291     11.770
REMARK  2 active torsions:
REMARK  status: ('A' for Active; 'I' for Inactive)
REMARK    1  A    between atoms: C2_2  and  C4_4 
REMARK       I    between atoms: C2_2  and  N6_6 
REMARK    2  A    between atoms: C4_4  and  C5_5 
ROOT
HETATM    1  C1  UNL     1     -37.010  14.826  -4.340  1.00 20.00     0.166 C 
HETATM    2  C2  UNL     1     -35.050  13.872  -4.098  1.00 20.00     0.244 C 
HETATM    3  N6  UNL     1     -35.863  14.878  -4.584  1.00 20.00    -0.199 NA
HETATM    4  O7  UNL     1     -35.126  12.675  -4.373  1.00 20.00    -0.271 OA
HETATM    5  S8  UNL     1     -38.572  14.790  -4.030  1.00 20.00    -0.055 SA
ENDROOT
BRANCH   2   6
HETATM    6  C4  UNL     1     -33.969  14.414  -3.174  1.00 20.00     0.105 C 
BRANCH   6   7
HETATM    7  C5  UNL     1     -34.051  15.922  -2.954  1.00 20.00     0.005 C 
HETATM    8  C3  UNL     1     -34.536  16.283  -1.557  1.00 20.00     0.005 C 
ENDBRANCH   6   7
ENDBRANCH   2   6
TORSDOF 2
ENDMDL
MODEL 6
REMARK VINA RESULT:      -3.5     12.002     12.362
REMARK  2 active torsions:
REMARK  status: ('A' for Active; 'I' for Inactive)
REMARK    1  A    between atoms: C2_2  and  C4_4 
REMARK       I    between atoms: C2_2  and  N6_6 
REMARK    2  A    between atoms: C4_4  and  C5_5 
ROOT
HETATM    1  C1  UNL     1     -33.946  16.056  -5.655  1.00 20.00     0.166 C 
HETATM    2  C2  UNL     1     -33.344  15.614  -3.593  1.00 20.00     0.244 C 
HETATM    3  N6  UNL     1     -33.629  16.499  -4.615  1.00 20.00    -0.199 NA
HETATM    4  O7  UNL     1     -32.447  14.771  -3.585  1.00 20.00    -0.271 OA
HETATM    5  S8  UNL     1     -34.379  15.493  -7.081  1.00 20.00    -0.055 SA
ENDROOT
BRANCH   2   6
HETATM    6  C4  UNL     1     -34.262  15.816  -2.396  1.00 20.00     0.105 C 
BRANCH   6   7
HETATM    7  C5  UNL     1     -33.846  16.975  -1.493  1.00 20.00     0.005 C 
HETATM    8  C3  UNL     1     -34.705  17.076  -0.241  1.00 20.00     0.005 C 
ENDBRANCH   6   7
ENDBRANCH   2   6
TORSDOF 2
ENDMDL
MODEL 7
REMARK VINA RESULT:      -3.5     11.064     12.201
REMARK  2 active torsions:
REMARK  status: ('A' for Active; 'I' for Inactive)
REMARK    1  A    between atoms: C2_2  and  C4_4 
REMARK       I    between atoms: C2_2  and  N6_6 
REMARK    2  A    between atoms: C4_4  and  C5_5 
ROOT
HETATM    1  C1  UNL     1     -34.564  15.502  -2.764  1.00 20.00     0.166 C 
HETATM    2  C2  UNL     1     -34.270  13.772  -4.079  1.00 20.00     0.244 C 
HETATM    3  N6  UNL     1     -35.056  14.558  -3.259  1.00 20.00    -0.199 NA
HETATM    4  O7  UNL     1     -33.257  13.156  -3.749  1.00 20.00    -0.271 OA
HETATM    5  S8  UNL     1     -33.931  16.791  -2.074  1.00 20.00    -0.055 SA
ENDROOT
BRANCH   2   6
HETATM    6  C4  UNL     1     -34.826  13.698  -5.494  1.00 20.00     0.105 C 
BRANCH   6   7
HETATM    7  C5  UNL     1     -34.389  14.857  -6.386  1.00 20.00     0.005 C 
HETATM    8  C3  UNL     1     -35.034  14.810  -7.764  1.00 20.00     0.005 C 
ENDBRANCH   6   7
ENDBRANCH   2   6
TORSDOF 2
ENDMDL
MODEL 8
REMARK VINA RESULT:      -3.4     11.511     12.242
REMARK  2 active torsions:
REMARK  status: ('A' for Active; 'I' for Inactive)
REMARK    1  A    between atoms: C2_2  and  C4_4 
REMARK       I    between atoms: C2_2  and  N6_6 
REMARK    2  A    between atoms: C4_4  and  C5_5 
ROOT
HETATM    1  C1  UNL     1     -33.838  17.135  -4.015  1.00 20.00     0.166 C 
HETATM    2  C2  UNL     1     -33.440  15.043  -3.491  1.00 20.00     0.244 C 
HETATM    3  N6  UNL     1     -33.984  16.283  -3.220  1.00 20.00    -0.199 NA
HETATM    4  O7  UNL     1     -32.246  14.788  -3.647  1.00 20.00    -0.271 OA
HETATM    5  S8  UNL     1     -33.661  18.315  -5.071  1.00 20.00    -0.055 SA
ENDROOT
BRANCH   2   6
HETATM    6  C4  UNL     1     -34.504  13.956  -3.537  1.00 20.00     0.105 C 
BRANCH   6   7
HETATM    7  C5  UNL     1     -34.575  13.224  -4.875  1.00 20.00     0.005 C 
HETATM    8  C3  UNL     1     -34.969  14.143  -6.023  1.00 20.00     0.005 C 
ENDBRANCH   6   7
ENDBRANCH   2   6
TORSDOF 2
ENDMDL
MODEL 9
REMARK VINA RESULT:      -3.3      9.728     10.200
REMARK  2 active torsions:
REMARK  status: ('A' for Active; 'I' for Inactive)
REMARK    1  A    between atoms: C2_2  and  C4_4 
REMARK       I    between atoms: C2_2  and  N6_6 
REMARK    2  A    between atoms: C4_4  and  C5_5 
ROOT
HETATM    1  C1  UNL     1     -41.365   3.901  -2.021  1.00 20.00     0.166 C 
HETATM    2  C2  UNL     1     -41.270   5.401  -0.423  1.00 20.00     0.244 C 
HETATM    3  N6  UNL     1     -40.674   4.596  -1.375  1.00 20.00    -0.199 NA
HETATM    4  O7  UNL     1     -41.916   5.021   0.553  1.00 20.00    -0.271 OA
HETATM    5  S8  UNL     1     -42.271   2.944  -2.916  1.00 20.00    -0.055 SA
ENDROOT
BRANCH   2   6
HETATM    6  C4  UNL     1     -41.004   6.877  -0.683  1.00 20.00     0.105 C 
BRANCH   6   7
HETATM    7  C5  UNL     1     -42.057   7.545  -1.563  1.00 20.00     0.005 C 
HETATM    8  C3  UNL     1     -43.235   8.079  -0.761  1.00 20.00     0.005 C 
ENDBRANCH   6   7
ENDBRANCH   2   6
TORSDOF 2
ENDMDL
