MODEL 1
REMARK VINA RESULT:      -4.6      0.000      0.000
REMARK  0 active torsions:
REMARK  status: ('A' for Active; 'I' for Inactive)
ROOT
HETATM    1  C1  UNL     1     -34.913  13.962  -5.184  1.00 20.00     0.028 C 
HETATM    2  C2  UNL     1     -34.453  15.014  -2.970  1.00 20.00     0.033 C 
HETATM    3  C3  UNL     1     -34.132  17.418  -3.305  1.00 20.00     0.046 C 
HETATM    4  C4  UNL     1     -34.704  14.579  -6.495  1.00 20.00     0.112 C 
HETATM    5  C5  UNL     1     -34.315  14.850  -4.394  1.00 20.00    -0.025 C 
HETATM    6  C6  UNL     1     -34.344  16.253  -2.452  1.00 20.00     0.036 C 
HETATM    7  C7  UNL     1     -33.794  17.267  -4.599  1.00 20.00     0.042 C 
HETATM    8  C8  UNL     1     -33.572  15.897  -5.176  1.00 20.00     0.185 C 
HETATM    9  N9  UNL     1     -34.043  15.698  -6.566  1.00 20.00    -0.286 NA
HETATM   10 CL10 UNL     1     -34.558  16.519  -0.760  1.00 20.00    -0.084 Cl
HETATM   11 CL11 UNL     1     -33.509  18.627  -5.615  1.00 20.00    -0.086 Cl
ENDROOT
TORSDOF 0
ENDMDL
MODEL 2
REMARK VINA RESULT:      -4.4      2.266      3.809
REMARK  0 active torsions:
REMARK  status: ('A' for Active; 'I' for Inactive)
ROOT
HETATM    1  C1  UNL     1     -33.700  18.117  -5.325  1.00 20.00     0.028 C 
HETATM    2  C2  UNL     1     -33.871  15.630  -5.242  1.00 20.00     0.033 C 
HETATM    3  C3  UNL     1     -34.743  14.986  -3.047  1.00 20.00     0.046 C 
HETATM    4  C4  UNL     1     -33.775  19.028  -4.182  1.00 20.00     0.112 C 
HETATM    5  C5  UNL     1     -33.629  16.943  -4.703  1.00 20.00    -0.025 C 
HETATM    6  C6  UNL     1     -34.390  14.688  -4.431  1.00 20.00     0.036 C 
HETATM    7  C7  UNL     1     -34.336  16.131  -2.467  1.00 20.00     0.042 C 
HETATM    8  C8  UNL     1     -33.462  17.098  -3.217  1.00 20.00     0.185 C 
HETATM    9  N9  UNL     1     -33.736  18.533  -2.980  1.00 20.00    -0.286 NA
HETATM   10 CL10 UNL     1     -34.756  13.114  -5.036  1.00 20.00    -0.084 Cl
HETATM   11 CL11 UNL     1     -34.713  16.489  -0.827  1.00 20.00    -0.086 Cl
ENDROOT
TORSDOF 0
ENDMDL
MODEL 3
REMARK VINA RESULT:      -4.4      2.354      3.599
REMARK  0 active torsions:
REMARK  status: ('A' for Active; 'I' for Inactive)
ROOT
HETATM    1  C1  UNL     1     -34.417  16.641  -1.040  1.00 20.00     0.028 C 
HETATM    2  C2  UNL     1     -34.723  14.962  -2.859  1.00 20.00     0.033 C 
HETATM    3  C3  UNL     1     -33.835  15.901  -4.938  1.00 20.00     0.046 C 
HETATM    4  C4  UNL     1     -34.085  18.056  -1.215  1.00 20.00     0.112 C 
HETATM    5  C5  UNL     1     -34.667  16.287  -2.297  1.00 20.00    -0.025 C 
HETATM    6  C6  UNL     1     -34.338  14.789  -4.138  1.00 20.00     0.036 C 
HETATM    7  C7  UNL     1     -33.971  17.170  -4.509  1.00 20.00     0.042 C 
HETATM    8  C8  UNL     1     -34.694  17.470  -3.226  1.00 20.00     0.185 C 
HETATM    9  N9  UNL     1     -34.132  18.570  -2.410  1.00 20.00    -0.286 NA
HETATM   10 CL10 UNL     1     -34.327  13.216  -4.846  1.00 20.00    -0.084 Cl
HETATM   11 CL11 UNL     1     -33.414  18.499  -5.451  1.00 20.00    -0.086 Cl
ENDROOT
TORSDOF 0
ENDMDL
MODEL 4
REMARK VINA RESULT:      -4.3      2.252      2.571
REMARK  0 active torsions:
REMARK  status: ('A' for Active; 'I' for Inactive)
ROOT
HETATM    1  C1  UNL     1     -33.685  13.718  -3.934  1.00 20.00     0.028 C 
HETATM    2  C2  UNL     1     -33.384  15.867  -2.705  1.00 20.00     0.033 C 
HETATM    3  C3  UNL     1     -35.595  16.779  -2.182  1.00 20.00     0.046 C 
HETATM    4  C4  UNL     1     -34.927  13.235  -4.541  1.00 20.00     0.112 C 
HETATM    5  C5  UNL     1     -34.030  14.964  -3.622  1.00 20.00    -0.025 C 
HETATM    6  C6  UNL     1     -34.144  16.751  -2.030  1.00 20.00     0.036 C 
HETATM    7  C7  UNL     1     -36.192  16.097  -3.178  1.00 20.00     0.042 C 
HETATM    8  C8  UNL     1     -35.372  15.340  -4.185  1.00 20.00     0.185 C 
HETATM    9  N9  UNL     1     -35.937  14.049  -4.639  1.00 20.00    -0.286 NA
HETATM   10 CL10 UNL     1     -33.433  17.817  -0.874  1.00 20.00    -0.084 Cl
HETATM   11 CL11 UNL     1     -37.899  16.141  -3.397  1.00 20.00    -0.086 Cl
ENDROOT
TORSDOF 0
ENDMDL
MODEL 5
REMARK VINA RESULT:      -4.3      1.482      3.214
REMARK  0 active torsions:
REMARK  status: ('A' for Active; 'I' for Inactive)
ROOT
HETATM    1  C1  UNL     1     -34.767  13.998  -5.922  1.00 20.00     0.028 C 
HETATM    2  C2  UNL     1     -34.525  16.433  -6.401  1.00 20.00     0.033 C 
HETATM    3  C3  UNL     1     -33.685  17.541  -4.385  1.00 20.00     0.046 C 
HETATM    4  C4  UNL     1     -34.744  13.370  -4.600  1.00 20.00     0.112 C 
HETATM    5  C5  UNL     1     -34.817  15.283  -5.585  1.00 20.00    -0.025 C 
HETATM    6  C6  UNL     1     -33.998  17.523  -5.811  1.00 20.00     0.036 C 
HETATM    7  C7  UNL     1     -34.139  16.568  -3.573  1.00 20.00     0.042 C 
HETATM    8  C8  UNL     1     -35.023  15.476  -4.108  1.00 20.00     0.185 C 
HETATM    9  N9  UNL     1     -34.797  14.126  -3.543  1.00 20.00    -0.286 NA
HETATM   10 CL10 UNL     1     -33.572  18.909  -6.747  1.00 20.00    -0.084 Cl
HETATM   11 CL11 UNL     1     -33.811  16.585  -1.884  1.00 20.00    -0.086 Cl
ENDROOT
TORSDOF 0
ENDMDL
MODEL 6
REMARK VINA RESULT:      -4.2      0.912      1.085
REMARK  0 active torsions:
REMARK  status: ('A' for Active; 'I' for Inactive)
ROOT
HETATM    1  C1  UNL     1     -35.399  14.382  -3.799  1.00 20.00     0.028 C 
HETATM    2  C2  UNL     1     -34.402  15.826  -2.027  1.00 20.00     0.033 C 
HETATM    3  C3  UNL     1     -33.824  17.987  -3.022  1.00 20.00     0.046 C 
HETATM    4  C4  UNL     1     -35.351  14.625  -5.242  1.00 20.00     0.112 C 
HETATM    5  C5  UNL     1     -34.552  15.310  -3.363  1.00 20.00    -0.025 C 
HETATM    6  C6  UNL     1     -34.032  17.112  -1.872  1.00 20.00     0.036 C 
HETATM    7  C7  UNL     1     -33.752  17.478  -4.266  1.00 20.00     0.042 C 
HETATM    8  C8  UNL     1     -33.829  15.994  -4.490  1.00 20.00     0.185 C 
HETATM    9  N9  UNL     1     -34.569  15.560  -5.696  1.00 20.00    -0.286 NA
HETATM   10 CL10 UNL     1     -33.895  17.803  -0.297  1.00 20.00    -0.084 Cl
HETATM   11 CL11 UNL     1     -33.475  18.487  -5.633  1.00 20.00    -0.086 Cl
ENDROOT
TORSDOF 0
ENDMDL
MODEL 7
REMARK VINA RESULT:      -4.2      3.038      3.841
REMARK  0 active torsions:
REMARK  status: ('A' for Active; 'I' for Inactive)
ROOT
HETATM    1  C1  UNL     1     -35.920  14.752  -7.918  1.00 20.00     0.028 C 
HETATM    2  C2  UNL     1     -34.462  14.537  -5.907  1.00 20.00     0.033 C 
HETATM    3  C3  UNL     1     -35.888  14.177  -3.949  1.00 20.00     0.046 C 
HETATM    4  C4  UNL     1     -37.369  14.966  -7.918  1.00 20.00     0.112 C 
HETATM    5  C5  UNL     1     -35.643  14.932  -6.630  1.00 20.00    -0.025 C 
HETATM    6  C6  UNL     1     -34.587  14.194  -4.610  1.00 20.00     0.036 C 
HETATM    7  C7  UNL     1     -36.962  14.737  -4.537  1.00 20.00     0.042 C 
HETATM    8  C8  UNL     1     -36.829  15.441  -5.859  1.00 20.00     0.185 C 
HETATM    9  N9  UNL     1     -37.960  15.267  -6.799  1.00 20.00    -0.286 NA
HETATM   10 CL10 UNL     1     -33.217  13.655  -3.709  1.00 20.00    -0.084 Cl
HETATM   11 CL11 UNL     1     -38.499  14.758  -3.762  1.00 20.00    -0.086 Cl
ENDROOT
TORSDOF 0
ENDMDL
MODEL 8
REMARK VINA RESULT:      -4.1      1.914      2.742
REMARK  0 active torsions:
REMARK  status: ('A' for Active; 'I' for Inactive)
ROOT
HETATM    1  C1  UNL     1     -34.465  17.839  -5.730  1.00 20.00     0.028 C 
HETATM    2  C2  UNL     1     -34.872  17.316  -3.326  1.00 20.00     0.033 C 
HETATM    3  C3  UNL     1     -34.506  14.920  -2.980  1.00 20.00     0.046 C 
HETATM    4  C4  UNL     1     -34.357  16.868  -6.820  1.00 20.00     0.112 C 
HETATM    5  C5  UNL     1     -34.889  17.056  -4.742  1.00 20.00    -0.025 C 
HETATM    6  C6  UNL     1     -34.706  16.278  -2.484  1.00 20.00     0.036 C 
HETATM    7  C7  UNL     1     -34.727  14.625  -4.275  1.00 20.00     0.042 C 
HETATM    8  C8  UNL     1     -35.238  15.675  -5.221  1.00 20.00     0.185 C 
HETATM    9  N9  UNL     1     -34.686  15.630  -6.595  1.00 20.00    -0.286 NA
HETATM   10 CL10 UNL     1     -34.617  16.535  -0.780  1.00 20.00    -0.084 Cl
HETATM   11 CL11 UNL     1     -34.528  13.024  -4.876  1.00 20.00    -0.086 Cl
ENDROOT
TORSDOF 0
ENDMDL
MODEL 9
REMARK VINA RESULT:      -4.1      2.030      2.973
REMARK  0 active torsions:
REMARK  status: ('A' for Active; 'I' for Inactive)
ROOT
HETATM    1  C1  UNL     1     -33.982  14.166  -3.633  1.00 20.00     0.028 C 
HETATM    2  C2  UNL     1     -33.327  16.463  -4.350  1.00 20.00     0.033 C 
HETATM    3  C3  UNL     1     -34.770  17.136  -6.210  1.00 20.00     0.046 C 
HETATM    4  C4  UNL     1     -34.833  13.237  -4.378  1.00 20.00     0.112 C 
HETATM    5  C5  UNL     1     -33.791  15.114  -4.546  1.00 20.00    -0.025 C 
HETATM    6  C6  UNL     1     -33.790  17.428  -5.169  1.00 20.00     0.036 C 
HETATM    7  C7  UNL     1     -35.055  15.864  -6.545  1.00 20.00     0.042 C 
HETATM    8  C8  UNL     1     -34.328  14.721  -5.894  1.00 20.00     0.185 C 
HETATM    9  N9  UNL     1     -35.140  13.516  -5.611  1.00 20.00    -0.286 NA
HETATM   10 CL10 UNL     1     -33.315  19.072  -4.945  1.00 20.00    -0.084 Cl
HETATM   11 CL11 UNL     1     -36.184  15.497  -7.792  1.00 20.00    -0.086 Cl
ENDROOT
TORSDOF 0
ENDMDL
