MODEL 1
REMARK VINA RESULT:      -4.7      0.000      0.000
REMARK  3 active torsions:
REMARK  status: ('A' for Active; 'I' for Inactive)
REMARK    1  A    between atoms: C1_1  and  C6_6 
REMARK    2  A    between atoms: C5_5  and  C7_7 
REMARK    3  A    between atoms: C6_6  and  C7_7 
ROOT
HETATM    1  C2  UNL     1     -35.039   4.745   4.492  1.00 20.00     0.033 C 
HETATM    2  C3  UNL     1     -35.167   4.401   5.961  1.00 20.00     0.168 C 
HETATM    3  C4  UNL     1     -33.994   6.407   5.776  1.00 20.00     0.172 C 
HETATM    4  C5  UNL     1     -33.807   5.622   4.488  1.00 20.00     0.012 C 
HETATM    5  O9  UNL     1     -34.658   5.525   6.695  1.00 20.00    -0.391 OA
ENDROOT
BRANCH   4   6
HETATM    6  C7  UNL     1     -33.668   6.496   3.256  1.00 20.00     0.013 C 
BRANCH   6   7
HETATM    7  C6  UNL     1     -32.212   6.858   2.984  1.00 20.00     0.070 C 
BRANCH   7   8
HETATM    8  C1  UNL     1     -32.061   8.206   2.320  1.00 20.00     0.231 C 
HETATM    9  O8  UNL     1     -31.662   8.380   1.174  1.00 20.00    -0.307 OA
ENDBRANCH   7   8
ENDBRANCH   6   7
ENDBRANCH   4   6
TORSDOF 3
ENDMDL
MODEL 2
REMARK VINA RESULT:      -4.7      0.849      1.392
REMARK  3 active torsions:
REMARK  status: ('A' for Active; 'I' for Inactive)
REMARK    1  A    between atoms: C1_1  and  C6_6 
REMARK    2  A    between atoms: C5_5  and  C7_7 
REMARK    3  A    between atoms: C6_6  and  C7_7 
ROOT
HETATM    1  C2  UNL     1     -33.831   6.223   5.470  1.00 20.00     0.033 C 
HETATM    2  C3  UNL     1     -34.651   5.584   6.570  1.00 20.00     0.168 C 
HETATM    3  C4  UNL     1     -34.946   4.344   4.620  1.00 20.00     0.172 C 
HETATM    4  C5  UNL     1     -34.566   5.762   4.231  1.00 20.00     0.012 C 
HETATM    5  O9  UNL     1     -35.175   4.358   6.037  1.00 20.00    -0.391 OA
ENDROOT
BRANCH   4   6
HETATM    6  C7  UNL     1     -33.751   5.849   2.955  1.00 20.00     0.013 C 
BRANCH   6   7
HETATM    7  C6  UNL     1     -32.332   6.338   3.226  1.00 20.00     0.070 C 
BRANCH   7   8
HETATM    8  C1  UNL     1     -32.104   7.754   2.757  1.00 20.00     0.231 C 
HETATM    9  O8  UNL     1     -31.849   8.076   1.601  1.00 20.00    -0.307 OA
ENDBRANCH   7   8
ENDBRANCH   6   7
ENDBRANCH   4   6
TORSDOF 3
ENDMDL
MODEL 3
REMARK VINA RESULT:      -4.1     11.398     12.382
REMARK  3 active torsions:
REMARK  status: ('A' for Active; 'I' for Inactive)
REMARK    1  A    between atoms: C1_1  and  C6_6 
REMARK    2  A    between atoms: C5_5  and  C7_7 
REMARK    3  A    between atoms: C6_6  and  C7_7 
ROOT
HETATM    1  C2  UNL     1     -34.447  16.728  -0.907  1.00 20.00     0.033 C 
HETATM    2  C3  UNL     1     -33.846  18.096  -0.666  1.00 20.00     0.168 C 
HETATM    3  C4  UNL     1     -33.831  17.683  -2.959  1.00 20.00     0.172 C 
HETATM    4  C5  UNL     1     -33.824  16.348  -2.233  1.00 20.00     0.012 C 
HETATM    5  O9  UNL     1     -33.642  18.692  -1.957  1.00 20.00    -0.391 OA
ENDROOT
BRANCH   4   6
HETATM    6  C7  UNL     1     -34.558  15.246  -2.972  1.00 20.00     0.013 C 
BRANCH   6   7
HETATM    7  C6  UNL     1     -33.591  14.306  -3.685  1.00 20.00     0.070 C 
BRANCH   7   8
HETATM    8  C1  UNL     1     -34.278  13.418  -4.694  1.00 20.00     0.231 C 
HETATM    9  O8  UNL     1     -35.146  12.595  -4.425  1.00 20.00    -0.307 OA
ENDBRANCH   7   8
ENDBRANCH   6   7
ENDBRANCH   4   6
TORSDOF 3
ENDMDL
MODEL 4
REMARK VINA RESULT:      -4.0     11.202     11.862
REMARK  3 active torsions:
REMARK  status: ('A' for Active; 'I' for Inactive)
REMARK    1  A    between atoms: C1_1  and  C6_6 
REMARK    2  A    between atoms: C5_5  and  C7_7 
REMARK    3  A    between atoms: C6_6  and  C7_7 
ROOT
HETATM    1  C2  UNL     1     -35.418  14.669  -3.570  1.00 20.00     0.033 C 
HETATM    2  C3  UNL     1     -35.277  13.434  -4.434  1.00 20.00     0.168 C 
HETATM    3  C4  UNL     1     -33.165  14.022  -3.646  1.00 20.00     0.172 C 
HETATM    4  C5  UNL     1     -34.032  15.269  -3.664  1.00 20.00     0.012 C 
HETATM    5  O9  UNL     1     -33.916  12.994  -4.310  1.00 20.00    -0.391 OA
ENDROOT
BRANCH   4   6
HETATM    6  C7  UNL     1     -33.706  16.257  -2.561  1.00 20.00     0.013 C 
BRANCH   6   7
HETATM    7  C6  UNL     1     -34.786  16.276  -1.484  1.00 20.00     0.070 C 
BRANCH   7   8
HETATM    8  C1  UNL     1     -34.459  17.213  -0.347  1.00 20.00     0.231 C 
HETATM    9  O8  UNL     1     -35.050  17.242   0.727  1.00 20.00    -0.307 OA
ENDBRANCH   7   8
ENDBRANCH   6   7
ENDBRANCH   4   6
TORSDOF 3
ENDMDL
MODEL 5
REMARK VINA RESULT:      -3.9     10.941     12.138
REMARK  3 active torsions:
REMARK  status: ('A' for Active; 'I' for Inactive)
REMARK    1  A    between atoms: C1_1  and  C6_6 
REMARK    2  A    between atoms: C5_5  and  C7_7 
REMARK    3  A    between atoms: C6_6  and  C7_7 
ROOT
HETATM    1  C2  UNL     1     -34.622  15.058  -5.315  1.00 20.00     0.033 C 
HETATM    2  C3  UNL     1     -34.885  13.629  -5.738  1.00 20.00     0.168 C 
HETATM    3  C4  UNL     1     -34.293  13.629  -3.485  1.00 20.00     0.172 C 
HETATM    4  C5  UNL     1     -33.693  14.864  -4.137  1.00 20.00     0.012 C 
HETATM    5  O9  UNL     1     -34.828  12.827  -4.548  1.00 20.00    -0.391 OA
ENDROOT
BRANCH   4   6
HETATM    6  C7  UNL     1     -33.604  16.061  -3.211  1.00 20.00     0.013 C 
BRANCH   6   7
HETATM    7  C6  UNL     1     -34.607  15.964  -2.066  1.00 20.00     0.070 C 
BRANCH   7   8
HETATM    8  C1  UNL     1     -34.277  16.890  -0.921  1.00 20.00     0.231 C 
HETATM    9  O8  UNL     1     -34.908  16.958   0.129  1.00 20.00    -0.307 OA
ENDBRANCH   7   8
ENDBRANCH   6   7
ENDBRANCH   4   6
TORSDOF 3
ENDMDL
MODEL 6
REMARK VINA RESULT:      -3.9      1.307      1.902
REMARK  3 active torsions:
REMARK  status: ('A' for Active; 'I' for Inactive)
REMARK    1  A    between atoms: C1_1  and  C6_6 
REMARK    2  A    between atoms: C5_5  and  C7_7 
REMARK    3  A    between atoms: C6_6  and  C7_7 
ROOT
HETATM    1  C2  UNL     1     -33.609   6.222   5.103  1.00 20.00     0.033 C 
HETATM    2  C3  UNL     1     -34.876   5.413   5.280  1.00 20.00     0.168 C 
HETATM    3  C4  UNL     1     -34.181   5.209   3.066  1.00 20.00     0.172 C 
HETATM    4  C5  UNL     1     -33.638   6.516   3.619  1.00 20.00     0.012 C 
HETATM    5  O9  UNL     1     -35.084   4.693   4.056  1.00 20.00    -0.391 OA
ENDROOT
BRANCH   4   6
HETATM    6  C7  UNL     1     -32.295   6.914   3.037  1.00 20.00     0.013 C 
BRANCH   6   7
HETATM    7  C6  UNL     1     -32.299   8.359   2.549  1.00 20.00     0.070 C 
BRANCH   7   8
HETATM    8  C1  UNL     1     -31.840   8.493   1.117  1.00 20.00     0.231 C 
HETATM    9  O8  UNL     1     -32.485   9.031   0.224  1.00 20.00    -0.307 OA
ENDBRANCH   7   8
ENDBRANCH   6   7
ENDBRANCH   4   6
TORSDOF 3
ENDMDL
MODEL 7
REMARK VINA RESULT:      -3.6     11.690     12.721
REMARK  3 active torsions:
REMARK  status: ('A' for Active; 'I' for Inactive)
REMARK    1  A    between atoms: C1_1  and  C6_6 
REMARK    2  A    between atoms: C5_5  and  C7_7 
REMARK    3  A    between atoms: C6_6  and  C7_7 
ROOT
HETATM    1  C2  UNL     1     -34.680  16.214  -1.639  1.00 20.00     0.033 C 
HETATM    2  C3  UNL     1     -33.935  17.528  -1.533  1.00 20.00     0.168 C 
HETATM    3  C4  UNL     1     -33.836  16.805  -3.746  1.00 20.00     0.172 C 
HETATM    4  C5  UNL     1     -34.031  15.590  -2.855  1.00 20.00     0.012 C 
HETATM    5  O9  UNL     1     -33.586  17.915  -2.871  1.00 20.00    -0.391 OA
ENDROOT
BRANCH   4   6
HETATM    6  C7  UNL     1     -34.847  14.485  -3.498  1.00 20.00     0.013 C 
BRANCH   6   7
HETATM    7  C6  UNL     1     -35.638  14.995  -4.699  1.00 20.00     0.070 C 
BRANCH   7   8
HETATM    8  C1  UNL     1     -37.130  14.934  -4.483  1.00 20.00     0.231 C 
HETATM    9  O8  UNL     1     -37.693  14.173  -3.703  1.00 20.00    -0.307 OA
ENDBRANCH   7   8
ENDBRANCH   6   7
ENDBRANCH   4   6
TORSDOF 3
ENDMDL
MODEL 8
REMARK VINA RESULT:      -3.6     11.313     13.407
REMARK  3 active torsions:
REMARK  status: ('A' for Active; 'I' for Inactive)
REMARK    1  A    between atoms: C1_1  and  C6_6 
REMARK    2  A    between atoms: C5_5  and  C7_7 
REMARK    3  A    between atoms: C6_6  and  C7_7 
ROOT
HETATM    1  C2  UNL     1     -34.878  17.847  -3.528  1.00 20.00     0.033 C 
HETATM    2  C3  UNL     1     -34.204  18.783  -4.508  1.00 20.00     0.168 C 
HETATM    3  C4  UNL     1     -33.247  16.671  -4.735  1.00 20.00     0.172 C 
HETATM    4  C5  UNL     1     -33.813  16.791  -3.331  1.00 20.00     0.012 C 
HETATM    5  O9  UNL     1     -33.339  17.978  -5.323  1.00 20.00    -0.391 OA
ENDROOT
BRANCH   4   6
HETATM    6  C7  UNL     1     -34.332  15.482  -2.767  1.00 20.00     0.013 C 
BRANCH   6   7
HETATM    7  C6  UNL     1     -33.875  14.290  -3.603  1.00 20.00     0.070 C 
BRANCH   7   8
HETATM    8  C1  UNL     1     -35.029  13.496  -4.166  1.00 20.00     0.231 C 
HETATM    9  O8  UNL     1     -34.915  12.464  -4.818  1.00 20.00    -0.307 OA
ENDBRANCH   7   8
ENDBRANCH   6   7
ENDBRANCH   4   6
TORSDOF 3
ENDMDL
MODEL 9
REMARK VINA RESULT:      -3.5     11.638     12.752
REMARK  3 active torsions:
REMARK  status: ('A' for Active; 'I' for Inactive)
REMARK    1  A    between atoms: C1_1  and  C6_6 
REMARK    2  A    between atoms: C5_5  and  C7_7 
REMARK    3  A    between atoms: C6_6  and  C7_7 
ROOT
HETATM    1  C2  UNL     1     -33.704  17.055  -3.642  1.00 20.00     0.033 C 
HETATM    2  C3  UNL     1     -33.232  16.290  -4.860  1.00 20.00     0.168 C 
HETATM    3  C4  UNL     1     -34.391  14.819  -3.473  1.00 20.00     0.172 C 
HETATM    4  C5  UNL     1     -33.842  15.949  -2.619  1.00 20.00     0.012 C 
HETATM    5  O9  UNL     1     -33.817  14.981  -4.779  1.00 20.00    -0.391 OA
ENDROOT
BRANCH   4   6
HETATM    6  C7  UNL     1     -34.721  16.302  -1.435  1.00 20.00     0.013 C 
BRANCH   6   7
HETATM    7  C6  UNL     1     -34.080  17.373  -0.558  1.00 20.00     0.070 C 
BRANCH   7   8
HETATM    8  C1  UNL     1     -35.028  17.919   0.482  1.00 20.00     0.231 C 
HETATM    9  O8  UNL     1     -35.308  17.358   1.536  1.00 20.00    -0.307 OA
ENDBRANCH   7   8
ENDBRANCH   6   7
ENDBRANCH   4   6
TORSDOF 3
ENDMDL
