MODEL 1
REMARK VINA RESULT:      -4.8      0.000      0.000
REMARK  1 active torsions:
REMARK  status: ('A' for Active; 'I' for Inactive)
REMARK    1  A    between atoms: C2_2  and  C6_6 
REMARK       I    between atoms: C2_2  and  N7_7 
ROOT
HETATM    1  C1  UNL     1     -32.274   7.557   2.666  1.00 20.00     0.167 C 
HETATM    2  C2  UNL     1     -33.618   5.980   3.374  1.00 20.00     0.273 C 
HETATM    3  N7  UNL     1     -32.509   6.786   3.520  1.00 20.00    -0.197 NA
HETATM    4  O8  UNL     1     -33.845   5.177   2.474  1.00 20.00    -0.268 OA
HETATM    5  S10 UNL     1     -31.924   8.614   1.528  1.00 20.00    -0.055 SA
ENDROOT
BRANCH   2   6
HETATM    6  C6  UNL     1     -34.631   6.145   4.463  1.00 20.00     0.215 C 
HETATM    7  C4  UNL     1     -33.998   6.223   5.839  1.00 20.00     0.044 C 
HETATM    8  C3  UNL     1     -33.991   4.779   6.279  1.00 20.00     0.029 C 
HETATM    9  C5  UNL     1     -35.270   4.258   5.664  1.00 20.00     0.168 C 
HETATM   10  O9  UNL     1     -35.451   4.973   4.434  1.00 20.00    -0.376 OA
ENDBRANCH   2   6
TORSDOF 1
ENDMDL
MODEL 2
REMARK VINA RESULT:      -4.0     11.950     12.862
REMARK  1 active torsions:
REMARK  status: ('A' for Active; 'I' for Inactive)
REMARK    1  A    between atoms: C2_2  and  C6_6 
REMARK       I    between atoms: C2_2  and  N7_7 
ROOT
HETATM    1  C1  UNL     1     -35.450  14.636  -6.515  1.00 20.00     0.167 C 
HETATM    2  C2  UNL     1     -34.484  13.803  -4.736  1.00 20.00     0.273 C 
HETATM    3  N7  UNL     1     -34.435  14.339  -6.005  1.00 20.00    -0.197 NA
HETATM    4  O8  UNL     1     -35.057  12.779  -4.379  1.00 20.00    -0.268 OA
HETATM    5  S10 UNL     1     -36.808  15.050  -7.238  1.00 20.00    -0.055 SA
ENDROOT
BRANCH   2   6
HETATM    6  C6  UNL     1     -33.738  14.604  -3.715  1.00 20.00     0.215 C 
HETATM    7  C4  UNL     1     -34.659  15.266  -2.709  1.00 20.00     0.044 C 
HETATM    8  C3  UNL     1     -34.922  16.611  -3.341  1.00 20.00     0.029 C 
HETATM    9  C5  UNL     1     -33.599  16.907  -4.011  1.00 20.00     0.168 C 
HETATM   10  O9  UNL     1     -33.064  15.643  -4.430  1.00 20.00    -0.376 OA
ENDBRANCH   2   6
TORSDOF 1
ENDMDL
MODEL 3
REMARK VINA RESULT:      -3.9     11.936     12.733
REMARK  1 active torsions:
REMARK  status: ('A' for Active; 'I' for Inactive)
REMARK    1  A    between atoms: C2_2  and  C6_6 
REMARK       I    between atoms: C2_2  and  N7_7 
ROOT
HETATM    1  C1  UNL     1     -38.452  14.677  -4.005  1.00 20.00     0.167 C 
HETATM    2  C2  UNL     1     -36.352  15.194  -3.664  1.00 20.00     0.273 C 
HETATM    3  N7  UNL     1     -37.370  14.273  -3.790  1.00 20.00    -0.197 NA
HETATM    4  O8  UNL     1     -36.263  16.103  -2.845  1.00 20.00    -0.268 OA
HETATM    5  S10 UNL     1     -39.932  15.188  -4.296  1.00 20.00    -0.055 SA
ENDROOT
BRANCH   2   6
HETATM    6  C6  UNL     1     -35.255  15.019  -4.668  1.00 20.00     0.215 C 
HETATM    7  C4  UNL     1     -34.698  13.609  -4.680  1.00 20.00     0.044 C 
HETATM    8  C3  UNL     1     -33.563  13.697  -3.689  1.00 20.00     0.029 C 
HETATM    9  C5  UNL     1     -33.055  15.102  -3.917  1.00 20.00     0.168 C 
HETATM   10  O9  UNL     1     -34.198  15.895  -4.268  1.00 20.00    -0.376 OA
ENDBRANCH   2   6
TORSDOF 1
ENDMDL
MODEL 4
REMARK VINA RESULT:      -3.8     11.907     12.773
REMARK  1 active torsions:
REMARK  status: ('A' for Active; 'I' for Inactive)
REMARK    1  A    between atoms: C2_2  and  C6_6 
REMARK       I    between atoms: C2_2  and  N7_7 
ROOT
HETATM    1  C1  UNL     1     -37.179  14.794  -4.600  1.00 20.00     0.167 C 
HETATM    2  C2  UNL     1     -35.179  13.926  -4.803  1.00 20.00     0.273 C 
HETATM    3  N7  UNL     1     -36.272  14.591  -5.317  1.00 20.00    -0.197 NA
HETATM    4  O8  UNL     1     -35.151  12.799  -4.317  1.00 20.00    -0.268 OA
HETATM    5  S10 UNL     1     -38.428  15.085  -3.656  1.00 20.00    -0.055 SA
ENDROOT
BRANCH   2   6
HETATM    6  C6  UNL     1     -33.908  14.713  -4.869  1.00 20.00     0.215 C 
HETATM    7  C4  UNL     1     -33.146  14.697  -3.558  1.00 20.00     0.044 C 
HETATM    8  C3  UNL     1     -33.683  15.920  -2.852  1.00 20.00     0.029 C 
HETATM    9  C5  UNL     1     -33.908  16.873  -4.004  1.00 20.00     0.168 C 
HETATM   10  O9  UNL     1     -34.285  16.067  -5.130  1.00 20.00    -0.376 OA
ENDBRANCH   2   6
TORSDOF 1
ENDMDL
MODEL 5
REMARK VINA RESULT:      -3.7     12.257     12.842
REMARK  1 active torsions:
REMARK  status: ('A' for Active; 'I' for Inactive)
REMARK    1  A    between atoms: C2_2  and  C6_6 
REMARK       I    between atoms: C2_2  and  N7_7 
ROOT
HETATM    1  C1  UNL     1     -33.703  17.198  -1.893  1.00 20.00     0.167 C 
HETATM    2  C2  UNL     1     -33.812  16.157  -3.816  1.00 20.00     0.273 C 
HETATM    3  N7  UNL     1     -33.859  16.170  -2.439  1.00 20.00    -0.197 NA
HETATM    4  O8  UNL     1     -32.875  16.489  -4.535  1.00 20.00    -0.268 OA
HETATM    5  S10 UNL     1     -33.496  18.575  -1.120  1.00 20.00    -0.055 SA
ENDROOT
BRANCH   2   6
HETATM    6  C6  UNL     1     -35.076  15.676  -4.457  1.00 20.00     0.215 C 
HETATM    7  C4  UNL     1     -35.633  14.436  -3.786  1.00 20.00     0.044 C 
HETATM    8  C3  UNL     1     -34.992  13.320  -4.575  1.00 20.00     0.029 C 
HETATM    9  C5  UNL     1     -34.939  13.910  -5.966  1.00 20.00     0.168 C 
HETATM   10  O9  UNL     1     -34.738  15.321  -5.801  1.00 20.00    -0.376 OA
ENDBRANCH   2   6
TORSDOF 1
ENDMDL
MODEL 6
REMARK VINA RESULT:      -3.7     11.870     12.573
REMARK  1 active torsions:
REMARK  status: ('A' for Active; 'I' for Inactive)
REMARK    1  A    between atoms: C2_2  and  C6_6 
REMARK       I    between atoms: C2_2  and  N7_7 
ROOT
HETATM    1  C1  UNL     1     -33.758  17.305  -4.013  1.00 20.00     0.167 C 
HETATM    2  C2  UNL     1     -33.373  15.224  -3.449  1.00 20.00     0.273 C 
HETATM    3  N7  UNL     1     -33.897  16.474  -3.195  1.00 20.00    -0.197 NA
HETATM    4  O8  UNL     1     -32.200  14.935  -3.661  1.00 20.00    -0.268 OA
HETATM    5  S10 UNL     1     -33.589  18.456  -5.101  1.00 20.00    -0.055 SA
ENDROOT
BRANCH   2   6
HETATM    6  C6  UNL     1     -34.397  14.133  -3.459  1.00 20.00     0.215 C 
HETATM    7  C4  UNL     1     -34.398  13.348  -4.757  1.00 20.00     0.044 C 
HETATM    8  C3  UNL     1     -35.414  14.094  -5.588  1.00 20.00     0.029 C 
HETATM    9  C5  UNL     1     -36.416  14.529  -4.543  1.00 20.00     0.168 C 
HETATM   10  O9  UNL     1     -35.670  14.772  -3.341  1.00 20.00    -0.376 OA
ENDBRANCH   2   6
TORSDOF 1
ENDMDL
MODEL 7
REMARK VINA RESULT:      -3.7     11.652     12.776
REMARK  1 active torsions:
REMARK  status: ('A' for Active; 'I' for Inactive)
REMARK    1  A    between atoms: C2_2  and  C6_6 
REMARK       I    between atoms: C2_2  and  N7_7 
ROOT
HETATM    1  C1  UNL     1     -33.880  16.324  -2.229  1.00 20.00     0.167 C 
HETATM    2  C2  UNL     1     -33.608  16.246  -4.400  1.00 20.00     0.273 C 
HETATM    3  N7  UNL     1     -33.301  15.830  -3.122  1.00 20.00    -0.197 NA
HETATM    4  O8  UNL     1     -33.514  17.380  -4.860  1.00 20.00    -0.268 OA
HETATM    5  S10 UNL     1     -34.647  16.973  -0.993  1.00 20.00    -0.055 SA
ENDROOT
BRANCH   2   6
HETATM    6  C6  UNL     1     -34.112  15.150  -5.286  1.00 20.00     0.215 C 
HETATM    7  C4  UNL     1     -35.597  15.269  -5.570  1.00 20.00     0.044 C 
HETATM    8  C3  UNL     1     -36.209  14.443  -4.464  1.00 20.00     0.029 C 
HETATM    9  C5  UNL     1     -35.187  13.342  -4.293  1.00 20.00     0.168 C 
HETATM   10  O9  UNL     1     -33.907  13.928  -4.573  1.00 20.00    -0.376 OA
ENDBRANCH   2   6
TORSDOF 1
ENDMDL
MODEL 8
REMARK VINA RESULT:      -3.7     12.444     13.041
REMARK  1 active torsions:
REMARK  status: ('A' for Active; 'I' for Inactive)
REMARK    1  A    between atoms: C2_2  and  C6_6 
REMARK       I    between atoms: C2_2  and  N7_7 
ROOT
HETATM    1  C1  UNL     1     -35.066  17.373   0.251  1.00 20.00     0.167 C 
HETATM    2  C2  UNL     1     -34.077  17.381  -1.703  1.00 20.00     0.273 C 
HETATM    3  N7  UNL     1     -34.465  16.748  -0.540  1.00 20.00    -0.197 NA
HETATM    4  O8  UNL     1     -33.355  18.367  -1.812  1.00 20.00    -0.268 OA
HETATM    5  S10 UNL     1     -35.884  18.190   1.347  1.00 20.00    -0.055 SA
ENDROOT
BRANCH   2   6
HETATM    6  C6  UNL     1     -34.631  16.753  -2.943  1.00 20.00     0.215 C 
HETATM    7  C4  UNL     1     -34.430  15.250  -2.974  1.00 20.00     0.044 C 
HETATM    8  C3  UNL     1     -33.105  15.112  -3.684  1.00 20.00     0.029 C 
HETATM    9  C5  UNL     1     -33.159  16.254  -4.673  1.00 20.00     0.168 C 
HETATM   10  O9  UNL     1     -33.898  17.307  -4.038  1.00 20.00    -0.376 OA
ENDBRANCH   2   6
TORSDOF 1
ENDMDL
MODEL 9
REMARK VINA RESULT:      -3.7     10.320     10.794
REMARK  1 active torsions:
REMARK  status: ('A' for Active; 'I' for Inactive)
REMARK    1  A    between atoms: C2_2  and  C6_6 
REMARK       I    between atoms: C2_2  and  N7_7 
ROOT
HETATM    1  C1  UNL     1     -42.349   2.177  -3.212  1.00 20.00     0.167 C 
HETATM    2  C2  UNL     1     -42.235   4.209  -2.402  1.00 20.00     0.273 C 
HETATM    3  N7  UNL     1     -42.512   2.864  -2.273  1.00 20.00    -0.197 NA
HETATM    4  O8  UNL     1     -42.752   5.007  -3.178  1.00 20.00    -0.268 OA
HETATM    5  S10 UNL     1     -42.138   1.216  -4.464  1.00 20.00    -0.055 SA
ENDROOT
BRANCH   2   6
HETATM    6  C6  UNL     1     -41.175   4.698  -1.466  1.00 20.00     0.215 C 
HETATM    7  C4  UNL     1     -41.600   4.615  -0.012  1.00 20.00     0.044 C 
HETATM    8  C3  UNL     1     -42.217   5.972   0.227  1.00 20.00     0.029 C 
HETATM    9  C5  UNL     1     -41.355   6.864  -0.637  1.00 20.00     0.168 C 
HETATM   10  O9  UNL     1     -40.969   6.079  -1.775  1.00 20.00    -0.376 OA
ENDBRANCH   2   6
TORSDOF 1
ENDMDL
