MODEL 1
REMARK VINA RESULT:      -4.9      0.000      0.000
REMARK  1 active torsions:
REMARK  status: ('A' for Active; 'I' for Inactive)
REMARK    1  A    between atoms: C4_4  and  C5_5 
ROOT
HETATM    1  C1  UNL     1     -35.210   4.963   5.829  1.00 20.00     0.135 A 
HETATM    2  C2  UNL     1     -34.309   5.872   6.340  1.00 20.00     0.136 A 
HETATM    3  C3  UNL     1     -34.361   5.302   3.732  1.00 20.00     0.152 A 
HETATM    4  C4  UNL     1     -33.462   6.211   4.242  1.00 20.00     0.157 A 
HETATM    5  N6  UNL     1     -35.253   4.662   4.515  1.00 20.00    -0.269 NA
HETATM    6  N7  UNL     1     -33.419   6.511   5.556  1.00 20.00    -0.254 NA
ENDROOT
BRANCH   4   7
HETATM    7  C5  UNL     1     -32.492   6.899   3.346  1.00 20.00     0.435 C 
HETATM    8  F8  UNL     1     -33.053   7.883   2.582  1.00 20.00    -0.165 F 
HETATM    9  F9  UNL     1     -31.468   7.511   4.013  1.00 20.00    -0.165 F 
HETATM   10  F10 UNL     1     -31.894   6.047   2.462  1.00 20.00    -0.165 F 
ENDBRANCH   4   7
TORSDOF 1
ENDMDL
MODEL 2
REMARK VINA RESULT:      -4.9      0.856      1.509
REMARK  1 active torsions:
REMARK  status: ('A' for Active; 'I' for Inactive)
REMARK    1  A    between atoms: C4_4  and  C5_5 
ROOT
HETATM    1  C1  UNL     1     -35.190   5.009   5.932  1.00 20.00     0.135 A 
HETATM    2  C2  UNL     1     -35.180   4.712   4.587  1.00 20.00     0.136 A 
HETATM    3  C3  UNL     1     -33.475   6.488   5.619  1.00 20.00     0.152 A 
HETATM    4  C4  UNL     1     -33.463   6.191   4.275  1.00 20.00     0.157 A 
HETATM    5  N6  UNL     1     -34.337   5.902   6.473  1.00 20.00    -0.269 NA
HETATM    6  N7  UNL     1     -34.316   5.298   3.734  1.00 20.00    -0.254 NA
ENDROOT
BRANCH   4   7
HETATM    7  C5  UNL     1     -32.495   6.858   3.361  1.00 20.00     0.435 C 
HETATM    8  F8  UNL     1     -33.061   7.810   2.561  1.00 20.00    -0.165 F 
HETATM    9  F9  UNL     1     -31.479   7.501   4.012  1.00 20.00    -0.165 F 
HETATM   10  F10 UNL     1     -31.884   5.983   2.509  1.00 20.00    -0.165 F 
ENDBRANCH   4   7
TORSDOF 1
ENDMDL
MODEL 3
REMARK VINA RESULT:      -4.9      0.855      1.926
REMARK  1 active torsions:
REMARK  status: ('A' for Active; 'I' for Inactive)
REMARK    1  A    between atoms: C4_4  and  C5_5 
ROOT
HETATM    1  C1  UNL     1     -35.226   4.989   5.903  1.00 20.00     0.135 A 
HETATM    2  C2  UNL     1     -35.209   4.709   4.554  1.00 20.00     0.136 A 
HETATM    3  C3  UNL     1     -33.498   6.460   5.620  1.00 20.00     0.152 A 
HETATM    4  C4  UNL     1     -33.479   6.180   4.272  1.00 20.00     0.157 A 
HETATM    5  N6  UNL     1     -34.371   5.869   6.461  1.00 20.00    -0.269 NA
HETATM    6  N7  UNL     1     -34.336   5.300   3.714  1.00 20.00    -0.254 NA
ENDROOT
BRANCH   4   7
HETATM    7  C5  UNL     1     -32.501   6.851   3.374  1.00 20.00     0.435 C 
HETATM    8  F8  UNL     1     -31.876   6.000   2.506  1.00 20.00    -0.165 F 
HETATM    9  F9  UNL     1     -33.055   7.818   2.582  1.00 20.00    -0.165 F 
HETATM   10  F10 UNL     1     -31.496   7.474   4.059  1.00 20.00    -0.165 F 
ENDBRANCH   4   7
TORSDOF 1
ENDMDL
MODEL 4
REMARK VINA RESULT:      -4.3      9.755     10.706
REMARK  1 active torsions:
REMARK  status: ('A' for Active; 'I' for Inactive)
REMARK    1  A    between atoms: C4_4  and  C5_5 
ROOT
HETATM    1  C1  UNL     1     -43.112   6.931  -3.698  1.00 20.00     0.135 A 
HETATM    2  C2  UNL     1     -42.135   7.590  -2.983  1.00 20.00     0.136 A 
HETATM    3  C3  UNL     1     -42.649   5.005  -2.554  1.00 20.00     0.152 A 
HETATM    4  C4  UNL     1     -41.672   5.663  -1.841  1.00 20.00     0.157 A 
HETATM    5  N6  UNL     1     -43.386   5.626  -3.497  1.00 20.00    -0.269 NA
HETATM    6  N7  UNL     1     -41.399   6.967  -2.042  1.00 20.00    -0.254 NA
ENDROOT
BRANCH   4   7
HETATM    7  C5  UNL     1     -40.878   4.944  -0.808  1.00 20.00     0.435 C 
HETATM    8  F8  UNL     1     -41.640   4.357   0.163  1.00 20.00    -0.165 F 
HETATM    9  F9  UNL     1     -40.109   3.932  -1.312  1.00 20.00    -0.165 F 
HETATM   10  F10 UNL     1     -40.010   5.764  -0.144  1.00 20.00    -0.165 F 
ENDBRANCH   4   7
TORSDOF 1
ENDMDL
MODEL 5
REMARK VINA RESULT:      -4.2     11.404     11.986
REMARK  1 active torsions:
REMARK  status: ('A' for Active; 'I' for Inactive)
REMARK    1  A    between atoms: C4_4  and  C5_5 
ROOT
HETATM    1  C1  UNL     1     -34.955  13.238  -4.574  1.00 20.00     0.135 A 
HETATM    2  C2  UNL     1     -36.043  14.015  -4.243  1.00 20.00     0.136 A 
HETATM    3  C3  UNL     1     -33.631  14.511  -3.212  1.00 20.00     0.152 A 
HETATM    4  C4  UNL     1     -34.718  15.289  -2.882  1.00 20.00     0.157 A 
HETATM    5  N6  UNL     1     -33.729  13.472  -4.065  1.00 20.00    -0.269 NA
HETATM    6  N7  UNL     1     -35.944  15.055  -3.391  1.00 20.00    -0.254 NA
ENDROOT
BRANCH   4   7
HETATM    7  C5  UNL     1     -34.572  16.430  -1.937  1.00 20.00     0.435 C 
HETATM    8  F8  UNL     1     -34.763  16.087  -0.628  1.00 20.00    -0.165 F 
HETATM    9  F9  UNL     1     -33.338  17.018  -1.972  1.00 20.00    -0.165 F 
HETATM   10  F10 UNL     1     -35.462  17.437  -2.183  1.00 20.00    -0.165 F 
ENDBRANCH   4   7
TORSDOF 1
ENDMDL
MODEL 6
REMARK VINA RESULT:      -4.2      2.930      3.686
REMARK  1 active torsions:
REMARK  status: ('A' for Active; 'I' for Inactive)
REMARK    1  A    between atoms: C4_4  and  C5_5 
ROOT
HETATM    1  C1  UNL     1     -33.141   6.233   2.498  1.00 20.00     0.135 A 
HETATM    2  C2  UNL     1     -32.555   6.757   3.629  1.00 20.00     0.136 A 
HETATM    3  C3  UNL     1     -34.625   5.080   3.801  1.00 20.00     0.152 A 
HETATM    4  C4  UNL     1     -34.039   5.603   4.932  1.00 20.00     0.157 A 
HETATM    5  N6  UNL     1     -34.186   5.384   2.563  1.00 20.00    -0.269 NA
HETATM    6  N7  UNL     1     -32.995   6.452   4.866  1.00 20.00    -0.254 NA
ENDROOT
BRANCH   4   7
HETATM    7  C5  UNL     1     -34.551   5.244   6.283  1.00 20.00     0.435 C 
HETATM    8  F8  UNL     1     -35.721   4.537   6.258  1.00 20.00    -0.165 F 
HETATM    9  F9  UNL     1     -33.688   4.472   7.010  1.00 20.00    -0.165 F 
HETATM   10  F10 UNL     1     -34.804   6.338   7.060  1.00 20.00    -0.165 F 
ENDBRANCH   4   7
TORSDOF 1
ENDMDL
MODEL 7
REMARK VINA RESULT:      -4.0     11.508     12.745
REMARK  1 active torsions:
REMARK  status: ('A' for Active; 'I' for Inactive)
REMARK    1  A    between atoms: C4_4  and  C5_5 
ROOT
HETATM    1  C1  UNL     1     -33.704  18.103  -3.589  1.00 20.00     0.135 A 
HETATM    2  C2  UNL     1     -33.986  17.293  -2.510  1.00 20.00     0.136 A 
HETATM    3  C3  UNL     1     -33.461  16.254  -4.913  1.00 20.00     0.152 A 
HETATM    4  C4  UNL     1     -33.742  15.445  -3.835  1.00 20.00     0.157 A 
HETATM    5  N6  UNL     1     -33.435  17.597  -4.810  1.00 20.00    -0.269 NA
HETATM    6  N7  UNL     1     -34.011  15.950  -2.614  1.00 20.00    -0.254 NA
ENDROOT
BRANCH   4   7
HETATM    7  C5  UNL     1     -33.761  13.964  -3.986  1.00 20.00     0.435 C 
HETATM    8  F8  UNL     1     -32.590  13.359  -3.624  1.00 20.00    -0.165 F 
HETATM    9  F9  UNL     1     -34.724  13.347  -3.236  1.00 20.00    -0.165 F 
HETATM   10  F10 UNL     1     -33.992  13.567  -5.272  1.00 20.00    -0.165 F 
ENDBRANCH   4   7
TORSDOF 1
ENDMDL
MODEL 8
REMARK VINA RESULT:      -4.0     12.050     13.319
REMARK  1 active torsions:
REMARK  status: ('A' for Active; 'I' for Inactive)
REMARK    1  A    between atoms: C4_4  and  C5_5 
ROOT
HETATM    1  C1  UNL     1     -34.413  16.475  -7.174  1.00 20.00     0.135 A 
HETATM    2  C2  UNL     1     -34.817  15.160  -7.254  1.00 20.00     0.136 A 
HETATM    3  C3  UNL     1     -33.819  16.158  -4.988  1.00 20.00     0.152 A 
HETATM    4  C4  UNL     1     -34.224  14.844  -5.068  1.00 20.00     0.157 A 
HETATM    5  N6  UNL     1     -33.908  16.998  -6.038  1.00 20.00    -0.269 NA
HETATM    6  N7  UNL     1     -34.729  14.321  -6.203  1.00 20.00    -0.254 NA
ENDROOT
BRANCH   4   7
HETATM    7  C5  UNL     1     -34.112  13.946  -3.886  1.00 20.00     0.435 C 
HETATM    8  F8  UNL     1     -35.007  12.913  -3.895  1.00 20.00    -0.165 F 
HETATM    9  F9  UNL     1     -32.887  13.352  -3.762  1.00 20.00    -0.165 F 
HETATM   10  F10 UNL     1     -34.322  14.599  -2.705  1.00 20.00    -0.165 F 
ENDBRANCH   4   7
TORSDOF 1
ENDMDL
MODEL 9
REMARK VINA RESULT:      -4.0     12.051     13.311
REMARK  1 active torsions:
REMARK  status: ('A' for Active; 'I' for Inactive)
REMARK    1  A    between atoms: C4_4  and  C5_5 
ROOT
HETATM    1  C1  UNL     1     -34.400  16.498  -7.157  1.00 20.00     0.135 A 
HETATM    2  C2  UNL     1     -34.818  15.188  -7.241  1.00 20.00     0.136 A 
HETATM    3  C3  UNL     1     -33.799  16.165  -4.976  1.00 20.00     0.152 A 
HETATM    4  C4  UNL     1     -34.218  14.856  -5.059  1.00 20.00     0.157 A 
HETATM    5  N6  UNL     1     -33.883  17.011  -6.022  1.00 20.00    -0.269 NA
HETATM    6  N7  UNL     1     -34.733  14.343  -6.194  1.00 20.00    -0.254 NA
ENDROOT
BRANCH   4   7
HETATM    7  C5  UNL     1     -34.110  13.952  -3.882  1.00 20.00     0.435 C 
HETATM    8  F8  UNL     1     -32.879  13.373  -3.744  1.00 20.00    -0.165 F 
HETATM    9  F9  UNL     1     -34.343  14.575  -2.688  1.00 20.00    -0.165 F 
HETATM   10  F10 UNL     1     -34.997  12.914  -3.931  1.00 20.00    -0.165 F 
ENDBRANCH   4   7
TORSDOF 1
ENDMDL
