MODEL 1
REMARK VINA RESULT:      -4.6      0.000      0.000
REMARK  3 active torsions:
REMARK  status: ('A' for Active; 'I' for Inactive)
REMARK    1  A    between atoms: C4_4  and  C7_7 
REMARK    2  A    between atoms: C6_6  and  N9_9 
REMARK    3  A    between atoms: C7_7  and  N9_9 
ROOT
HETATM    1  C1  UNL     1     -32.218   7.528   2.533  1.00 20.00     0.089 C 
HETATM    2  C6  UNL     1     -32.529   6.469   3.491  1.00 20.00     0.393 C 
HETATM    3  N8  UNL     1     -31.967   8.367   1.772  1.00 20.00    -0.195 NA
ENDROOT
BRANCH   2   4
HETATM    4  N9  UNL     1     -33.724   6.787   4.241  1.00 20.00     0.100 N 
HETATM    5  H21 UNL     1     -33.808   7.787   4.365  1.00 20.00     0.317 HD
BRANCH   4   6
HETATM    6  C7  UNL     1     -33.657   6.167   5.588  1.00 20.00     0.221 C 
HETATM    7  C5  UNL     1     -33.602   7.270   6.635  1.00 20.00     0.043 C 
BRANCH   6   8
HETATM    8  C4  UNL     1     -34.867   5.265   5.782  1.00 20.00     0.018 A 
HETATM    9  C2  UNL     1     -35.436   4.500   4.620  1.00 20.00     0.007 A 
HETATM   10  C3  UNL     1     -34.714   3.770   5.719  1.00 20.00     0.007 A 
ENDBRANCH   6   8
ENDBRANCH   4   6
ENDBRANCH   2   4
TORSDOF 3
ENDMDL
MODEL 2
REMARK VINA RESULT:      -4.4      1.190      1.946
REMARK  3 active torsions:
REMARK  status: ('A' for Active; 'I' for Inactive)
REMARK    1  A    between atoms: C4_4  and  C7_7 
REMARK    2  A    between atoms: C6_6  and  N9_9 
REMARK    3  A    between atoms: C7_7  and  N9_9 
ROOT
HETATM    1  C1  UNL     1     -32.128   7.907   2.176  1.00 20.00     0.089 C 
HETATM    2  C6  UNL     1     -32.425   6.855   3.147  1.00 20.00     0.393 C 
HETATM    3  N8  UNL     1     -31.888   8.739   1.404  1.00 20.00    -0.195 NA
ENDROOT
BRANCH   2   4
HETATM    4  N9  UNL     1     -33.688   7.107   3.808  1.00 20.00     0.100 N 
HETATM    5  H21 UNL     1     -33.534   7.421   4.757  1.00 20.00     0.317 HD
BRANCH   4   6
HETATM    6  C7  UNL     1     -34.486   5.858   3.868  1.00 20.00     0.221 C 
HETATM    7  C5  UNL     1     -34.219   5.043   2.611  1.00 20.00     0.043 C 
BRANCH   6   8
HETATM    8  C4  UNL     1     -34.117   5.090   5.128  1.00 20.00     0.018 A 
HETATM    9  C2  UNL     1     -34.418   5.666   6.483  1.00 20.00     0.007 A 
HETATM   10  C3  UNL     1     -35.192   4.478   5.984  1.00 20.00     0.007 A 
ENDBRANCH   6   8
ENDBRANCH   4   6
ENDBRANCH   2   4
TORSDOF 3
ENDMDL
MODEL 3
REMARK VINA RESULT:      -4.0     11.826     12.672
REMARK  3 active torsions:
REMARK  status: ('A' for Active; 'I' for Inactive)
REMARK    1  A    between atoms: C4_4  and  C7_7 
REMARK    2  A    between atoms: C6_6  and  N9_9 
REMARK    3  A    between atoms: C7_7  and  N9_9 
ROOT
HETATM    1  C1  UNL     1     -36.512  14.366  -4.045  1.00 20.00     0.089 C 
HETATM    2  C6  UNL     1     -35.098  14.451  -4.403  1.00 20.00     0.393 C 
HETATM    3  N8  UNL     1     -37.636  14.297  -3.764  1.00 20.00    -0.195 NA
ENDROOT
BRANCH   2   4
HETATM    4  N9  UNL     1     -34.269  14.518  -3.219  1.00 20.00     0.100 N 
HETATM    5  H21 UNL     1     -34.842  14.514  -2.386  1.00 20.00     0.317 HD
BRANCH   4   6
HETATM    6  C7  UNL     1     -33.482  15.776  -3.222  1.00 20.00     0.221 C 
HETATM    7  C5  UNL     1     -33.278  16.225  -4.661  1.00 20.00     0.043 C 
BRANCH   6   8
HETATM    8  C4  UNL     1     -34.216  16.825  -2.401  1.00 20.00     0.018 A 
HETATM    9  C2  UNL     1     -34.732  16.491  -1.030  1.00 20.00     0.007 A 
HETATM   10  C3  UNL     1     -33.565  17.426  -1.185  1.00 20.00     0.007 A 
ENDBRANCH   6   8
ENDBRANCH   4   6
ENDBRANCH   2   4
TORSDOF 3
ENDMDL
MODEL 4
REMARK VINA RESULT:      -3.9     11.550     13.955
REMARK  3 active torsions:
REMARK  status: ('A' for Active; 'I' for Inactive)
REMARK    1  A    between atoms: C4_4  and  C7_7 
REMARK    2  A    between atoms: C6_6  and  N9_9 
REMARK    3  A    between atoms: C7_7  and  N9_9 
ROOT
HETATM    1  C1  UNL     1     -34.079  13.746  -4.011  1.00 20.00     0.089 C 
HETATM    2  C6  UNL     1     -33.197  14.876  -3.722  1.00 20.00     0.393 C 
HETATM    3  N8  UNL     1     -34.779  12.849  -4.237  1.00 20.00    -0.195 NA
ENDROOT
BRANCH   2   4
HETATM    4  N9  UNL     1     -32.875  15.601  -4.932  1.00 20.00     0.100 N 
HETATM    5  H21 UNL     1     -32.042  16.159  -4.799  1.00 20.00     0.317 HD
BRANCH   4   6
HETATM    6  C7  UNL     1     -33.985  16.521  -5.282  1.00 20.00     0.221 C 
HETATM    7  C5  UNL     1     -33.552  17.949  -4.986  1.00 20.00     0.043 C 
BRANCH   6   8
HETATM    8  C4  UNL     1     -34.345  16.332  -6.748  1.00 20.00     0.018 A 
HETATM    9  C2  UNL     1     -34.464  14.950  -7.328  1.00 20.00     0.007 A 
HETATM   10  C3  UNL     1     -35.696  15.791  -7.132  1.00 20.00     0.007 A 
ENDBRANCH   6   8
ENDBRANCH   4   6
ENDBRANCH   2   4
TORSDOF 3
ENDMDL
MODEL 5
REMARK VINA RESULT:      -3.8     11.998     13.396
REMARK  3 active torsions:
REMARK  status: ('A' for Active; 'I' for Inactive)
REMARK    1  A    between atoms: C4_4  and  C7_7 
REMARK    2  A    between atoms: C6_6  and  N9_9 
REMARK    3  A    between atoms: C7_7  and  N9_9 
ROOT
HETATM    1  C1  UNL     1     -34.642  13.716  -4.956  1.00 20.00     0.089 C 
HETATM    2  C6  UNL     1     -34.195  14.995  -5.505  1.00 20.00     0.393 C 
HETATM    3  N8  UNL     1     -34.999  12.700  -4.524  1.00 20.00    -0.195 NA
ENDROOT
BRANCH   2   4
HETATM    4  N9  UNL     1     -33.101  15.535  -4.727  1.00 20.00     0.100 N 
HETATM    5  H21 UNL     1     -33.023  15.051  -3.842  1.00 20.00     0.317 HD
BRANCH   4   6
HETATM    6  C7  UNL     1     -33.344  16.970  -4.439  1.00 20.00     0.221 C 
HETATM    7  C5  UNL     1     -33.881  17.640  -5.696  1.00 20.00     0.043 C 
BRANCH   6   8
HETATM    8  C4  UNL     1     -34.319  17.088  -3.277  1.00 20.00     0.018 A 
HETATM    9  C2  UNL     1     -34.200  16.170  -2.093  1.00 20.00     0.007 A 
HETATM   10  C3  UNL     1     -33.854  17.626  -1.951  1.00 20.00     0.007 A 
ENDBRANCH   6   8
ENDBRANCH   4   6
ENDBRANCH   2   4
TORSDOF 3
ENDMDL
MODEL 6
REMARK VINA RESULT:      -3.8     11.724     13.365
REMARK  3 active torsions:
REMARK  status: ('A' for Active; 'I' for Inactive)
REMARK    1  A    between atoms: C4_4  and  C7_7 
REMARK    2  A    between atoms: C6_6  and  N9_9 
REMARK    3  A    between atoms: C7_7  and  N9_9 
ROOT
HETATM    1  C1  UNL     1     -33.738  17.201  -3.512  1.00 20.00     0.089 C 
HETATM    2  C6  UNL     1     -33.490  17.224  -4.953  1.00 20.00     0.393 C 
HETATM    3  N8  UNL     1     -33.936  17.187  -2.369  1.00 20.00    -0.195 NA
ENDROOT
BRANCH   2   4
HETATM    4  N9  UNL     1     -33.175  15.900  -5.442  1.00 20.00     0.100 N 
HETATM    5  H21 UNL     1     -32.584  15.956  -6.261  1.00 20.00     0.317 HD
BRANCH   4   6
HETATM    6  C7  UNL     1     -34.422  15.194  -5.831  1.00 20.00     0.221 C 
HETATM    7  C5  UNL     1     -34.489  15.115  -7.349  1.00 20.00     0.043 C 
BRANCH   6   8
HETATM    8  C4  UNL     1     -34.432  13.813  -5.193  1.00 20.00     0.018 A 
HETATM    9  C2  UNL     1     -33.896  13.617  -3.802  1.00 20.00     0.007 A 
HETATM   10  C3  UNL     1     -35.373  13.511  -4.059  1.00 20.00     0.007 A 
ENDBRANCH   6   8
ENDBRANCH   4   6
ENDBRANCH   2   4
TORSDOF 3
ENDMDL
MODEL 7
REMARK VINA RESULT:      -3.7     11.592     12.384
REMARK  3 active torsions:
REMARK  status: ('A' for Active; 'I' for Inactive)
REMARK    1  A    between atoms: C4_4  and  C7_7 
REMARK    2  A    between atoms: C6_6  and  N9_9 
REMARK    3  A    between atoms: C7_7  and  N9_9 
ROOT
HETATM    1  C1  UNL     1     -34.079  13.596  -4.222  1.00 20.00     0.089 C 
HETATM    2  C6  UNL     1     -33.201  14.657  -3.731  1.00 20.00     0.393 C 
HETATM    3  N8  UNL     1     -34.772  12.750  -4.612  1.00 20.00    -0.195 NA
ENDROOT
BRANCH   2   4
HETATM    4  N9  UNL     1     -33.931  15.897  -3.574  1.00 20.00     0.100 N 
HETATM    5  H21 UNL     1     -33.317  16.630  -3.246  1.00 20.00     0.317 HD
BRANCH   4   6
HETATM    6  C7  UNL     1     -35.008  15.726  -2.567  1.00 20.00     0.221 C 
HETATM    7  C5  UNL     1     -34.598  16.432  -1.283  1.00 20.00     0.043 C 
BRANCH   6   8
HETATM    8  C4  UNL     1     -36.308  16.283  -3.128  1.00 20.00     0.018 A 
HETATM    9  C2  UNL     1     -36.587  16.216  -4.603  1.00 20.00     0.007 A 
HETATM   10  C3  UNL     1     -37.367  15.352  -3.651  1.00 20.00     0.007 A 
ENDBRANCH   6   8
ENDBRANCH   4   6
ENDBRANCH   2   4
TORSDOF 3
ENDMDL
MODEL 8
REMARK VINA RESULT:      -3.7     11.358     12.649
REMARK  3 active torsions:
REMARK  status: ('A' for Active; 'I' for Inactive)
REMARK    1  A    between atoms: C4_4  and  C7_7 
REMARK    2  A    between atoms: C6_6  and  N9_9 
REMARK    3  A    between atoms: C7_7  and  N9_9 
ROOT
HETATM    1  C1  UNL     1     -34.569  13.662  -3.880  1.00 20.00     0.089 C 
HETATM    2  C6  UNL     1     -35.969  14.059  -4.023  1.00 20.00     0.393 C 
HETATM    3  N8  UNL     1     -33.458  13.345  -3.770  1.00 20.00    -0.195 NA
ENDROOT
BRANCH   2   4
HETATM    4  N9  UNL     1     -36.289  15.149  -3.126  1.00 20.00     0.100 N 
HETATM    5  H21 UNL     1     -37.275  15.370  -3.176  1.00 20.00     0.317 HD
BRANCH   4   6
HETATM    6  C7  UNL     1     -35.532  16.365  -3.516  1.00 20.00     0.221 C 
HETATM    7  C5  UNL     1     -36.384  17.188  -4.471  1.00 20.00     0.043 C 
BRANCH   6   8
HETATM    8  C4  UNL     1     -35.169  17.148  -2.264  1.00 20.00     0.018 A 
HETATM    9  C2  UNL     1     -34.679  16.432  -1.037  1.00 20.00     0.007 A 
HETATM   10  C3  UNL     1     -33.730  17.276  -1.842  1.00 20.00     0.007 A 
ENDBRANCH   6   8
ENDBRANCH   4   6
ENDBRANCH   2   4
TORSDOF 3
ENDMDL
MODEL 9
REMARK VINA RESULT:      -3.6     11.614     13.487
REMARK  3 active torsions:
REMARK  status: ('A' for Active; 'I' for Inactive)
REMARK    1  A    between atoms: C4_4  and  C7_7 
REMARK    2  A    between atoms: C6_6  and  N9_9 
REMARK    3  A    between atoms: C7_7  and  N9_9 
ROOT
HETATM    1  C1  UNL     1     -37.704  15.025  -4.553  1.00 20.00     0.089 C 
HETATM    2  C6  UNL     1     -37.237  15.932  -5.600  1.00 20.00     0.393 C 
HETATM    3  N8  UNL     1     -38.079  14.305  -3.723  1.00 20.00    -0.195 NA
ENDROOT
BRANCH   2   4
HETATM    4  N9  UNL     1     -35.819  16.188  -5.465  1.00 20.00     0.100 N 
HETATM    5  H21 UNL     1     -35.517  16.872  -6.146  1.00 20.00     0.317 HD
BRANCH   4   6
HETATM    6  C7  UNL     1     -35.054  14.940  -5.705  1.00 20.00     0.221 C 
HETATM    7  C5  UNL     1     -34.448  14.995  -7.099  1.00 20.00     0.043 C 
BRANCH   6   8
HETATM    8  C4  UNL     1     -33.986  14.796  -4.631  1.00 20.00     0.018 A 
HETATM    9  C2  UNL     1     -34.306  15.112  -3.197  1.00 20.00     0.007 A 
HETATM   10  C3  UNL     1     -34.077  13.687  -3.617  1.00 20.00     0.007 A 
ENDBRANCH   6   8
ENDBRANCH   4   6
ENDBRANCH   2   4
TORSDOF 3
ENDMDL
