MODEL 1
REMARK VINA RESULT:      -4.7      0.000      0.000
REMARK  3 active torsions:
REMARK  status: ('A' for Active; 'I' for Inactive)
REMARK    1  A    between atoms: C4_4  and  C7_7 
REMARK    2  A    between atoms: C6_6  and  N9_9 
REMARK    3  A    between atoms: C7_7  and  N9_9 
ROOT
HETATM    1  C1  UNL     1     -32.139   8.086   2.189  1.00 20.00     0.089 C 
HETATM    2  C6  UNL     1     -32.079   6.895   3.034  1.00 20.00     0.393 C 
HETATM    3  N8  UNL     1     -32.183   9.031   1.516  1.00 20.00    -0.195 NA
ENDROOT
BRANCH   2   4
HETATM    4  N9  UNL     1     -33.223   6.834   3.920  1.00 20.00     0.100 N 
HETATM    5  H21 UNL     1     -32.941   7.020   4.873  1.00 20.00     0.317 HD
BRANCH   4   6
HETATM    6  C7  UNL     1     -33.822   5.478   3.880  1.00 20.00     0.221 C 
HETATM    7  C5  UNL     1     -34.399   5.236   2.493  1.00 20.00     0.043 C 
BRANCH   6   8
HETATM    8  C4  UNL     1     -34.888   5.372   4.961  1.00 20.00     0.018 A 
HETATM    9  C2  UNL     1     -34.874   4.219   5.927  1.00 20.00     0.007 A 
HETATM   10  C3  UNL     1     -34.529   5.603   6.402  1.00 20.00     0.007 A 
ENDBRANCH   6   8
ENDBRANCH   4   6
ENDBRANCH   2   4
TORSDOF 3
ENDMDL
MODEL 2
REMARK VINA RESULT:      -4.1      1.305      1.903
REMARK  3 active torsions:
REMARK  status: ('A' for Active; 'I' for Inactive)
REMARK    1  A    between atoms: C4_4  and  C7_7 
REMARK    2  A    between atoms: C6_6  and  N9_9 
REMARK    3  A    between atoms: C7_7  and  N9_9 
ROOT
HETATM    1  C1  UNL     1     -32.195   7.524   2.658  1.00 20.00     0.089 C 
HETATM    2  C6  UNL     1     -32.564   6.651   3.770  1.00 20.00     0.393 C 
HETATM    3  N8  UNL     1     -31.898   8.217   1.775  1.00 20.00    -0.195 NA
ENDROOT
BRANCH   2   4
HETATM    4  N9  UNL     1     -33.988   6.712   4.023  1.00 20.00     0.100 N 
HETATM    5  H21 UNL     1     -34.336   7.648   3.860  1.00 20.00     0.317 HD
BRANCH   4   6
HETATM    6  C7  UNL     1     -34.266   6.365   5.438  1.00 20.00     0.221 C 
HETATM    7  C5  UNL     1     -33.265   7.087   6.328  1.00 20.00     0.043 C 
BRANCH   6   8
HETATM    8  C4  UNL     1     -34.183   4.854   5.606  1.00 20.00     0.018 A 
HETATM    9  C2  UNL     1     -35.252   4.117   6.364  1.00 20.00     0.007 A 
HETATM   10  C3  UNL     1     -35.144   3.958   4.874  1.00 20.00     0.007 A 
ENDBRANCH   6   8
ENDBRANCH   4   6
ENDBRANCH   2   4
TORSDOF 3
ENDMDL
MODEL 3
REMARK VINA RESULT:      -3.9     11.413     12.596
REMARK  3 active torsions:
REMARK  status: ('A' for Active; 'I' for Inactive)
REMARK    1  A    between atoms: C4_4  and  C7_7 
REMARK    2  A    between atoms: C6_6  and  N9_9 
REMARK    3  A    between atoms: C7_7  and  N9_9 
ROOT
HETATM    1  C1  UNL     1     -34.826  13.670  -4.973  1.00 20.00     0.089 C 
HETATM    2  C6  UNL     1     -34.861  15.050  -5.452  1.00 20.00     0.393 C 
HETATM    3  N8  UNL     1     -34.797  12.572  -4.596  1.00 20.00    -0.195 NA
ENDROOT
BRANCH   2   4
HETATM    4  N9  UNL     1     -35.445  15.926  -4.458  1.00 20.00     0.100 N 
HETATM    5  H21 UNL     1     -36.219  16.443  -4.854  1.00 20.00     0.317 HD
BRANCH   4   6
HETATM    6  C7  UNL     1     -34.436  16.907  -3.991  1.00 20.00     0.221 C 
HETATM    7  C5  UNL     1     -33.374  17.071  -5.070  1.00 20.00     0.043 C 
BRANCH   6   8
HETATM    8  C4  UNL     1     -33.836  16.420  -2.680  1.00 20.00     0.018 A 
HETATM    9  C2  UNL     1     -33.702  17.360  -1.513  1.00 20.00     0.007 A 
HETATM   10  C3  UNL     1     -34.709  16.245  -1.468  1.00 20.00     0.007 A 
ENDBRANCH   6   8
ENDBRANCH   4   6
ENDBRANCH   2   4
TORSDOF 3
ENDMDL
MODEL 4
REMARK VINA RESULT:      -3.8     11.027     13.630
REMARK  3 active torsions:
REMARK  status: ('A' for Active; 'I' for Inactive)
REMARK    1  A    between atoms: C4_4  and  C7_7 
REMARK    2  A    between atoms: C6_6  and  N9_9 
REMARK    3  A    between atoms: C7_7  and  N9_9 
ROOT
HETATM    1  C1  UNL     1     -34.183  13.791  -3.949  1.00 20.00     0.089 C 
HETATM    2  C6  UNL     1     -33.407  14.981  -3.606  1.00 20.00     0.393 C 
HETATM    3  N8  UNL     1     -34.800  12.846  -4.218  1.00 20.00    -0.195 NA
ENDROOT
BRANCH   2   4
HETATM    4  N9  UNL     1     -32.763  15.534  -4.780  1.00 20.00     0.100 N 
HETATM    5  H21 UNL     1     -31.780  15.692  -4.601  1.00 20.00     0.317 HD
BRANCH   4   6
HETATM    6  C7  UNL     1     -33.378  16.837  -5.128  1.00 20.00     0.221 C 
HETATM    7  C5  UNL     1     -33.799  17.541  -3.846  1.00 20.00     0.043 C 
BRANCH   6   8
HETATM    8  C4  UNL     1     -34.561  16.598  -6.055  1.00 20.00     0.018 A 
HETATM    9  C2  UNL     1     -34.525  17.097  -7.474  1.00 20.00     0.007 A 
HETATM   10  C3  UNL     1     -34.445  15.622  -7.193  1.00 20.00     0.007 A 
ENDBRANCH   6   8
ENDBRANCH   4   6
ENDBRANCH   2   4
TORSDOF 3
ENDMDL
MODEL 5
REMARK VINA RESULT:      -3.8     11.919     12.566
REMARK  3 active torsions:
REMARK  status: ('A' for Active; 'I' for Inactive)
REMARK    1  A    between atoms: C4_4  and  C7_7 
REMARK    2  A    between atoms: C6_6  and  N9_9 
REMARK    3  A    between atoms: C7_7  and  N9_9 
ROOT
HETATM    1  C1  UNL     1     -37.075  14.711  -3.819  1.00 20.00     0.089 C 
HETATM    2  C6  UNL     1     -35.698  15.198  -3.860  1.00 20.00     0.393 C 
HETATM    3  N8  UNL     1     -38.168  14.321  -3.787  1.00 20.00    -0.195 NA
ENDROOT
BRANCH   2   4
HETATM    4  N9  UNL     1     -35.641  16.612  -3.558  1.00 20.00     0.100 N 
HETATM    5  H21 UNL     1     -35.991  17.154  -4.337  1.00 20.00     0.317 HD
BRANCH   4   6
HETATM    6  C7  UNL     1     -34.237  17.022  -3.313  1.00 20.00     0.221 C 
HETATM    7  C5  UNL     1     -33.346  16.377  -4.365  1.00 20.00     0.043 C 
BRANCH   6   8
HETATM    8  C4  UNL     1     -33.836  16.608  -1.904  1.00 20.00     0.018 A 
HETATM    9  C2  UNL     1     -33.514  17.653  -0.871  1.00 20.00     0.007 A 
HETATM   10  C3  UNL     1     -34.773  16.841  -0.752  1.00 20.00     0.007 A 
ENDBRANCH   6   8
ENDBRANCH   4   6
ENDBRANCH   2   4
TORSDOF 3
ENDMDL
MODEL 6
REMARK VINA RESULT:      -3.8     11.167     12.341
REMARK  3 active torsions:
REMARK  status: ('A' for Active; 'I' for Inactive)
REMARK    1  A    between atoms: C4_4  and  C7_7 
REMARK    2  A    between atoms: C6_6  and  N9_9 
REMARK    3  A    between atoms: C7_7  and  N9_9 
ROOT
HETATM    1  C1  UNL     1     -37.689  15.351  -3.556  1.00 20.00     0.089 C 
HETATM    2  C6  UNL     1     -37.213  16.697  -3.244  1.00 20.00     0.393 C 
HETATM    3  N8  UNL     1     -38.071  14.284  -3.803  1.00 20.00    -0.195 NA
ENDROOT
BRANCH   2   4
HETATM    4  N9  UNL     1     -35.774  16.781  -3.383  1.00 20.00     0.100 N 
HETATM    5  H21 UNL     1     -35.499  16.574  -4.334  1.00 20.00     0.317 HD
BRANCH   4   6
HETATM    6  C7  UNL     1     -35.121  15.788  -2.496  1.00 20.00     0.221 C 
HETATM    7  C5  UNL     1     -34.610  16.502  -1.252  1.00 20.00     0.043 C 
BRANCH   6   8
HETATM    8  C4  UNL     1     -33.993  15.106  -3.257  1.00 20.00     0.018 A 
HETATM    9  C2  UNL     1     -34.132  13.673  -3.692  1.00 20.00     0.007 A 
HETATM   10  C3  UNL     1     -34.157  14.774  -4.715  1.00 20.00     0.007 A 
ENDBRANCH   6   8
ENDBRANCH   4   6
ENDBRANCH   2   4
TORSDOF 3
ENDMDL
MODEL 7
REMARK VINA RESULT:      -3.8     11.088     11.903
REMARK  3 active torsions:
REMARK  status: ('A' for Active; 'I' for Inactive)
REMARK    1  A    between atoms: C4_4  and  C7_7 
REMARK    2  A    between atoms: C6_6  and  N9_9 
REMARK    3  A    between atoms: C7_7  and  N9_9 
ROOT
HETATM    1  C1  UNL     1     -33.954  13.699  -4.165  1.00 20.00     0.089 C 
HETATM    2  C6  UNL     1     -33.220  14.891  -3.745  1.00 20.00     0.393 C 
HETATM    3  N8  UNL     1     -34.533  12.750  -4.498  1.00 20.00    -0.195 NA
ENDROOT
BRANCH   2   4
HETATM    4  N9  UNL     1     -34.074  16.060  -3.776  1.00 20.00     0.100 N 
HETATM    5  H21 UNL     1     -33.532  16.897  -3.604  1.00 20.00     0.317 HD
BRANCH   4   6
HETATM    6  C7  UNL     1     -35.106  15.961  -2.716  1.00 20.00     0.221 C 
HETATM    7  C5  UNL     1     -36.481  15.951  -3.367  1.00 20.00     0.043 C 
BRANCH   6   8
HETATM    8  C4  UNL     1     -34.946  17.131  -1.755  1.00 20.00     0.018 A 
HETATM    9  C2  UNL     1     -34.728  16.881  -0.287  1.00 20.00     0.007 A 
HETATM   10  C3  UNL     1     -33.609  17.421  -1.132  1.00 20.00     0.007 A 
ENDBRANCH   6   8
ENDBRANCH   4   6
ENDBRANCH   2   4
TORSDOF 3
ENDMDL
MODEL 8
REMARK VINA RESULT:      -3.8     11.428     12.878
REMARK  3 active torsions:
REMARK  status: ('A' for Active; 'I' for Inactive)
REMARK    1  A    between atoms: C4_4  and  C7_7 
REMARK    2  A    between atoms: C6_6  and  N9_9 
REMARK    3  A    between atoms: C7_7  and  N9_9 
ROOT
HETATM    1  C1  UNL     1     -34.657  13.697  -5.026  1.00 20.00     0.089 C 
HETATM    2  C6  UNL     1     -34.299  14.894  -5.785  1.00 20.00     0.393 C 
HETATM    3  N8  UNL     1     -34.943  12.744  -4.427  1.00 20.00    -0.195 NA
ENDROOT
BRANCH   2   4
HETATM    4  N9  UNL     1     -33.366  15.715  -5.042  1.00 20.00     0.100 N 
HETATM    5  H21 UNL     1     -32.986  15.199  -4.260  1.00 20.00     0.317 HD
BRANCH   4   6
HETATM    6  C7  UNL     1     -34.061  16.909  -4.502  1.00 20.00     0.221 C 
HETATM    7  C5  UNL     1     -33.531  18.148  -5.210  1.00 20.00     0.043 C 
BRANCH   6   8
HETATM    8  C4  UNL     1     -33.836  16.979  -2.999  1.00 20.00     0.018 A 
HETATM    9  C2  UNL     1     -34.983  17.282  -2.075  1.00 20.00     0.007 A 
HETATM   10  C3  UNL     1     -34.383  15.904  -2.101  1.00 20.00     0.007 A 
ENDBRANCH   6   8
ENDBRANCH   4   6
ENDBRANCH   2   4
TORSDOF 3
ENDMDL
MODEL 9
REMARK VINA RESULT:      -3.7      2.258      3.862
REMARK  3 active torsions:
REMARK  status: ('A' for Active; 'I' for Inactive)
REMARK    1  A    between atoms: C4_4  and  C7_7 
REMARK    2  A    between atoms: C6_6  and  N9_9 
REMARK    3  A    between atoms: C7_7  and  N9_9 
ROOT
HETATM    1  C1  UNL     1     -33.870   6.582   6.650  1.00 20.00     0.089 C 
HETATM    2  C6  UNL     1     -34.597   5.364   6.297  1.00 20.00     0.393 C 
HETATM    3  N8  UNL     1     -33.295   7.549   6.934  1.00 20.00    -0.195 NA
ENDROOT
BRANCH   2   4
HETATM    4  N9  UNL     1     -34.246   4.921   4.964  1.00 20.00     0.100 N 
HETATM    5  H21 UNL     1     -33.261   4.697   4.915  1.00 20.00     0.317 HD
BRANCH   4   6
HETATM    6  C7  UNL     1     -34.515   6.001   3.984  1.00 20.00     0.221 C 
HETATM    7  C5  UNL     1     -35.874   5.756   3.344  1.00 20.00     0.043 C 
BRANCH   6   8
HETATM    8  C4  UNL     1     -33.400   6.024   2.949  1.00 20.00     0.018 A 
HETATM    9  C2  UNL     1     -32.572   7.265   2.755  1.00 20.00     0.007 A 
HETATM   10  C3  UNL     1     -31.962   6.045   3.387  1.00 20.00     0.007 A 
ENDBRANCH   6   8
ENDBRANCH   4   6
ENDBRANCH   2   4
TORSDOF 3
ENDMDL
