MODEL 1
REMARK VINA RESULT:      -4.6      0.000      0.000
REMARK  1 active torsions:
REMARK  status: ('A' for Active; 'I' for Inactive)
REMARK    1  A    between atoms: C7_7  and  O9_9 
ROOT
HETATM    1  C1  UNL     1     -37.212  14.522  -3.785  1.00 20.00     0.097 C 
HETATM    2  C2  UNL     1     -35.304  15.687  -2.949  1.00 20.00    -0.006 C 
HETATM    3  C3  UNL     1     -35.797  14.667  -3.672  1.00 20.00     0.047 C 
HETATM    4  C4  UNL     1     -33.837  15.938  -2.752  1.00 20.00     0.028 C 
HETATM    5  C5  UNL     1     -32.947  15.110  -3.678  1.00 20.00     0.007 C 
HETATM    6  C6  UNL     1     -33.459  13.675  -3.795  1.00 20.00     0.037 C 
HETATM    7  C7  UNL     1     -34.898  13.644  -4.326  1.00 20.00     0.161 C 
HETATM    8  N8  UNL     1     -38.362  14.404  -3.877  1.00 20.00    -0.192 NA
ENDROOT
BRANCH   7   9
HETATM    9  O9  UNL     1     -34.860  13.883  -5.734  1.00 20.00    -0.390 OA
HETATM   10  H18 UNL     1     -35.750  13.697  -6.068  1.00 20.00     0.210 HD
ENDBRANCH   7   9
TORSDOF 1
ENDMDL
MODEL 2
REMARK VINA RESULT:      -4.6     11.574     12.171
REMARK  1 active torsions:
REMARK  status: ('A' for Active; 'I' for Inactive)
REMARK    1  A    between atoms: C7_7  and  O9_9 
ROOT
HETATM    1  C1  UNL     1     -32.609   7.277   3.145  1.00 20.00     0.097 C 
HETATM    2  C2  UNL     1     -33.400   6.489   5.254  1.00 20.00    -0.006 C 
HETATM    3  C3  UNL     1     -33.499   6.470   3.914  1.00 20.00     0.047 C 
HETATM    4  C4  UNL     1     -34.283   5.689   6.167  1.00 20.00     0.028 C 
HETATM    5  C5  UNL     1     -35.113   4.630   5.441  1.00 20.00     0.007 C 
HETATM    6  C6  UNL     1     -35.679   5.180   4.132  1.00 20.00     0.037 C 
HETATM    7  C7  UNL     1     -34.556   5.658   3.203  1.00 20.00     0.161 C 
HETATM    8  N8  UNL     1     -31.885   7.934   2.519  1.00 20.00    -0.192 NA
ENDROOT
BRANCH   7   9
HETATM    9  O9  UNL     1     -33.947   4.510   2.609  1.00 20.00    -0.390 OA
HETATM   10  H18 UNL     1     -34.508   4.258   1.860  1.00 20.00     0.210 HD
ENDBRANCH   7   9
TORSDOF 1
ENDMDL
MODEL 3
REMARK VINA RESULT:      -4.4      2.185      3.051
REMARK  1 active torsions:
REMARK  status: ('A' for Active; 'I' for Inactive)
REMARK    1  A    between atoms: C7_7  and  O9_9 
ROOT
HETATM    1  C1  UNL     1     -34.946  13.663  -4.158  1.00 20.00     0.097 C 
HETATM    2  C2  UNL     1     -34.087  15.327  -2.679  1.00 20.00    -0.006 C 
HETATM    3  C3  UNL     1     -35.102  14.887  -3.443  1.00 20.00     0.047 C 
HETATM    4  C4  UNL     1     -34.130  16.602  -1.887  1.00 20.00     0.028 C 
HETATM    5  C5  UNL     1     -35.527  17.213  -1.790  1.00 20.00     0.007 C 
HETATM    6  C6  UNL     1     -36.257  17.130  -3.130  1.00 20.00     0.037 C 
HETATM    7  C7  UNL     1     -36.380  15.677  -3.603  1.00 20.00     0.161 C 
HETATM    8  N8  UNL     1     -34.820  12.667  -4.740  1.00 20.00    -0.192 NA
ENDROOT
BRANCH   7   9
HETATM    9  O9  UNL     1     -37.419  15.047  -2.851  1.00 20.00    -0.390 OA
HETATM   10  H18 UNL     1     -36.991  14.633  -2.087  1.00 20.00     0.210 HD
ENDBRANCH   7   9
TORSDOF 1
ENDMDL
MODEL 4
REMARK VINA RESULT:      -4.3     12.169     12.813
REMARK  1 active torsions:
REMARK  status: ('A' for Active; 'I' for Inactive)
REMARK    1  A    between atoms: C7_7  and  O9_9 
ROOT
HETATM    1  C1  UNL     1     -32.863   6.957   3.375  1.00 20.00     0.097 C 
HETATM    2  C2  UNL     1     -34.555   5.299   3.669  1.00 20.00    -0.006 C 
HETATM    3  C3  UNL     1     -33.625   6.097   4.221  1.00 20.00     0.047 C 
HETATM    4  C4  UNL     1     -35.412   4.349   4.454  1.00 20.00     0.028 C 
HETATM    5  C5  UNL     1     -35.344   4.572   5.964  1.00 20.00     0.007 C 
HETATM    6  C6  UNL     1     -33.910   4.844   6.415  1.00 20.00     0.037 C 
HETATM    7  C7  UNL     1     -33.331   6.073   5.703  1.00 20.00     0.161 C 
HETATM    8  N8  UNL     1     -32.243   7.656   2.687  1.00 20.00    -0.192 NA
ENDROOT
BRANCH   7   9
HETATM    9  O9  UNL     1     -33.883   7.243   6.311  1.00 20.00    -0.390 OA
HETATM   10  H18 UNL     1     -33.985   7.897   5.604  1.00 20.00     0.210 HD
ENDBRANCH   7   9
TORSDOF 1
ENDMDL
MODEL 5
REMARK VINA RESULT:      -4.3     10.813     11.851
REMARK  1 active torsions:
REMARK  status: ('A' for Active; 'I' for Inactive)
REMARK    1  A    between atoms: C7_7  and  O9_9 
ROOT
HETATM    1  C1  UNL     1     -42.921   4.123  -3.225  1.00 20.00     0.097 C 
HETATM    2  C2  UNL     1     -42.452   6.367  -2.561  1.00 20.00    -0.006 C 
HETATM    3  C3  UNL     1     -42.312   5.050  -2.328  1.00 20.00     0.047 C 
HETATM    4  C4  UNL     1     -41.864   7.436  -1.685  1.00 20.00     0.028 C 
HETATM    5  C5  UNL     1     -40.852   6.905  -0.671  1.00 20.00     0.007 C 
HETATM    6  C6  UNL     1     -41.335   5.598  -0.046  1.00 20.00     0.037 C 
HETATM    7  C7  UNL     1     -41.573   4.528  -1.119  1.00 20.00     0.161 C 
HETATM    8  N8  UNL     1     -43.417   3.369  -3.955  1.00 20.00    -0.192 NA
ENDROOT
BRANCH   7   9
HETATM    9  O9  UNL     1     -40.304   4.015  -1.529  1.00 20.00    -0.390 OA
HETATM   10  H18 UNL     1     -39.670   4.272  -0.844  1.00 20.00     0.210 HD
ENDBRANCH   7   9
TORSDOF 1
ENDMDL
MODEL 6
REMARK VINA RESULT:      -4.3     12.590     13.153
REMARK  1 active torsions:
REMARK  status: ('A' for Active; 'I' for Inactive)
REMARK    1  A    between atoms: C7_7  and  O9_9 
ROOT
HETATM    1  C1  UNL     1     -33.491   7.180   6.712  1.00 20.00     0.097 C 
HETATM    2  C2  UNL     1     -34.593   5.080   6.445  1.00 20.00    -0.006 C 
HETATM    3  C3  UNL     1     -34.059   6.174   5.875  1.00 20.00     0.047 C 
HETATM    4  C4  UNL     1     -35.225   3.960   5.670  1.00 20.00     0.028 C 
HETATM    5  C5  UNL     1     -34.953   4.028   4.168  1.00 20.00     0.007 C 
HETATM    6  C6  UNL     1     -35.070   5.462   3.654  1.00 20.00     0.037 C 
HETATM    7  C7  UNL     1     -34.089   6.391   4.380  1.00 20.00     0.161 C 
HETATM    8  N8  UNL     1     -33.030   7.999   7.393  1.00 20.00    -0.192 NA
ENDROOT
BRANCH   7   9
HETATM    9  O9  UNL     1     -32.783   6.167   3.847  1.00 20.00    -0.390 OA
HETATM   10  H18 UNL     1     -32.825   6.404   2.908  1.00 20.00     0.210 HD
ENDBRANCH   7   9
TORSDOF 1
ENDMDL
MODEL 7
REMARK VINA RESULT:      -4.3      1.545      2.255
REMARK  1 active torsions:
REMARK  status: ('A' for Active; 'I' for Inactive)
REMARK    1  A    between atoms: C7_7  and  O9_9 
ROOT
HETATM    1  C1  UNL     1     -37.351  14.501  -3.793  1.00 20.00     0.097 C 
HETATM    2  C2  UNL     1     -35.167  13.608  -4.155  1.00 20.00    -0.006 C 
HETATM    3  C3  UNL     1     -35.932  14.640  -3.757  1.00 20.00     0.047 C 
HETATM    4  C4  UNL     1     -33.667  13.638  -4.168  1.00 20.00     0.028 C 
HETATM    5  C5  UNL     1     -33.073  14.832  -3.420  1.00 20.00     0.007 C 
HETATM    6  C6  UNL     1     -33.858  16.109  -3.715  1.00 20.00     0.037 C 
HETATM    7  C7  UNL     1     -35.332  15.956  -3.321  1.00 20.00     0.161 C 
HETATM    8  N8  UNL     1     -38.506  14.388  -3.823  1.00 20.00    -0.192 NA
ENDROOT
BRANCH   7   9
HETATM    9  O9  UNL     1     -35.429  16.070  -1.900  1.00 20.00    -0.390 OA
HETATM   10  H18 UNL     1     -34.680  15.577  -1.533  1.00 20.00     0.210 HD
ENDBRANCH   7   9
TORSDOF 1
ENDMDL
MODEL 8
REMARK VINA RESULT:      -4.3      2.612      3.400
REMARK  1 active torsions:
REMARK  status: ('A' for Active; 'I' for Inactive)
REMARK    1  A    between atoms: C7_7  and  O9_9 
ROOT
HETATM    1  C1  UNL     1     -33.887  16.592  -2.138  1.00 20.00     0.097 C 
HETATM    2  C2  UNL     1     -35.115  14.802  -3.129  1.00 20.00    -0.006 C 
HETATM    3  C3  UNL     1     -34.207  15.783  -3.269  1.00 20.00     0.047 C 
HETATM    4  C4  UNL     1     -35.539  13.892  -4.246  1.00 20.00     0.028 C 
HETATM    5  C5  UNL     1     -34.644  13.983  -5.481  1.00 20.00     0.007 C 
HETATM    6  C6  UNL     1     -34.277  15.435  -5.786  1.00 20.00     0.037 C 
HETATM    7  C7  UNL     1     -33.557  16.084  -4.599  1.00 20.00     0.161 C 
HETATM    8  N8  UNL     1     -33.626  17.250  -1.219  1.00 20.00    -0.192 NA
ENDROOT
BRANCH   7   9
HETATM    9  O9  UNL     1     -32.208  15.611  -4.580  1.00 20.00    -0.390 OA
HETATM   10  H18 UNL     1     -32.174  14.907  -3.916  1.00 20.00     0.210 HD
ENDBRANCH   7   9
TORSDOF 1
ENDMDL
MODEL 9
REMARK VINA RESULT:      -4.3      2.915      3.447
REMARK  1 active torsions:
REMARK  status: ('A' for Active; 'I' for Inactive)
REMARK    1  A    between atoms: C7_7  and  O9_9 
ROOT
HETATM    1  C1  UNL     1     -34.624  13.711  -4.940  1.00 20.00     0.097 C 
HETATM    2  C2  UNL     1     -34.909  15.586  -6.389  1.00 20.00    -0.006 C 
HETATM    3  C3  UNL     1     -34.362  15.073  -5.274  1.00 20.00     0.047 C 
HETATM    4  C4  UNL     1     -34.712  17.004  -6.840  1.00 20.00     0.028 C 
HETATM    5  C5  UNL     1     -33.605  17.737  -6.083  1.00 20.00     0.007 C 
HETATM    6  C6  UNL     1     -33.658  17.418  -4.589  1.00 20.00     0.037 C 
HETATM    7  C7  UNL     1     -33.520  15.911  -4.340  1.00 20.00     0.161 C 
HETATM    8  N8  UNL     1     -34.838  12.604  -4.668  1.00 20.00    -0.192 NA
ENDROOT
BRANCH   7   9
HETATM    9  O9  UNL     1     -32.146  15.555  -4.500  1.00 20.00    -0.390 OA
HETATM   10  H18 UNL     1     -32.134  14.643  -4.826  1.00 20.00     0.210 HD
ENDBRANCH   7   9
TORSDOF 1
ENDMDL
