MODEL 1
REMARK VINA RESULT:      -4.7      0.000      0.000
REMARK  1 active torsions:
REMARK  status: ('A' for Active; 'I' for Inactive)
REMARK    1  A    between atoms: C7_7  and  N8_8 
ROOT
HETATM    1  C1  UNL     1     -32.203   8.886   1.453  1.00 20.00     0.013 C 
HETATM    2  C2  UNL     1     -32.160   7.986   2.247  1.00 20.00    -0.087 C 
HETATM    3  C7  UNL     1     -32.101   6.888   3.215  1.00 20.00     0.365 C 
ENDROOT
BRANCH   3   4
HETATM    4  N8  UNL     1     -33.423   6.608   3.755  1.00 20.00     0.106 N 
HETATM    5  C5  UNL     1     -33.387   6.279   5.180  1.00 20.00     0.351 C 
HETATM    6  C3  UNL     1     -34.661   5.489   5.333  1.00 20.00     0.156 C 
HETATM    7  C4  UNL     1     -35.246   5.139   3.997  1.00 20.00     0.110 C 
HETATM    8  O9  UNL     1     -35.156   5.178   6.408  1.00 20.00    -0.296 OA
HETATM    9  C6  UNL     1     -34.073   5.476   3.085  1.00 20.00     0.281 C 
ENDBRANCH   3   4
TORSDOF 1
ENDMDL
MODEL 2
REMARK VINA RESULT:      -4.6     10.985     11.498
REMARK  1 active torsions:
REMARK  status: ('A' for Active; 'I' for Inactive)
REMARK    1  A    between atoms: C7_7  and  N8_8 
ROOT
HETATM    1  C1  UNL     1     -34.784  17.300   0.050  1.00 20.00     0.013 C 
HETATM    2  C2  UNL     1     -34.403  16.871  -1.005  1.00 20.00    -0.087 C 
HETATM    3  C7  UNL     1     -33.934  16.352  -2.292  1.00 20.00     0.365 C 
ENDROOT
BRANCH   3   4
HETATM    4  N8  UNL     1     -34.718  15.195  -2.696  1.00 20.00     0.106 N 
HETATM    5  C5  UNL     1     -33.946  14.250  -3.502  1.00 20.00     0.351 C 
HETATM    6  C3  UNL     1     -35.041  13.535  -4.250  1.00 20.00     0.156 C 
HETATM    7  C4  UNL     1     -36.355  14.241  -4.092  1.00 20.00     0.110 C 
HETATM    8  O9  UNL     1     -34.881  12.511  -4.899  1.00 20.00    -0.296 OA
HETATM    9  C6  UNL     1     -35.889  15.565  -3.500  1.00 20.00     0.281 C 
ENDBRANCH   3   4
TORSDOF 1
ENDMDL
MODEL 3
REMARK VINA RESULT:      -4.4     11.176     12.015
REMARK  1 active torsions:
REMARK  status: ('A' for Active; 'I' for Inactive)
REMARK    1  A    between atoms: C7_7  and  N8_8 
ROOT
HETATM    1  C1  UNL     1     -34.701  16.741  -0.552  1.00 20.00     0.013 C 
HETATM    2  C2  UNL     1     -34.219  16.707  -1.651  1.00 20.00    -0.087 C 
HETATM    3  C7  UNL     1     -33.627  16.669  -2.991  1.00 20.00     0.365 C 
ENDROOT
BRANCH   3   4
HETATM    4  N8  UNL     1     -34.381  15.780  -3.861  1.00 20.00     0.106 N 
HETATM    5  C5  UNL     1     -34.300  14.382  -3.437  1.00 20.00     0.351 C 
HETATM    6  C3  UNL     1     -34.601  13.664  -4.727  1.00 20.00     0.156 C 
HETATM    7  C4  UNL     1     -34.568  14.607  -5.893  1.00 20.00     0.110 C 
HETATM    8  O9  UNL     1     -34.846  12.468  -4.811  1.00 20.00    -0.296 OA
HETATM    9  C6  UNL     1     -33.908  15.819  -5.249  1.00 20.00     0.281 C 
ENDBRANCH   3   4
TORSDOF 1
ENDMDL
MODEL 4
REMARK VINA RESULT:      -4.2     11.257     11.808
REMARK  1 active torsions:
REMARK  status: ('A' for Active; 'I' for Inactive)
REMARK    1  A    between atoms: C7_7  and  N8_8 
ROOT
HETATM    1  C1  UNL     1     -34.446  16.820  -0.605  1.00 20.00     0.013 C 
HETATM    2  C2  UNL     1     -34.179  16.794  -1.776  1.00 20.00    -0.087 C 
HETATM    3  C7  UNL     1     -33.849  16.766  -3.203  1.00 20.00     0.365 C 
ENDROOT
BRANCH   3   4
HETATM    4  N8  UNL     1     -34.662  15.780  -3.899  1.00 20.00     0.106 N 
HETATM    5  C5  UNL     1     -36.075  15.861  -3.531  1.00 20.00     0.351 C 
HETATM    6  C3  UNL     1     -36.548  14.471  -3.865  1.00 20.00     0.156 C 
HETATM    7  C4  UNL     1     -35.391  13.555  -4.136  1.00 20.00     0.110 C 
HETATM    8  O9  UNL     1     -37.723  14.133  -3.913  1.00 20.00    -0.296 OA
HETATM    9  C6  UNL     1     -34.239  14.404  -3.615  1.00 20.00     0.281 C 
ENDBRANCH   3   4
TORSDOF 1
ENDMDL
MODEL 5
REMARK VINA RESULT:      -3.8     11.216     12.550
REMARK  1 active torsions:
REMARK  status: ('A' for Active; 'I' for Inactive)
REMARK    1  A    between atoms: C7_7  and  N8_8 
ROOT
HETATM    1  C1  UNL     1     -33.868  18.577  -6.059  1.00 20.00     0.013 C 
HETATM    2  C2  UNL     1     -33.585  17.585  -5.444  1.00 20.00    -0.087 C 
HETATM    3  C7  UNL     1     -33.235  16.378  -4.691  1.00 20.00     0.365 C 
ENDROOT
BRANCH   3   4
HETATM    4  N8  UNL     1     -34.239  15.343  -4.884  1.00 20.00     0.106 N 
HETATM    5  C5  UNL     1     -35.533  15.705  -4.305  1.00 20.00     0.351 C 
HETATM    6  C3  UNL     1     -36.154  14.348  -4.099  1.00 20.00     0.156 C 
HETATM    7  C4  UNL     1     -35.143  13.255  -4.282  1.00 20.00     0.110 C 
HETATM    8  O9  UNL     1     -37.331  14.162  -3.821  1.00 20.00    -0.296 OA
HETATM    9  C6  UNL     1     -33.854  14.067  -4.272  1.00 20.00     0.281 C 
ENDBRANCH   3   4
TORSDOF 1
ENDMDL
MODEL 6
REMARK VINA RESULT:      -3.8     11.134     12.915
REMARK  1 active torsions:
REMARK  status: ('A' for Active; 'I' for Inactive)
REMARK    1  A    between atoms: C7_7  and  N8_8 
ROOT
HETATM    1  C1  UNL     1     -34.420  17.823  -7.811  1.00 20.00     0.013 C 
HETATM    2  C2  UNL     1     -34.256  17.531  -6.658  1.00 20.00    -0.087 C 
HETATM    3  C7  UNL     1     -34.058  17.180  -5.249  1.00 20.00     0.365 C 
ENDROOT
BRANCH   3   4
HETATM    4  N8  UNL     1     -33.745  15.767  -5.111  1.00 20.00     0.106 N 
HETATM    5  C5  UNL     1     -34.934  14.919  -5.209  1.00 20.00     0.351 C 
HETATM    6  C3  UNL     1     -34.479  13.686  -4.473  1.00 20.00     0.156 C 
HETATM    7  C4  UNL     1     -33.195  13.935  -3.739  1.00 20.00     0.110 C 
HETATM    8  O9  UNL     1     -35.078  12.619  -4.477  1.00 20.00    -0.296 OA
HETATM    9  C6  UNL     1     -33.120  15.454  -3.821  1.00 20.00     0.281 C 
ENDBRANCH   3   4
TORSDOF 1
ENDMDL
MODEL 7
REMARK VINA RESULT:      -3.8     11.128     12.655
REMARK  1 active torsions:
REMARK  status: ('A' for Active; 'I' for Inactive)
REMARK    1  A    between atoms: C7_7  and  N8_8 
ROOT
HETATM    1  C1  UNL     1     -36.086  17.807  -4.114  1.00 20.00     0.013 C 
HETATM    2  C2  UNL     1     -35.074  17.502  -4.685  1.00 20.00    -0.087 C 
HETATM    3  C7  UNL     1     -33.839  17.136  -5.384  1.00 20.00     0.365 C 
ENDROOT
BRANCH   3   4
HETATM    4  N8  UNL     1     -33.514  15.737  -5.152  1.00 20.00     0.106 N 
HETATM    5  C5  UNL     1     -34.605  14.840  -5.534  1.00 20.00     0.351 C 
HETATM    6  C3  UNL     1     -34.300  13.629  -4.691  1.00 20.00     0.156 C 
HETATM    7  C4  UNL     1     -33.252  13.935  -3.662  1.00 20.00     0.110 C 
HETATM    8  O9  UNL     1     -34.835  12.537  -4.830  1.00 20.00    -0.296 OA
HETATM    9  C6  UNL     1     -33.221  15.456  -3.743  1.00 20.00     0.281 C 
ENDBRANCH   3   4
TORSDOF 1
ENDMDL
MODEL 8
REMARK VINA RESULT:      -3.8     11.220     12.245
REMARK  1 active torsions:
REMARK  status: ('A' for Active; 'I' for Inactive)
REMARK    1  A    between atoms: C7_7  and  N8_8 
ROOT
HETATM    1  C1  UNL     1     -33.670  17.831  -5.843  1.00 20.00     0.013 C 
HETATM    2  C2  UNL     1     -33.698  17.432  -4.710  1.00 20.00    -0.087 C 
HETATM    3  C7  UNL     1     -33.730  16.951  -3.327  1.00 20.00     0.365 C 
ENDROOT
BRANCH   3   4
HETATM    4  N8  UNL     1     -34.476  15.706  -3.233  1.00 20.00     0.106 N 
HETATM    5  C5  UNL     1     -33.838  14.615  -3.970  1.00 20.00     0.351 C 
HETATM    6  C3  UNL     1     -35.010  13.702  -4.221  1.00 20.00     0.156 C 
HETATM    7  C4  UNL     1     -36.307  14.384  -3.895  1.00 20.00     0.110 C 
HETATM    8  O9  UNL     1     -34.917  12.554  -4.632  1.00 20.00    -0.296 OA
HETATM    9  C6  UNL     1     -35.837  15.827  -3.769  1.00 20.00     0.281 C 
ENDBRANCH   3   4
TORSDOF 1
ENDMDL
MODEL 9
REMARK VINA RESULT:      -3.8     11.350     12.024
REMARK  1 active torsions:
REMARK  status: ('A' for Active; 'I' for Inactive)
REMARK    1  A    between atoms: C7_7  and  N8_8 
ROOT
HETATM    1  C1  UNL     1     -34.860  14.709  -6.943  1.00 20.00     0.013 C 
HETATM    2  C2  UNL     1     -34.805  14.090  -5.916  1.00 20.00    -0.087 C 
HETATM    3  C7  UNL     1     -34.738  13.329  -4.666  1.00 20.00     0.365 C 
ENDROOT
BRANCH   3   4
HETATM    4  N8  UNL     1     -34.664  14.225  -3.522  1.00 20.00     0.106 N 
HETATM    5  C5  UNL     1     -35.841  15.087  -3.411  1.00 20.00     0.351 C 
HETATM    6  C3  UNL     1     -35.289  16.238  -2.610  1.00 20.00     0.156 C 
HETATM    7  C4  UNL     1     -33.794  16.169  -2.521  1.00 20.00     0.110 C 
HETATM    8  O9  UNL     1     -35.973  17.113  -2.097  1.00 20.00    -0.296 OA
HETATM    9  C6  UNL     1     -33.501  15.118  -3.584  1.00 20.00     0.281 C 
ENDBRANCH   3   4
TORSDOF 1
ENDMDL
