MODEL 1
REMARK VINA RESULT:      -4.7      0.000      0.000
REMARK  0 active torsions:
REMARK  status: ('A' for Active; 'I' for Inactive)
ROOT
HETATM    1  C1  UNL     1     -34.031   5.455   6.529  1.00 20.00     0.003 C 
HETATM    2  C2  UNL     1     -35.123   4.520   6.016  1.00 20.00     0.001 C 
HETATM    3  C3  UNL     1     -33.885   6.684   5.638  1.00 20.00     0.041 C 
HETATM    4  C4  UNL     1     -34.874   4.115   4.561  1.00 20.00     0.012 C 
HETATM    5  C5  UNL     1     -32.262   6.439   3.630  1.00 20.00     0.207 A 
HETATM    6  C6  UNL     1     -33.661   6.274   4.202  1.00 20.00     0.089 A 
HETATM    7  C7  UNL     1     -34.702   5.322   3.600  1.00 20.00    -0.014 C 
HETATM    8  C8  UNL     1     -34.296   4.767   2.220  1.00 20.00     0.018 C 
HETATM    9  C9  UNL     1     -36.049   6.057   3.416  1.00 20.00     0.018 C 
HETATM   10  O10 UNL     1     -33.307   7.376   3.350  1.00 20.00    -0.374 OA
ENDROOT
TORSDOF 0
ENDMDL
MODEL 2
REMARK VINA RESULT:      -4.6     12.309     13.482
REMARK  0 active torsions:
REMARK  status: ('A' for Active; 'I' for Inactive)
ROOT
HETATM    1  C1  UNL     1     -35.086  14.303  -6.254  1.00 20.00     0.003 C 
HETATM    2  C2  UNL     1     -34.854  13.346  -5.087  1.00 20.00     0.001 C 
HETATM    3  C3  UNL     1     -34.099  15.465  -6.225  1.00 20.00     0.041 C 
HETATM    4  C4  UNL     1     -34.910  14.078  -3.744  1.00 20.00     0.012 C 
HETATM    5  C5  UNL     1     -34.823  17.528  -4.829  1.00 20.00     0.207 A 
HETATM    6  C6  UNL     1     -34.147  16.167  -4.889  1.00 20.00     0.089 A 
HETATM    7  C7  UNL     1     -33.937  15.284  -3.653  1.00 20.00    -0.014 C 
HETATM    8  C8  UNL     1     -34.222  16.014  -2.325  1.00 20.00     0.018 C 
HETATM    9  C9  UNL     1     -32.474  14.790  -3.596  1.00 20.00     0.018 C 
HETATM   10  O10 UNL     1     -33.398  17.395  -4.870  1.00 20.00    -0.374 OA
ENDROOT
TORSDOF 0
ENDMDL
MODEL 3
REMARK VINA RESULT:      -4.3     11.979     13.053
REMARK  0 active torsions:
REMARK  status: ('A' for Active; 'I' for Inactive)
ROOT
HETATM    1  C1  UNL     1     -34.133  16.326  -2.851  1.00 20.00     0.003 C 
HETATM    2  C2  UNL     1     -33.183  15.928  -3.979  1.00 20.00     0.001 C 
HETATM    3  C3  UNL     1     -35.221  15.278  -2.645  1.00 20.00     0.041 C 
HETATM    4  C4  UNL     1     -33.943  15.663  -5.281  1.00 20.00     0.012 C 
HETATM    5  C5  UNL     1     -37.356  15.567  -4.088  1.00 20.00     0.207 A 
HETATM    6  C6  UNL     1     -35.950  15.010  -3.939  1.00 20.00     0.089 A 
HETATM    7  C7  UNL     1     -35.078  14.614  -5.137  1.00 20.00    -0.014 C 
HETATM    8  C8  UNL     1     -35.851  14.577  -6.471  1.00 20.00     0.018 C 
HETATM    9  C9  UNL     1     -34.481  13.206  -4.918  1.00 20.00     0.018 C 
HETATM   10  O10 UNL     1     -37.121  14.192  -3.768  1.00 20.00    -0.374 OA
ENDROOT
TORSDOF 0
ENDMDL
MODEL 4
REMARK VINA RESULT:      -4.2     12.235     13.472
REMARK  0 active torsions:
REMARK  status: ('A' for Active; 'I' for Inactive)
ROOT
HETATM    1  C1  UNL     1     -34.417  15.290  -7.005  1.00 20.00     0.003 C 
HETATM    2  C2  UNL     1     -35.066  16.548  -6.433  1.00 20.00     0.001 C 
HETATM    3  C3  UNL     1     -34.948  14.032  -6.327  1.00 20.00     0.041 C 
HETATM    4  C4  UNL     1     -34.887  16.628  -4.915  1.00 20.00     0.012 C 
HETATM    5  C5  UNL     1     -33.697  13.292  -4.179  1.00 20.00     0.207 A 
HETATM    6  C6  UNL     1     -34.786  14.130  -4.829  1.00 20.00     0.089 A 
HETATM    7  C7  UNL     1     -35.396  15.369  -4.162  1.00 20.00    -0.014 C 
HETATM    8  C8  UNL     1     -35.002  15.521  -2.679  1.00 20.00     0.018 C 
HETATM    9  C9  UNL     1     -36.938  15.297  -4.218  1.00 20.00     0.018 C 
HETATM   10  O10 UNL     1     -35.072  12.895  -4.149  1.00 20.00    -0.374 OA
ENDROOT
TORSDOF 0
ENDMDL
MODEL 5
REMARK VINA RESULT:      -4.2     11.962     13.013
REMARK  0 active torsions:
REMARK  status: ('A' for Active; 'I' for Inactive)
ROOT
HETATM    1  C1  UNL     1     -37.292  15.483  -4.678  1.00 20.00     0.003 C 
HETATM    2  C2  UNL     1     -36.709  16.827  -4.251  1.00 20.00     0.001 C 
HETATM    3  C3  UNL     1     -36.649  14.330  -3.915  1.00 20.00     0.041 C 
HETATM    4  C4  UNL     1     -35.187  16.851  -4.405  1.00 20.00     0.012 C 
HETATM    5  C5  UNL     1     -34.491  13.345  -4.964  1.00 20.00     0.207 A 
HETATM    6  C6  UNL     1     -35.146  14.374  -4.057  1.00 20.00     0.089 A 
HETATM    7  C7  UNL     1     -34.468  15.692  -3.663  1.00 20.00    -0.014 C 
HETATM    8  C8  UNL     1     -32.975  15.749  -4.043  1.00 20.00     0.018 C 
HETATM    9  C9  UNL     1     -34.557  15.898  -2.134  1.00 20.00     0.018 C 
HETATM   10  O10 UNL     1     -34.496  13.200  -3.540  1.00 20.00    -0.374 OA
ENDROOT
TORSDOF 0
ENDMDL
MODEL 6
REMARK VINA RESULT:      -4.2     12.287     13.273
REMARK  0 active torsions:
REMARK  status: ('A' for Active; 'I' for Inactive)
ROOT
HETATM    1  C1  UNL     1     -32.738  14.876  -3.624  1.00 20.00     0.003 C 
HETATM    2  C2  UNL     1     -33.533  13.586  -3.808  1.00 20.00     0.001 C 
HETATM    3  C3  UNL     1     -33.659  16.088  -3.523  1.00 20.00     0.041 C 
HETATM    4  C4  UNL     1     -34.461  13.671  -5.022  1.00 20.00     0.012 C 
HETATM    5  C5  UNL     1     -34.305  17.206  -5.771  1.00 20.00     0.207 A 
HETATM    6  C6  UNL     1     -34.584  16.150  -4.714  1.00 20.00     0.089 A 
HETATM    7  C7  UNL     1     -35.418  14.893  -4.990  1.00 20.00    -0.014 C 
HETATM    8  C8  UNL     1     -36.164  14.938  -6.339  1.00 20.00     0.018 C 
HETATM    9  C9  UNL     1     -36.484  14.711  -3.886  1.00 20.00     0.018 C 
HETATM   10  O10 UNL     1     -35.328  17.379  -4.786  1.00 20.00    -0.374 OA
ENDROOT
TORSDOF 0
ENDMDL
MODEL 7
REMARK VINA RESULT:      -4.1     12.117     13.312
REMARK  0 active torsions:
REMARK  status: ('A' for Active; 'I' for Inactive)
ROOT
HETATM    1  C1  UNL     1     -33.461  16.554  -5.491  1.00 20.00     0.003 C 
HETATM    2  C2  UNL     1     -34.179  15.529  -6.365  1.00 20.00     0.001 C 
HETATM    3  C3  UNL     1     -33.403  16.102  -4.036  1.00 20.00     0.041 C 
HETATM    4  C4  UNL     1     -35.580  15.222  -5.831  1.00 20.00     0.012 C 
HETATM    5  C5  UNL     1     -35.432  16.768  -2.564  1.00 20.00     0.207 A 
HETATM    6  C6  UNL     1     -34.788  15.782  -3.525  1.00 20.00     0.089 A 
HETATM    7  C7  UNL     1     -35.595  14.769  -4.347  1.00 20.00    -0.014 C 
HETATM    8  C8  UNL     1     -37.068  14.660  -3.906  1.00 20.00     0.018 C 
HETATM    9  C9  UNL     1     -34.973  13.361  -4.210  1.00 20.00     0.018 C 
HETATM   10  O10 UNL     1     -34.827  15.554  -2.106  1.00 20.00    -0.374 OA
ENDROOT
TORSDOF 0
ENDMDL
MODEL 8
REMARK VINA RESULT:      -4.1     12.447     13.633
REMARK  0 active torsions:
REMARK  status: ('A' for Active; 'I' for Inactive)
ROOT
HETATM    1  C1  UNL     1     -34.575  13.156  -4.805  1.00 20.00     0.003 C 
HETATM    2  C2  UNL     1     -33.605  13.789  -3.810  1.00 20.00     0.001 C 
HETATM    3  C3  UNL     1     -34.936  14.125  -5.925  1.00 20.00     0.041 C 
HETATM    4  C4  UNL     1     -34.161  15.097  -3.244  1.00 20.00     0.012 C 
HETATM    5  C5  UNL     1     -36.957  15.684  -5.463  1.00 20.00     0.207 A 
HETATM    6  C6  UNL     1     -35.464  15.420  -5.355  1.00 20.00     0.089 A 
HETATM    7  C7  UNL     1     -34.563  16.127  -4.334  1.00 20.00    -0.014 C 
HETATM    8  C8  UNL     1     -35.253  17.311  -3.627  1.00 20.00     0.018 C 
HETATM    9  C9  UNL     1     -33.304  16.685  -5.034  1.00 20.00     0.018 C 
HETATM   10  O10 UNL     1     -36.017  16.292  -6.356  1.00 20.00    -0.374 OA
ENDROOT
TORSDOF 0
ENDMDL
MODEL 9
REMARK VINA RESULT:      -4.1      8.748      9.805
REMARK  0 active torsions:
REMARK  status: ('A' for Active; 'I' for Inactive)
ROOT
HETATM    1  C1  UNL     1     -43.202   4.786   0.982  1.00 20.00     0.003 C 
HETATM    2  C2  UNL     1     -43.417   6.295   0.897  1.00 20.00     0.001 C 
HETATM    3  C3  UNL     1     -41.908   4.368   0.292  1.00 20.00     0.041 C 
HETATM    4  C4  UNL     1     -43.389   6.783  -0.553  1.00 20.00     0.012 C 
HETATM    5  C5  UNL     1     -42.093   3.859  -2.244  1.00 20.00     0.207 A 
HETATM    6  C6  UNL     1     -41.881   4.872  -1.131  1.00 20.00     0.089 A 
HETATM    7  C7  UNL     1     -42.101   6.378  -1.321  1.00 20.00    -0.014 C 
HETATM    8  C8  UNL     1     -42.288   6.788  -2.795  1.00 20.00     0.018 C 
HETATM    9  C9  UNL     1     -40.886   7.164  -0.780  1.00 20.00     0.018 C 
HETATM   10  O10 UNL     1     -40.789   4.336  -1.898  1.00 20.00    -0.374 OA
ENDROOT
TORSDOF 0
ENDMDL
