MODEL 1
REMARK VINA RESULT:      -4.5      0.000      0.000
REMARK  0 active torsions:
REMARK  status: ('A' for Active; 'I' for Inactive)
ROOT
HETATM    1  C1  UNL     1     -37.496  14.559  -3.831  1.00 20.00     0.071 C 
HETATM    2  C2  UNL     1     -35.555  15.851  -4.656  1.00 20.00     0.152 C 
HETATM    3  C3  UNL     1     -35.207  13.609  -4.003  1.00 20.00     0.028 C 
HETATM    4  C4  UNL     1     -33.872  14.202  -4.439  1.00 20.00     0.018 C 
HETATM    5  C5  UNL     1     -36.068  14.825  -3.668  1.00 20.00     0.163 C 
HETATM    6  C6  UNL     1     -34.241  15.424  -5.297  1.00 20.00     0.015 C 
HETATM    7  C7  UNL     1     -34.491  15.044  -6.758  1.00 20.00     0.023 C 
HETATM    8  C8  UNL     1     -33.187  16.521  -5.190  1.00 20.00     0.023 C 
HETATM    9  N9  UNL     1     -38.629  14.348  -3.961  1.00 20.00    -0.196 NA
HETATM   10  O10 UNL     1     -36.129  16.905  -4.910  1.00 20.00    -0.296 OA
ENDROOT
TORSDOF 0
ENDMDL
MODEL 2
REMARK VINA RESULT:      -4.4      2.292      3.285
REMARK  0 active torsions:
REMARK  status: ('A' for Active; 'I' for Inactive)
ROOT
HETATM    1  C1  UNL     1     -35.772  14.783  -7.292  1.00 20.00     0.071 C 
HETATM    2  C2  UNL     1     -34.498  14.035  -5.309  1.00 20.00     0.152 C 
HETATM    3  C3  UNL     1     -34.174  16.244  -6.074  1.00 20.00     0.028 C 
HETATM    4  C4  UNL     1     -33.265  16.007  -4.873  1.00 20.00     0.018 C 
HETATM    5  C5  UNL     1     -34.492  14.842  -6.589  1.00 20.00     0.163 C 
HETATM    6  C6  UNL     1     -33.876  14.797  -4.146  1.00 20.00     0.015 C 
HETATM    7  C7  UNL     1     -34.976  15.212  -3.166  1.00 20.00     0.023 C 
HETATM    8  C8  UNL     1     -32.804  13.967  -3.446  1.00 20.00     0.023 C 
HETATM    9  N9  UNL     1     -36.789  14.737  -7.849  1.00 20.00    -0.196 NA
HETATM   10  O10 UNL     1     -34.949  12.897  -5.217  1.00 20.00    -0.296 OA
ENDROOT
TORSDOF 0
ENDMDL
MODEL 3
REMARK VINA RESULT:      -4.4      2.329      2.888
REMARK  0 active torsions:
REMARK  status: ('A' for Active; 'I' for Inactive)
ROOT
HETATM    1  C1  UNL     1     -33.708  16.164  -2.537  1.00 20.00     0.071 C 
HETATM    2  C2  UNL     1     -34.106  15.918  -4.965  1.00 20.00     0.152 C 
HETATM    3  C3  UNL     1     -34.250  13.990  -3.610  1.00 20.00     0.028 C 
HETATM    4  C4  UNL     1     -34.498  13.586  -5.060  1.00 20.00     0.018 C 
HETATM    5  C5  UNL     1     -33.505  15.319  -3.712  1.00 20.00     0.163 C 
HETATM    6  C6  UNL     1     -34.888  14.891  -5.774  1.00 20.00     0.015 C 
HETATM    7  C7  UNL     1     -36.385  15.186  -5.654  1.00 20.00     0.023 C 
HETATM    8  C8  UNL     1     -34.448  14.881  -7.235  1.00 20.00     0.023 C 
HETATM    9  N9  UNL     1     -33.872  16.834  -1.604  1.00 20.00    -0.196 NA
HETATM   10  O10 UNL     1     -33.977  17.093  -5.294  1.00 20.00    -0.296 OA
ENDROOT
TORSDOF 0
ENDMDL
MODEL 4
REMARK VINA RESULT:      -4.3     11.143     12.447
REMARK  0 active torsions:
REMARK  status: ('A' for Active; 'I' for Inactive)
ROOT
HETATM    1  C1  UNL     1     -42.646   7.631  -1.860  1.00 20.00     0.071 C 
HETATM    2  C2  UNL     1     -42.438   5.291  -2.632  1.00 20.00     0.152 C 
HETATM    3  C3  UNL     1     -41.088   5.995  -0.828  1.00 20.00     0.028 C 
HETATM    4  C4  UNL     1     -40.761   4.538  -1.142  1.00 20.00     0.018 C 
HETATM    5  C5  UNL     1     -41.728   6.522  -2.110  1.00 20.00     0.163 C 
HETATM    6  C6  UNL     1     -41.976   4.020  -1.931  1.00 20.00     0.015 C 
HETATM    7  C7  UNL     1     -43.088   3.519  -1.008  1.00 20.00     0.023 C 
HETATM    8  C8  UNL     1     -41.572   2.945  -2.936  1.00 20.00     0.023 C 
HETATM    9  N9  UNL     1     -43.375   8.511  -1.660  1.00 20.00    -0.196 NA
HETATM   10  O10 UNL     1     -43.286   5.312  -3.519  1.00 20.00    -0.296 OA
ENDROOT
TORSDOF 0
ENDMDL
MODEL 5
REMARK VINA RESULT:      -4.3      2.362      3.131
REMARK  0 active torsions:
REMARK  status: ('A' for Active; 'I' for Inactive)
ROOT
HETATM    1  C1  UNL     1     -34.649  13.507  -4.135  1.00 20.00     0.071 C 
HETATM    2  C2  UNL     1     -35.760  15.504  -3.190  1.00 20.00     0.152 C 
HETATM    3  C3  UNL     1     -33.408  15.525  -3.389  1.00 20.00     0.028 C 
HETATM    4  C4  UNL     1     -33.854  16.838  -2.756  1.00 20.00     0.018 C 
HETATM    5  C5  UNL     1     -34.571  14.569  -3.134  1.00 20.00     0.163 C 
HETATM    6  C6  UNL     1     -35.344  16.968  -3.118  1.00 20.00     0.015 C 
HETATM    7  C7  UNL     1     -35.546  17.619  -4.488  1.00 20.00     0.023 C 
HETATM    8  C8  UNL     1     -36.119  17.715  -2.037  1.00 20.00     0.023 C 
HETATM    9  N9  UNL     1     -34.711  12.665  -4.931  1.00 20.00    -0.196 NA
HETATM   10  O10 UNL     1     -36.924  15.129  -3.280  1.00 20.00    -0.296 OA
ENDROOT
TORSDOF 0
ENDMDL
MODEL 6
REMARK VINA RESULT:      -4.3      2.550      3.377
REMARK  0 active torsions:
REMARK  status: ('A' for Active; 'I' for Inactive)
ROOT
HETATM    1  C1  UNL     1     -35.038  13.771  -4.500  1.00 20.00     0.071 C 
HETATM    2  C2  UNL     1     -34.202  15.934  -3.639  1.00 20.00     0.152 C 
HETATM    3  C3  UNL     1     -36.529  15.539  -3.594  1.00 20.00     0.028 C 
HETATM    4  C4  UNL     1     -36.261  16.938  -3.049  1.00 20.00     0.018 C 
HETATM    5  C5  UNL     1     -35.283  15.209  -4.412  1.00 20.00     0.163 C 
HETATM    6  C6  UNL     1     -34.778  16.928  -2.640  1.00 20.00     0.015 C 
HETATM    7  C7  UNL     1     -34.578  16.393  -1.221  1.00 20.00     0.023 C 
HETATM    8  C8  UNL     1     -34.145  18.307  -2.799  1.00 20.00     0.023 C 
HETATM    9  N9  UNL     1     -34.843  12.629  -4.568  1.00 20.00    -0.196 NA
HETATM   10  O10 UNL     1     -33.000  15.745  -3.800  1.00 20.00    -0.296 OA
ENDROOT
TORSDOF 0
ENDMDL
MODEL 7
REMARK VINA RESULT:      -4.2      2.948      3.539
REMARK  0 active torsions:
REMARK  status: ('A' for Active; 'I' for Inactive)
ROOT
HETATM    1  C1  UNL     1     -33.941  17.020  -1.916  1.00 20.00     0.071 C 
HETATM    2  C2  UNL     1     -33.819  15.099  -3.469  1.00 20.00     0.152 C 
HETATM    3  C3  UNL     1     -35.950  15.938  -2.897  1.00 20.00     0.028 C 
HETATM    4  C4  UNL     1     -36.130  14.746  -3.831  1.00 20.00     0.018 C 
HETATM    5  C5  UNL     1     -34.550  15.753  -2.316  1.00 20.00     0.163 C 
HETATM    6  C6  UNL     1     -34.774  14.588  -4.540  1.00 20.00     0.015 C 
HETATM    7  C7  UNL     1     -34.668  15.478  -5.780  1.00 20.00     0.023 C 
HETATM    8  C8  UNL     1     -34.492  13.129  -4.887  1.00 20.00     0.023 C 
HETATM    9  N9  UNL     1     -33.458  18.026  -1.599  1.00 20.00    -0.196 NA
HETATM   10  O10 UNL     1     -32.598  14.991  -3.534  1.00 20.00    -0.296 OA
ENDROOT
TORSDOF 0
ENDMDL
MODEL 8
REMARK VINA RESULT:      -4.2      2.020      2.624
REMARK  0 active torsions:
REMARK  status: ('A' for Active; 'I' for Inactive)
ROOT
HETATM    1  C1  UNL     1     -35.683  14.395  -6.766  1.00 20.00     0.071 C 
HETATM    2  C2  UNL     1     -35.304  15.503  -4.587  1.00 20.00     0.152 C 
HETATM    3  C3  UNL     1     -34.539  13.287  -4.860  1.00 20.00     0.028 C 
HETATM    4  C4  UNL     1     -34.225  13.740  -3.438  1.00 20.00     0.018 C 
HETATM    5  C5  UNL     1     -35.656  14.224  -5.314  1.00 20.00     0.163 C 
HETATM    6  C6  UNL     1     -34.272  15.276  -3.490  1.00 20.00     0.015 C 
HETATM    7  C7  UNL     1     -32.933  15.877  -3.923  1.00 20.00     0.023 C 
HETATM    8  C8  UNL     1     -34.733  15.867  -2.162  1.00 20.00     0.023 C 
HETATM    9  N9  UNL     1     -35.703  14.532  -7.918  1.00 20.00    -0.196 NA
HETATM   10  O10 UNL     1     -35.795  16.598  -4.848  1.00 20.00    -0.296 OA
ENDROOT
TORSDOF 0
ENDMDL
MODEL 9
REMARK VINA RESULT:      -4.1      2.370      3.067
REMARK  0 active torsions:
REMARK  status: ('A' for Active; 'I' for Inactive)
ROOT
HETATM    1  C1  UNL     1     -34.731  16.552  -1.777  1.00 20.00     0.071 C 
HETATM    2  C2  UNL     1     -35.554  15.379  -3.793  1.00 20.00     0.152 C 
HETATM    3  C3  UNL     1     -33.452  16.449  -3.904  1.00 20.00     0.028 C 
HETATM    4  C4  UNL     1     -33.757  15.831  -5.265  1.00 20.00     0.018 C 
HETATM    5  C5  UNL     1     -34.819  16.579  -3.236  1.00 20.00     0.163 C 
HETATM    6  C6  UNL     1     -34.831  14.766  -4.986  1.00 20.00     0.015 C 
HETATM    7  C7  UNL     1     -34.218  13.427  -4.571  1.00 20.00     0.023 C 
HETATM    8  C8  UNL     1     -35.769  14.593  -6.176  1.00 20.00     0.023 C 
HETATM    9  N9  UNL     1     -34.660  16.528  -0.619  1.00 20.00    -0.196 NA
HETATM   10  O10 UNL     1     -36.610  14.950  -3.340  1.00 20.00    -0.296 OA
ENDROOT
TORSDOF 0
ENDMDL
