MODEL 1
REMARK VINA RESULT:      -4.4      0.000      0.000
REMARK  2 active torsions:
REMARK  status: ('A' for Active; 'I' for Inactive)
REMARK    1  A    between atoms: C3_3  and  C8_8 
REMARK    2  A    between atoms: C8_8  and  N10_10 
ROOT
HETATM    1  C1  UNL     1     -35.170  13.606  -4.123  1.00 20.00     0.100 C 
HETATM    2  C8  UNL     1     -35.682  14.701  -3.280  1.00 20.00     0.356 C 
HETATM    3  N9  UNL     1     -34.768  12.740  -4.784  1.00 20.00    -0.195 NA
ENDROOT
BRANCH   2   4
HETATM    4  C3  UNL     1     -34.518  15.540  -2.765  1.00 20.00    -0.041 C 
HETATM    5  C2  UNL     1     -34.708  16.363  -1.713  1.00 20.00    -0.025 C 
HETATM    6  C4  UNL     1     -33.726  17.293  -1.078  1.00 20.00     0.036 C 
HETATM    7  C5  UNL     1     -33.200  15.392  -3.486  1.00 20.00     0.046 C 
ENDBRANCH   2   4
BRANCH   2   8
HETATM    8  N10 UNL     1     -36.657  15.501  -4.026  1.00 20.00     0.102 N 
HETATM    9  C6  UNL     1     -37.927  14.784  -4.133  1.00 20.00     0.311 C 
HETATM   10  C7  UNL     1     -36.139  15.827  -5.353  1.00 20.00     0.311 C 
ENDBRANCH   2   8
TORSDOF 2
ENDMDL
MODEL 2
REMARK VINA RESULT:      -4.4      1.272      2.253
REMARK  2 active torsions:
REMARK  status: ('A' for Active; 'I' for Inactive)
REMARK    1  A    between atoms: C3_3  and  C8_8 
REMARK    2  A    between atoms: C8_8  and  N10_10 
ROOT
HETATM    1  C1  UNL     1     -36.680  14.735  -4.088  1.00 20.00     0.100 C 
HETATM    2  C8  UNL     1     -35.404  15.321  -4.533  1.00 20.00     0.356 C 
HETATM    3  N9  UNL     1     -37.689  14.277  -3.739  1.00 20.00    -0.195 NA
ENDROOT
BRANCH   2   4
HETATM    4  C3  UNL     1     -34.568  15.713  -3.319  1.00 20.00    -0.041 C 
HETATM    5  C2  UNL     1     -35.187  16.129  -2.194  1.00 20.00    -0.025 C 
HETATM    6  C4  UNL     1     -34.567  16.592  -0.916  1.00 20.00     0.036 C 
HETATM    7  C5  UNL     1     -33.069  15.607  -3.462  1.00 20.00     0.046 C 
ENDBRANCH   2   4
BRANCH   2   8
HETATM    8  N10 UNL     1     -34.699  14.389  -5.416  1.00 20.00     0.102 N 
HETATM    9  C6  UNL     1     -35.270  14.432  -6.761  1.00 20.00     0.311 C 
HETATM   10  C7  UNL     1     -34.760  13.032  -4.876  1.00 20.00     0.311 C 
ENDBRANCH   2   8
TORSDOF 2
ENDMDL
MODEL 3
REMARK VINA RESULT:      -4.2      1.769      2.595
REMARK  2 active torsions:
REMARK  status: ('A' for Active; 'I' for Inactive)
REMARK    1  A    between atoms: C3_3  and  C8_8 
REMARK    2  A    between atoms: C8_8  and  N10_10 
ROOT
HETATM    1  C1  UNL     1     -33.376  16.239  -4.215  1.00 20.00     0.100 C 
HETATM    2  C8  UNL     1     -33.865  15.690  -2.938  1.00 20.00     0.356 C 
HETATM    3  N9  UNL     1     -32.986  16.670  -5.221  1.00 20.00    -0.195 NA
ENDROOT
BRANCH   2   4
HETATM    4  C3  UNL     1     -34.110  16.825  -1.951  1.00 20.00    -0.041 C 
HETATM    5  C2  UNL     1     -34.635  16.548  -0.739  1.00 20.00    -0.025 C 
HETATM    6  C4  UNL     1     -34.988  17.503   0.355  1.00 20.00     0.036 C 
HETATM    7  C5  UNL     1     -33.741  18.216  -2.407  1.00 20.00     0.046 C 
ENDBRANCH   2   4
BRANCH   2   8
HETATM    8  N10 UNL     1     -35.065  14.880  -3.162  1.00 20.00     0.102 N 
HETATM    9  C6  UNL     1     -34.725  13.659  -3.893  1.00 20.00     0.311 C 
HETATM   10  C7  UNL     1     -36.071  15.650  -3.891  1.00 20.00     0.311 C 
ENDBRANCH   2   8
TORSDOF 2
ENDMDL
MODEL 4
REMARK VINA RESULT:      -4.2      1.340      2.709
REMARK  2 active torsions:
REMARK  status: ('A' for Active; 'I' for Inactive)
REMARK    1  A    between atoms: C3_3  and  C8_8 
REMARK    2  A    between atoms: C8_8  and  N10_10 
ROOT
HETATM    1  C1  UNL     1     -36.565  14.828  -3.719  1.00 20.00     0.100 C 
HETATM    2  C8  UNL     1     -35.214  15.411  -3.797  1.00 20.00     0.356 C 
HETATM    3  N9  UNL     1     -37.631  14.371  -3.663  1.00 20.00    -0.195 NA
ENDROOT
BRANCH   2   4
HETATM    4  C3  UNL     1     -35.069  16.513  -2.754  1.00 20.00    -0.041 C 
HETATM    5  C2  UNL     1     -34.843  16.181  -1.465  1.00 20.00    -0.025 C 
HETATM    6  C4  UNL     1     -34.710  17.090  -0.287  1.00 20.00     0.036 C 
HETATM    7  C5  UNL     1     -35.192  17.935  -3.244  1.00 20.00     0.046 C 
ENDBRANCH   2   4
BRANCH   2   8
HETATM    8  N10 UNL     1     -34.201  14.363  -3.642  1.00 20.00     0.102 N 
HETATM    9  C6  UNL     1     -32.860  14.926  -3.796  1.00 20.00     0.311 C 
HETATM   10  C7  UNL     1     -34.423  13.294  -4.613  1.00 20.00     0.311 C 
ENDBRANCH   2   8
TORSDOF 2
ENDMDL
MODEL 5
REMARK VINA RESULT:      -4.2      1.671      2.185
REMARK  2 active torsions:
REMARK  status: ('A' for Active; 'I' for Inactive)
REMARK    1  A    between atoms: C3_3  and  C8_8 
REMARK    2  A    between atoms: C8_8  and  N10_10 
ROOT
HETATM    1  C1  UNL     1     -34.130  13.925  -3.909  1.00 20.00     0.100 C 
HETATM    2  C8  UNL     1     -35.248  14.831  -4.226  1.00 20.00     0.356 C 
HETATM    3  N9  UNL     1     -33.253  13.206  -3.658  1.00 20.00    -0.195 NA
ENDROOT
BRANCH   2   4
HETATM    4  C3  UNL     1     -35.441  15.826  -3.087  1.00 20.00    -0.041 C 
HETATM    5  C2  UNL     1     -34.572  15.829  -2.054  1.00 20.00    -0.025 C 
HETATM    6  C4  UNL     1     -34.596  16.683  -0.829  1.00 20.00     0.036 C 
HETATM    7  C5  UNL     1     -36.621  16.761  -3.192  1.00 20.00     0.046 C 
ENDBRANCH   2   4
BRANCH   2   8
HETATM    8  N10 UNL     1     -35.012  15.496  -5.510  1.00 20.00     0.102 N 
HETATM    9  C6  UNL     1     -35.046  14.521  -6.600  1.00 20.00     0.311 C 
HETATM   10  C7  UNL     1     -33.732  16.200  -5.491  1.00 20.00     0.311 C 
ENDBRANCH   2   8
TORSDOF 2
ENDMDL
MODEL 6
REMARK VINA RESULT:      -4.0      1.946      3.797
REMARK  2 active torsions:
REMARK  status: ('A' for Active; 'I' for Inactive)
REMARK    1  A    between atoms: C3_3  and  C8_8 
REMARK    2  A    between atoms: C8_8  and  N10_10 
ROOT
HETATM    1  C1  UNL     1     -33.496  14.361  -3.912  1.00 20.00     0.100 C 
HETATM    2  C8  UNL     1     -33.644  15.802  -4.185  1.00 20.00     0.356 C 
HETATM    3  N9  UNL     1     -33.373  13.226  -3.697  1.00 20.00    -0.195 NA
ENDROOT
BRANCH   2   4
HETATM    4  C3  UNL     1     -34.071  16.009  -5.633  1.00 20.00    -0.041 C 
HETATM    5  C2  UNL     1     -34.446  14.944  -6.373  1.00 20.00    -0.025 C 
HETATM    6  C4  UNL     1     -34.860  14.917  -7.808  1.00 20.00     0.036 C 
HETATM    7  C5  UNL     1     -34.043  17.425  -6.155  1.00 20.00     0.046 C 
ENDBRANCH   2   4
BRANCH   2   8
HETATM    8  N10 UNL     1     -34.586  16.402  -3.236  1.00 20.00     0.102 N 
HETATM    9  C6  UNL     1     -33.960  16.550  -1.923  1.00 20.00     0.311 C 
HETATM   10  C7  UNL     1     -35.796  15.589  -3.138  1.00 20.00     0.311 C 
ENDBRANCH   2   8
TORSDOF 2
ENDMDL
MODEL 7
REMARK VINA RESULT:      -3.9      1.936      3.484
REMARK  2 active torsions:
REMARK  status: ('A' for Active; 'I' for Inactive)
REMARK    1  A    between atoms: C3_3  and  C8_8 
REMARK    2  A    between atoms: C8_8  and  N10_10 
ROOT
HETATM    1  C1  UNL     1     -34.558  13.852  -4.688  1.00 20.00     0.100 C 
HETATM    2  C8  UNL     1     -34.225  15.287  -4.733  1.00 20.00     0.356 C 
HETATM    3  N9  UNL     1     -34.815  12.720  -4.652  1.00 20.00    -0.195 NA
ENDROOT
BRANCH   2   4
HETATM    4  C3  UNL     1     -34.385  15.807  -6.157  1.00 20.00    -0.041 C 
HETATM    5  C2  UNL     1     -34.295  17.133  -6.393  1.00 20.00    -0.025 C 
HETATM    6  C4  UNL     1     -34.457  17.854  -7.692  1.00 20.00     0.036 C 
HETATM    7  C5  UNL     1     -34.639  14.780  -7.233  1.00 20.00     0.046 C 
ENDBRANCH   2   4
BRANCH   2   8
HETATM    8  N10 UNL     1     -35.050  16.028  -3.775  1.00 20.00     0.102 N 
HETATM    9  C6  UNL     1     -34.550  15.831  -2.415  1.00 20.00     0.311 C 
HETATM   10  C7  UNL     1     -36.446  15.609  -3.874  1.00 20.00     0.311 C 
ENDBRANCH   2   8
TORSDOF 2
ENDMDL
MODEL 8
REMARK VINA RESULT:      -3.9      1.939      2.887
REMARK  2 active torsions:
REMARK  status: ('A' for Active; 'I' for Inactive)
REMARK    1  A    between atoms: C3_3  and  C8_8 
REMARK    2  A    between atoms: C8_8  and  N10_10 
ROOT
HETATM    1  C1  UNL     1     -33.654  16.835  -4.938  1.00 20.00     0.100 C 
HETATM    2  C8  UNL     1     -34.010  15.609  -4.203  1.00 20.00     0.356 C 
HETATM    3  N9  UNL     1     -33.367  17.801  -5.516  1.00 20.00    -0.195 NA
ENDROOT
BRANCH   2   4
HETATM    4  C3  UNL     1     -34.797  15.971  -2.949  1.00 20.00    -0.041 C 
HETATM    5  C2  UNL     1     -34.136  16.402  -1.853  1.00 20.00    -0.025 C 
HETATM    6  C4  UNL     1     -34.701  16.770  -0.520  1.00 20.00     0.036 C 
HETATM    7  C5  UNL     1     -36.297  15.820  -3.018  1.00 20.00     0.046 C 
ENDBRANCH   2   4
BRANCH   2   8
HETATM    8  N10 UNL     1     -34.748  14.692  -5.076  1.00 20.00     0.102 N 
HETATM    9  C6  UNL     1     -34.404  13.305  -4.764  1.00 20.00     0.311 C 
HETATM   10  C7  UNL     1     -34.465  14.987  -6.479  1.00 20.00     0.311 C 
ENDBRANCH   2   8
TORSDOF 2
ENDMDL
MODEL 9
REMARK VINA RESULT:      -3.9      2.346      4.207
REMARK  2 active torsions:
REMARK  status: ('A' for Active; 'I' for Inactive)
REMARK    1  A    between atoms: C3_3  and  C8_8 
REMARK    2  A    between atoms: C8_8  and  N10_10 
ROOT
HETATM    1  C1  UNL     1     -34.415  16.772  -1.138  1.00 20.00     0.100 C 
HETATM    2  C8  UNL     1     -33.957  16.610  -2.529  1.00 20.00     0.356 C 
HETATM    3  N9  UNL     1     -34.770  16.898  -0.039  1.00 20.00    -0.195 NA
ENDROOT
BRANCH   2   4
HETATM    4  C3  UNL     1     -34.679  15.433  -3.173  1.00 20.00    -0.041 C 
HETATM    5  C2  UNL     1     -33.959  14.400  -3.662  1.00 20.00    -0.025 C 
HETATM    6  C4  UNL     1     -34.456  13.177  -4.361  1.00 20.00     0.036 C 
HETATM    7  C5  UNL     1     -36.186  15.502  -3.224  1.00 20.00     0.046 C 
ENDBRANCH   2   4
BRANCH   2   8
HETATM    8  N10 UNL     1     -34.152  17.857  -3.274  1.00 20.00     0.102 N 
HETATM    9  C6  UNL     1     -33.569  17.747  -4.611  1.00 20.00     0.311 C 
HETATM   10  C7  UNL     1     -33.563  18.981  -2.549  1.00 20.00     0.311 C 
ENDBRANCH   2   8
TORSDOF 2
ENDMDL
