MODEL 1
REMARK VINA RESULT:      -5.3      0.000      0.000
REMARK  4 active torsions:
REMARK  status: ('A' for Active; 'I' for Inactive)
REMARK    1  A    between atoms: C4_4  and  C5_5 
REMARK    2  A    between atoms: C5_5  and  C6_6 
REMARK    3  A    between atoms: C6_6  and  C7_7 
REMARK    4  A    between atoms: C7_7  and  O8_8 
ROOT
HETATM    1  C1  UNL     1     -31.994   8.678   1.485  1.00 20.00     0.012 C 
HETATM    2  C2  UNL     1     -32.152   7.853   2.343  1.00 20.00    -0.117 C 
HETATM    3  C4  UNL     1     -32.343   6.845   3.395  1.00 20.00     0.093 C 
ENDROOT
BRANCH   3   4
HETATM    4  C5  UNL     1     -33.363   5.787   2.968  1.00 20.00     0.014 C 
BRANCH   4   5
HETATM    5  C6  UNL     1     -34.582   5.787   3.891  1.00 20.00     0.032 C 
BRANCH   5   6
HETATM    6  C7  UNL     1     -34.448   4.836   5.083  1.00 20.00     0.114 C 
HETATM    7  C3  UNL     1     -34.589   5.529   6.431  1.00 20.00     0.039 C 
BRANCH   6   8
HETATM    8  O8  UNL     1     -35.481   3.856   4.965  1.00 20.00    -0.396 OA
HETATM    9  H20 UNL     1     -36.305   4.343   4.819  1.00 20.00     0.210 HD
ENDBRANCH   6   8
ENDBRANCH   5   6
ENDBRANCH   4   5
ENDBRANCH   3   4
TORSDOF 4
ENDMDL
MODEL 2
REMARK VINA RESULT:      -4.8      1.115      1.484
REMARK  4 active torsions:
REMARK  status: ('A' for Active; 'I' for Inactive)
REMARK    1  A    between atoms: C4_4  and  C5_5 
REMARK    2  A    between atoms: C5_5  and  C6_6 
REMARK    3  A    between atoms: C6_6  and  C7_7 
REMARK    4  A    between atoms: C7_7  and  O8_8 
ROOT
HETATM    1  C1  UNL     1     -31.650   7.567   3.298  1.00 20.00     0.012 C 
HETATM    2  C2  UNL     1     -32.447   6.689   3.118  1.00 20.00    -0.117 C 
HETATM    3  C4  UNL     1     -33.421   5.610   2.894  1.00 20.00     0.093 C 
ENDROOT
BRANCH   3   4
HETATM    4  C5  UNL     1     -34.740   5.901   3.612  1.00 20.00     0.014 C 
BRANCH   4   5
HETATM    5  C6  UNL     1     -35.221   4.683   4.402  1.00 20.00     0.032 C 
BRANCH   5   6
HETATM    6  C7  UNL     1     -34.659   4.614   5.824  1.00 20.00     0.114 C 
HETATM    7  C3  UNL     1     -34.321   5.978   6.410  1.00 20.00     0.039 C 
BRANCH   6   8
HETATM    8  O8  UNL     1     -35.652   3.999   6.647  1.00 20.00    -0.396 OA
HETATM    9  H20 UNL     1     -36.485   4.052   6.156  1.00 20.00     0.210 HD
ENDBRANCH   6   8
ENDBRANCH   5   6
ENDBRANCH   4   5
ENDBRANCH   3   4
TORSDOF 4
ENDMDL
MODEL 3
REMARK VINA RESULT:      -4.7      2.229      4.639
REMARK  4 active torsions:
REMARK  status: ('A' for Active; 'I' for Inactive)
REMARK    1  A    between atoms: C4_4  and  C5_5 
REMARK    2  A    between atoms: C5_5  and  C6_6 
REMARK    3  A    between atoms: C6_6  and  C7_7 
REMARK    4  A    between atoms: C7_7  and  O8_8 
ROOT
HETATM    1  C1  UNL     1     -34.886   4.592   6.272  1.00 20.00     0.012 C 
HETATM    2  C2  UNL     1     -35.055   4.908   5.126  1.00 20.00    -0.117 C 
HETATM    3  C4  UNL     1     -35.267   5.294   3.724  1.00 20.00     0.093 C 
ENDROOT
BRANCH   3   4
HETATM    4  C5  UNL     1     -33.941   5.626   3.037  1.00 20.00     0.014 C 
BRANCH   4   5
HETATM    5  C6  UNL     1     -33.217   6.768   3.751  1.00 20.00     0.032 C 
BRANCH   5   6
HETATM    6  C7  UNL     1     -31.934   7.216   3.047  1.00 20.00     0.114 C 
HETATM    7  C3  UNL     1     -32.169   8.259   1.962  1.00 20.00     0.039 C 
BRANCH   6   8
HETATM    8  O8  UNL     1     -31.075   7.778   4.040  1.00 20.00    -0.396 OA
HETATM    9  H20 UNL     1     -31.570   8.502   4.452  1.00 20.00     0.210 HD
ENDBRANCH   6   8
ENDBRANCH   5   6
ENDBRANCH   4   5
ENDBRANCH   3   4
TORSDOF 4
ENDMDL
MODEL 4
REMARK VINA RESULT:      -4.3     11.184     11.817
REMARK  4 active torsions:
REMARK  status: ('A' for Active; 'I' for Inactive)
REMARK    1  A    between atoms: C4_4  and  C5_5 
REMARK    2  A    between atoms: C5_5  and  C6_6 
REMARK    3  A    between atoms: C6_6  and  C7_7 
REMARK    4  A    between atoms: C7_7  and  O8_8 
ROOT
HETATM    1  C1  UNL     1     -34.426  17.375  -0.203  1.00 20.00     0.012 C 
HETATM    2  C2  UNL     1     -34.618  16.660  -1.148  1.00 20.00    -0.117 C 
HETATM    3  C4  UNL     1     -34.857  15.786  -2.305  1.00 20.00     0.093 C 
ENDROOT
BRANCH   3   4
HETATM    4  C5  UNL     1     -33.555  15.496  -3.056  1.00 20.00     0.014 C 
BRANCH   4   5
HETATM    5  C6  UNL     1     -33.636  14.170  -3.813  1.00 20.00     0.032 C 
BRANCH   5   6
HETATM    6  C7  UNL     1     -35.016  13.889  -4.412  1.00 20.00     0.114 C 
HETATM    7  C3  UNL     1     -35.084  14.118  -5.916  1.00 20.00     0.039 C 
BRANCH   6   8
HETATM    8  O8  UNL     1     -35.327  12.520  -4.146  1.00 20.00    -0.396 OA
HETATM    9  H20 UNL     1     -34.482  12.076  -3.979  1.00 20.00     0.210 HD
ENDBRANCH   6   8
ENDBRANCH   5   6
ENDBRANCH   4   5
ENDBRANCH   3   4
TORSDOF 4
ENDMDL
MODEL 5
REMARK VINA RESULT:      -4.3      1.791      3.999
REMARK  4 active torsions:
REMARK  status: ('A' for Active; 'I' for Inactive)
REMARK    1  A    between atoms: C4_4  and  C5_5 
REMARK    2  A    between atoms: C5_5  and  C6_6 
REMARK    3  A    between atoms: C6_6  and  C7_7 
REMARK    4  A    between atoms: C7_7  and  O8_8 
ROOT
HETATM    1  C1  UNL     1     -33.561   7.246   6.833  1.00 20.00     0.012 C 
HETATM    2  C2  UNL     1     -34.113   6.311   6.321  1.00 20.00    -0.117 C 
HETATM    3  C4  UNL     1     -34.791   5.166   5.698  1.00 20.00     0.093 C 
ENDROOT
BRANCH   3   4
HETATM    4  C5  UNL     1     -34.644   5.199   4.175  1.00 20.00     0.014 C 
BRANCH   4   5
HETATM    5  C6  UNL     1     -34.126   6.557   3.698  1.00 20.00     0.032 C 
BRANCH   5   6
HETATM    6  C7  UNL     1     -32.883   6.460   2.809  1.00 20.00     0.114 C 
HETATM    7  C3  UNL     1     -32.249   7.811   2.505  1.00 20.00     0.039 C 
BRANCH   6   8
HETATM    8  O8  UNL     1     -31.927   5.654   3.498  1.00 20.00    -0.396 OA
HETATM    9  H20 UNL     1     -32.431   4.974   3.969  1.00 20.00     0.210 HD
ENDBRANCH   6   8
ENDBRANCH   5   6
ENDBRANCH   4   5
ENDBRANCH   3   4
TORSDOF 4
ENDMDL
MODEL 6
REMARK VINA RESULT:      -4.2      1.878      4.395
REMARK  4 active torsions:
REMARK  status: ('A' for Active; 'I' for Inactive)
REMARK    1  A    between atoms: C4_4  and  C5_5 
REMARK    2  A    between atoms: C5_5  and  C6_6 
REMARK    3  A    between atoms: C6_6  and  C7_7 
REMARK    4  A    between atoms: C7_7  and  O8_8 
ROOT
HETATM    1  C1  UNL     1     -35.131   3.888   5.590  1.00 20.00     0.012 C 
HETATM    2  C2  UNL     1     -34.710   4.947   5.966  1.00 20.00    -0.117 C 
HETATM    3  C4  UNL     1     -34.197   6.244   6.430  1.00 20.00     0.093 C 
ENDROOT
BRANCH   3   4
HETATM    4  C5  UNL     1     -33.353   6.923   5.350  1.00 20.00     0.014 C 
BRANCH   4   5
HETATM    5  C6  UNL     1     -33.919   6.654   3.954  1.00 20.00     0.032 C 
BRANCH   5   6
HETATM    6  C7  UNL     1     -32.845   6.539   2.869  1.00 20.00     0.114 C 
HETATM    7  C3  UNL     1     -32.159   7.861   2.553  1.00 20.00     0.039 C 
BRANCH   6   8
HETATM    8  O8  UNL     1     -31.860   5.617   3.338  1.00 20.00    -0.396 OA
HETATM    9  H20 UNL     1     -32.344   4.848   3.674  1.00 20.00     0.210 HD
ENDBRANCH   6   8
ENDBRANCH   5   6
ENDBRANCH   4   5
ENDBRANCH   3   4
TORSDOF 4
ENDMDL
MODEL 7
REMARK VINA RESULT:      -4.2      2.758      4.929
REMARK  4 active torsions:
REMARK  status: ('A' for Active; 'I' for Inactive)
REMARK    1  A    between atoms: C4_4  and  C5_5 
REMARK    2  A    between atoms: C5_5  and  C6_6 
REMARK    3  A    between atoms: C6_6  and  C7_7 
REMARK    4  A    between atoms: C7_7  and  O8_8 
ROOT
HETATM    1  C1  UNL     1     -34.481   5.191   5.965  1.00 20.00     0.012 C 
HETATM    2  C2  UNL     1     -34.227   5.790   4.957  1.00 20.00    -0.117 C 
HETATM    3  C4  UNL     1     -33.919   6.526   3.722  1.00 20.00     0.093 C 
ENDROOT
BRANCH   3   4
HETATM    4  C5  UNL     1     -32.453   6.346   3.323  1.00 20.00     0.014 C 
BRANCH   4   5
HETATM    5  C6  UNL     1     -31.788   7.692   3.034  1.00 20.00     0.032 C 
BRANCH   5   6
HETATM    6  C7  UNL     1     -32.338   8.393   1.789  1.00 20.00     0.114 C 
HETATM    7  C3  UNL     1     -32.736   9.842   2.034  1.00 20.00     0.039 C 
BRANCH   6   8
HETATM    8  O8  UNL     1     -31.312   8.366   0.795  1.00 20.00    -0.396 OA
HETATM    9  H20 UNL     1     -31.190   9.281   0.503  1.00 20.00     0.210 HD
ENDBRANCH   6   8
ENDBRANCH   5   6
ENDBRANCH   4   5
ENDBRANCH   3   4
TORSDOF 4
ENDMDL
MODEL 8
REMARK VINA RESULT:      -3.9     10.737     11.801
REMARK  4 active torsions:
REMARK  status: ('A' for Active; 'I' for Inactive)
REMARK    1  A    between atoms: C4_4  and  C5_5 
REMARK    2  A    between atoms: C5_5  and  C6_6 
REMARK    3  A    between atoms: C6_6  and  C7_7 
REMARK    4  A    between atoms: C7_7  and  O8_8 
ROOT
HETATM    1  C1  UNL     1     -34.648  16.843  -0.389  1.00 20.00     0.012 C 
HETATM    2  C2  UNL     1     -34.365  16.891  -1.555  1.00 20.00    -0.117 C 
HETATM    3  C4  UNL     1     -34.015  16.952  -2.981  1.00 20.00     0.093 C 
ENDROOT
BRANCH   3   4
HETATM    4  C5  UNL     1     -35.092  16.289  -3.842  1.00 20.00     0.014 C 
BRANCH   4   5
HETATM    5  C6  UNL     1     -35.363  14.855  -3.384  1.00 20.00     0.032 C 
BRANCH   5   6
HETATM    6  C7  UNL     1     -34.616  13.799  -4.203  1.00 20.00     0.114 C 
HETATM    7  C3  UNL     1     -33.207  13.523  -3.697  1.00 20.00     0.039 C 
BRANCH   6   8
HETATM    8  O8  UNL     1     -35.371  12.589  -4.129  1.00 20.00    -0.396 OA
HETATM    9  H20 UNL     1     -34.916  12.022  -3.488  1.00 20.00     0.210 HD
ENDBRANCH   6   8
ENDBRANCH   5   6
ENDBRANCH   4   5
ENDBRANCH   3   4
TORSDOF 4
ENDMDL
MODEL 9
REMARK VINA RESULT:      -3.9     12.013     13.047
REMARK  4 active torsions:
REMARK  status: ('A' for Active; 'I' for Inactive)
REMARK    1  A    between atoms: C4_4  and  C5_5 
REMARK    2  A    between atoms: C5_5  and  C6_6 
REMARK    3  A    between atoms: C6_6  and  C7_7 
REMARK    4  A    between atoms: C7_7  and  O8_8 
ROOT
HETATM    1  C1  UNL     1     -32.942  18.757  -0.596  1.00 20.00     0.012 C 
HETATM    2  C2  UNL     1     -33.698  17.825  -0.619  1.00 20.00    -0.117 C 
HETATM    3  C4  UNL     1     -34.624  16.684  -0.642  1.00 20.00     0.093 C 
ENDROOT
BRANCH   3   4
HETATM    4  C5  UNL     1     -34.931  16.252  -2.077  1.00 20.00     0.014 C 
BRANCH   4   5
HETATM    5  C6  UNL     1     -33.654  15.867  -2.825  1.00 20.00     0.032 C 
BRANCH   5   6
HETATM    6  C7  UNL     1     -33.632  16.336  -4.282  1.00 20.00     0.114 C 
HETATM    7  C3  UNL     1     -33.664  17.851  -4.432  1.00 20.00     0.039 C 
BRANCH   6   8
HETATM    8  O8  UNL     1     -32.427  15.846  -4.871  1.00 20.00    -0.396 OA
HETATM    9  H20 UNL     1     -32.093  15.157  -4.277  1.00 20.00     0.210 HD
ENDBRANCH   6   8
ENDBRANCH   5   6
ENDBRANCH   4   5
ENDBRANCH   3   4
TORSDOF 4
ENDMDL
