MODEL 1
REMARK VINA RESULT:      -5.0      0.000      0.000
REMARK  1 active torsions:
REMARK  status: ('A' for Active; 'I' for Inactive)
REMARK    1  A    between atoms: C5_5  and  C10_10 
ROOT
HETATM    1  C1  UNL     1     -33.266  15.274  -3.775  1.00 20.00     0.166 C 
HETATM    2  C2  UNL     1     -33.508  16.762  -3.674  1.00 20.00     0.086 C 
HETATM    3  C3  UNL     1     -35.623  16.025  -2.413  1.00 20.00     0.009 C 
HETATM    4  C4  UNL     1     -35.778  15.170  -3.670  1.00 20.00     0.052 C 
HETATM    5  C5  UNL     1     -34.515  17.086  -2.563  1.00 20.00    -0.004 C 
HETATM    6  C6  UNL     1     -34.491  14.386  -3.942  1.00 20.00     0.159 C 
HETATM    7  C7  UNL     1     -34.504  13.770  -5.334  1.00 20.00     0.060 C 
HETATM    8  O11 UNL     1     -32.129  14.805  -3.747  1.00 20.00    -0.294 OA
HETATM    9  F12 UNL     1     -34.427  13.363  -3.039  1.00 20.00    -0.235 F 
ENDROOT
BRANCH   5  10
HETATM   10  C10 UNL     1     -33.811  17.307  -1.223  1.00 20.00    -0.018 C 
HETATM   11  C8  UNL     1     -33.214  18.711  -1.154  1.00 20.00     0.010 C 
HETATM   12  C9  UNL     1     -34.779  17.079  -0.063  1.00 20.00     0.010 C 
ENDBRANCH   5  10
TORSDOF 1
ENDMDL
MODEL 2
REMARK VINA RESULT:      -4.9      2.066      2.602
REMARK  1 active torsions:
REMARK  status: ('A' for Active; 'I' for Inactive)
REMARK    1  A    between atoms: C5_5  and  C10_10 
ROOT
HETATM    1  C1  UNL     1     -35.293  14.452  -4.329  1.00 20.00     0.166 C 
HETATM    2  C2  UNL     1     -34.225  14.447  -3.260  1.00 20.00     0.086 C 
HETATM    3  C3  UNL     1     -33.861  16.869  -4.039  1.00 20.00     0.009 C 
HETATM    4  C4  UNL     1     -33.785  16.163  -5.392  1.00 20.00     0.052 C 
HETATM    5  C5  UNL     1     -33.833  15.876  -2.861  1.00 20.00    -0.004 C 
HETATM    6  C6  UNL     1     -35.003  15.255  -5.588  1.00 20.00     0.159 C 
HETATM    7  C7  UNL     1     -34.807  14.319  -6.773  1.00 20.00     0.060 C 
HETATM    8  O11 UNL     1     -36.338  13.816  -4.196  1.00 20.00    -0.294 OA
HETATM    9  F12 UNL     1     -36.076  16.053  -5.865  1.00 20.00    -0.235 F 
ENDROOT
BRANCH   5  10
HETATM   10  C10 UNL     1     -34.705  16.391  -1.714  1.00 20.00    -0.018 C 
HETATM   11  C8  UNL     1     -33.885  17.264  -0.766  1.00 20.00     0.010 C 
HETATM   12  C9  UNL     1     -35.903  17.167  -2.257  1.00 20.00     0.010 C 
ENDBRANCH   5  10
TORSDOF 1
ENDMDL
MODEL 3
REMARK VINA RESULT:      -4.8      2.105      2.727
REMARK  1 active torsions:
REMARK  status: ('A' for Active; 'I' for Inactive)
REMARK    1  A    between atoms: C5_5  and  C10_10 
ROOT
HETATM    1  C1  UNL     1     -35.768  15.928  -4.626  1.00 20.00     0.166 C 
HETATM    2  C2  UNL     1     -36.046  15.494  -3.206  1.00 20.00     0.086 C 
HETATM    3  C3  UNL     1     -33.483  15.526  -3.017  1.00 20.00     0.009 C 
HETATM    4  C4  UNL     1     -33.625  14.660  -4.267  1.00 20.00     0.052 C 
HETATM    5  C5  UNL     1     -34.831  15.743  -2.303  1.00 20.00    -0.004 C 
HETATM    6  C6  UNL     1     -34.529  15.350  -5.293  1.00 20.00     0.159 C 
HETATM    7  C7  UNL     1     -34.932  14.393  -6.406  1.00 20.00     0.060 C 
HETATM    8  O11 UNL     1     -36.523  16.695  -5.223  1.00 20.00    -0.294 OA
HETATM    9  F12 UNL     1     -33.813  16.366  -5.862  1.00 20.00    -0.235 F 
ENDROOT
BRANCH   5  10
HETATM   10  C10 UNL     1     -34.880  17.140  -1.679  1.00 20.00    -0.018 C 
HETATM   11  C8  UNL     1     -34.754  17.055  -0.160  1.00 20.00     0.010 C 
HETATM   12  C9  UNL     1     -33.779  18.026  -2.260  1.00 20.00     0.010 C 
ENDBRANCH   5  10
TORSDOF 1
ENDMDL
MODEL 4
REMARK VINA RESULT:      -4.7      1.955      4.411
REMARK  1 active torsions:
REMARK  status: ('A' for Active; 'I' for Inactive)
REMARK    1  A    between atoms: C5_5  and  C10_10 
ROOT
HETATM    1  C1  UNL     1     -33.867  15.088  -3.590  1.00 20.00     0.166 C 
HETATM    2  C2  UNL     1     -34.680  14.026  -4.293  1.00 20.00     0.086 C 
HETATM    3  C3  UNL     1     -36.100  16.036  -5.036  1.00 20.00     0.009 C 
HETATM    4  C4  UNL     1     -36.072  16.299  -3.532  1.00 20.00     0.052 C 
HETATM    5  C5  UNL     1     -35.558  14.637  -5.393  1.00 20.00    -0.004 C 
HETATM    6  C6  UNL     1     -34.631  16.271  -3.013  1.00 20.00     0.159 C 
HETATM    7  C7  UNL     1     -34.594  16.226  -1.492  1.00 20.00     0.060 C 
HETATM    8  O11 UNL     1     -32.647  14.988  -3.469  1.00 20.00    -0.294 OA
HETATM    9  F12 UNL     1     -34.024  17.429  -3.407  1.00 20.00    -0.235 F 
ENDROOT
BRANCH   5  10
HETATM   10  C10 UNL     1     -34.819  14.683  -6.732  1.00 20.00    -0.018 C 
HETATM   11  C8  UNL     1     -35.768  14.351  -7.881  1.00 20.00     0.010 C 
HETATM   12  C9  UNL     1     -34.177  16.053  -6.945  1.00 20.00     0.010 C 
ENDBRANCH   5  10
TORSDOF 1
ENDMDL
MODEL 5
REMARK VINA RESULT:      -4.6      2.100      4.086
REMARK  1 active torsions:
REMARK  status: ('A' for Active; 'I' for Inactive)
REMARK    1  A    between atoms: C5_5  and  C10_10 
ROOT
HETATM    1  C1  UNL     1     -33.838  17.084  -4.477  1.00 20.00     0.166 C 
HETATM    2  C2  UNL     1     -33.157  15.784  -4.119  1.00 20.00     0.086 C 
HETATM    3  C3  UNL     1     -34.692  15.898  -2.061  1.00 20.00     0.009 C 
HETATM    4  C4  UNL     1     -34.071  17.292  -1.980  1.00 20.00     0.052 C 
HETATM    5  C5  UNL     1     -33.971  14.998  -3.084  1.00 20.00    -0.004 C 
HETATM    6  C6  UNL     1     -34.202  18.011  -3.326  1.00 20.00     0.159 C 
HETATM    7  C7  UNL     1     -33.336  19.263  -3.369  1.00 20.00     0.060 C 
HETATM    8  O11 UNL     1     -34.066  17.389  -5.647  1.00 20.00    -0.294 OA
HETATM    9  F12 UNL     1     -35.503  18.404  -3.464  1.00 20.00    -0.235 F 
ENDROOT
BRANCH   5  10
HETATM   10  C10 UNL     1     -34.974  14.061  -3.761  1.00 20.00    -0.018 C 
HETATM   11  C8  UNL     1     -36.358  14.702  -3.816  1.00 20.00     0.010 C 
HETATM   12  C9  UNL     1     -34.498  13.691  -5.166  1.00 20.00     0.010 C 
ENDBRANCH   5  10
TORSDOF 1
ENDMDL
MODEL 6
REMARK VINA RESULT:      -4.6      2.313      3.077
REMARK  1 active torsions:
REMARK  status: ('A' for Active; 'I' for Inactive)
REMARK    1  A    between atoms: C5_5  and  C10_10 
ROOT
HETATM    1  C1  UNL     1     -35.778  15.910  -5.578  1.00 20.00     0.166 C 
HETATM    2  C2  UNL     1     -36.568  15.521  -4.350  1.00 20.00     0.086 C 
HETATM    3  C3  UNL     1     -34.527  14.029  -3.883  1.00 20.00     0.009 C 
HETATM    4  C4  UNL     1     -34.823  13.596  -5.318  1.00 20.00     0.052 C 
HETATM    5  C5  UNL     1     -35.662  14.885  -3.287  1.00 20.00    -0.004 C 
HETATM    6  C6  UNL     1     -34.938  14.821  -6.230  1.00 20.00     0.159 C 
HETATM    7  C7  UNL     1     -35.526  14.447  -7.584  1.00 20.00     0.060 C 
HETATM    8  O11 UNL     1     -35.832  17.048  -6.042  1.00 20.00    -0.294 OA
HETATM    9  F12 UNL     1     -33.677  15.300  -6.446  1.00 20.00    -0.235 F 
ENDROOT
BRANCH   5  10
HETATM   10  C10 UNL     1     -35.086  15.943  -2.343  1.00 20.00    -0.018 C 
HETATM   11  C8  UNL     1     -33.638  16.259  -2.707  1.00 20.00     0.010 C 
HETATM   12  C9  UNL     1     -35.936  17.213  -2.377  1.00 20.00     0.010 C 
ENDBRANCH   5  10
TORSDOF 1
ENDMDL
MODEL 7
REMARK VINA RESULT:      -4.5      2.313      4.462
REMARK  1 active torsions:
REMARK  status: ('A' for Active; 'I' for Inactive)
REMARK    1  A    between atoms: C5_5  and  C10_10 
ROOT
HETATM    1  C1  UNL     1     -34.839  16.721  -4.127  1.00 20.00     0.166 C 
HETATM    2  C2  UNL     1     -33.757  16.462  -5.150  1.00 20.00     0.086 C 
HETATM    3  C3  UNL     1     -34.573  14.032  -4.950  1.00 20.00     0.009 C 
HETATM    4  C4  UNL     1     -34.357  14.340  -3.470  1.00 20.00     0.052 C 
HETATM    5  C5  UNL     1     -33.980  15.123  -5.864  1.00 20.00    -0.004 C 
HETATM    6  C6  UNL     1     -35.075  15.637  -3.085  1.00 20.00     0.159 C 
HETATM    7  C7  UNL     1     -34.633  16.125  -1.712  1.00 20.00     0.060 C 
HETATM    8  O11 UNL     1     -35.481  17.770  -4.122  1.00 20.00    -0.294 OA
HETATM    9  F12 UNL     1     -36.412  15.368  -3.016  1.00 20.00    -0.235 F 
ENDROOT
BRANCH   5  10
HETATM   10  C10 UNL     1     -34.848  15.296  -7.113  1.00 20.00    -0.018 C 
HETATM   11  C8  UNL     1     -36.301  14.937  -6.811  1.00 20.00     0.010 C 
HETATM   12  C9  UNL     1     -34.747  16.726  -7.641  1.00 20.00     0.010 C 
ENDBRANCH   5  10
TORSDOF 1
ENDMDL
MODEL 8
REMARK VINA RESULT:      -4.5      2.227      2.674
REMARK  1 active torsions:
REMARK  status: ('A' for Active; 'I' for Inactive)
REMARK    1  A    between atoms: C5_5  and  C10_10 
ROOT
HETATM    1  C1  UNL     1     -35.133  16.681  -5.029  1.00 20.00     0.166 C 
HETATM    2  C2  UNL     1     -36.140  16.172  -4.024  1.00 20.00     0.086 C 
HETATM    3  C3  UNL     1     -34.152  14.763  -3.203  1.00 20.00     0.009 C 
HETATM    4  C4  UNL     1     -34.105  14.410  -4.689  1.00 20.00     0.052 C 
HETATM    5  C5  UNL     1     -35.442  15.517  -2.824  1.00 20.00    -0.004 C 
HETATM    6  C6  UNL     1     -34.104  15.683  -5.539  1.00 20.00     0.159 C 
HETATM    7  C7  UNL     1     -34.362  15.368  -7.006  1.00 20.00     0.060 C 
HETATM    8  O11 UNL     1     -35.161  17.843  -5.434  1.00 20.00    -0.294 OA
HETATM    9  F12 UNL     1     -32.860  16.242  -5.451  1.00 20.00    -0.235 F 
ENDROOT
BRANCH   5  10
HETATM   10  C10 UNL     1     -35.152  16.540  -1.724  1.00 20.00    -0.018 C 
HETATM   11  C8  UNL     1     -33.689  16.972  -1.763  1.00 20.00     0.010 C 
HETATM   12  C9  UNL     1     -36.073  17.752  -1.862  1.00 20.00     0.010 C 
ENDBRANCH   5  10
TORSDOF 1
ENDMDL
MODEL 9
REMARK VINA RESULT:      -4.4      2.297      4.444
REMARK  1 active torsions:
REMARK  status: ('A' for Active; 'I' for Inactive)
REMARK    1  A    between atoms: C5_5  and  C10_10 
ROOT
HETATM    1  C1  UNL     1     -35.910  15.844  -3.643  1.00 20.00     0.166 C 
HETATM    2  C2  UNL     1     -36.067  16.873  -4.738  1.00 20.00     0.086 C 
HETATM    3  C3  UNL     1     -33.615  16.279  -5.231  1.00 20.00     0.009 C 
HETATM    4  C4  UNL     1     -33.501  16.566  -3.735  1.00 20.00     0.052 C 
HETATM    5  C5  UNL     1     -34.977  16.718  -5.806  1.00 20.00    -0.004 C 
HETATM    6  C6  UNL     1     -34.553  15.769  -2.958  1.00 20.00     0.159 C 
HETATM    7  C7  UNL     1     -34.665  16.257  -1.521  1.00 20.00     0.060 C 
HETATM    8  O11 UNL     1     -36.844  15.117  -3.306  1.00 20.00    -0.294 OA
HETATM    9  F12 UNL     1     -34.144  14.466  -2.921  1.00 20.00    -0.235 F 
ENDROOT
BRANCH   5  10
HETATM   10  C10 UNL     1     -35.417  15.758  -6.914  1.00 20.00    -0.018 C 
HETATM   11  C8  UNL     1     -34.884  14.352  -6.650  1.00 20.00     0.010 C 
HETATM   12  C9  UNL     1     -36.940  15.740  -7.035  1.00 20.00     0.010 C 
ENDBRANCH   5  10
TORSDOF 1
ENDMDL
