MODEL 1
REMARK VINA RESULT:      -4.3      0.000      0.000
REMARK  1 active torsions:
REMARK  status: ('A' for Active; 'I' for Inactive)
REMARK    1  A    between atoms: C1_1  and  C3_3 
ROOT
HETATM    1  C1  UNL     1     -33.966   5.881   4.183  1.00 20.00     0.035 C 
HETATM    2  C2  UNL     1     -33.330   6.675   5.044  1.00 20.00     0.053 C 
HETATM    3  C4  UNL     1     -33.294   5.938   2.869  1.00 20.00     0.073 C 
HETATM    4  C5  UNL     1     -32.009   6.664   3.246  1.00 20.00     0.180 C 
HETATM    5  C6  UNL     1     -33.635   6.978   6.468  1.00 20.00     0.077 C 
HETATM    6  O8  UNL     1     -32.221   7.331   4.507  1.00 20.00    -0.355 OA
ENDROOT
BRANCH   1   7
HETATM    7  C3  UNL     1     -35.147   5.073   4.432  1.00 20.00     0.250 C 
HETATM    8  O7  UNL     1     -36.192   5.312   3.806  1.00 20.00    -0.274 OA
HETATM    9 CL9  UNL     1     -35.011   3.791   5.624  1.00 20.00    -0.039 Cl
ENDBRANCH   1   7
TORSDOF 1
ENDMDL
MODEL 2
REMARK VINA RESULT:      -4.1     11.757     12.435
REMARK  1 active torsions:
REMARK  status: ('A' for Active; 'I' for Inactive)
REMARK    1  A    between atoms: C1_1  and  C3_3 
ROOT
HETATM    1  C1  UNL     1     -34.491  15.094  -3.306  1.00 20.00     0.035 C 
HETATM    2  C2  UNL     1     -35.696  14.669  -3.682  1.00 20.00     0.053 C 
HETATM    3  C4  UNL     1     -33.469  14.105  -3.706  1.00 20.00     0.073 C 
HETATM    4  C5  UNL     1     -34.293  13.216  -4.630  1.00 20.00     0.180 C 
HETATM    5  C6  UNL     1     -37.032  15.291  -3.484  1.00 20.00     0.077 C 
HETATM    6  O8  UNL     1     -35.689  13.441  -4.346  1.00 20.00    -0.355 OA
ENDROOT
BRANCH   1   7
HETATM    7  C3  UNL     1     -34.167  16.320  -2.597  1.00 20.00     0.250 C 
HETATM    8  O7  UNL     1     -33.586  17.238  -3.198  1.00 20.00    -0.274 OA
HETATM    9 CL9  UNL     1     -34.630  16.420  -0.906  1.00 20.00    -0.039 Cl
ENDBRANCH   1   7
TORSDOF 1
ENDMDL
MODEL 3
REMARK VINA RESULT:      -4.0     12.266     12.558
REMARK  1 active torsions:
REMARK  status: ('A' for Active; 'I' for Inactive)
REMARK    1  A    between atoms: C1_1  and  C3_3 
ROOT
HETATM    1  C1  UNL     1     -34.921  14.783  -3.878  1.00 20.00     0.035 C 
HETATM    2  C2  UNL     1     -36.020  15.317  -3.347  1.00 20.00     0.053 C 
HETATM    3  C4  UNL     1     -33.726  15.374  -3.242  1.00 20.00     0.073 C 
HETATM    4  C5  UNL     1     -34.369  16.099  -2.066  1.00 20.00     0.180 C 
HETATM    5  C6  UNL     1     -37.451  15.074  -3.670  1.00 20.00     0.077 C 
HETATM    6  O8  UNL     1     -35.773  16.264  -2.351  1.00 20.00    -0.355 OA
ENDROOT
BRANCH   1   7
HETATM    7  C3  UNL     1     -34.843  13.783  -4.929  1.00 20.00     0.250 C 
HETATM    8  O7  UNL     1     -34.822  12.579  -4.626  1.00 20.00    -0.274 OA
HETATM    9 CL9  UNL     1     -34.783  14.358  -6.587  1.00 20.00    -0.039 Cl
ENDBRANCH   1   7
TORSDOF 1
ENDMDL
MODEL 4
REMARK VINA RESULT:      -4.0      2.288      3.486
REMARK  1 active torsions:
REMARK  status: ('A' for Active; 'I' for Inactive)
REMARK    1  A    between atoms: C1_1  and  C3_3 
ROOT
HETATM    1  C1  UNL     1     -33.275   6.443   3.915  1.00 20.00     0.035 C 
HETATM    2  C2  UNL     1     -33.804   6.328   5.133  1.00 20.00     0.053 C 
HETATM    3  C4  UNL     1     -33.950   5.510   2.991  1.00 20.00     0.073 C 
HETATM    4  C5  UNL     1     -35.139   5.086   3.846  1.00 20.00     0.180 C 
HETATM    5  C6  UNL     1     -33.449   7.025   6.397  1.00 20.00     0.077 C 
HETATM    6  O8  UNL     1     -34.836   5.392   5.222  1.00 20.00    -0.355 OA
ENDROOT
BRANCH   1   7
HETATM    7  C3  UNL     1     -32.192   7.319   3.501  1.00 20.00     0.250 C 
HETATM    8  O7  UNL     1     -31.198   7.448   4.233  1.00 20.00    -0.274 OA
HETATM    9 CL9  UNL     1     -32.368   8.148   1.964  1.00 20.00    -0.039 Cl
ENDBRANCH   1   7
TORSDOF 1
ENDMDL
MODEL 5
REMARK VINA RESULT:      -4.0     12.239     12.458
REMARK  1 active torsions:
REMARK  status: ('A' for Active; 'I' for Inactive)
REMARK    1  A    between atoms: C1_1  and  C3_3 
ROOT
HETATM    1  C1  UNL     1     -34.926  14.645  -3.927  1.00 20.00     0.035 C 
HETATM    2  C2  UNL     1     -33.831  15.127  -3.342  1.00 20.00     0.053 C 
HETATM    3  C4  UNL     1     -36.125  15.241  -3.304  1.00 20.00     0.073 C 
HETATM    4  C5  UNL     1     -35.486  16.355  -2.485  1.00 20.00     0.180 C 
HETATM    5  C6  UNL     1     -32.399  14.816  -3.592  1.00 20.00     0.077 C 
HETATM    6  O8  UNL     1     -34.085  16.051  -2.326  1.00 20.00    -0.355 OA
ENDROOT
BRANCH   1   7
HETATM    7  C3  UNL     1     -34.997  13.672  -5.004  1.00 20.00     0.250 C 
HETATM    8  O7  UNL     1     -34.890  12.464  -4.743  1.00 20.00    -0.274 OA
HETATM    9 CL9  UNL     1     -35.235  14.287  -6.632  1.00 20.00    -0.039 Cl
ENDBRANCH   1   7
TORSDOF 1
ENDMDL
MODEL 6
REMARK VINA RESULT:      -4.0     12.142     12.829
REMARK  1 active torsions:
REMARK  status: ('A' for Active; 'I' for Inactive)
REMARK    1  A    between atoms: C1_1  and  C3_3 
ROOT
HETATM    1  C1  UNL     1     -33.898  15.474  -4.084  1.00 20.00     0.035 C 
HETATM    2  C2  UNL     1     -34.130  16.380  -3.135  1.00 20.00     0.053 C 
HETATM    3  C4  UNL     1     -33.602  16.157  -5.360  1.00 20.00     0.073 C 
HETATM    4  C5  UNL     1     -33.415  17.588  -4.870  1.00 20.00     0.180 C 
HETATM    5  C6  UNL     1     -34.496  16.193  -1.706  1.00 20.00     0.077 C 
HETATM    6  O8  UNL     1     -34.028  17.703  -3.570  1.00 20.00    -0.355 OA
ENDROOT
BRANCH   1   7
HETATM    7  C3  UNL     1     -33.932  14.027  -3.953  1.00 20.00     0.250 C 
HETATM    8  O7  UNL     1     -32.907  13.422  -3.602  1.00 20.00    -0.274 OA
HETATM    9 CL9  UNL     1     -35.451  13.220  -4.305  1.00 20.00    -0.039 Cl
ENDBRANCH   1   7
TORSDOF 1
ENDMDL
MODEL 7
REMARK VINA RESULT:      -4.0     12.456     13.174
REMARK  1 active torsions:
REMARK  status: ('A' for Active; 'I' for Inactive)
REMARK    1  A    between atoms: C1_1  and  C3_3 
ROOT
HETATM    1  C1  UNL     1     -34.631  15.005  -4.449  1.00 20.00     0.035 C 
HETATM    2  C2  UNL     1     -34.151  15.474  -5.600  1.00 20.00     0.053 C 
HETATM    3  C4  UNL     1     -34.048  15.763  -3.323  1.00 20.00     0.073 C 
HETATM    4  C5  UNL     1     -33.402  16.921  -4.074  1.00 20.00     0.180 C 
HETATM    5  C6  UNL     1     -34.408  15.027  -6.994  1.00 20.00     0.077 C 
HETATM    6  O8  UNL     1     -33.254  16.535  -5.456  1.00 20.00    -0.355 OA
ENDROOT
BRANCH   1   7
HETATM    7  C3  UNL     1     -35.570  13.913  -4.263  1.00 20.00     0.250 C 
HETATM    8  O7  UNL     1     -35.160  12.742  -4.300  1.00 20.00    -0.274 OA
HETATM    9 CL9  UNL     1     -37.253  14.333  -3.992  1.00 20.00    -0.039 Cl
ENDBRANCH   1   7
TORSDOF 1
ENDMDL
MODEL 8
REMARK VINA RESULT:      -3.9     12.030     12.840
REMARK  1 active torsions:
REMARK  status: ('A' for Active; 'I' for Inactive)
REMARK    1  A    between atoms: C1_1  and  C3_3 
ROOT
HETATM    1  C1  UNL     1     -34.069  15.515  -3.275  1.00 20.00     0.035 C 
HETATM    2  C2  UNL     1     -33.709  16.547  -4.038  1.00 20.00     0.053 C 
HETATM    3  C4  UNL     1     -34.375  15.990  -1.911  1.00 20.00     0.073 C 
HETATM    4  C5  UNL     1     -34.412  17.496  -2.144  1.00 20.00     0.180 C 
HETATM    5  C6  UNL     1     -33.282  16.579  -5.462  1.00 20.00     0.077 C 
HETATM    6  O8  UNL     1     -33.721  17.778  -3.378  1.00 20.00    -0.355 OA
ENDROOT
BRANCH   1   7
HETATM    7  C3  UNL     1     -34.152  14.117  -3.662  1.00 20.00     0.250 C 
HETATM    8  O7  UNL     1     -33.140  13.402  -3.587  1.00 20.00    -0.274 OA
HETATM    9 CL9  UNL     1     -35.709  13.525  -4.217  1.00 20.00    -0.039 Cl
ENDBRANCH   1   7
TORSDOF 1
ENDMDL
MODEL 9
REMARK VINA RESULT:      -3.9     12.016     12.326
REMARK  1 active torsions:
REMARK  status: ('A' for Active; 'I' for Inactive)
REMARK    1  A    between atoms: C1_1  and  C3_3 
ROOT
HETATM    1  C1  UNL     1     -35.749  14.684  -3.870  1.00 20.00     0.035 C 
HETATM    2  C2  UNL     1     -34.793  15.142  -3.064  1.00 20.00     0.053 C 
HETATM    3  C4  UNL     1     -35.173  13.706  -4.816  1.00 20.00     0.073 C 
HETATM    4  C5  UNL     1     -33.802  13.489  -4.188  1.00 20.00     0.180 C 
HETATM    5  C6  UNL     1     -34.865  16.153  -1.976  1.00 20.00     0.077 C 
HETATM    6  O8  UNL     1     -33.531  14.595  -3.303  1.00 20.00    -0.355 OA
ENDROOT
BRANCH   1   7
HETATM    7  C3  UNL     1     -37.153  15.057  -3.878  1.00 20.00     0.250 C 
HETATM    8  O7  UNL     1     -38.013  14.205  -3.603  1.00 20.00    -0.274 OA
HETATM    9 CL9  UNL     1     -37.543  16.721  -4.283  1.00 20.00    -0.039 Cl
ENDBRANCH   1   7
TORSDOF 1
ENDMDL
