MODEL 1
REMARK VINA RESULT:      -3.6      0.000      0.000
REMARK  3 active torsions:
REMARK  status: ('A' for Active; 'I' for Inactive)
REMARK    1  A    between atoms: C6_6  and  N8_8 
REMARK    2  A    between atoms: C6_6  and  O9_9 
REMARK    3  A    between atoms: C7_7  and  O9_9 
ROOT
HETATM    1  O9  UNL     1     -33.137   5.519   4.247  1.00 20.00    -0.352 OA
ENDROOT
BRANCH   1   2
HETATM    2  C6  UNL     1     -33.270   6.474   3.188  1.00 20.00     0.440 C 
BRANCH   2   3
HETATM    3  N8  UNL     1     -31.998   7.143   2.880  1.00 20.00     0.102 N 
HETATM    4  C4  UNL     1     -31.375   7.637   4.109  1.00 20.00     0.312 C 
HETATM    5  C5  UNL     1     -32.197   8.246   1.939  1.00 20.00     0.312 C 
ENDBRANCH   2   3
ENDBRANCH   1   2
BRANCH   1   6
HETATM    6  C7  UNL     1     -34.336   5.397   5.001  1.00 20.00     0.052 C 
HETATM    7  C1  UNL     1     -34.293   6.404   6.150  1.00 20.00     0.045 C 
HETATM    8  C2  UNL     1     -35.502   5.702   4.063  1.00 20.00     0.045 C 
HETATM    9  C3  UNL     1     -34.434   3.968   5.532  1.00 20.00     0.045 C 
ENDBRANCH   1   6
TORSDOF 3
ENDMDL
MODEL 2
REMARK VINA RESULT:      -3.3     11.403     12.328
REMARK  3 active torsions:
REMARK  status: ('A' for Active; 'I' for Inactive)
REMARK    1  A    between atoms: C6_6  and  N8_8 
REMARK    2  A    between atoms: C6_6  and  O9_9 
REMARK    3  A    between atoms: C7_7  and  O9_9 
ROOT
HETATM    1  O9  UNL     1     -34.403  15.075  -2.691  1.00 20.00    -0.352 OA
ENDROOT
BRANCH   1   2
HETATM    2  C6  UNL     1     -33.518  14.977  -3.814  1.00 20.00     0.440 C 
BRANCH   2   3
HETATM    3  N8  UNL     1     -34.062  14.117  -4.875  1.00 20.00     0.102 N 
HETATM    4  C4  UNL     1     -34.535  14.932  -5.995  1.00 20.00     0.312 C 
HETATM    5  C5  UNL     1     -35.150  13.279  -4.368  1.00 20.00     0.312 C 
ENDBRANCH   2   3
ENDBRANCH   1   2
BRANCH   1   6
HETATM    6  C7  UNL     1     -34.736  16.425  -2.398  1.00 20.00     0.052 C 
HETATM    7  C1  UNL     1     -33.770  17.339  -3.151  1.00 20.00     0.045 C 
HETATM    8  C2  UNL     1     -36.170  16.657  -2.867  1.00 20.00     0.045 C 
HETATM    9  C3  UNL     1     -34.623  16.638  -0.890  1.00 20.00     0.045 C 
ENDBRANCH   1   6
TORSDOF 3
ENDMDL
MODEL 3
REMARK VINA RESULT:      -3.2     11.566     12.464
REMARK  3 active torsions:
REMARK  status: ('A' for Active; 'I' for Inactive)
REMARK    1  A    between atoms: C6_6  and  N8_8 
REMARK    2  A    between atoms: C6_6  and  O9_9 
REMARK    3  A    between atoms: C7_7  and  O9_9 
ROOT
HETATM    1  O9  UNL     1     -34.324  15.891  -4.362  1.00 20.00    -0.352 OA
ENDROOT
BRANCH   1   2
HETATM    2  C6  UNL     1     -33.481  15.911  -3.205  1.00 20.00     0.440 C 
BRANCH   2   3
HETATM    3  N8  UNL     1     -33.827  17.004  -2.284  1.00 20.00     0.102 N 
HETATM    4  C4  UNL     1     -34.612  16.490  -1.161  1.00 20.00     0.312 C 
HETATM    5  C5  UNL     1     -34.570  18.059  -2.976  1.00 20.00     0.312 C 
ENDBRANCH   2   3
ENDBRANCH   1   2
BRANCH   1   6
HETATM    6  C7  UNL     1     -34.797  14.582  -4.647  1.00 20.00     0.052 C 
HETATM    7  C1  UNL     1     -36.204  14.435  -4.067  1.00 20.00     0.045 C 
HETATM    8  C2  UNL     1     -34.823  14.422  -6.165  1.00 20.00     0.045 C 
HETATM    9  C3  UNL     1     -33.841  13.570  -4.018  1.00 20.00     0.045 C 
ENDBRANCH   1   6
TORSDOF 3
ENDMDL
MODEL 4
REMARK VINA RESULT:      -3.2     11.597     12.495
REMARK  3 active torsions:
REMARK  status: ('A' for Active; 'I' for Inactive)
REMARK    1  A    between atoms: C6_6  and  N8_8 
REMARK    2  A    between atoms: C6_6  and  O9_9 
REMARK    3  A    between atoms: C7_7  and  O9_9 
ROOT
HETATM    1  O9  UNL     1     -34.359  15.719  -4.508  1.00 20.00    -0.352 OA
ENDROOT
BRANCH   1   2
HETATM    2  C6  UNL     1     -33.520  15.607  -3.353  1.00 20.00     0.440 C 
BRANCH   2   3
HETATM    3  N8  UNL     1     -33.694  16.739  -2.430  1.00 20.00     0.102 N 
HETATM    4  C4  UNL     1     -34.639  16.387  -1.369  1.00 20.00     0.312 C 
HETATM    5  C5  UNL     1     -34.157  17.932  -3.140  1.00 20.00     0.312 C 
ENDBRANCH   2   3
ENDBRANCH   1   2
BRANCH   1   6
HETATM    6  C7  UNL     1     -34.968  14.479  -4.840  1.00 20.00     0.052 C 
HETATM    7  C1  UNL     1     -34.089  13.347  -4.307  1.00 20.00     0.045 C 
HETATM    8  C2  UNL     1     -36.343  14.449  -4.176  1.00 20.00     0.045 C 
HETATM    9  C3  UNL     1     -35.104  14.393  -6.359  1.00 20.00     0.045 C 
ENDBRANCH   1   6
TORSDOF 3
ENDMDL
MODEL 5
REMARK VINA RESULT:      -3.2     11.646     13.105
REMARK  3 active torsions:
REMARK  status: ('A' for Active; 'I' for Inactive)
REMARK    1  A    between atoms: C6_6  and  N8_8 
REMARK    2  A    between atoms: C6_6  and  O9_9 
REMARK    3  A    between atoms: C7_7  and  O9_9 
ROOT
HETATM    1  O9  UNL     1     -35.264  14.954  -4.607  1.00 20.00    -0.352 OA
ENDROOT
BRANCH   1   2
HETATM    2  C6  UNL     1     -35.055  13.999  -5.653  1.00 20.00     0.440 C 
BRANCH   2   3
HETATM    3  N8  UNL     1     -35.726  14.389  -6.902  1.00 20.00     0.102 N 
HETATM    4  C4  UNL     1     -34.764  14.991  -7.827  1.00 20.00     0.312 C 
HETATM    5  C5  UNL     1     -36.824  15.321  -6.641  1.00 20.00     0.312 C 
ENDBRANCH   2   3
ENDBRANCH   1   2
BRANCH   1   6
HETATM    6  C7  UNL     1     -34.079  15.180  -3.855  1.00 20.00     0.052 C 
HETATM    7  C1  UNL     1     -34.470  15.731  -2.484  1.00 20.00     0.045 C 
HETATM    8  C2  UNL     1     -33.363  13.839  -3.710  1.00 20.00     0.045 C 
HETATM    9  C3  UNL     1     -33.204  16.177  -4.613  1.00 20.00     0.045 C 
ENDBRANCH   1   6
TORSDOF 3
ENDMDL
MODEL 6
REMARK VINA RESULT:      -3.2      1.643      4.002
REMARK  3 active torsions:
REMARK  status: ('A' for Active; 'I' for Inactive)
REMARK    1  A    between atoms: C6_6  and  N8_8 
REMARK    2  A    between atoms: C6_6  and  O9_9 
REMARK    3  A    between atoms: C7_7  and  O9_9 
ROOT
HETATM    1  O9  UNL     1     -33.621   7.104   3.833  1.00 20.00    -0.352 OA
ENDROOT
BRANCH   1   2
HETATM    2  C6  UNL     1     -34.083   5.759   4.005  1.00 20.00     0.440 C 
BRANCH   2   3
HETATM    3  N8  UNL     1     -34.792   5.574   5.280  1.00 20.00     0.102 N 
HETATM    4  C4  UNL     1     -34.109   6.304   6.349  1.00 20.00     0.312 C 
HETATM    5  C5  UNL     1     -34.893   4.155   5.625  1.00 20.00     0.312 C 
ENDBRANCH   2   3
ENDBRANCH   1   2
BRANCH   1   6
HETATM    6  C7  UNL     1     -32.335   7.147   3.231  1.00 20.00     0.052 C 
HETATM    7  C1  UNL     1     -31.334   7.674   4.258  1.00 20.00     0.045 C 
HETATM    8  C2  UNL     1     -31.975   5.723   2.813  1.00 20.00     0.045 C 
HETATM    9  C3  UNL     1     -32.398   8.065   2.011  1.00 20.00     0.045 C 
ENDBRANCH   1   6
TORSDOF 3
ENDMDL
MODEL 7
REMARK VINA RESULT:      -3.2     11.642     12.605
REMARK  3 active torsions:
REMARK  status: ('A' for Active; 'I' for Inactive)
REMARK    1  A    between atoms: C6_6  and  N8_8 
REMARK    2  A    between atoms: C6_6  and  O9_9 
REMARK    3  A    between atoms: C7_7  and  O9_9 
ROOT
HETATM    1  O9  UNL     1     -34.231  15.619  -4.725  1.00 20.00    -0.352 OA
ENDROOT
BRANCH   1   2
HETATM    2  C6  UNL     1     -33.530  15.416  -3.492  1.00 20.00     0.440 C 
BRANCH   2   3
HETATM    3  N8  UNL     1     -33.667  16.561  -2.580  1.00 20.00     0.102 N 
HETATM    4  C4  UNL     1     -34.660  16.268  -1.546  1.00 20.00     0.312 C 
HETATM    5  C5  UNL     1     -34.044  17.772  -3.310  1.00 20.00     0.312 C 
ENDBRANCH   2   3
ENDBRANCH   1   2
BRANCH   1   6
HETATM    6  C7  UNL     1     -35.065  14.514  -5.045  1.00 20.00     0.052 C 
HETATM    7  C1  UNL     1     -35.149  14.392  -6.566  1.00 20.00     0.045 C 
HETATM    8  C2  UNL     1     -34.427  13.265  -4.441  1.00 20.00     0.045 C 
HETATM    9  C3  UNL     1     -36.448  14.755  -4.441  1.00 20.00     0.045 C 
ENDBRANCH   1   6
TORSDOF 3
ENDMDL
MODEL 8
REMARK VINA RESULT:      -3.2     11.291     12.224
REMARK  3 active torsions:
REMARK  status: ('A' for Active; 'I' for Inactive)
REMARK    1  A    between atoms: C6_6  and  N8_8 
REMARK    2  A    between atoms: C6_6  and  O9_9 
REMARK    3  A    between atoms: C7_7  and  O9_9 
ROOT
HETATM    1  O9  UNL     1     -34.673  16.152  -0.968  1.00 20.00    -0.352 OA
ENDROOT
BRANCH   1   2
HETATM    2  C6  UNL     1     -34.922  16.041  -2.374  1.00 20.00     0.440 C 
BRANCH   2   3
HETATM    3  N8  UNL     1     -33.813  15.387  -3.084  1.00 20.00     0.102 N 
HETATM    4  C4  UNL     1     -33.355  16.228  -4.192  1.00 20.00     0.312 C 
HETATM    5  C5  UNL     1     -34.211  14.071  -3.584  1.00 20.00     0.312 C 
ENDBRANCH   2   3
ENDBRANCH   1   2
BRANCH   1   6
HETATM    6  C7  UNL     1     -34.707  17.505  -0.532  1.00 20.00     0.052 C 
HETATM    7  C1  UNL     1     -33.303  18.093  -0.661  1.00 20.00     0.045 C 
HETATM    8  C2  UNL     1     -35.687  18.254  -1.432  1.00 20.00     0.045 C 
HETATM    9  C3  UNL     1     -35.180  17.536   0.920  1.00 20.00     0.045 C 
ENDBRANCH   1   6
TORSDOF 3
ENDMDL
MODEL 9
REMARK VINA RESULT:      -3.2     12.047     13.049
REMARK  3 active torsions:
REMARK  status: ('A' for Active; 'I' for Inactive)
REMARK    1  A    between atoms: C6_6  and  N8_8 
REMARK    2  A    between atoms: C6_6  and  O9_9 
REMARK    3  A    between atoms: C7_7  and  O9_9 
ROOT
HETATM    1  O9  UNL     1     -35.135  15.260  -4.098  1.00 20.00    -0.352 OA
ENDROOT
BRANCH   1   2
HETATM    2  C6  UNL     1     -34.776  14.197  -4.988  1.00 20.00     0.440 C 
BRANCH   2   3
HETATM    3  N8  UNL     1     -35.379  14.360  -6.319  1.00 20.00     0.102 N 
HETATM    4  C4  UNL     1     -34.424  14.985  -7.235  1.00 20.00     0.312 C 
HETATM    5  C5  UNL     1     -36.604  15.158  -6.248  1.00 20.00     0.312 C 
ENDBRANCH   2   3
ENDBRANCH   1   2
BRANCH   1   6
HETATM    6  C7  UNL     1     -33.990  15.868  -3.516  1.00 20.00     0.052 C 
HETATM    7  C1  UNL     1     -33.696  17.169  -4.263  1.00 20.00     0.045 C 
HETATM    8  C2  UNL     1     -34.315  16.153  -2.051  1.00 20.00     0.045 C 
HETATM    9  C3  UNL     1     -32.814  14.899  -3.626  1.00 20.00     0.045 C 
ENDBRANCH   1   6
TORSDOF 3
ENDMDL
