MODEL 1
REMARK VINA RESULT:      -5.1      0.000      0.000
REMARK  3 active torsions:
REMARK  status: ('A' for Active; 'I' for Inactive)
REMARK    1  A    between atoms: C3_3  and  C6_6 
REMARK    2  A    between atoms: C3_3  and  O11_11 
REMARK    3  A    between atoms: C8_8  and  O11_11 
ROOT
HETATM    1  C1  UNL     1     -35.191   4.973   4.086  1.00 20.00    -0.025 C 
HETATM    2  C2  UNL     1     -35.197   4.992   5.426  1.00 20.00    -0.005 C 
HETATM    3  C4  UNL     1     -34.149   5.714   3.304  1.00 20.00     0.069 C 
HETATM    4  C5  UNL     1     -34.188   5.777   6.210  1.00 20.00     0.196 C 
HETATM    5  C6  UNL     1     -32.980   6.119   4.201  1.00 20.00     0.224 C 
HETATM    6  O10 UNL     1     -33.472   6.717   5.398  1.00 20.00    -0.372 OA
ENDROOT
BRANCH   5   7
HETATM    7  C3  UNL     1     -32.151   7.179   3.555  1.00 20.00     0.288 C 
HETATM    8  O9  UNL     1     -31.170   7.694   4.074  1.00 20.00    -0.262 OA
BRANCH   7   9
HETATM    9  O11 UNL     1     -32.660   7.468   2.322  1.00 20.00    -0.320 OA
BRANCH   9  10
HETATM   10  C8  UNL     1     -31.870   8.354   1.524  1.00 20.00     0.174 C 
HETATM   11  C7  UNL     1     -32.516   9.724   1.521  1.00 20.00     0.034 C 
ENDBRANCH   9  10
ENDBRANCH   7   9
ENDBRANCH   5   7
TORSDOF 3
ENDMDL
MODEL 2
REMARK VINA RESULT:      -5.0      1.159      1.724
REMARK  3 active torsions:
REMARK  status: ('A' for Active; 'I' for Inactive)
REMARK    1  A    between atoms: C3_3  and  C6_6 
REMARK    2  A    between atoms: C3_3  and  O11_11 
REMARK    3  A    between atoms: C8_8  and  O11_11 
ROOT
HETATM    1  C1  UNL     1     -34.429   5.883   6.521  1.00 20.00    -0.025 C 
HETATM    2  C2  UNL     1     -35.235   4.902   6.093  1.00 20.00    -0.005 C 
HETATM    3  C4  UNL     1     -33.491   6.581   5.583  1.00 20.00     0.069 C 
HETATM    4  C5  UNL     1     -35.219   4.430   4.669  1.00 20.00     0.196 C 
HETATM    5  C6  UNL     1     -33.859   6.292   4.129  1.00 20.00     0.224 C 
HETATM    6  O10 UNL     1     -34.070   4.894   3.950  1.00 20.00    -0.372 OA
ENDROOT
BRANCH   5   7
HETATM    7  C3  UNL     1     -32.731   6.632   3.212  1.00 20.00     0.288 C 
HETATM    8  O9  UNL     1     -31.854   5.844   2.883  1.00 20.00    -0.262 OA
BRANCH   7   9
HETATM    9  O11 UNL     1     -32.841   7.933   2.816  1.00 20.00    -0.320 OA
BRANCH   9  10
HETATM   10  C8  UNL     1     -31.974   8.325   1.748  1.00 20.00     0.174 C 
HETATM   11  C7  UNL     1     -32.375   9.705   1.269  1.00 20.00     0.034 C 
ENDBRANCH   9  10
ENDBRANCH   7   9
ENDBRANCH   5   7
TORSDOF 3
ENDMDL
MODEL 3
REMARK VINA RESULT:      -4.3     11.326     12.258
REMARK  3 active torsions:
REMARK  status: ('A' for Active; 'I' for Inactive)
REMARK    1  A    between atoms: C3_3  and  C6_6 
REMARK    2  A    between atoms: C3_3  and  O11_11 
REMARK    3  A    between atoms: C8_8  and  O11_11 
ROOT
HETATM    1  C1  UNL     1     -34.746  16.688  -0.626  1.00 20.00    -0.025 C 
HETATM    2  C2  UNL     1     -34.119  17.846  -0.375  1.00 20.00    -0.005 C 
HETATM    3  C4  UNL     1     -34.663  16.037  -1.974  1.00 20.00     0.069 C 
HETATM    4  C5  UNL     1     -33.336  18.566  -1.432  1.00 20.00     0.196 C 
HETATM    5  C6  UNL     1     -33.535  16.646  -2.805  1.00 20.00     0.224 C 
HETATM    6  O10 UNL     1     -33.604  18.068  -2.749  1.00 20.00    -0.372 OA
ENDROOT
BRANCH   5   7
HETATM    7  C3  UNL     1     -33.692  16.309  -4.251  1.00 20.00     0.288 C 
HETATM    8  O9  UNL     1     -32.871  16.589  -5.113  1.00 20.00    -0.262 OA
BRANCH   7   9
HETATM    9  O11 UNL     1     -34.874  15.655  -4.440  1.00 20.00    -0.320 OA
BRANCH   9  10
HETATM   10  C8  UNL     1     -34.831  14.564  -5.365  1.00 20.00     0.174 C 
HETATM   11  C7  UNL     1     -34.722  13.266  -4.592  1.00 20.00     0.034 C 
ENDBRANCH   9  10
ENDBRANCH   7   9
ENDBRANCH   5   7
TORSDOF 3
ENDMDL
MODEL 4
REMARK VINA RESULT:      -4.2      1.036      1.616
REMARK  3 active torsions:
REMARK  status: ('A' for Active; 'I' for Inactive)
REMARK    1  A    between atoms: C3_3  and  C6_6 
REMARK    2  A    between atoms: C3_3  and  O11_11 
REMARK    3  A    between atoms: C8_8  and  O11_11 
ROOT
HETATM    1  C1  UNL     1     -35.223   4.407   5.774  1.00 20.00    -0.025 C 
HETATM    2  C2  UNL     1     -34.888   5.247   6.763  1.00 20.00    -0.005 C 
HETATM    3  C4  UNL     1     -34.723   4.615   4.377  1.00 20.00     0.069 C 
HETATM    4  C5  UNL     1     -34.029   6.453   6.519  1.00 20.00     0.196 C 
HETATM    5  C6  UNL     1     -33.565   5.612   4.355  1.00 20.00     0.224 C 
HETATM    6  O10 UNL     1     -33.900   6.762   5.126  1.00 20.00    -0.372 OA
ENDROOT
BRANCH   5   7
HETATM    7  C3  UNL     1     -33.330   6.129   2.974  1.00 20.00     0.288 C 
HETATM    8  O9  UNL     1     -33.448   5.455   1.960  1.00 20.00    -0.262 OA
BRANCH   7   9
HETATM    9  O11 UNL     1     -32.970   7.444   3.036  1.00 20.00    -0.320 OA
BRANCH   9  10
HETATM   10  C8  UNL     1     -31.866   7.818   2.207  1.00 20.00     0.174 C 
HETATM   11  C7  UNL     1     -32.260   9.022   1.375  1.00 20.00     0.034 C 
ENDBRANCH   9  10
ENDBRANCH   7   9
ENDBRANCH   5   7
TORSDOF 3
ENDMDL
MODEL 5
REMARK VINA RESULT:      -4.2     10.979     11.710
REMARK  3 active torsions:
REMARK  status: ('A' for Active; 'I' for Inactive)
REMARK    1  A    between atoms: C3_3  and  C6_6 
REMARK    2  A    between atoms: C3_3  and  O11_11 
REMARK    3  A    between atoms: C8_8  and  O11_11 
ROOT
HETATM    1  C1  UNL     1     -33.717  13.512  -4.173  1.00 20.00    -0.025 C 
HETATM    2  C2  UNL     1     -35.034  13.340  -4.354  1.00 20.00    -0.005 C 
HETATM    3  C4  UNL     1     -33.171  14.789  -3.609  1.00 20.00     0.069 C 
HETATM    4  C5  UNL     1     -36.023  14.422  -4.036  1.00 20.00     0.196 C 
HETATM    5  C6  UNL     1     -34.281  15.620  -2.967  1.00 20.00     0.224 C 
HETATM    6  O10 UNL     1     -35.400  15.699  -3.847  1.00 20.00    -0.372 OA
ENDROOT
BRANCH   5   7
HETATM    7  C3  UNL     1     -33.846  17.034  -2.770  1.00 20.00     0.288 C 
HETATM    8  O9  UNL     1     -33.702  17.840  -3.679  1.00 20.00    -0.262 OA
BRANCH   7   9
HETATM    9  O11 UNL     1     -33.643  17.267  -1.441  1.00 20.00    -0.320 OA
BRANCH   9  10
HETATM   10  C8  UNL     1     -34.651  16.752  -0.566  1.00 20.00     0.174 C 
HETATM   11  C7  UNL     1     -34.774  17.666   0.636  1.00 20.00     0.034 C 
ENDBRANCH   9  10
ENDBRANCH   7   9
ENDBRANCH   5   7
TORSDOF 3
ENDMDL
MODEL 6
REMARK VINA RESULT:      -4.2     10.865     12.675
REMARK  3 active torsions:
REMARK  status: ('A' for Active; 'I' for Inactive)
REMARK    1  A    between atoms: C3_3  and  C6_6 
REMARK    2  A    between atoms: C3_3  and  O11_11 
REMARK    3  A    between atoms: C8_8  and  O11_11 
ROOT
HETATM    1  C1  UNL     1     -35.233  14.581  -7.355  1.00 20.00    -0.025 C 
HETATM    2  C2  UNL     1     -34.965  15.866  -7.626  1.00 20.00    -0.005 C 
HETATM    3  C4  UNL     1     -34.865  13.974  -6.035  1.00 20.00     0.069 C 
HETATM    4  C5  UNL     1     -34.256  16.750  -6.643  1.00 20.00     0.196 C 
HETATM    5  C6  UNL     1     -34.532  15.057  -5.011  1.00 20.00     0.224 C 
HETATM    6  O10 UNL     1     -33.640  16.009  -5.583  1.00 20.00    -0.372 OA
ENDROOT
BRANCH   5   7
HETATM    7  C3  UNL     1     -33.791  14.485  -3.848  1.00 20.00     0.288 C 
HETATM    8  O9  UNL     1     -33.378  13.335  -3.796  1.00 20.00    -0.262 OA
BRANCH   7   9
HETATM    9  O11 UNL     1     -33.657  15.438  -2.880  1.00 20.00    -0.320 OA
BRANCH   9  10
HETATM   10  C8  UNL     1     -34.880  15.900  -2.299  1.00 20.00     0.174 C 
HETATM   11  C7  UNL     1     -34.570  16.610  -0.997  1.00 20.00     0.034 C 
ENDBRANCH   9  10
ENDBRANCH   7   9
ENDBRANCH   5   7
TORSDOF 3
ENDMDL
MODEL 7
REMARK VINA RESULT:      -4.2     10.956     12.623
REMARK  3 active torsions:
REMARK  status: ('A' for Active; 'I' for Inactive)
REMARK    1  A    between atoms: C3_3  and  C6_6 
REMARK    2  A    between atoms: C3_3  and  O11_11 
REMARK    3  A    between atoms: C8_8  and  O11_11 
ROOT
HETATM    1  C1  UNL     1     -33.962  16.383  -6.354  1.00 20.00    -0.025 C 
HETATM    2  C2  UNL     1     -33.426  17.095  -5.353  1.00 20.00    -0.005 C 
HETATM    3  C4  UNL     1     -34.777  15.155  -6.084  1.00 20.00     0.069 C 
HETATM    4  C5  UNL     1     -33.584  16.684  -3.919  1.00 20.00     0.196 C 
HETATM    5  C6  UNL     1     -35.189  15.087  -4.614  1.00 20.00     0.224 C 
HETATM    6  O10 UNL     1     -34.059  15.339  -3.782  1.00 20.00    -0.372 OA
ENDROOT
BRANCH   5   7
HETATM    7  C3  UNL     1     -35.638  13.711  -4.247  1.00 20.00     0.288 C 
HETATM    8  O9  UNL     1     -34.936  12.713  -4.340  1.00 20.00    -0.262 OA
BRANCH   7   9
HETATM    9  O11 UNL     1     -36.927  13.756  -3.803  1.00 20.00    -0.320 OA
BRANCH   9  10
HETATM   10  C8  UNL     1     -37.507  15.062  -3.732  1.00 20.00     0.174 C 
HETATM   11  C7  UNL     1     -39.004  14.948  -3.928  1.00 20.00     0.034 C 
ENDBRANCH   9  10
ENDBRANCH   7   9
ENDBRANCH   5   7
TORSDOF 3
ENDMDL
MODEL 8
REMARK VINA RESULT:      -4.1     10.944     12.120
REMARK  3 active torsions:
REMARK  status: ('A' for Active; 'I' for Inactive)
REMARK    1  A    between atoms: C3_3  and  C6_6 
REMARK    2  A    between atoms: C3_3  and  O11_11 
REMARK    3  A    between atoms: C8_8  and  O11_11 
ROOT
HETATM    1  C1  UNL     1     -34.143  16.192  -2.151  1.00 20.00    -0.025 C 
HETATM    2  C2  UNL     1     -35.309  16.851  -2.111  1.00 20.00    -0.005 C 
HETATM    3  C4  UNL     1     -33.924  15.060  -3.109  1.00 20.00     0.069 C 
HETATM    4  C5  UNL     1     -36.462  16.472  -2.993  1.00 20.00     0.196 C 
HETATM    5  C6  UNL     1     -35.000  15.048  -4.194  1.00 20.00     0.224 C 
HETATM    6  O10 UNL     1     -36.289  15.187  -3.602  1.00 20.00    -0.372 OA
ENDROOT
BRANCH   5   7
HETATM    7  C3  UNL     1     -35.038  13.732  -4.897  1.00 20.00     0.288 C 
HETATM    8  O9  UNL     1     -35.006  12.649  -4.327  1.00 20.00    -0.262 OA
BRANCH   7   9
HETATM    9  O11 UNL     1     -35.114  13.936  -6.243  1.00 20.00    -0.320 OA
BRANCH   9  10
HETATM   10  C8  UNL     1     -34.399  15.075  -6.733  1.00 20.00     0.174 C 
HETATM   11  C7  UNL     1     -35.153  15.663  -7.908  1.00 20.00     0.034 C 
ENDBRANCH   9  10
ENDBRANCH   7   9
ENDBRANCH   5   7
TORSDOF 3
ENDMDL
MODEL 9
REMARK VINA RESULT:      -4.0     10.690     12.532
REMARK  3 active torsions:
REMARK  status: ('A' for Active; 'I' for Inactive)
REMARK    1  A    between atoms: C3_3  and  C6_6 
REMARK    2  A    between atoms: C3_3  and  O11_11 
REMARK    3  A    between atoms: C8_8  and  O11_11 
ROOT
HETATM    1  C1  UNL     1     -35.109  15.136  -7.462  1.00 20.00    -0.025 C 
HETATM    2  C2  UNL     1     -36.420  15.411  -7.485  1.00 20.00    -0.005 C 
HETATM    3  C4  UNL     1     -34.437  14.665  -6.207  1.00 20.00     0.069 C 
HETATM    4  C5  UNL     1     -37.274  15.296  -6.257  1.00 20.00     0.196 C 
HETATM    5  C6  UNL     1     -35.467  14.213  -5.174  1.00 20.00     0.224 C 
HETATM    6  O10 UNL     1     -36.499  15.190  -5.057  1.00 20.00    -0.372 OA
ENDROOT
BRANCH   5   7
HETATM    7  C3  UNL     1     -34.860  14.130  -3.813  1.00 20.00     0.288 C 
HETATM    8  O9  UNL     1     -34.133  13.218  -3.441  1.00 20.00    -0.262 OA
BRANCH   7   9
HETATM    9  O11 UNL     1     -35.243  15.212  -3.076  1.00 20.00    -0.320 OA
BRANCH   9  10
HETATM   10  C8  UNL     1     -34.176  15.967  -2.494  1.00 20.00     0.174 C 
HETATM   11  C7  UNL     1     -34.618  16.481  -1.139  1.00 20.00     0.034 C 
ENDBRANCH   9  10
ENDBRANCH   7   9
ENDBRANCH   5   7
TORSDOF 3
ENDMDL
