MODEL 1
REMARK VINA RESULT:      -4.5      0.000      0.000
REMARK  2 active torsions:
REMARK  status: ('A' for Active; 'I' for Inactive)
REMARK    1  A    between atoms: C4_4  and  C6_6 
REMARK    2  A    between atoms: C5_5  and  C7_7 
ROOT
HETATM    1  C1  UNL     1     -34.184   6.145   5.877  1.00 20.00     0.007 C 
HETATM    2  C2  UNL     1     -34.491   4.628   5.954  1.00 20.00     0.007 C 
HETATM    3  C3  UNL     1     -35.603   5.548   4.074  1.00 20.00     0.014 C 
HETATM    4  C4  UNL     1     -34.403   6.463   4.380  1.00 20.00     0.017 C 
HETATM    5  C5  UNL     1     -34.845   4.275   4.491  1.00 20.00     0.017 C 
ENDROOT
BRANCH   4   6
HETATM    6  C6  UNL     1     -33.261   5.815   3.613  1.00 20.00     0.155 A 
HETATM    7  C7  UNL     1     -32.728   6.916   2.756  1.00 20.00     0.155 A 
HETATM    8  O8  UNL     1     -31.943   6.338   3.803  1.00 20.00    -0.375 OA
ENDBRANCH   4   6
TORSDOF 2
ENDMDL
MODEL 2
REMARK VINA RESULT:      -3.7     11.802     13.619
REMARK  2 active torsions:
REMARK  status: ('A' for Active; 'I' for Inactive)
REMARK    1  A    between atoms: C4_4  and  C6_6 
REMARK    2  A    between atoms: C5_5  and  C7_7 
ROOT
HETATM    1  C1  UNL     1     -36.458  15.038  -5.835  1.00 20.00     0.007 C 
HETATM    2  C2  UNL     1     -36.087  14.787  -7.318  1.00 20.00     0.007 C 
HETATM    3  C3  UNL     1     -34.296  15.917  -6.254  1.00 20.00     0.014 C 
HETATM    4  C4  UNL     1     -35.076  15.173  -5.155  1.00 20.00     0.017 C 
HETATM    5  C5  UNL     1     -34.542  14.809  -7.294  1.00 20.00     0.017 C 
ENDROOT
BRANCH   4   6
HETATM    6  C6  UNL     1     -34.444  13.789  -5.149  1.00 20.00     0.155 A 
HETATM    7  C7  UNL     1     -34.040  13.580  -3.727  1.00 20.00     0.155 A 
HETATM    8  O8  UNL     1     -35.051  12.778  -4.340  1.00 20.00    -0.375 OA
ENDBRANCH   4   6
TORSDOF 2
ENDMDL
MODEL 3
REMARK VINA RESULT:      -3.7     11.641     12.485
REMARK  2 active torsions:
REMARK  status: ('A' for Active; 'I' for Inactive)
REMARK    1  A    between atoms: C4_4  and  C6_6 
REMARK    2  A    between atoms: C5_5  and  C7_7 
ROOT
HETATM    1  C1  UNL     1     -33.338  16.185  -3.846  1.00 20.00     0.007 C 
HETATM    2  C2  UNL     1     -33.659  16.484  -2.360  1.00 20.00     0.007 C 
HETATM    3  C3  UNL     1     -35.691  16.215  -3.551  1.00 20.00     0.014 C 
HETATM    4  C4  UNL     1     -34.607  15.445  -4.328  1.00 20.00     0.017 C 
HETATM    5  C5  UNL     1     -35.069  15.876  -2.184  1.00 20.00     0.017 C 
ENDROOT
BRANCH   4   6
HETATM    6  C6  UNL     1     -34.606  14.075  -3.666  1.00 20.00     0.155 A 
HETATM    7  C7  UNL     1     -34.723  13.120  -4.808  1.00 20.00     0.155 A 
HETATM    8  O8  UNL     1     -33.547  13.173  -3.997  1.00 20.00    -0.375 OA
ENDBRANCH   4   6
TORSDOF 2
ENDMDL
MODEL 4
REMARK VINA RESULT:      -3.6     11.934     12.888
REMARK  2 active torsions:
REMARK  status: ('A' for Active; 'I' for Inactive)
REMARK    1  A    between atoms: C4_4  and  C6_6 
REMARK    2  A    between atoms: C5_5  and  C7_7 
ROOT
HETATM    1  C1  UNL     1     -33.677  13.845  -3.746  1.00 20.00     0.007 C 
HETATM    2  C2  UNL     1     -34.628  13.207  -4.790  1.00 20.00     0.007 C 
HETATM    3  C3  UNL     1     -35.830  14.815  -3.530  1.00 20.00     0.014 C 
HETATM    4  C4  UNL     1     -34.344  15.211  -3.466  1.00 20.00     0.017 C 
HETATM    5  C5  UNL     1     -35.714  14.291  -4.973  1.00 20.00     0.017 C 
ENDROOT
BRANCH   4   6
HETATM    6  C6  UNL     1     -34.153  16.065  -4.710  1.00 20.00     0.155 A 
HETATM    7  C7  UNL     1     -33.607  17.353  -4.187  1.00 20.00     0.155 A 
HETATM    8  O8  UNL     1     -32.828  16.499  -5.029  1.00 20.00    -0.375 OA
ENDBRANCH   4   6
TORSDOF 2
ENDMDL
MODEL 5
REMARK VINA RESULT:      -3.6     11.593     12.787
REMARK  2 active torsions:
REMARK  status: ('A' for Active; 'I' for Inactive)
REMARK    1  A    between atoms: C4_4  and  C6_6 
REMARK    2  A    between atoms: C5_5  and  C7_7 
ROOT
HETATM    1  C1  UNL     1     -34.730  13.251  -4.840  1.00 20.00     0.007 C 
HETATM    2  C2  UNL     1     -33.746  13.626  -3.703  1.00 20.00     0.007 C 
HETATM    3  C3  UNL     1     -34.273  15.575  -4.946  1.00 20.00     0.014 C 
HETATM    4  C4  UNL     1     -35.442  14.591  -5.133  1.00 20.00     0.017 C 
HETATM    5  C5  UNL     1     -34.024  15.132  -3.492  1.00 20.00     0.017 C 
ENDROOT
BRANCH   4   6
HETATM    6  C6  UNL     1     -36.345  14.886  -3.945  1.00 20.00     0.155 A 
HETATM    7  C7  UNL     1     -37.657  15.240  -4.564  1.00 20.00     0.155 A 
HETATM    8  O8  UNL     1     -37.503  14.067  -3.762  1.00 20.00    -0.375 OA
ENDBRANCH   4   6
TORSDOF 2
ENDMDL
MODEL 6
REMARK VINA RESULT:      -3.6     11.940     12.931
REMARK  2 active torsions:
REMARK  status: ('A' for Active; 'I' for Inactive)
REMARK    1  A    between atoms: C4_4  and  C6_6 
REMARK    2  A    between atoms: C5_5  and  C7_7 
ROOT
HETATM    1  C1  UNL     1     -35.442  14.881  -3.372  1.00 20.00     0.007 C 
HETATM    2  C2  UNL     1     -34.219  15.653  -2.816  1.00 20.00     0.007 C 
HETATM    3  C3  UNL     1     -33.474  13.627  -3.795  1.00 20.00     0.014 C 
HETATM    4  C4  UNL     1     -34.813  13.986  -4.464  1.00 20.00     0.017 C 
HETATM    5  C5  UNL     1     -33.050  15.102  -3.663  1.00 20.00     0.017 C 
ENDROOT
BRANCH   4   6
HETATM    6  C6  UNL     1     -34.401  14.899  -5.609  1.00 20.00     0.155 A 
HETATM    7  C7  UNL     1     -35.196  14.406  -6.772  1.00 20.00     0.155 A 
HETATM    8  O8  UNL     1     -35.412  15.706  -6.220  1.00 20.00    -0.375 OA
ENDBRANCH   4   6
TORSDOF 2
ENDMDL
MODEL 7
REMARK VINA RESULT:      -3.6     11.735     12.627
REMARK  2 active torsions:
REMARK  status: ('A' for Active; 'I' for Inactive)
REMARK    1  A    between atoms: C4_4  and  C6_6 
REMARK    2  A    between atoms: C5_5  and  C7_7 
ROOT
HETATM    1  C1  UNL     1     -34.065  15.429  -5.212  1.00 20.00     0.007 C 
HETATM    2  C2  UNL     1     -34.890  14.178  -5.607  1.00 20.00     0.007 C 
HETATM    3  C3  UNL     1     -33.466  13.626  -3.794  1.00 20.00     0.014 C 
HETATM    4  C4  UNL     1     -33.699  15.147  -3.737  1.00 20.00     0.017 C 
HETATM    5  C5  UNL     1     -34.890  13.343  -4.306  1.00 20.00     0.017 C 
ENDROOT
BRANCH   4   6
HETATM    6  C6  UNL     1     -34.980  15.277  -2.926  1.00 20.00     0.155 A 
HETATM    7  C7  UNL     1     -34.620  16.221  -1.827  1.00 20.00     0.155 A 
HETATM    8  O8  UNL     1     -35.582  16.570  -2.826  1.00 20.00    -0.375 OA
ENDBRANCH   4   6
TORSDOF 2
ENDMDL
MODEL 8
REMARK VINA RESULT:      -3.5     11.943     13.214
REMARK  2 active torsions:
REMARK  status: ('A' for Active; 'I' for Inactive)
REMARK    1  A    between atoms: C4_4  and  C6_6 
REMARK    2  A    between atoms: C5_5  and  C7_7 
ROOT
HETATM    1  C1  UNL     1     -33.332  15.990  -4.470  1.00 20.00     0.007 C 
HETATM    2  C2  UNL     1     -32.683  14.792  -3.731  1.00 20.00     0.007 C 
HETATM    3  C3  UNL     1     -35.041  14.638  -3.534  1.00 20.00     0.014 C 
HETATM    4  C4  UNL     1     -34.747  15.463  -4.801  1.00 20.00     0.017 C 
HETATM    5  C5  UNL     1     -33.811  13.734  -3.737  1.00 20.00     0.017 C 
ENDROOT
BRANCH   4   6
HETATM    6  C6  UNL     1     -34.588  14.404  -5.881  1.00 20.00     0.155 A 
HETATM    7  C7  UNL     1     -35.601  14.782  -6.912  1.00 20.00     0.155 A 
HETATM    8  O8  UNL     1     -34.199  14.833  -7.189  1.00 20.00    -0.375 OA
ENDBRANCH   4   6
TORSDOF 2
ENDMDL
MODEL 9
REMARK VINA RESULT:      -3.5     11.632     12.676
REMARK  2 active torsions:
REMARK  status: ('A' for Active; 'I' for Inactive)
REMARK    1  A    between atoms: C4_4  and  C6_6 
REMARK    2  A    between atoms: C5_5  and  C7_7 
ROOT
HETATM    1  C1  UNL     1     -35.216  14.878  -3.507  1.00 20.00     0.007 C 
HETATM    2  C2  UNL     1     -33.989  13.939  -3.627  1.00 20.00     0.007 C 
HETATM    3  C3  UNL     1     -33.407  16.081  -4.459  1.00 20.00     0.014 C 
HETATM    4  C4  UNL     1     -34.570  16.282  -3.469  1.00 20.00     0.017 C 
HETATM    5  C5  UNL     1     -32.800  14.927  -3.640  1.00 20.00     0.017 C 
ENDROOT
BRANCH   4   6
HETATM    6  C6  UNL     1     -33.868  16.415  -2.125  1.00 20.00     0.155 A 
HETATM    7  C7  UNL     1     -34.500  17.617  -1.503  1.00 20.00     0.155 A 
HETATM    8  O8  UNL     1     -34.663  16.312  -0.941  1.00 20.00    -0.375 OA
ENDBRANCH   4   6
TORSDOF 2
ENDMDL
