MODEL 1
REMARK VINA RESULT:      -5.0      0.000      0.000
REMARK  0 active torsions:
REMARK  status: ('A' for Active; 'I' for Inactive)
ROOT
HETATM    1  C1  UNL     1     -33.736   6.508   5.799  1.00 20.00     0.047 C 
HETATM    2  C2  UNL     1     -34.424   5.665   6.576  1.00 20.00    -0.023 C 
HETATM    3  C3  UNL     1     -33.759   6.362   4.320  1.00 20.00     0.157 C 
HETATM    4  C4  UNL     1     -35.211   4.498   6.069  1.00 20.00     0.028 C 
HETATM    5  C5  UNL     1     -34.815   4.109   4.646  1.00 20.00     0.021 C 
HETATM    6  C6  UNL     1     -34.696   5.318   3.699  1.00 20.00     0.017 C 
HETATM    7  C7  UNL     1     -36.060   5.980   3.450  1.00 20.00     0.023 C 
HETATM    8  C8  UNL     1     -34.118   4.840   2.356  1.00 20.00     0.023 C 
HETATM    9  O9  UNL     1     -33.069   7.122   3.639  1.00 20.00    -0.292 OA
ENDROOT
TORSDOF 0
ENDMDL
MODEL 2
REMARK VINA RESULT:      -4.6      8.549      9.961
REMARK  0 active torsions:
REMARK  status: ('A' for Active; 'I' for Inactive)
ROOT
HETATM    1  C1  UNL     1     -41.953   7.084  -2.002  1.00 20.00     0.047 C 
HETATM    2  C2  UNL     1     -41.185   7.143  -0.910  1.00 20.00    -0.023 C 
HETATM    3  C3  UNL     1     -42.396   5.773  -2.544  1.00 20.00     0.157 C 
HETATM    4  C4  UNL     1     -40.659   5.948  -0.179  1.00 20.00     0.028 C 
HETATM    5  C5  UNL     1     -40.725   4.678  -1.025  1.00 20.00     0.021 C 
HETATM    6  C6  UNL     1     -42.073   4.501  -1.749  1.00 20.00     0.017 C 
HETATM    7  C7  UNL     1     -43.219   4.248  -0.757  1.00 20.00     0.023 C 
HETATM    8  C8  UNL     1     -41.967   3.305  -2.709  1.00 20.00     0.023 C 
HETATM    9  O9  UNL     1     -43.057   5.755  -3.583  1.00 20.00    -0.292 OA
ENDROOT
TORSDOF 0
ENDMDL
MODEL 3
REMARK VINA RESULT:      -4.5     12.125     13.240
REMARK  0 active torsions:
REMARK  status: ('A' for Active; 'I' for Inactive)
ROOT
HETATM    1  C1  UNL     1     -33.330  13.842  -3.741  1.00 20.00     0.047 C 
HETATM    2  C2  UNL     1     -32.697  15.018  -3.696  1.00 20.00    -0.023 C 
HETATM    3  C3  UNL     1     -34.616  13.703  -4.474  1.00 20.00     0.157 C 
HETATM    4  C4  UNL     1     -33.218  16.283  -4.301  1.00 20.00     0.028 C 
HETATM    5  C5  UNL     1     -34.714  16.207  -4.600  1.00 20.00     0.021 C 
HETATM    6  C6  UNL     1     -35.128  14.895  -5.292  1.00 20.00     0.017 C 
HETATM    7  C7  UNL     1     -34.543  14.795  -6.710  1.00 20.00     0.023 C 
HETATM    8  C8  UNL     1     -36.662  14.842  -5.378  1.00 20.00     0.023 C 
HETATM    9  O9  UNL     1     -35.198  12.619  -4.448  1.00 20.00    -0.292 OA
ENDROOT
TORSDOF 0
ENDMDL
MODEL 4
REMARK VINA RESULT:      -4.4     12.485     13.526
REMARK  0 active torsions:
REMARK  status: ('A' for Active; 'I' for Inactive)
ROOT
HETATM    1  C1  UNL     1     -34.178  15.558  -6.160  1.00 20.00     0.047 C 
HETATM    2  C2  UNL     1     -34.799  14.375  -6.111  1.00 20.00    -0.023 C 
HETATM    3  C3  UNL     1     -33.643  16.182  -4.922  1.00 20.00     0.157 C 
HETATM    4  C4  UNL     1     -35.066  13.611  -4.853  1.00 20.00     0.028 C 
HETATM    5  C5  UNL     1     -34.947  14.488  -3.608  1.00 20.00     0.021 C 
HETATM    6  C6  UNL     1     -33.693  15.382  -3.614  1.00 20.00     0.017 C 
HETATM    7  C7  UNL     1     -32.404  14.550  -3.507  1.00 20.00     0.023 C 
HETATM    8  C8  UNL     1     -33.767  16.348  -2.420  1.00 20.00     0.023 C 
HETATM    9  O9  UNL     1     -33.126  17.297  -4.997  1.00 20.00    -0.292 OA
ENDROOT
TORSDOF 0
ENDMDL
MODEL 5
REMARK VINA RESULT:      -4.3     12.395     13.631
REMARK  0 active torsions:
REMARK  status: ('A' for Active; 'I' for Inactive)
ROOT
HETATM    1  C1  UNL     1     -35.280  14.342  -6.348  1.00 20.00     0.047 C 
HETATM    2  C2  UNL     1     -35.163  15.630  -6.685  1.00 20.00    -0.023 C 
HETATM    3  C3  UNL     1     -34.615  13.817  -5.127  1.00 20.00     0.157 C 
HETATM    4  C4  UNL     1     -34.337  16.629  -5.937  1.00 20.00     0.028 C 
HETATM    5  C5  UNL     1     -33.316  15.961  -5.018  1.00 20.00     0.021 C 
HETATM    6  C6  UNL     1     -33.910  14.807  -4.190  1.00 20.00     0.017 C 
HETATM    7  C7  UNL     1     -34.936  15.315  -3.164  1.00 20.00     0.023 C 
HETATM    8  C8  UNL     1     -32.770  14.092  -3.447  1.00 20.00     0.023 C 
HETATM    9  O9  UNL     1     -34.699  12.614  -4.878  1.00 20.00    -0.292 OA
ENDROOT
TORSDOF 0
ENDMDL
MODEL 6
REMARK VINA RESULT:      -4.3     12.668     13.614
REMARK  0 active torsions:
REMARK  status: ('A' for Active; 'I' for Inactive)
ROOT
HETATM    1  C1  UNL     1     -33.240  14.966  -3.777  1.00 20.00     0.047 C 
HETATM    2  C2  UNL     1     -33.899  13.817  -3.597  1.00 20.00    -0.023 C 
HETATM    3  C3  UNL     1     -33.580  15.862  -4.914  1.00 20.00     0.157 C 
HETATM    4  C4  UNL     1     -34.963  13.299  -4.513  1.00 20.00     0.028 C 
HETATM    5  C5  UNL     1     -34.931  13.980  -5.879  1.00 20.00     0.021 C 
HETATM    6  C6  UNL     1     -34.790  15.512  -5.790  1.00 20.00     0.017 C 
HETATM    7  C7  UNL     1     -36.038  16.160  -5.171  1.00 20.00     0.023 C 
HETATM    8  C8  UNL     1     -34.582  16.074  -7.205  1.00 20.00     0.023 C 
HETATM    9  O9  UNL     1     -32.916  16.885  -5.080  1.00 20.00    -0.292 OA
ENDROOT
TORSDOF 0
ENDMDL
MODEL 7
REMARK VINA RESULT:      -4.2     11.844     12.852
REMARK  0 active torsions:
REMARK  status: ('A' for Active; 'I' for Inactive)
ROOT
HETATM    1  C1  UNL     1     -33.930  13.511  -4.046  1.00 20.00     0.047 C 
HETATM    2  C2  UNL     1     -35.244  13.343  -4.223  1.00 20.00    -0.023 C 
HETATM    3  C3  UNL     1     -33.378  14.849  -3.708  1.00 20.00     0.157 C 
HETATM    4  C4  UNL     1     -36.255  14.446  -4.162  1.00 20.00     0.028 C 
HETATM    5  C5  UNL     1     -35.613  15.825  -4.300  1.00 20.00     0.021 C 
HETATM    6  C6  UNL     1     -34.356  15.998  -3.428  1.00 20.00     0.017 C 
HETATM    7  C7  UNL     1     -34.699  15.987  -1.930  1.00 20.00     0.023 C 
HETATM    8  C8  UNL     1     -33.690  17.339  -3.780  1.00 20.00     0.023 C 
HETATM    9  O9  UNL     1     -32.158  14.978  -3.606  1.00 20.00    -0.292 OA
ENDROOT
TORSDOF 0
ENDMDL
MODEL 8
REMARK VINA RESULT:      -4.2     11.844     12.984
REMARK  0 active torsions:
REMARK  status: ('A' for Active; 'I' for Inactive)
ROOT
HETATM    1  C1  UNL     1     -35.012  13.363  -4.098  1.00 20.00     0.047 C 
HETATM    2  C2  UNL     1     -33.704  13.627  -4.030  1.00 20.00    -0.023 C 
HETATM    3  C3  UNL     1     -36.013  14.442  -3.888  1.00 20.00     0.157 C 
HETATM    4  C4  UNL     1     -33.127  14.965  -3.690  1.00 20.00     0.028 C 
HETATM    5  C5  UNL     1     -34.149  15.882  -3.021  1.00 20.00     0.021 C 
HETATM    6  C6  UNL     1     -35.516  15.885  -3.731  1.00 20.00     0.017 C 
HETATM    7  C7  UNL     1     -35.427  16.520  -5.127  1.00 20.00     0.023 C 
HETATM    8  C8  UNL     1     -36.515  16.685  -2.879  1.00 20.00     0.023 C 
HETATM    9  O9  UNL     1     -37.209  14.152  -3.904  1.00 20.00    -0.292 OA
ENDROOT
TORSDOF 0
ENDMDL
MODEL 9
REMARK VINA RESULT:      -4.1     12.224     13.087
REMARK  0 active torsions:
REMARK  status: ('A' for Active; 'I' for Inactive)
ROOT
HETATM    1  C1  UNL     1     -35.021  15.618  -2.510  1.00 20.00     0.047 C 
HETATM    2  C2  UNL     1     -33.750  15.960  -2.743  1.00 20.00    -0.023 C 
HETATM    3  C3  UNL     1     -35.855  15.029  -3.590  1.00 20.00     0.157 C 
HETATM    4  C4  UNL     1     -33.073  15.847  -4.073  1.00 20.00     0.028 C 
HETATM    5  C5  UNL     1     -34.073  15.711  -5.220  1.00 20.00     0.021 C 
HETATM    6  C6  UNL     1     -35.191  14.692  -4.931  1.00 20.00     0.017 C 
HETATM    7  C7  UNL     1     -34.643  13.258  -4.852  1.00 20.00     0.023 C 
HETATM    8  C8  UNL     1     -36.234  14.768  -6.058  1.00 20.00     0.023 C 
HETATM    9  O9  UNL     1     -37.037  14.778  -3.355  1.00 20.00    -0.292 OA
ENDROOT
TORSDOF 0
ENDMDL
