MODEL 1
REMARK VINA RESULT:      -4.3      0.000      0.000
REMARK  0 active torsions:
REMARK  status: ('A' for Active; 'I' for Inactive)
ROOT
HETATM    1  C1  UNL     1     -34.015   5.873   4.418  1.00 20.00    -0.064 C 
HETATM    2  C2  UNL     1     -33.272   6.222   3.365  1.00 20.00     0.016 C 
HETATM    3  C3  UNL     1     -35.076   4.829   4.431  1.00 20.00     0.061 C 
HETATM    4  C4  UNL     1     -33.862   6.408   5.802  1.00 20.00     0.201 C 
HETATM    5  C5  UNL     1     -35.054   4.435   5.893  1.00 20.00     0.172 C 
HETATM    6  O6  UNL     1     -34.774   5.644   6.612  1.00 20.00    -0.387 OA
ENDROOT
TORSDOF 0
ENDMDL
MODEL 2
REMARK VINA RESULT:      -4.2      1.398      2.234
REMARK  0 active torsions:
REMARK  status: ('A' for Active; 'I' for Inactive)
ROOT
HETATM    1  C1  UNL     1     -34.048   6.160   5.663  1.00 20.00    -0.064 C 
HETATM    2  C2  UNL     1     -33.715   6.994   6.652  1.00 20.00     0.016 C 
HETATM    3  C3  UNL     1     -34.851   4.914   5.804  1.00 20.00     0.061 C 
HETATM    4  C4  UNL     1     -33.746   6.365   4.217  1.00 20.00     0.201 C 
HETATM    5  C5  UNL     1     -35.436   4.807   4.410  1.00 20.00     0.172 C 
HETATM    6  O6  UNL     1     -34.415   5.294   3.528  1.00 20.00    -0.387 OA
ENDROOT
TORSDOF 0
ENDMDL
MODEL 3
REMARK VINA RESULT:      -3.9      1.521      2.927
REMARK  0 active torsions:
REMARK  status: ('A' for Active; 'I' for Inactive)
ROOT
HETATM    1  C1  UNL     1     -34.735   5.176   5.380  1.00 20.00    -0.064 C 
HETATM    2  C2  UNL     1     -35.157   4.319   6.313  1.00 20.00     0.016 C 
HETATM    3  C3  UNL     1     -33.841   6.344   5.607  1.00 20.00     0.061 C 
HETATM    4  C4  UNL     1     -35.014   5.073   3.919  1.00 20.00     0.201 C 
HETATM    5  C5  UNL     1     -33.213   6.479   4.235  1.00 20.00     0.172 C 
HETATM    6  O6  UNL     1     -34.246   6.123   3.305  1.00 20.00    -0.387 OA
ENDROOT
TORSDOF 0
ENDMDL
MODEL 4
REMARK VINA RESULT:      -3.7      0.923      1.776
REMARK  0 active torsions:
REMARK  status: ('A' for Active; 'I' for Inactive)
ROOT
HETATM    1  C1  UNL     1     -34.446   5.448   4.318  1.00 20.00    -0.064 C 
HETATM    2  C2  UNL     1     -34.740   5.410   3.016  1.00 20.00     0.016 C 
HETATM    3  C3  UNL     1     -33.579   6.455   4.989  1.00 20.00     0.061 C 
HETATM    4  C4  UNL     1     -35.001   4.535   5.359  1.00 20.00     0.201 C 
HETATM    5  C5  UNL     1     -34.145   6.411   6.394  1.00 20.00     0.172 C 
HETATM    6  O6  UNL     1     -34.515   5.043   6.615  1.00 20.00    -0.387 OA
ENDROOT
TORSDOF 0
ENDMDL
MODEL 5
REMARK VINA RESULT:      -3.5      0.909      1.661
REMARK  0 active torsions:
REMARK  status: ('A' for Active; 'I' for Inactive)
ROOT
HETATM    1  C1  UNL     1     -34.044   5.824   4.507  1.00 20.00    -0.064 C 
HETATM    2  C2  UNL     1     -33.641   6.614   3.508  1.00 20.00     0.016 C 
HETATM    3  C3  UNL     1     -33.843   6.081   5.959  1.00 20.00     0.061 C 
HETATM    4  C4  UNL     1     -34.846   4.575   4.355  1.00 20.00     0.201 C 
HETATM    5  C5  UNL     1     -35.007   5.303   6.538  1.00 20.00     0.172 C 
HETATM    6  O6  UNL     1     -35.156   4.152   5.695  1.00 20.00    -0.387 OA
ENDROOT
TORSDOF 0
ENDMDL
MODEL 6
REMARK VINA RESULT:      -3.3     12.025     12.548
REMARK  0 active torsions:
REMARK  status: ('A' for Active; 'I' for Inactive)
ROOT
HETATM    1  C1  UNL     1     -34.328  14.931  -3.248  1.00 20.00    -0.064 C 
HETATM    2  C2  UNL     1     -33.643  15.997  -2.826  1.00 20.00     0.016 C 
HETATM    3  C3  UNL     1     -35.805  14.854  -3.420  1.00 20.00     0.061 C 
HETATM    4  C4  UNL     1     -33.732  13.642  -3.706  1.00 20.00     0.201 C 
HETATM    5  C5  UNL     1     -35.901  13.777  -4.481  1.00 20.00     0.172 C 
HETATM    6  O6  UNL     1     -34.837  12.859  -4.192  1.00 20.00    -0.387 OA
ENDROOT
TORSDOF 0
ENDMDL
MODEL 7
REMARK VINA RESULT:      -3.3      1.615      2.705
REMARK  0 active torsions:
REMARK  status: ('A' for Active; 'I' for Inactive)
ROOT
HETATM    1  C1  UNL     1     -34.355   5.513   4.200  1.00 20.00    -0.064 C 
HETATM    2  C2  UNL     1     -35.507   4.880   4.441  1.00 20.00     0.016 C 
HETATM    3  C3  UNL     1     -33.618   5.524   2.907  1.00 20.00     0.061 C 
HETATM    4  C4  UNL     1     -33.636   6.398   5.161  1.00 20.00     0.201 C 
HETATM    5  C5  UNL     1     -32.870   6.836   3.029  1.00 20.00     0.172 C 
HETATM    6  O6  UNL     1     -32.538   6.959   4.419  1.00 20.00    -0.387 OA
ENDROOT
TORSDOF 0
ENDMDL
MODEL 8
REMARK VINA RESULT:      -3.1     12.341     13.283
REMARK  0 active torsions:
REMARK  status: ('A' for Active; 'I' for Inactive)
ROOT
HETATM    1  C1  UNL     1     -34.391  14.469  -5.559  1.00 20.00    -0.064 C 
HETATM    2  C2  UNL     1     -34.673  14.817  -6.818  1.00 20.00     0.016 C 
HETATM    3  C3  UNL     1     -33.787  15.351  -4.523  1.00 20.00     0.061 C 
HETATM    4  C4  UNL     1     -34.706  13.153  -4.933  1.00 20.00     0.201 C 
HETATM    5  C5  UNL     1     -34.320  14.699  -3.264  1.00 20.00     0.172 C 
HETATM    6  O6  UNL     1     -34.350  13.293  -3.546  1.00 20.00    -0.387 OA
ENDROOT
TORSDOF 0
ENDMDL
MODEL 9
REMARK VINA RESULT:      -3.1     12.333     12.740
REMARK  0 active torsions:
REMARK  status: ('A' for Active; 'I' for Inactive)
ROOT
HETATM    1  C1  UNL     1     -34.751  15.487  -2.740  1.00 20.00    -0.064 C 
HETATM    2  C2  UNL     1     -34.509  16.289  -1.699  1.00 20.00     0.016 C 
HETATM    3  C3  UNL     1     -33.733  14.711  -3.499  1.00 20.00     0.061 C 
HETATM    4  C4  UNL     1     -36.100  15.155  -3.282  1.00 20.00     0.201 C 
HETATM    5  C5  UNL     1     -34.589  13.576  -4.022  1.00 20.00     0.172 C 
HETATM    6  O6  UNL     1     -35.871  14.158  -4.295  1.00 20.00    -0.387 OA
ENDROOT
TORSDOF 0
ENDMDL
