MODEL 1
REMARK VINA RESULT:      -5.1      0.000      0.000
REMARK  1 active torsions:
REMARK  status: ('A' for Active; 'I' for Inactive)
REMARK    1  A    between atoms: C6_6  and  C8_8 
ROOT
HETATM    1  C1  UNL     1     -35.961  14.771  -3.748  1.00 20.00     0.144 C 
HETATM    2  C2  UNL     1     -36.084  16.052  -2.948  1.00 20.00     0.079 C 
HETATM    3  C3  UNL     1     -34.910  16.217  -1.996  1.00 20.00     0.007 C 
HETATM    4  C4  UNL     1     -33.575  16.102  -2.723  1.00 20.00     0.002 C 
HETATM    5  C5  UNL     1     -33.468  14.765  -3.455  1.00 20.00     0.026 C 
HETATM    6  C6  UNL     1     -34.620  14.508  -4.448  1.00 20.00     0.114 C 
HETATM    7  C7  UNL     1     -34.551  13.044  -4.917  1.00 20.00     0.033 C 
HETATM    8  O9  UNL     1     -36.936  14.031  -3.890  1.00 20.00    -0.297 OA
ENDROOT
BRANCH   6   9
HETATM    9  C8  UNL     1     -34.520  15.423  -5.677  1.00 20.00     0.401 C 
HETATM   10  F10 UNL     1     -33.399  16.148  -5.606  1.00 20.00    -0.170 F 
HETATM   11  F11 UNL     1     -34.497  14.680  -6.789  1.00 20.00    -0.170 F 
HETATM   12  F12 UNL     1     -35.577  16.242  -5.713  1.00 20.00    -0.170 F 
ENDBRANCH   6   9
TORSDOF 1
ENDMDL
MODEL 2
REMARK VINA RESULT:      -5.1      0.011      1.089
REMARK  1 active torsions:
REMARK  status: ('A' for Active; 'I' for Inactive)
REMARK    1  A    between atoms: C6_6  and  C8_8 
ROOT
HETATM    1  C1  UNL     1     -35.960  14.773  -3.745  1.00 20.00     0.144 C 
HETATM    2  C2  UNL     1     -36.088  16.055  -2.947  1.00 20.00     0.079 C 
HETATM    3  C3  UNL     1     -34.917  16.224  -1.992  1.00 20.00     0.007 C 
HETATM    4  C4  UNL     1     -33.580  16.111  -2.716  1.00 20.00     0.002 C 
HETATM    5  C5  UNL     1     -33.468  14.773  -3.445  1.00 20.00     0.026 C 
HETATM    6  C6  UNL     1     -34.617  14.512  -4.441  1.00 20.00     0.114 C 
HETATM    7  C7  UNL     1     -34.543  13.048  -4.907  1.00 20.00     0.033 C 
HETATM    8  O9  UNL     1     -36.933  14.030  -3.889  1.00 20.00    -0.297 OA
ENDROOT
BRANCH   6   9
HETATM    9  C8  UNL     1     -34.516  15.426  -5.672  1.00 20.00     0.401 C 
HETATM   10  F10 UNL     1     -35.566  16.254  -5.703  1.00 20.00    -0.170 F 
HETATM   11  F11 UNL     1     -33.388  16.143  -5.607  1.00 20.00    -0.170 F 
HETATM   12  F12 UNL     1     -34.504  14.681  -6.783  1.00 20.00    -0.170 F 
ENDBRANCH   6   9
TORSDOF 1
ENDMDL
MODEL 3
REMARK VINA RESULT:      -5.0      1.987      2.625
REMARK  1 active torsions:
REMARK  status: ('A' for Active; 'I' for Inactive)
REMARK    1  A    between atoms: C6_6  and  C8_8 
ROOT
HETATM    1  C1  UNL     1     -34.574  13.691  -4.777  1.00 20.00     0.144 C 
HETATM    2  C2  UNL     1     -33.935  14.078  -3.459  1.00 20.00     0.079 C 
HETATM    3  C3  UNL     1     -32.831  15.103  -3.667  1.00 20.00     0.007 C 
HETATM    4  C4  UNL     1     -33.325  16.309  -4.458  1.00 20.00     0.002 C 
HETATM    5  C5  UNL     1     -33.894  15.876  -5.809  1.00 20.00     0.026 C 
HETATM    6  C6  UNL     1     -35.025  14.833  -5.699  1.00 20.00     0.114 C 
HETATM    7  C7  UNL     1     -35.329  14.285  -7.104  1.00 20.00     0.033 C 
HETATM    8  O9  UNL     1     -34.794  12.507  -5.039  1.00 20.00    -0.297 OA
ENDROOT
BRANCH   6   9
HETATM    9  C8  UNL     1     -36.308  15.451  -5.124  1.00 20.00     0.401 C 
HETATM   10  F10 UNL     1     -37.370  14.976  -5.785  1.00 20.00    -0.170 F 
HETATM   11  F11 UNL     1     -36.416  15.137  -3.828  1.00 20.00    -0.170 F 
HETATM   12  F12 UNL     1     -36.263  16.782  -5.255  1.00 20.00    -0.170 F 
ENDBRANCH   6   9
TORSDOF 1
ENDMDL
MODEL 4
REMARK VINA RESULT:      -5.0      2.209      2.937
REMARK  1 active torsions:
REMARK  status: ('A' for Active; 'I' for Inactive)
REMARK    1  A    between atoms: C6_6  and  C8_8 
ROOT
HETATM    1  C1  UNL     1     -33.662  15.752  -4.237  1.00 20.00     0.144 C 
HETATM    2  C2  UNL     1     -33.932  15.962  -2.761  1.00 20.00     0.079 C 
HETATM    3  C3  UNL     1     -35.362  16.421  -2.526  1.00 20.00     0.007 C 
HETATM    4  C4  UNL     1     -36.369  15.482  -3.181  1.00 20.00     0.002 C 
HETATM    5  C5  UNL     1     -36.102  15.358  -4.680  1.00 20.00     0.026 C 
HETATM    6  C6  UNL     1     -34.670  14.896  -5.018  1.00 20.00     0.114 C 
HETATM    7  C7  UNL     1     -34.440  15.063  -6.530  1.00 20.00     0.033 C 
HETATM    8  O9  UNL     1     -32.627  16.183  -4.748  1.00 20.00    -0.297 OA
ENDROOT
BRANCH   6   9
HETATM    9  C8  UNL     1     -34.451  13.421  -4.648  1.00 20.00     0.401 C 
HETATM   10  F10 UNL     1     -34.634  12.655  -5.730  1.00 20.00    -0.170 F 
HETATM   11  F11 UNL     1     -33.206  13.252  -4.191  1.00 20.00    -0.170 F 
HETATM   12  F12 UNL     1     -35.324  13.063  -3.700  1.00 20.00    -0.170 F 
ENDBRANCH   6   9
TORSDOF 1
ENDMDL
MODEL 5
REMARK VINA RESULT:      -5.0      1.933      3.328
REMARK  1 active torsions:
REMARK  status: ('A' for Active; 'I' for Inactive)
REMARK    1  A    between atoms: C6_6  and  C8_8 
ROOT
HETATM    1  C1  UNL     1     -36.054  14.511  -4.283  1.00 20.00     0.144 C 
HETATM    2  C2  UNL     1     -35.203  13.719  -5.256  1.00 20.00     0.079 C 
HETATM    3  C3  UNL     1     -34.720  14.596  -6.399  1.00 20.00     0.007 C 
HETATM    4  C4  UNL     1     -34.019  15.850  -5.889  1.00 20.00     0.002 C 
HETATM    5  C5  UNL     1     -34.939  16.653  -4.972  1.00 20.00     0.026 C 
HETATM    6  C6  UNL     1     -35.482  15.843  -3.776  1.00 20.00     0.114 C 
HETATM    7  C7  UNL     1     -36.588  16.661  -3.087  1.00 20.00     0.033 C 
HETATM    8  O9  UNL     1     -37.115  14.046  -3.863  1.00 20.00    -0.297 OA
ENDROOT
BRANCH   6   9
HETATM    9  C8  UNL     1     -34.379  15.544  -2.750  1.00 20.00     0.401 C 
HETATM   10  F10 UNL     1     -34.010  14.262  -2.847  1.00 20.00    -0.170 F 
HETATM   11  F11 UNL     1     -33.321  16.329  -2.987  1.00 20.00    -0.170 F 
HETATM   12  F12 UNL     1     -34.839  15.781  -1.516  1.00 20.00    -0.170 F 
ENDBRANCH   6   9
TORSDOF 1
ENDMDL
MODEL 6
REMARK VINA RESULT:      -4.8      2.295      3.617
REMARK  1 active torsions:
REMARK  status: ('A' for Active; 'I' for Inactive)
REMARK    1  A    between atoms: C6_6  and  C8_8 
ROOT
HETATM    1  C1  UNL     1     -33.689  15.840  -5.201  1.00 20.00     0.144 C 
HETATM    2  C2  UNL     1     -34.366  16.555  -6.353  1.00 20.00     0.079 C 
HETATM    3  C3  UNL     1     -34.761  15.577  -7.447  1.00 20.00     0.007 C 
HETATM    4  C4  UNL     1     -35.595  14.425  -6.898  1.00 20.00     0.002 C 
HETATM    5  C5  UNL     1     -34.843  13.689  -5.790  1.00 20.00     0.026 C 
HETATM    6  C6  UNL     1     -34.399  14.604  -4.630  1.00 20.00     0.114 C 
HETATM    7  C7  UNL     1     -33.437  13.819  -3.722  1.00 20.00     0.033 C 
HETATM    8  O9  UNL     1     -32.660  16.299  -4.702  1.00 20.00    -0.297 OA
ENDROOT
BRANCH   6   9
HETATM    9  C8  UNL     1     -35.597  15.070  -3.789  1.00 20.00     0.401 C 
HETATM   10  F10 UNL     1     -36.564  14.147  -3.835  1.00 20.00    -0.170 F 
HETATM   11  F11 UNL     1     -35.214  15.247  -2.520  1.00 20.00    -0.170 F 
HETATM   12  F12 UNL     1     -36.064  16.226  -4.277  1.00 20.00    -0.170 F 
ENDBRANCH   6   9
TORSDOF 1
ENDMDL
MODEL 7
REMARK VINA RESULT:      -4.8      1.940      3.100
REMARK  1 active torsions:
REMARK  status: ('A' for Active; 'I' for Inactive)
REMARK    1  A    between atoms: C6_6  and  C8_8 
ROOT
HETATM    1  C1  UNL     1     -35.657  15.600  -4.096  1.00 20.00     0.144 C 
HETATM    2  C2  UNL     1     -36.270  15.275  -5.443  1.00 20.00     0.079 C 
HETATM    3  C3  UNL     1     -35.584  16.049  -6.557  1.00 20.00     0.007 C 
HETATM    4  C4  UNL     1     -34.073  15.849  -6.534  1.00 20.00     0.002 C 
HETATM    5  C5  UNL     1     -33.491  16.258  -5.181  1.00 20.00     0.026 C 
HETATM    6  C6  UNL     1     -34.128  15.521  -3.985  1.00 20.00     0.114 C 
HETATM    7  C7  UNL     1     -33.661  16.196  -2.684  1.00 20.00     0.033 C 
HETATM    8  O9  UNL     1     -36.378  15.828  -3.123  1.00 20.00    -0.297 OA
ENDROOT
BRANCH   6   9
HETATM    9  C8  UNL     1     -33.713  14.043  -3.947  1.00 20.00     0.401 C 
HETATM   10  F10 UNL     1     -34.433  13.398  -3.022  1.00 20.00    -0.170 F 
HETATM   11  F11 UNL     1     -33.930  13.486  -5.144  1.00 20.00    -0.170 F 
HETATM   12  F12 UNL     1     -32.414  13.949  -3.643  1.00 20.00    -0.170 F 
ENDBRANCH   6   9
TORSDOF 1
ENDMDL
MODEL 8
REMARK VINA RESULT:      -4.8      2.269      3.405
REMARK  1 active torsions:
REMARK  status: ('A' for Active; 'I' for Inactive)
REMARK    1  A    between atoms: C6_6  and  C8_8 
ROOT
HETATM    1  C1  UNL     1     -35.851  15.867  -4.787  1.00 20.00     0.144 C 
HETATM    2  C2  UNL     1     -37.067  15.459  -5.595  1.00 20.00     0.079 C 
HETATM    3  C3  UNL     1     -36.722  15.320  -7.069  1.00 20.00     0.007 C 
HETATM    4  C4  UNL     1     -35.533  14.389  -7.283  1.00 20.00     0.002 C 
HETATM    5  C5  UNL     1     -34.312  14.881  -6.508  1.00 20.00     0.026 C 
HETATM    6  C6  UNL     1     -34.565  15.054  -4.997  1.00 20.00     0.114 C 
HETATM    7  C7  UNL     1     -33.368  15.794  -4.376  1.00 20.00     0.033 C 
HETATM    8  O9  UNL     1     -35.936  16.759  -3.941  1.00 20.00    -0.297 OA
ENDROOT
BRANCH   6   9
HETATM    9  C8  UNL     1     -34.723  13.697  -4.293  1.00 20.00     0.401 C 
HETATM   10  F10 UNL     1     -34.154  12.739  -5.033  1.00 20.00    -0.170 F 
HETATM   11  F11 UNL     1     -34.130  13.742  -3.094  1.00 20.00    -0.170 F 
HETATM   12  F12 UNL     1     -36.023  13.423  -4.134  1.00 20.00    -0.170 F 
ENDBRANCH   6   9
TORSDOF 1
ENDMDL
MODEL 9
REMARK VINA RESULT:      -4.8      2.270      3.412
REMARK  1 active torsions:
REMARK  status: ('A' for Active; 'I' for Inactive)
REMARK    1  A    between atoms: C6_6  and  C8_8 
ROOT
HETATM    1  C1  UNL     1     -35.840  15.874  -4.793  1.00 20.00     0.144 C 
HETATM    2  C2  UNL     1     -37.060  15.472  -5.599  1.00 20.00     0.079 C 
HETATM    3  C3  UNL     1     -36.718  15.330  -7.073  1.00 20.00     0.007 C 
HETATM    4  C4  UNL     1     -35.534  14.394  -7.289  1.00 20.00     0.002 C 
HETATM    5  C5  UNL     1     -34.309  14.879  -6.516  1.00 20.00     0.026 C 
HETATM    6  C6  UNL     1     -34.560  15.053  -5.004  1.00 20.00     0.114 C 
HETATM    7  C7  UNL     1     -33.358  15.788  -4.385  1.00 20.00     0.033 C 
HETATM    8  O9  UNL     1     -35.920  16.767  -3.947  1.00 20.00    -0.297 OA
ENDROOT
BRANCH   6   9
HETATM    9  C8  UNL     1     -34.724  13.698  -4.299  1.00 20.00     0.401 C 
HETATM   10  F10 UNL     1     -34.137  13.743  -3.098  1.00 20.00    -0.170 F 
HETATM   11  F11 UNL     1     -36.025  13.426  -4.147  1.00 20.00    -0.170 F 
HETATM   12  F12 UNL     1     -34.153  12.738  -5.036  1.00 20.00    -0.170 F 
ENDBRANCH   6   9
TORSDOF 1
ENDMDL
