MODEL 1
REMARK VINA RESULT:      -4.2      0.000      0.000
REMARK  5 active torsions:
REMARK  status: ('A' for Active; 'I' for Inactive)
REMARK    1  A    between atoms: C5_5  and  C9_9 
REMARK    2  A    between atoms: C6_6  and  C9_9 
REMARK    3  A    between atoms: C7_7  and  N11_11 
REMARK    4  A    between atoms: C8_8  and  N11_11 
REMARK    5  A    between atoms: C9_9  and  N11_11 
ROOT
HETATM    1  C1  UNL     1     -37.313  15.130  -3.482  1.00 20.00     0.061 C 
HETATM    2  C5  UNL     1     -36.355  16.159  -3.049  1.00 20.00     0.159 C 
HETATM    3  N10 UNL     1     -38.071  14.320  -3.825  1.00 20.00    -0.197 NA
ENDROOT
BRANCH   2   4
HETATM    4  C9  UNL     1     -34.960  15.573  -2.772  1.00 20.00     0.235 C 
BRANCH   4   5
HETATM    5  C6  UNL     1     -34.098  16.525  -1.919  1.00 20.00     0.032 C 
HETATM    6  C2  UNL     1     -34.686  16.816  -0.543  1.00 20.00     0.007 C 
ENDBRANCH   4   5
BRANCH   4   7
HETATM    7  N11 UNL     1     -34.307  15.313  -4.061  1.00 20.00     0.093 N 
BRANCH   7   8
HETATM    8  C7  UNL     1     -33.760  13.959  -4.088  1.00 20.00     0.268 C 
HETATM    9  C3  UNL     1     -34.597  13.057  -4.931  1.00 20.00     0.037 C 
ENDBRANCH   7   8
BRANCH   7  10
HETATM   10  C8  UNL     1     -33.257  16.298  -4.305  1.00 20.00     0.268 C 
HETATM   11  C4  UNL     1     -33.538  17.090  -5.537  1.00 20.00     0.037 C 
ENDBRANCH   7  10
ENDBRANCH   4   7
ENDBRANCH   2   4
TORSDOF 5
ENDMDL
MODEL 2
REMARK VINA RESULT:      -4.1      1.591      3.126
REMARK  5 active torsions:
REMARK  status: ('A' for Active; 'I' for Inactive)
REMARK    1  A    between atoms: C5_5  and  C9_9 
REMARK    2  A    between atoms: C6_6  and  C9_9 
REMARK    3  A    between atoms: C7_7  and  N11_11 
REMARK    4  A    between atoms: C8_8  and  N11_11 
REMARK    5  A    between atoms: C9_9  and  N11_11 
ROOT
HETATM    1  C1  UNL     1     -34.094  13.546  -4.120  1.00 20.00     0.061 C 
HETATM    2  C5  UNL     1     -33.124  14.538  -3.631  1.00 20.00     0.159 C 
HETATM    3  N10 UNL     1     -34.857  12.760  -4.506  1.00 20.00    -0.197 NA
ENDROOT
BRANCH   2   4
HETATM    4  C9  UNL     1     -33.762  15.923  -3.430  1.00 20.00     0.235 C 
BRANCH   4   5
HETATM    5  C6  UNL     1     -34.848  15.900  -2.336  1.00 20.00     0.032 C 
HETATM    6  C2  UNL     1     -34.447  16.631  -1.059  1.00 20.00     0.007 C 
ENDBRANCH   4   5
BRANCH   4   7
HETATM    7  N11 UNL     1     -34.338  16.353  -4.710  1.00 20.00     0.093 N 
BRANCH   7   8
HETATM    8  C7  UNL     1     -33.514  17.397  -5.312  1.00 20.00     0.268 C 
HETATM    9  C3  UNL     1     -33.617  18.673  -4.546  1.00 20.00     0.037 C 
ENDBRANCH   7   8
BRANCH   7  10
HETATM   10  C8  UNL     1     -35.707  16.824  -4.516  1.00 20.00     0.268 C 
HETATM   11  C4  UNL     1     -36.623  16.253  -5.545  1.00 20.00     0.037 C 
ENDBRANCH   7  10
ENDBRANCH   4   7
ENDBRANCH   2   4
TORSDOF 5
ENDMDL
MODEL 3
REMARK VINA RESULT:      -3.9      1.602      2.669
REMARK  5 active torsions:
REMARK  status: ('A' for Active; 'I' for Inactive)
REMARK    1  A    between atoms: C5_5  and  C9_9 
REMARK    2  A    between atoms: C6_6  and  C9_9 
REMARK    3  A    between atoms: C7_7  and  N11_11 
REMARK    4  A    between atoms: C8_8  and  N11_11 
REMARK    5  A    between atoms: C9_9  and  N11_11 
ROOT
HETATM    1  C1  UNL     1     -35.182  13.697  -4.086  1.00 20.00     0.061 C 
HETATM    2  C5  UNL     1     -35.623  14.946  -3.444  1.00 20.00     0.159 C 
HETATM    3  N10 UNL     1     -34.837  12.712  -4.593  1.00 20.00    -0.197 NA
ENDROOT
BRANCH   2   4
HETATM    4  C9  UNL     1     -34.437  15.803  -2.966  1.00 20.00     0.235 C 
BRANCH   4   5
HETATM    5  C6  UNL     1     -34.620  16.272  -1.509  1.00 20.00     0.032 C 
HETATM    6  C2  UNL     1     -33.697  17.419  -1.114  1.00 20.00     0.007 C 
ENDBRANCH   4   5
BRANCH   4   7
HETATM    7  N11 UNL     1     -34.317  16.959  -3.862  1.00 20.00     0.093 N 
BRANCH   7   8
HETATM    8  C7  UNL     1     -35.616  17.288  -4.443  1.00 20.00     0.268 C 
HETATM    9  C3  UNL     1     -36.079  18.634  -3.997  1.00 20.00     0.037 C 
ENDBRANCH   7   8
BRANCH   7  10
HETATM   10  C8  UNL     1     -33.338  16.686  -4.911  1.00 20.00     0.268 C 
HETATM   11  C4  UNL     1     -33.997  16.571  -6.244  1.00 20.00     0.037 C 
ENDBRANCH   7  10
ENDBRANCH   4   7
ENDBRANCH   2   4
TORSDOF 5
ENDMDL
MODEL 4
REMARK VINA RESULT:      -3.9      0.667      2.089
REMARK  5 active torsions:
REMARK  status: ('A' for Active; 'I' for Inactive)
REMARK    1  A    between atoms: C5_5  and  C9_9 
REMARK    2  A    between atoms: C6_6  and  C9_9 
REMARK    3  A    between atoms: C7_7  and  N11_11 
REMARK    4  A    between atoms: C8_8  and  N11_11 
REMARK    5  A    between atoms: C9_9  and  N11_11 
ROOT
HETATM    1  C1  UNL     1     -37.398  15.117  -3.599  1.00 20.00     0.061 C 
HETATM    2  C5  UNL     1     -36.323  16.110  -3.441  1.00 20.00     0.159 C 
HETATM    3  N10 UNL     1     -38.248  14.337  -3.726  1.00 20.00    -0.197 NA
ENDROOT
BRANCH   2   4
HETATM    4  C9  UNL     1     -35.102  15.529  -2.706  1.00 20.00     0.235 C 
BRANCH   4   5
HETATM    5  C6  UNL     1     -34.804  16.292  -1.400  1.00 20.00     0.032 C 
HETATM    6  C2  UNL     1     -33.665  17.297  -1.523  1.00 20.00     0.007 C 
ENDBRANCH   4   5
BRANCH   4   7
HETATM    7  N11 UNL     1     -33.947  15.598  -3.610  1.00 20.00     0.093 N 
BRANCH   7   8
HETATM    8  C7  UNL     1     -34.349  16.140  -4.906  1.00 20.00     0.268 C 
HETATM    9  C3  UNL     1     -33.427  17.228  -5.342  1.00 20.00     0.037 C 
ENDBRANCH   7   8
BRANCH   7  10
HETATM   10  C8  UNL     1     -33.349  14.275  -3.768  1.00 20.00     0.268 C 
HETATM   11  C4  UNL     1     -34.233  13.377  -4.566  1.00 20.00     0.037 C 
ENDBRANCH   7  10
ENDBRANCH   4   7
ENDBRANCH   2   4
TORSDOF 5
ENDMDL
MODEL 5
REMARK VINA RESULT:      -3.9      1.560      3.663
REMARK  5 active torsions:
REMARK  status: ('A' for Active; 'I' for Inactive)
REMARK    1  A    between atoms: C5_5  and  C9_9 
REMARK    2  A    between atoms: C6_6  and  C9_9 
REMARK    3  A    between atoms: C7_7  and  N11_11 
REMARK    4  A    between atoms: C8_8  and  N11_11 
REMARK    5  A    between atoms: C9_9  and  N11_11 
ROOT
HETATM    1  C1  UNL     1     -34.487  13.607  -4.125  1.00 20.00     0.061 C 
HETATM    2  C5  UNL     1     -33.913  14.772  -3.432  1.00 20.00     0.159 C 
HETATM    3  N10 UNL     1     -34.938  12.687  -4.668  1.00 20.00    -0.197 NA
ENDROOT
BRANCH   2   4
HETATM    4  C9  UNL     1     -34.371  16.102  -4.057  1.00 20.00     0.235 C 
BRANCH   4   5
HETATM    5  C6  UNL     1     -33.301  16.690  -4.999  1.00 20.00     0.032 C 
HETATM    6  C2  UNL     1     -33.576  18.130  -5.415  1.00 20.00     0.007 C 
ENDBRANCH   4   5
BRANCH   4   7
HETATM    7  N11 UNL     1     -34.665  17.042  -2.969  1.00 20.00     0.093 N 
BRANCH   7   8
HETATM    8  C7  UNL     1     -33.883  16.706  -1.783  1.00 20.00     0.268 C 
HETATM    9  C3  UNL     1     -34.688  16.886  -0.539  1.00 20.00     0.037 C 
ENDBRANCH   7   8
BRANCH   7  10
HETATM   10  C8  UNL     1     -36.093  17.034  -2.665  1.00 20.00     0.268 C 
HETATM   11  C4  UNL     1     -36.905  16.837  -3.900  1.00 20.00     0.037 C 
ENDBRANCH   7  10
ENDBRANCH   4   7
ENDBRANCH   2   4
TORSDOF 5
ENDMDL
MODEL 6
REMARK VINA RESULT:      -3.9      0.879      2.959
REMARK  5 active torsions:
REMARK  status: ('A' for Active; 'I' for Inactive)
REMARK    1  A    between atoms: C5_5  and  C9_9 
REMARK    2  A    between atoms: C6_6  and  C9_9 
REMARK    3  A    between atoms: C7_7  and  N11_11 
REMARK    4  A    between atoms: C8_8  and  N11_11 
REMARK    5  A    between atoms: C9_9  and  N11_11 
ROOT
HETATM    1  C1  UNL     1     -37.402  14.936  -3.583  1.00 20.00     0.061 C 
HETATM    2  C5  UNL     1     -36.320  15.830  -3.142  1.00 20.00     0.159 C 
HETATM    3  N10 UNL     1     -38.257  14.232  -3.930  1.00 20.00    -0.197 NA
ENDROOT
BRANCH   2   4
HETATM    4  C9  UNL     1     -34.957  15.427  -3.733  1.00 20.00     0.235 C 
BRANCH   4   5
HETATM    5  C6  UNL     1     -34.703  13.912  -3.603  1.00 20.00     0.032 C 
HETATM    6  C2  UNL     1     -34.459  13.215  -4.937  1.00 20.00     0.007 C 
ENDBRANCH   4   5
BRANCH   4   7
HETATM    7  N11 UNL     1     -33.911  16.181  -3.031  1.00 20.00     0.093 N 
BRANCH   7   8
HETATM    8  C7  UNL     1     -34.302  16.419  -1.644  1.00 20.00     0.268 C 
HETATM    9  C3  UNL     1     -33.617  17.624  -1.092  1.00 20.00     0.037 C 
ENDBRANCH   7   8
BRANCH   7  10
HETATM   10  C8  UNL     1     -33.651  17.443  -3.718  1.00 20.00     0.268 C 
HETATM   11  C4  UNL     1     -33.446  17.228  -5.179  1.00 20.00     0.037 C 
ENDBRANCH   7  10
ENDBRANCH   4   7
ENDBRANCH   2   4
TORSDOF 5
ENDMDL
MODEL 7
REMARK VINA RESULT:      -3.9      1.440      3.384
REMARK  5 active torsions:
REMARK  status: ('A' for Active; 'I' for Inactive)
REMARK    1  A    between atoms: C5_5  and  C9_9 
REMARK    2  A    between atoms: C6_6  and  C9_9 
REMARK    3  A    between atoms: C7_7  and  N11_11 
REMARK    4  A    between atoms: C8_8  and  N11_11 
REMARK    5  A    between atoms: C9_9  and  N11_11 
ROOT
HETATM    1  C1  UNL     1     -37.602  15.118  -4.131  1.00 20.00     0.061 C 
HETATM    2  C5  UNL     1     -36.672  16.153  -4.611  1.00 20.00     0.159 C 
HETATM    3  N10 UNL     1     -38.338  14.304  -3.754  1.00 20.00    -0.197 NA
ENDROOT
BRANCH   2   4
HETATM    4  C9  UNL     1     -35.241  15.613  -4.781  1.00 20.00     0.235 C 
BRANCH   4   5
HETATM    5  C6  UNL     1     -35.164  14.529  -5.875  1.00 20.00     0.032 C 
HETATM    6  C2  UNL     1     -34.514  15.008  -7.168  1.00 20.00     0.007 C 
ENDBRANCH   4   5
BRANCH   4   7
HETATM    7  N11 UNL     1     -34.800  15.067  -3.492  1.00 20.00     0.093 N 
BRANCH   7   8
HETATM    8  C7  UNL     1     -34.050  16.074  -2.745  1.00 20.00     0.268 C 
HETATM    9  C3  UNL     1     -34.680  16.338  -1.418  1.00 20.00     0.037 C 
ENDBRANCH   7   8
BRANCH   7  10
HETATM   10  C8  UNL     1     -33.990  13.870  -3.699  1.00 20.00     0.268 C 
HETATM   11  C4  UNL     1     -32.544  14.154  -3.471  1.00 20.00     0.037 C 
ENDBRANCH   7  10
ENDBRANCH   4   7
ENDBRANCH   2   4
TORSDOF 5
ENDMDL
MODEL 8
REMARK VINA RESULT:      -3.8      2.037      3.194
REMARK  5 active torsions:
REMARK  status: ('A' for Active; 'I' for Inactive)
REMARK    1  A    between atoms: C5_5  and  C9_9 
REMARK    2  A    between atoms: C6_6  and  C9_9 
REMARK    3  A    between atoms: C7_7  and  N11_11 
REMARK    4  A    between atoms: C8_8  and  N11_11 
REMARK    5  A    between atoms: C9_9  and  N11_11 
ROOT
HETATM    1  C1  UNL     1     -37.705  14.772  -4.056  1.00 20.00     0.061 C 
HETATM    2  C5  UNL     1     -36.393  15.374  -4.340  1.00 20.00     0.159 C 
HETATM    3  N10 UNL     1     -38.741  14.300  -3.832  1.00 20.00    -0.197 NA
ENDROOT
BRANCH   2   4
HETATM    4  C9  UNL     1     -35.512  14.461  -5.212  1.00 20.00     0.235 C 
BRANCH   4   5
HETATM    5  C6  UNL     1     -34.875  13.324  -4.388  1.00 20.00     0.032 C 
HETATM    6  C2  UNL     1     -33.519  13.684  -3.793  1.00 20.00     0.007 C 
ENDBRANCH   4   5
BRANCH   4   7
HETATM    7  N11 UNL     1     -34.469  15.286  -5.832  1.00 20.00     0.093 N 
BRANCH   7   8
HETATM    8  C7  UNL     1     -34.742  16.703  -5.606  1.00 20.00     0.268 C 
HETATM    9  C3  UNL     1     -33.486  17.452  -5.311  1.00 20.00     0.037 C 
ENDBRANCH   7   8
BRANCH   7  10
HETATM   10  C8  UNL     1     -34.382  15.000  -7.262  1.00 20.00     0.268 C 
HETATM   11  C4  UNL     1     -35.686  14.509  -7.792  1.00 20.00     0.037 C 
ENDBRANCH   7  10
ENDBRANCH   4   7
ENDBRANCH   2   4
TORSDOF 5
ENDMDL
MODEL 9
REMARK VINA RESULT:      -3.8      0.950      3.013
REMARK  5 active torsions:
REMARK  status: ('A' for Active; 'I' for Inactive)
REMARK    1  A    between atoms: C5_5  and  C9_9 
REMARK    2  A    between atoms: C6_6  and  C9_9 
REMARK    3  A    between atoms: C7_7  and  N11_11 
REMARK    4  A    between atoms: C8_8  and  N11_11 
REMARK    5  A    between atoms: C9_9  and  N11_11 
ROOT
HETATM    1  C1  UNL     1     -37.737  15.079  -3.809  1.00 20.00     0.061 C 
HETATM    2  C5  UNL     1     -36.693  16.111  -3.709  1.00 20.00     0.159 C 
HETATM    3  N10 UNL     1     -38.563  14.267  -3.888  1.00 20.00    -0.197 NA
ENDROOT
BRANCH   2   4
HETATM    4  C9  UNL     1     -35.337  15.618  -4.244  1.00 20.00     0.235 C 
BRANCH   4   5
HETATM    5  C6  UNL     1     -34.992  14.210  -3.719  1.00 20.00     0.032 C 
HETATM    6  C2  UNL     1     -34.634  13.217  -4.818  1.00 20.00     0.007 C 
ENDBRANCH   4   5
BRANCH   4   7
HETATM    7  N11 UNL     1     -34.306  16.580  -3.837  1.00 20.00     0.093 N 
BRANCH   7   8
HETATM    8  C7  UNL     1     -33.341  16.775  -4.916  1.00 20.00     0.268 C 
HETATM    9  C3  UNL     1     -33.652  18.006  -5.700  1.00 20.00     0.037 C 
ENDBRANCH   7   8
BRANCH   7  10
HETATM   10  C8  UNL     1     -33.636  16.121  -2.623  1.00 20.00     0.268 C 
HETATM   11  C4  UNL     1     -33.849  17.076  -1.498  1.00 20.00     0.037 C 
ENDBRANCH   7  10
ENDBRANCH   4   7
ENDBRANCH   2   4
TORSDOF 5
ENDMDL
