MODEL 1
REMARK VINA RESULT:      -5.4      0.000      0.000
REMARK  3 active torsions:
REMARK  status: ('A' for Active; 'I' for Inactive)
REMARK    1  A    between atoms: C3_3  and  C6_6 
REMARK    2  A    between atoms: C3_3  and  C7_7 
REMARK    3  A    between atoms: C5_5  and  C7_7 
ROOT
HETATM    1  C1  UNL     1     -31.844   7.263   3.207  1.00 20.00     0.012 C 
HETATM    2  C2  UNL     1     -32.736   6.470   3.070  1.00 20.00    -0.117 C 
HETATM    3  C5  UNL     1     -33.827   5.500   2.898  1.00 20.00     0.100 C 
ENDROOT
BRANCH   3   4
HETATM    4  C7  UNL     1     -34.942   5.709   3.920  1.00 20.00     0.090 C 
BRANCH   4   5
HETATM    5  C3  UNL     1     -34.940   4.688   5.051  1.00 20.00     0.127 C 
HETATM    6  O8  UNL     1     -35.119   3.487   4.856  1.00 20.00    -0.298 OA
BRANCH   5   7
HETATM    7  C6  UNL     1     -34.678   5.252   6.438  1.00 20.00     0.074 C 
HETATM    8  C4  UNL     1     -33.976   6.598   6.401  1.00 20.00     0.013 C 
ENDBRANCH   5   7
ENDBRANCH   4   5
ENDBRANCH   3   4
TORSDOF 3
ENDMDL
MODEL 2
REMARK VINA RESULT:      -5.0      1.729      2.402
REMARK  3 active torsions:
REMARK  status: ('A' for Active; 'I' for Inactive)
REMARK    1  A    between atoms: C3_3  and  C6_6 
REMARK    2  A    between atoms: C3_3  and  C7_7 
REMARK    3  A    between atoms: C5_5  and  C7_7 
ROOT
HETATM    1  C1  UNL     1     -32.164   8.913   1.320  1.00 20.00     0.012 C 
HETATM    2  C2  UNL     1     -32.105   8.073   2.176  1.00 20.00    -0.117 C 
HETATM    3  C5  UNL     1     -32.028   7.045   3.225  1.00 20.00     0.100 C 
ENDROOT
BRANCH   3   4
HETATM    4  C7  UNL     1     -33.229   6.103   3.188  1.00 20.00     0.090 C 
BRANCH   4   5
HETATM    5  C3  UNL     1     -33.939   5.956   4.528  1.00 20.00     0.127 C 
HETATM    6  O8  UNL     1     -33.643   6.637   5.509  1.00 20.00    -0.298 OA
BRANCH   5   7
HETATM    7  C6  UNL     1     -35.056   4.926   4.566  1.00 20.00     0.074 C 
HETATM    8  C4  UNL     1     -35.111   4.167   5.880  1.00 20.00     0.013 C 
ENDBRANCH   5   7
ENDBRANCH   4   5
ENDBRANCH   3   4
TORSDOF 3
ENDMDL
MODEL 3
REMARK VINA RESULT:      -4.9      1.184      3.206
REMARK  3 active torsions:
REMARK  status: ('A' for Active; 'I' for Inactive)
REMARK    1  A    between atoms: C3_3  and  C6_6 
REMARK    2  A    between atoms: C3_3  and  C7_7 
REMARK    3  A    between atoms: C5_5  and  C7_7 
ROOT
HETATM    1  C1  UNL     1     -33.667   7.019   6.680  1.00 20.00     0.012 C 
HETATM    2  C2  UNL     1     -34.307   6.021   6.486  1.00 20.00    -0.117 C 
HETATM    3  C5  UNL     1     -35.089   4.798   6.253  1.00 20.00     0.100 C 
ENDROOT
BRANCH   3   4
HETATM    4  C7  UNL     1     -34.812   4.198   4.876  1.00 20.00     0.090 C 
BRANCH   4   5
HETATM    5  C3  UNL     1     -35.022   5.174   3.725  1.00 20.00     0.127 C 
HETATM    6  O8  UNL     1     -36.057   5.823   3.591  1.00 20.00    -0.298 OA
BRANCH   5   7
HETATM    7  C6  UNL     1     -33.851   5.311   2.764  1.00 20.00     0.074 C 
HETATM    8  C4  UNL     1     -32.905   6.435   3.149  1.00 20.00     0.013 C 
ENDBRANCH   5   7
ENDBRANCH   4   5
ENDBRANCH   3   4
TORSDOF 3
ENDMDL
MODEL 4
REMARK VINA RESULT:      -4.6      1.812      3.994
REMARK  3 active torsions:
REMARK  status: ('A' for Active; 'I' for Inactive)
REMARK    1  A    between atoms: C3_3  and  C6_6 
REMARK    2  A    between atoms: C3_3  and  C7_7 
REMARK    3  A    between atoms: C5_5  and  C7_7 
ROOT
HETATM    1  C1  UNL     1     -35.047   4.267   6.075  1.00 20.00     0.012 C 
HETATM    2  C2  UNL     1     -34.935   4.765   4.989  1.00 20.00    -0.117 C 
HETATM    3  C5  UNL     1     -34.797   5.372   3.656  1.00 20.00     0.100 C 
ENDROOT
BRANCH   3   4
HETATM    4  C7  UNL     1     -33.994   6.670   3.701  1.00 20.00     0.090 C 
BRANCH   4   5
HETATM    5  C3  UNL     1     -32.554   6.520   3.224  1.00 20.00     0.127 C 
HETATM    6  O8  UNL     1     -32.034   5.423   3.032  1.00 20.00    -0.298 OA
BRANCH   5   7
HETATM    7  C6  UNL     1     -31.810   7.823   2.979  1.00 20.00     0.074 C 
HETATM    8  C4  UNL     1     -32.133   8.437   1.628  1.00 20.00     0.013 C 
ENDBRANCH   5   7
ENDBRANCH   4   5
ENDBRANCH   3   4
TORSDOF 3
ENDMDL
MODEL 5
REMARK VINA RESULT:      -4.1     11.800     12.796
REMARK  3 active torsions:
REMARK  status: ('A' for Active; 'I' for Inactive)
REMARK    1  A    between atoms: C3_3  and  C6_6 
REMARK    2  A    between atoms: C3_3  and  C7_7 
REMARK    3  A    between atoms: C5_5  and  C7_7 
ROOT
HETATM    1  C1  UNL     1     -34.739  16.328  -1.545  1.00 20.00     0.012 C 
HETATM    2  C2  UNL     1     -34.035  15.935  -2.436  1.00 20.00    -0.117 C 
HETATM    3  C5  UNL     1     -33.176  15.457  -3.530  1.00 20.00     0.100 C 
ENDROOT
BRANCH   3   4
HETATM    4  C7  UNL     1     -33.289  13.948  -3.727  1.00 20.00     0.090 C 
BRANCH   4   5
HETATM    5  C3  UNL     1     -34.419  13.531  -4.661  1.00 20.00     0.127 C 
HETATM    6  O8  UNL     1     -35.144  12.566  -4.429  1.00 20.00    -0.298 OA
BRANCH   5   7
HETATM    7  C6  UNL     1     -34.605  14.407  -5.890  1.00 20.00     0.074 C 
HETATM    8  C4  UNL     1     -35.976  15.058  -5.943  1.00 20.00     0.013 C 
ENDBRANCH   5   7
ENDBRANCH   4   5
ENDBRANCH   3   4
TORSDOF 3
ENDMDL
MODEL 6
REMARK VINA RESULT:      -4.0     11.916     12.734
REMARK  3 active torsions:
REMARK  status: ('A' for Active; 'I' for Inactive)
REMARK    1  A    between atoms: C3_3  and  C6_6 
REMARK    2  A    between atoms: C3_3  and  C7_7 
REMARK    3  A    between atoms: C5_5  and  C7_7 
ROOT
HETATM    1  C1  UNL     1     -34.736  16.997  -0.289  1.00 20.00     0.012 C 
HETATM    2  C2  UNL     1     -34.397  16.539  -1.347  1.00 20.00    -0.117 C 
HETATM    3  C5  UNL     1     -33.982  15.983  -2.643  1.00 20.00     0.100 C 
ENDROOT
BRANCH   3   4
HETATM    4  C7  UNL     1     -34.869  14.818  -3.074  1.00 20.00     0.090 C 
BRANCH   4   5
HETATM    5  C3  UNL     1     -34.204  13.870  -4.064  1.00 20.00     0.127 C 
HETATM    6  O8  UNL     1     -33.199  13.221  -3.781  1.00 20.00    -0.298 OA
BRANCH   5   7
HETATM    7  C6  UNL     1     -34.882  13.761  -5.420  1.00 20.00     0.074 C 
HETATM    8  C4  UNL     1     -34.451  14.855  -6.381  1.00 20.00     0.013 C 
ENDBRANCH   5   7
ENDBRANCH   4   5
ENDBRANCH   3   4
TORSDOF 3
ENDMDL
MODEL 7
REMARK VINA RESULT:      -3.8     12.287     12.973
REMARK  3 active torsions:
REMARK  status: ('A' for Active; 'I' for Inactive)
REMARK    1  A    between atoms: C3_3  and  C6_6 
REMARK    2  A    between atoms: C3_3  and  C7_7 
REMARK    3  A    between atoms: C5_5  and  C7_7 
ROOT
HETATM    1  C1  UNL     1     -34.786  17.401   0.389  1.00 20.00     0.012 C 
HETATM    2  C2  UNL     1     -34.773  16.776  -0.636  1.00 20.00    -0.117 C 
HETATM    3  C5  UNL     1     -34.757  16.006  -1.890  1.00 20.00     0.100 C 
ENDROOT
BRANCH   3   4
HETATM    4  C7  UNL     1     -33.521  16.312  -2.731  1.00 20.00     0.090 C 
BRANCH   4   5
HETATM    5  C3  UNL     1     -33.415  15.473  -3.999  1.00 20.00     0.127 C 
HETATM    6  O8  UNL     1     -33.254  15.974  -5.110  1.00 20.00    -0.298 OA
BRANCH   5   7
HETATM    7  C6  UNL     1     -33.497  13.969  -3.794  1.00 20.00     0.074 C 
HETATM    8  C4  UNL     1     -34.507  13.306  -4.714  1.00 20.00     0.013 C 
ENDBRANCH   5   7
ENDBRANCH   4   5
ENDBRANCH   3   4
TORSDOF 3
ENDMDL
MODEL 8
REMARK VINA RESULT:      -3.8      2.141      4.075
REMARK  3 active torsions:
REMARK  status: ('A' for Active; 'I' for Inactive)
REMARK    1  A    between atoms: C3_3  and  C6_6 
REMARK    2  A    between atoms: C3_3  and  C7_7 
REMARK    3  A    between atoms: C5_5  and  C7_7 
ROOT
HETATM    1  C1  UNL     1     -35.180   4.252   6.203  1.00 20.00     0.012 C 
HETATM    2  C2  UNL     1     -34.528   5.256   6.104  1.00 20.00    -0.117 C 
HETATM    3  C5  UNL     1     -33.730   6.486   5.986  1.00 20.00     0.100 C 
ENDROOT
BRANCH   3   4
HETATM    4  C7  UNL     1     -33.808   7.084   4.584  1.00 20.00     0.090 C 
BRANCH   4   5
HETATM    5  C3  UNL     1     -32.588   6.788   3.720  1.00 20.00     0.127 C 
HETATM    6  O8  UNL     1     -31.566   7.470   3.766  1.00 20.00    -0.298 OA
BRANCH   5   7
HETATM    7  C6  UNL     1     -32.711   5.575   2.811  1.00 20.00     0.074 C 
HETATM    8  C4  UNL     1     -34.155   5.215   2.507  1.00 20.00     0.013 C 
ENDBRANCH   5   7
ENDBRANCH   4   5
ENDBRANCH   3   4
TORSDOF 3
ENDMDL
MODEL 9
REMARK VINA RESULT:      -3.8     12.021     13.118
REMARK  3 active torsions:
REMARK  status: ('A' for Active; 'I' for Inactive)
REMARK    1  A    between atoms: C3_3  and  C6_6 
REMARK    2  A    between atoms: C3_3  and  C7_7 
REMARK    3  A    between atoms: C5_5  and  C7_7 
ROOT
HETATM    1  C1  UNL     1     -34.584  14.945  -7.129  1.00 20.00     0.012 C 
HETATM    2  C2  UNL     1     -34.069  15.581  -6.251  1.00 20.00    -0.117 C 
HETATM    3  C5  UNL     1     -33.435  16.363  -5.178  1.00 20.00     0.100 C 
ENDROOT
BRANCH   3   4
HETATM    4  C7  UNL     1     -32.999  15.480  -4.011  1.00 20.00     0.090 C 
BRANCH   4   5
HETATM    5  C3  UNL     1     -34.135  14.681  -3.385  1.00 20.00     0.127 C 
HETATM    6  O8  UNL     1     -34.185  13.454  -3.437  1.00 20.00    -0.298 OA
BRANCH   5   7
HETATM    7  C6  UNL     1     -35.193  15.504  -2.668  1.00 20.00     0.074 C 
HETATM    8  C4  UNL     1     -34.627  16.302  -1.505  1.00 20.00     0.013 C 
ENDBRANCH   5   7
ENDBRANCH   4   5
ENDBRANCH   3   4
TORSDOF 3
ENDMDL
