MODEL 1
REMARK VINA RESULT:      -6.2      0.000      0.000
REMARK  0 active torsions:
REMARK  status: ('A' for Active; 'I' for Inactive)
ROOT
HETATM    1  C1  UNL     1     -32.984   5.955   2.600  1.00 20.00    -0.003 C 
HETATM    2  C2  UNL     1     -32.766   6.675   3.839  1.00 20.00     0.011 C 
HETATM    3  C3  UNL     1     -34.099   5.202   2.684  1.00 20.00    -0.017 C 
HETATM    4  C4  UNL     1     -33.785   6.372   4.643  1.00 20.00    -0.005 C 
HETATM    5  C5  UNL     1     -33.989   6.345   6.095  1.00 20.00     0.156 C 
HETATM    6  C6  UNL     1     -34.919   5.194   6.404  1.00 20.00     0.084 C 
HETATM    7  C7  UNL     1     -34.957   4.420   5.061  1.00 20.00     0.021 C 
HETATM    8  C8  UNL     1     -34.791   5.487   3.981  1.00 20.00     0.045 C 
HETATM    9  O9  UNL     1     -33.487   7.112   6.895  1.00 20.00    -0.293 OA
ENDROOT
TORSDOF 0
ENDMDL
MODEL 2
REMARK VINA RESULT:      -5.4      1.929      3.655
REMARK  0 active torsions:
REMARK  status: ('A' for Active; 'I' for Inactive)
ROOT
HETATM    1  C1  UNL     1     -35.035   4.631   6.261  1.00 20.00    -0.003 C 
HETATM    2  C2  UNL     1     -35.148   4.322   4.850  1.00 20.00     0.011 C 
HETATM    3  C3  UNL     1     -34.396   5.805   6.435  1.00 20.00    -0.017 C 
HETATM    4  C4  UNL     1     -34.607   5.344   4.188  1.00 20.00    -0.005 C 
HETATM    5  C5  UNL     1     -33.986   5.516   2.871  1.00 20.00     0.156 C 
HETATM    6  C6  UNL     1     -32.880   6.537   3.018  1.00 20.00     0.084 C 
HETATM    7  C7  UNL     1     -32.748   6.674   4.557  1.00 20.00     0.021 C 
HETATM    8  C8  UNL     1     -34.156   6.439   5.100  1.00 20.00     0.045 C 
HETATM    9  O9  UNL     1     -34.308   4.930   1.854  1.00 20.00    -0.293 OA
ENDROOT
TORSDOF 0
ENDMDL
MODEL 3
REMARK VINA RESULT:      -5.3      1.366      2.996
REMARK  0 active torsions:
REMARK  status: ('A' for Active; 'I' for Inactive)
ROOT
HETATM    1  C1  UNL     1     -34.678   5.795   6.785  1.00 20.00    -0.003 C 
HETATM    2  C2  UNL     1     -33.600   6.543   6.170  1.00 20.00     0.011 C 
HETATM    3  C3  UNL     1     -35.151   4.866   5.931  1.00 20.00    -0.017 C 
HETATM    4  C4  UNL     1     -33.412   6.022   4.958  1.00 20.00    -0.005 C 
HETATM    5  C5  UNL     1     -32.869   6.515   3.688  1.00 20.00     0.156 C 
HETATM    6  C6  UNL     1     -33.654   5.863   2.572  1.00 20.00     0.084 C 
HETATM    7  C7  UNL     1     -34.850   5.227   3.327  1.00 20.00     0.021 C 
HETATM    8  C8  UNL     1     -34.299   4.846   4.699  1.00 20.00     0.045 C 
HETATM    9  O9  UNL     1     -31.956   7.310   3.570  1.00 20.00    -0.293 OA
ENDROOT
TORSDOF 0
ENDMDL
MODEL 4
REMARK VINA RESULT:      -4.8      1.594      2.336
REMARK  0 active torsions:
REMARK  status: ('A' for Active; 'I' for Inactive)
ROOT
HETATM    1  C1  UNL     1     -33.103   6.676   2.698  1.00 20.00    -0.003 C 
HETATM    2  C2  UNL     1     -33.906   5.490   2.923  1.00 20.00     0.011 C 
HETATM    3  C3  UNL     1     -32.663   7.174   3.870  1.00 20.00    -0.017 C 
HETATM    4  C4  UNL     1     -33.903   5.268   4.237  1.00 20.00    -0.005 C 
HETATM    5  C5  UNL     1     -34.803   4.592   5.177  1.00 20.00     0.156 C 
HETATM    6  C6  UNL     1     -34.756   5.355   6.482  1.00 20.00     0.084 C 
HETATM    7  C7  UNL     1     -34.013   6.656   6.087  1.00 20.00     0.021 C 
HETATM    8  C8  UNL     1     -33.046   6.243   4.979  1.00 20.00     0.045 C 
HETATM    9  O9  UNL     1     -35.466   3.601   4.935  1.00 20.00    -0.293 OA
ENDROOT
TORSDOF 0
ENDMDL
MODEL 5
REMARK VINA RESULT:      -4.5     11.880     12.580
REMARK  0 active torsions:
REMARK  status: ('A' for Active; 'I' for Inactive)
ROOT
HETATM    1  C1  UNL     1     -34.285  16.707  -1.917  1.00 20.00    -0.003 C 
HETATM    2  C2  UNL     1     -35.596  16.210  -2.283  1.00 20.00     0.011 C 
HETATM    3  C3  UNL     1     -33.337  16.148  -2.696  1.00 20.00    -0.017 C 
HETATM    4  C4  UNL     1     -35.420  15.382  -3.312  1.00 20.00    -0.005 C 
HETATM    5  C5  UNL     1     -36.157  14.241  -3.865  1.00 20.00     0.156 C 
HETATM    6  C6  UNL     1     -35.140  13.258  -4.402  1.00 20.00     0.084 C 
HETATM    7  C7  UNL     1     -33.807  13.803  -3.827  1.00 20.00     0.021 C 
HETATM    8  C8  UNL     1     -33.994  15.317  -3.755  1.00 20.00     0.045 C 
HETATM    9  O9  UNL     1     -37.367  14.117  -3.875  1.00 20.00    -0.293 OA
ENDROOT
TORSDOF 0
ENDMDL
MODEL 6
REMARK VINA RESULT:      -4.4     12.535     13.753
REMARK  0 active torsions:
REMARK  status: ('A' for Active; 'I' for Inactive)
ROOT
HETATM    1  C1  UNL     1     -34.758  15.976  -7.398  1.00 20.00    -0.003 C 
HETATM    2  C2  UNL     1     -34.952  14.627  -6.905  1.00 20.00     0.011 C 
HETATM    3  C3  UNL     1     -34.168  16.739  -6.456  1.00 20.00    -0.017 C 
HETATM    4  C4  UNL     1     -34.434  14.588  -5.678  1.00 20.00    -0.005 C 
HETATM    5  C5  UNL     1     -34.660  13.771  -4.481  1.00 20.00     0.156 C 
HETATM    6  C6  UNL     1     -34.465  14.663  -3.276  1.00 20.00     0.084 C 
HETATM    7  C7  UNL     1     -34.422  16.079  -3.907  1.00 20.00     0.021 C 
HETATM    8  C8  UNL     1     -33.796  15.882  -5.286  1.00 20.00     0.045 C 
HETATM    9  O9  UNL     1     -34.957  12.591  -4.475  1.00 20.00    -0.293 OA
ENDROOT
TORSDOF 0
ENDMDL
MODEL 7
REMARK VINA RESULT:      -4.3     11.658     12.541
REMARK  0 active torsions:
REMARK  status: ('A' for Active; 'I' for Inactive)
ROOT
HETATM    1  C1  UNL     1     -34.657  17.094  -2.584  1.00 20.00    -0.003 C 
HETATM    2  C2  UNL     1     -33.669  16.039  -2.687  1.00 20.00     0.011 C 
HETATM    3  C3  UNL     1     -35.872  16.637  -2.947  1.00 20.00    -0.017 C 
HETATM    4  C4  UNL     1     -34.317  14.942  -3.076  1.00 20.00    -0.005 C 
HETATM    5  C5  UNL     1     -33.946  13.714  -3.787  1.00 20.00     0.156 C 
HETATM    6  C6  UNL     1     -35.127  13.306  -4.640  1.00 20.00     0.084 C 
HETATM    7  C7  UNL     1     -36.039  14.558  -4.576  1.00 20.00     0.021 C 
HETATM    8  C8  UNL     1     -35.791  15.162  -3.195  1.00 20.00     0.045 C 
HETATM    9  O9  UNL     1     -32.876  13.142  -3.701  1.00 20.00    -0.293 OA
ENDROOT
TORSDOF 0
ENDMDL
MODEL 8
REMARK VINA RESULT:      -4.3     11.875     12.784
REMARK  0 active torsions:
REMARK  status: ('A' for Active; 'I' for Inactive)
ROOT
HETATM    1  C1  UNL     1     -33.370  14.103  -3.855  1.00 20.00    -0.003 C 
HETATM    2  C2  UNL     1     -34.730  13.611  -3.941  1.00 20.00     0.011 C 
HETATM    3  C3  UNL     1     -33.354  15.354  -3.354  1.00 20.00    -0.017 C 
HETATM    4  C4  UNL     1     -35.517  14.567  -3.448  1.00 20.00    -0.005 C 
HETATM    5  C5  UNL     1     -36.920  14.952  -3.628  1.00 20.00     0.156 C 
HETATM    6  C6  UNL     1     -36.995  16.460  -3.537  1.00 20.00     0.084 C 
HETATM    7  C7  UNL     1     -35.504  16.877  -3.604  1.00 20.00     0.021 C 
HETATM    8  C8  UNL     1     -34.740  15.736  -2.934  1.00 20.00     0.045 C 
HETATM    9  O9  UNL     1     -37.846  14.185  -3.821  1.00 20.00    -0.293 OA
ENDROOT
TORSDOF 0
ENDMDL
MODEL 9
REMARK VINA RESULT:      -4.3      9.722     10.623
REMARK  0 active torsions:
REMARK  status: ('A' for Active; 'I' for Inactive)
ROOT
HETATM    1  C1  UNL     1     -40.955   7.238  -0.827  1.00 20.00    -0.003 C 
HETATM    2  C2  UNL     1     -41.676   6.921  -2.044  1.00 20.00     0.011 C 
HETATM    3  C3  UNL     1     -40.778   6.127  -0.084  1.00 20.00    -0.017 C 
HETATM    4  C4  UNL     1     -41.889   5.606  -2.033  1.00 20.00    -0.005 C 
HETATM    5  C5  UNL     1     -42.878   4.709  -2.640  1.00 20.00     0.156 C 
HETATM    6  C6  UNL     1     -43.135   3.584  -1.663  1.00 20.00     0.084 C 
HETATM    7  C7  UNL     1     -42.452   4.098  -0.369  1.00 20.00     0.021 C 
HETATM    8  C8  UNL     1     -41.269   4.937  -0.849  1.00 20.00     0.045 C 
HETATM    9  O9  UNL     1     -43.396   4.861  -3.731  1.00 20.00    -0.293 OA
ENDROOT
TORSDOF 0
ENDMDL
