MODEL 1
REMARK VINA RESULT:      -4.5      0.000      0.000
REMARK  1 active torsions:
REMARK  status: ('A' for Active; 'I' for Inactive)
REMARK    1  A    between atoms: C3_3  and  C8_8 
ROOT
HETATM    1  C1  UNL     1     -33.325  15.618  -3.332  1.00 20.00     0.302 C 
HETATM    2  C2  UNL     1     -35.789  15.442  -4.718  1.00 20.00     0.209 C 
HETATM    3  C3  UNL     1     -34.616  16.290  -2.862  1.00 20.00     0.149 C 
HETATM    4  C4  UNL     1     -34.535  14.740  -5.270  1.00 20.00     0.171 C 
HETATM    5  C5  UNL     1     -34.534  14.835  -6.804  1.00 20.00     0.051 C 
HETATM    6  C6  UNL     1     -34.519  13.253  -4.869  1.00 20.00     0.051 C 
HETATM    7  N9  UNL     1     -33.330  15.434  -4.784  1.00 20.00     0.097 N 
HETATM    8  O10 UNL     1     -35.745  15.523  -3.292  1.00 20.00    -0.382 OA
HETATM    9  H27 UNL     1     -33.279  16.355  -5.222  1.00 20.00     0.317 HD
ENDROOT
BRANCH   3  10
HETATM   10  C8  UNL     1     -34.665  16.382  -1.344  1.00 20.00     0.029 C 
HETATM   11  C7  UNL     1     -33.808  17.493  -0.826  1.00 20.00     0.007 C 
ENDBRANCH   3  10
TORSDOF 1
ENDMDL
MODEL 2
REMARK VINA RESULT:      -4.2      1.546      2.129
REMARK  1 active torsions:
REMARK  status: ('A' for Active; 'I' for Inactive)
REMARK    1  A    between atoms: C3_3  and  C8_8 
ROOT
HETATM    1  C1  UNL     1     -35.601  16.744  -3.199  1.00 20.00     0.302 C 
HETATM    2  C2  UNL     1     -33.363  15.226  -4.041  1.00 20.00     0.209 C 
HETATM    3  C3  UNL     1     -34.703  15.951  -2.248  1.00 20.00     0.149 C 
HETATM    4  C4  UNL     1     -34.219  15.985  -5.071  1.00 20.00     0.171 C 
HETATM    5  C5  UNL     1     -34.329  15.149  -6.356  1.00 20.00     0.051 C 
HETATM    6  C6  UNL     1     -33.580  17.343  -5.419  1.00 20.00     0.051 C 
HETATM    7  N9  UNL     1     -35.582  16.162  -4.542  1.00 20.00     0.097 N 
HETATM    8  O10 UNL     1     -33.374  15.890  -2.775  1.00 20.00    -0.382 OA
HETATM    9  H27 UNL     1     -36.042  15.251  -4.501  1.00 20.00     0.317 HD
ENDROOT
BRANCH   3  10
HETATM   10  C8  UNL     1     -34.631  16.616  -0.880  1.00 20.00     0.029 C 
HETATM   11  C7  UNL     1     -33.575  17.674  -0.831  1.00 20.00     0.007 C 
ENDBRANCH   3  10
TORSDOF 1
ENDMDL
MODEL 3
REMARK VINA RESULT:      -4.1      1.472      2.093
REMARK  1 active torsions:
REMARK  status: ('A' for Active; 'I' for Inactive)
REMARK    1  A    between atoms: C3_3  and  C8_8 
ROOT
HETATM    1  C1  UNL     1     -35.683  16.085  -2.867  1.00 20.00     0.302 C 
HETATM    2  C2  UNL     1     -33.369  14.651  -3.650  1.00 20.00     0.209 C 
HETATM    3  C3  UNL     1     -34.401  16.017  -2.036  1.00 20.00     0.149 C 
HETATM    4  C4  UNL     1     -34.621  14.655  -4.546  1.00 20.00     0.171 C 
HETATM    5  C5  UNL     1     -34.787  13.271  -5.193  1.00 20.00     0.051 C 
HETATM    6  C6  UNL     1     -34.491  15.709  -5.662  1.00 20.00     0.051 C 
HETATM    7  N9  UNL     1     -35.815  14.903  -3.721  1.00 20.00     0.097 N 
HETATM    8  O10 UNL     1     -33.271  15.864  -2.900  1.00 20.00    -0.382 OA
HETATM    9  H27 UNL     1     -35.975  14.092  -3.120  1.00 20.00     0.317 HD
ENDROOT
BRANCH   3  10
HETATM   10  C8  UNL     1     -34.202  17.293  -1.231  1.00 20.00     0.029 C 
HETATM   11  C7  UNL     1     -34.863  17.214   0.109  1.00 20.00     0.007 C 
ENDBRANCH   3  10
TORSDOF 1
ENDMDL
MODEL 4
REMARK VINA RESULT:      -3.8      1.370      4.144
REMARK  1 active torsions:
REMARK  status: ('A' for Active; 'I' for Inactive)
REMARK    1  A    between atoms: C3_3  and  C8_8 
ROOT
HETATM    1  C1  UNL     1     -33.541  16.613  -4.989  1.00 20.00     0.302 C 
HETATM    2  C2  UNL     1     -35.453  15.177  -3.470  1.00 20.00     0.209 C 
HETATM    3  C3  UNL     1     -34.183  15.301  -5.447  1.00 20.00     0.149 C 
HETATM    4  C4  UNL     1     -34.851  16.485  -2.925  1.00 20.00     0.171 C 
HETATM    5  C5  UNL     1     -34.651  16.359  -1.407  1.00 20.00     0.051 C 
HETATM    6  C6  UNL     1     -35.789  17.675  -3.202  1.00 20.00     0.051 C 
HETATM    7  N9  UNL     1     -33.525  16.704  -3.529  1.00 20.00     0.097 N 
HETATM    8  O10 UNL     1     -35.499  15.189  -4.899  1.00 20.00    -0.382 OA
HETATM    9  H27 UNL     1     -32.879  15.998  -3.172  1.00 20.00     0.317 HD
ENDROOT
BRANCH   3  10
HETATM   10  C8  UNL     1     -34.304  15.251  -6.963  1.00 20.00     0.029 C 
HETATM   11  C7  UNL     1     -35.479  14.437  -7.401  1.00 20.00     0.007 C 
ENDBRANCH   3  10
TORSDOF 1
ENDMDL
MODEL 5
REMARK VINA RESULT:      -3.8      1.802      4.197
REMARK  1 active torsions:
REMARK  status: ('A' for Active; 'I' for Inactive)
REMARK    1  A    between atoms: C3_3  and  C8_8 
ROOT
HETATM    1  C1  UNL     1     -35.927  15.048  -3.437  1.00 20.00     0.302 C 
HETATM    2  C2  UNL     1     -34.773  17.635  -3.381  1.00 20.00     0.209 C 
HETATM    3  C3  UNL     1     -35.151  15.661  -4.604  1.00 20.00     0.149 C 
HETATM    4  C4  UNL     1     -35.548  17.103  -2.161  1.00 20.00     0.171 C 
HETATM    5  C5  UNL     1     -36.335  18.255  -1.518  1.00 20.00     0.051 C 
HETATM    6  C6  UNL     1     -34.582  16.520  -1.112  1.00 20.00     0.051 C 
HETATM    7  N9  UNL     1     -36.524  16.093  -2.602  1.00 20.00     0.097 N 
HETATM    8  O10 UNL     1     -34.161  16.566  -4.106  1.00 20.00    -0.382 OA
HETATM    9  H27 UNL     1     -37.256  16.555  -3.145  1.00 20.00     0.317 HD
ENDROOT
BRANCH   3  10
HETATM   10  C8  UNL     1     -34.436  14.585  -5.410  1.00 20.00     0.029 C 
HETATM   11  C7  UNL     1     -34.562  13.237  -4.774  1.00 20.00     0.007 C 
ENDBRANCH   3  10
TORSDOF 1
ENDMDL
MODEL 6
REMARK VINA RESULT:      -3.8      1.780      4.189
REMARK  1 active torsions:
REMARK  status: ('A' for Active; 'I' for Inactive)
REMARK    1  A    between atoms: C3_3  and  C8_8 
ROOT
HETATM    1  C1  UNL     1     -35.911  15.864  -5.363  1.00 20.00     0.302 C 
HETATM    2  C2  UNL     1     -33.413  16.395  -4.136  1.00 20.00     0.209 C 
HETATM    3  C3  UNL     1     -34.758  16.594  -6.056  1.00 20.00     0.149 C 
HETATM    4  C4  UNL     1     -34.522  15.663  -3.358  1.00 20.00     0.171 C 
HETATM    5  C5  UNL     1     -34.496  16.116  -1.890  1.00 20.00     0.051 C 
HETATM    6  C6  UNL     1     -34.308  14.138  -3.407  1.00 20.00     0.051 C 
HETATM    7  N9  UNL     1     -35.835  16.032  -3.911  1.00 20.00     0.097 N 
HETATM    8  O10 UNL     1     -33.509  16.129  -5.537  1.00 20.00    -0.382 OA
HETATM    9  H27 UNL     1     -36.023  17.011  -3.693  1.00 20.00     0.317 HD
ENDROOT
BRANCH   3  10
HETATM   10  C8  UNL     1     -34.767  16.331  -7.556  1.00 20.00     0.029 C 
HETATM   11  C7  UNL     1     -34.973  14.882  -7.865  1.00 20.00     0.007 C 
ENDBRANCH   3  10
TORSDOF 1
ENDMDL
MODEL 7
REMARK VINA RESULT:      -3.8      1.896      4.160
REMARK  1 active torsions:
REMARK  status: ('A' for Active; 'I' for Inactive)
REMARK    1  A    between atoms: C3_3  and  C8_8 
ROOT
HETATM    1  C1  UNL     1     -34.239  15.985  -6.200  1.00 20.00     0.302 C 
HETATM    2  C2  UNL     1     -34.424  13.417  -5.017  1.00 20.00     0.209 C 
HETATM    3  C3  UNL     1     -34.803  14.756  -6.915  1.00 20.00     0.149 C 
HETATM    4  C4  UNL     1     -33.831  14.597  -4.225  1.00 20.00     0.171 C 
HETATM    5  C5  UNL     1     -32.668  14.093  -3.357  1.00 20.00     0.051 C 
HETATM    6  C6  UNL     1     -34.895  15.227  -3.306  1.00 20.00     0.051 C 
HETATM    7  N9  UNL     1     -33.284  15.592  -5.162  1.00 20.00     0.097 N 
HETATM    8  O10 UNL     1     -35.397  13.870  -5.961  1.00 20.00    -0.382 OA
HETATM    9  H27 UNL     1     -32.460  15.197  -5.620  1.00 20.00     0.317 HD
ENDROOT
BRANCH   3  10
HETATM   10  C8  UNL     1     -35.878  15.151  -7.917  1.00 20.00     0.029 C 
HETATM   11  C7  UNL     1     -37.232  15.211  -7.285  1.00 20.00     0.007 C 
ENDBRANCH   3  10
TORSDOF 1
ENDMDL
MODEL 8
REMARK VINA RESULT:      -3.8      1.654      2.053
REMARK  1 active torsions:
REMARK  status: ('A' for Active; 'I' for Inactive)
REMARK    1  A    between atoms: C3_3  and  C8_8 
ROOT
HETATM    1  C1  UNL     1     -33.334  16.598  -5.174  1.00 20.00     0.302 C 
HETATM    2  C2  UNL     1     -35.068  15.238  -3.393  1.00 20.00     0.209 C 
HETATM    3  C3  UNL     1     -34.316  17.303  -4.237  1.00 20.00     0.149 C 
HETATM    4  C4  UNL     1     -34.118  14.446  -4.310  1.00 20.00     0.171 C 
HETATM    5  C5  UNL     1     -34.824  13.168  -4.790  1.00 20.00     0.051 C 
HETATM    6  C6  UNL     1     -32.836  14.047  -3.555  1.00 20.00     0.051 C 
HETATM    7  N9  UNL     1     -33.802  15.250  -5.502  1.00 20.00     0.097 N 
HETATM    8  O10 UNL     1     -34.514  16.513  -3.060  1.00 20.00    -0.382 OA
HETATM    9  H27 UNL     1     -34.643  15.335  -6.076  1.00 20.00     0.317 HD
ENDROOT
BRANCH   3  10
HETATM   10  C8  UNL     1     -33.781  18.660  -3.803  1.00 20.00     0.029 C 
HETATM   11  C7  UNL     1     -33.593  18.736  -2.321  1.00 20.00     0.007 C 
ENDBRANCH   3  10
TORSDOF 1
ENDMDL
MODEL 9
REMARK VINA RESULT:      -3.7      1.474      1.761
REMARK  1 active torsions:
REMARK  status: ('A' for Active; 'I' for Inactive)
REMARK    1  A    between atoms: C3_3  and  C8_8 
ROOT
HETATM    1  C1  UNL     1     -34.900  17.146  -3.986  1.00 20.00     0.302 C 
HETATM    2  C2  UNL     1     -36.041  14.560  -4.182  1.00 20.00     0.209 C 
HETATM    3  C3  UNL     1     -35.157  16.235  -2.784  1.00 20.00     0.149 C 
HETATM    4  C4  UNL     1     -35.828  15.414  -5.445  1.00 20.00     0.171 C 
HETATM    5  C5  UNL     1     -37.000  15.190  -6.413  1.00 20.00     0.051 C 
HETATM    6  C6  UNL     1     -34.520  15.020  -6.157  1.00 20.00     0.051 C 
HETATM    7  N9  UNL     1     -35.824  16.840  -5.079  1.00 20.00     0.097 N 
HETATM    8  O10 UNL     1     -35.062  14.865  -3.186  1.00 20.00    -0.382 OA
HETATM    9  H27 UNL     1     -36.765  17.109  -4.787  1.00 20.00     0.317 HD
ENDROOT
BRANCH   3  10
HETATM   10  C8  UNL     1     -34.129  16.471  -1.687  1.00 20.00     0.029 C 
HETATM   11  C7  UNL     1     -34.769  16.924  -0.413  1.00 20.00     0.007 C 
ENDBRANCH   3  10
TORSDOF 1
ENDMDL
