MODEL 1
REMARK VINA RESULT:      -4.1      0.000      0.000
REMARK  2 active torsions:
REMARK  status: ('A' for Active; 'I' for Inactive)
REMARK    1  A    between atoms: C6_6  and  C7_7 
REMARK    2  A    between atoms: C7_7  and  N9_9 
ROOT
HETATM    1  C1  UNL     1     -35.206  13.828  -4.128  1.00 20.00     0.101 C 
HETATM    2  C4  UNL     1     -35.760  16.039  -5.039  1.00 20.00     0.066 C 
HETATM    3  C7  UNL     1     -35.483  15.233  -3.761  1.00 20.00     0.243 C 
HETATM    4  N8  UNL     1     -34.991  12.725  -4.417  1.00 20.00    -0.195 NA
ENDROOT
BRANCH   3   5
HETATM    5  C6  UNL     1     -34.314  15.853  -2.929  1.00 20.00     0.030 C 
HETATM    6  C2  UNL     1     -34.726  16.285  -1.514  1.00 20.00     0.013 C 
HETATM    7  C3  UNL     1     -33.636  17.040  -3.634  1.00 20.00     0.013 C 
ENDBRANCH   3   5
BRANCH   3   8
HETATM    8  N9  UNL     1     -36.700  15.279  -2.963  1.00 20.00     0.102 N 
HETATM    9  C5  UNL     1     -37.866  14.950  -3.772  1.00 20.00     0.309 C 
HETATM   10  H23 UNL     1     -36.626  14.612  -2.196  1.00 20.00     0.317 HD
ENDBRANCH   3   8
TORSDOF 2
ENDMDL
MODEL 2
REMARK VINA RESULT:      -4.0      1.655      2.798
REMARK  2 active torsions:
REMARK  status: ('A' for Active; 'I' for Inactive)
REMARK    1  A    between atoms: C6_6  and  C7_7 
REMARK    2  A    between atoms: C7_7  and  N9_9 
ROOT
HETATM    1  C1  UNL     1     -34.471  13.663  -4.456  1.00 20.00     0.101 C 
HETATM    2  C4  UNL     1     -32.552  14.889  -3.539  1.00 20.00     0.066 C 
HETATM    3  C7  UNL     1     -33.924  15.016  -4.219  1.00 20.00     0.243 C 
HETATM    4  N8  UNL     1     -34.898  12.600  -4.643  1.00 20.00    -0.195 NA
ENDROOT
BRANCH   3   5
HETATM    5  C6  UNL     1     -34.906  15.895  -3.379  1.00 20.00     0.030 C 
HETATM    6  C2  UNL     1     -34.481  16.064  -1.913  1.00 20.00     0.013 C 
HETATM    7  C3  UNL     1     -36.357  15.387  -3.421  1.00 20.00     0.013 C 
ENDBRANCH   3   5
BRANCH   3   8
HETATM    8  N9  UNL     1     -33.698  15.663  -5.503  1.00 20.00     0.102 N 
HETATM    9  C5  UNL     1     -33.447  17.089  -5.331  1.00 20.00     0.309 C 
HETATM   10  H23 UNL     1     -32.894  15.235  -5.960  1.00 20.00     0.317 HD
ENDBRANCH   3   8
TORSDOF 2
ENDMDL
MODEL 3
REMARK VINA RESULT:      -4.0      1.626      2.577
REMARK  2 active torsions:
REMARK  status: ('A' for Active; 'I' for Inactive)
REMARK    1  A    between atoms: C6_6  and  C7_7 
REMARK    2  A    between atoms: C7_7  and  N9_9 
ROOT
HETATM    1  C1  UNL     1     -34.685  13.752  -4.289  1.00 20.00     0.101 C 
HETATM    2  C4  UNL     1     -32.857  15.214  -3.550  1.00 20.00     0.066 C 
HETATM    3  C7  UNL     1     -34.354  15.135  -3.886  1.00 20.00     0.243 C 
HETATM    4  N8  UNL     1     -34.943  12.666  -4.608  1.00 20.00    -0.195 NA
ENDROOT
BRANCH   3   5
HETATM    5  C6  UNL     1     -35.240  15.615  -2.691  1.00 20.00     0.030 C 
HETATM    6  C2  UNL     1     -36.432  16.484  -3.119  1.00 20.00     0.013 C 
HETATM    7  C3  UNL     1     -34.441  16.365  -1.611  1.00 20.00     0.013 C 
ENDBRANCH   3   5
BRANCH   3   8
HETATM    8  N9  UNL     1     -34.577  16.022  -5.019  1.00 20.00     0.102 N 
HETATM    9  C5  UNL     1     -33.393  16.826  -5.293  1.00 20.00     0.309 C 
HETATM   10  H23 UNL     1     -34.802  15.465  -5.843  1.00 20.00     0.317 HD
ENDBRANCH   3   8
TORSDOF 2
ENDMDL
MODEL 4
REMARK VINA RESULT:      -4.0      1.665      2.516
REMARK  2 active torsions:
REMARK  status: ('A' for Active; 'I' for Inactive)
REMARK    1  A    between atoms: C6_6  and  C7_7 
REMARK    2  A    between atoms: C7_7  and  N9_9 
ROOT
HETATM    1  C1  UNL     1     -36.625  14.395  -4.022  1.00 20.00     0.101 C 
HETATM    2  C4  UNL     1     -34.764  13.114  -4.983  1.00 20.00     0.066 C 
HETATM    3  C7  UNL     1     -35.193  14.463  -4.384  1.00 20.00     0.243 C 
HETATM    4  N8  UNL     1     -37.749  14.341  -3.740  1.00 20.00    -0.195 NA
ENDROOT
BRANCH   3   5
HETATM    5  C6  UNL     1     -34.307  14.859  -3.159  1.00 20.00     0.030 C 
HETATM    6  C2  UNL     1     -34.880  16.019  -2.333  1.00 20.00     0.013 C 
HETATM    7  C3  UNL     1     -32.856  15.195  -3.548  1.00 20.00     0.013 C 
ENDBRANCH   3   5
BRANCH   3   8
HETATM    8  N9  UNL     1     -35.019  15.461  -5.429  1.00 20.00     0.102 N 
HETATM    9  C5  UNL     1     -34.712  14.831  -6.707  1.00 20.00     0.309 C 
HETATM   10  H23 UNL     1     -35.876  16.005  -5.522  1.00 20.00     0.317 HD
ENDBRANCH   3   8
TORSDOF 2
ENDMDL
MODEL 5
REMARK VINA RESULT:      -3.9      2.132      3.682
REMARK  2 active torsions:
REMARK  status: ('A' for Active; 'I' for Inactive)
REMARK    1  A    between atoms: C6_6  and  C7_7 
REMARK    2  A    between atoms: C7_7  and  N9_9 
ROOT
HETATM    1  C1  UNL     1     -34.666  13.774  -5.021  1.00 20.00     0.101 C 
HETATM    2  C4  UNL     1     -35.593  16.039  -4.829  1.00 20.00     0.066 C 
HETATM    3  C7  UNL     1     -34.475  15.179  -5.439  1.00 20.00     0.243 C 
HETATM    4  N8  UNL     1     -34.816  12.672  -4.691  1.00 20.00    -0.195 NA
ENDROOT
BRANCH   3   5
HETATM    5  C6  UNL     1     -34.424  15.317  -6.995  1.00 20.00     0.030 C 
HETATM    6  C2  UNL     1     -34.552  16.765  -7.490  1.00 20.00     0.013 C 
HETATM    7  C3  UNL     1     -35.476  14.452  -7.711  1.00 20.00     0.013 C 
ENDBRANCH   3   5
BRANCH   3   8
HETATM    8  N9  UNL     1     -33.220  15.668  -4.885  1.00 20.00     0.102 N 
HETATM    9  C5  UNL     1     -33.358  15.965  -3.465  1.00 20.00     0.309 C 
HETATM   10  H23 UNL     1     -32.498  14.959  -5.011  1.00 20.00     0.317 HD
ENDBRANCH   3   8
TORSDOF 2
ENDMDL
MODEL 6
REMARK VINA RESULT:      -3.9      1.737      2.617
REMARK  2 active torsions:
REMARK  status: ('A' for Active; 'I' for Inactive)
REMARK    1  A    between atoms: C6_6  and  C7_7 
REMARK    2  A    between atoms: C7_7  and  N9_9 
ROOT
HETATM    1  C1  UNL     1     -37.018  14.769  -3.677  1.00 20.00     0.101 C 
HETATM    2  C4  UNL     1     -35.451  16.423  -4.592  1.00 20.00     0.066 C 
HETATM    3  C7  UNL     1     -35.660  15.333  -3.528  1.00 20.00     0.243 C 
HETATM    4  N8  UNL     1     -38.085  14.328  -3.794  1.00 20.00    -0.195 NA
ENDROOT
BRANCH   3   5
HETATM    5  C6  UNL     1     -34.562  14.224  -3.613  1.00 20.00     0.030 C 
HETATM    6  C2  UNL     1     -33.130  14.777  -3.646  1.00 20.00     0.013 C 
HETATM    7  C3  UNL     1     -34.756  13.274  -4.807  1.00 20.00     0.013 C 
ENDBRANCH   3   5
BRANCH   3   8
HETATM    8  N9  UNL     1     -35.563  15.988  -2.232  1.00 20.00     0.102 N 
HETATM    9  C5  UNL     1     -35.777  17.425  -2.356  1.00 20.00     0.309 C 
HETATM   10  H23 UNL     1     -36.265  15.598  -1.603  1.00 20.00     0.317 HD
ENDBRANCH   3   8
TORSDOF 2
ENDMDL
MODEL 7
REMARK VINA RESULT:      -3.8      1.807      2.072
REMARK  2 active torsions:
REMARK  status: ('A' for Active; 'I' for Inactive)
REMARK    1  A    between atoms: C6_6  and  C7_7 
REMARK    2  A    between atoms: C7_7  and  N9_9 
ROOT
HETATM    1  C1  UNL     1     -34.743  13.795  -4.978  1.00 20.00     0.101 C 
HETATM    2  C4  UNL     1     -34.367  15.066  -7.045  1.00 20.00     0.066 C 
HETATM    3  C7  UNL     1     -34.614  15.160  -5.531  1.00 20.00     0.243 C 
HETATM    4  N8  UNL     1     -34.846  12.722  -4.546  1.00 20.00    -0.195 NA
ENDROOT
BRANCH   3   5
HETATM    5  C6  UNL     1     -33.489  15.970  -4.811  1.00 20.00     0.030 C 
HETATM    6  C2  UNL     1     -33.538  15.865  -3.280  1.00 20.00     0.013 C 
HETATM    7  C3  UNL     1     -33.468  17.457  -5.207  1.00 20.00     0.013 C 
ENDBRANCH   3   5
BRANCH   3   8
HETATM    8  N9  UNL     1     -35.879  15.859  -5.355  1.00 20.00     0.102 N 
HETATM    9  C5  UNL     1     -36.810  15.532  -6.428  1.00 20.00     0.309 C 
HETATM   10  H23 UNL     1     -36.291  15.591  -4.462  1.00 20.00     0.317 HD
ENDBRANCH   3   8
TORSDOF 2
ENDMDL
MODEL 8
REMARK VINA RESULT:      -3.7      1.435      2.557
REMARK  2 active torsions:
REMARK  status: ('A' for Active; 'I' for Inactive)
REMARK    1  A    between atoms: C6_6  and  C7_7 
REMARK    2  A    between atoms: C7_7  and  N9_9 
ROOT
HETATM    1  C1  UNL     1     -36.642  14.680  -3.836  1.00 20.00     0.101 C 
HETATM    2  C4  UNL     1     -34.311  13.957  -3.571  1.00 20.00     0.066 C 
HETATM    3  C7  UNL     1     -35.236  15.111  -3.988  1.00 20.00     0.243 C 
HETATM    4  N8  UNL     1     -37.745  14.340  -3.717  1.00 20.00    -0.195 NA
ENDROOT
BRANCH   3   5
HETATM    5  C6  UNL     1     -34.940  16.412  -3.175  1.00 20.00     0.030 C 
HETATM    6  C2  UNL     1     -33.768  17.233  -3.732  1.00 20.00     0.013 C 
HETATM    7  C3  UNL     1     -34.694  16.145  -1.680  1.00 20.00     0.013 C 
ENDBRANCH   3   5
BRANCH   3   8
HETATM    8  N9  UNL     1     -34.974  15.370  -5.397  1.00 20.00     0.102 N 
HETATM    9  C5  UNL     1     -35.044  14.140  -6.176  1.00 20.00     0.309 C 
HETATM   10  H23 UNL     1     -35.665  16.030  -5.752  1.00 20.00     0.317 HD
ENDBRANCH   3   8
TORSDOF 2
ENDMDL
MODEL 9
REMARK VINA RESULT:      -3.7      1.520      3.242
REMARK  2 active torsions:
REMARK  status: ('A' for Active; 'I' for Inactive)
REMARK    1  A    between atoms: C6_6  and  C7_7 
REMARK    2  A    between atoms: C7_7  and  N9_9 
ROOT
HETATM    1  C1  UNL     1     -36.633  14.509  -4.011  1.00 20.00     0.101 C 
HETATM    2  C4  UNL     1     -34.586  15.457  -3.043  1.00 20.00     0.066 C 
HETATM    3  C7  UNL     1     -35.200  14.762  -4.269  1.00 20.00     0.243 C 
HETATM    4  N8  UNL     1     -37.758  14.309  -3.807  1.00 20.00    -0.195 NA
ENDROOT
BRANCH   3   5
HETATM    5  C6  UNL     1     -34.987  15.596  -5.573  1.00 20.00     0.030 C 
HETATM    6  C2  UNL     1     -34.791  14.736  -6.830  1.00 20.00     0.013 C 
HETATM    7  C3  UNL     1     -33.820  16.594  -5.467  1.00 20.00     0.013 C 
ENDBRANCH   3   5
BRANCH   3   8
HETATM    8  N9  UNL     1     -34.516  13.486  -4.414  1.00 20.00     0.102 N 
HETATM    9  C5  UNL     1     -33.254  13.484  -3.683  1.00 20.00     0.309 C 
HETATM   10  H23 UNL     1     -35.112  12.741  -4.054  1.00 20.00     0.317 HD
ENDBRANCH   3   8
TORSDOF 2
ENDMDL
