MODEL 1
REMARK VINA RESULT:      -3.7      0.000      0.000
REMARK  1 active torsions:
REMARK  status: ('A' for Active; 'I' for Inactive)
REMARK    1  A    between atoms: C1_1  and  S9_9 
ROOT
HETATM    1  C1  UNL     1     -33.997  16.637  -4.383  1.00 20.00     0.047 A 
HETATM    2  C2  UNL     1     -34.109  16.062  -3.103  1.00 20.00     0.069 A 
HETATM    3  C3  UNL     1     -34.204  15.590  -5.249  1.00 20.00     0.044 A 
HETATM    4  C4  UNL     1     -33.976  16.722  -1.791  1.00 20.00     0.074 C 
HETATM    5  C5  UNL     1     -34.218  15.525  -6.724  1.00 20.00     0.071 C 
HETATM    6  C6  UNL     1     -34.683  13.147  -4.910  1.00 20.00     0.179 C 
HETATM    7  N7  UNL     1     -34.365  14.752  -3.147  1.00 20.00    -0.176 NA
HETATM    8  N8  UNL     1     -34.418  14.495  -4.465  1.00 20.00    -0.277 N 
ENDROOT
BRANCH   1   9
HETATM    9  S9  UNL     1     -33.671  18.299  -4.768  1.00 20.00    -0.139 SA
HETATM   10  H19 UNL     1     -32.329  18.235  -4.885  1.00 20.00     0.107 HD
ENDBRANCH   1   9
TORSDOF 1
ENDMDL
MODEL 2
REMARK VINA RESULT:      -3.5      2.321      3.992
REMARK  1 active torsions:
REMARK  status: ('A' for Active; 'I' for Inactive)
REMARK    1  A    between atoms: C1_1  and  S9_9 
ROOT
HETATM    1  C1  UNL     1     -34.234  15.198  -4.628  1.00 20.00     0.047 A 
HETATM    2  C2  UNL     1     -34.217  15.712  -5.938  1.00 20.00     0.069 A 
HETATM    3  C3  UNL     1     -33.968  16.285  -3.830  1.00 20.00     0.044 A 
HETATM    4  C4  UNL     1     -34.440  14.991  -7.205  1.00 20.00     0.074 C 
HETATM    5  C5  UNL     1     -33.846  16.419  -2.365  1.00 20.00     0.071 C 
HETATM    6  C6  UNL     1     -33.520  18.709  -4.318  1.00 20.00     0.179 C 
HETATM    7  N7  UNL     1     -33.960  17.022  -5.975  1.00 20.00    -0.176 NA
HETATM    8  N8  UNL     1     -33.814  17.341  -4.678  1.00 20.00    -0.277 N 
ENDROOT
BRANCH   1   9
HETATM    9  S9  UNL     1     -34.527  13.557  -4.142  1.00 20.00    -0.139 SA
HETATM   10  H19 UNL     1     -33.809  13.538  -3.000  1.00 20.00     0.107 HD
ENDBRANCH   1   9
TORSDOF 1
ENDMDL
MODEL 3
REMARK VINA RESULT:      -3.4      2.305      2.848
REMARK  1 active torsions:
REMARK  status: ('A' for Active; 'I' for Inactive)
REMARK    1  A    between atoms: C1_1  and  S9_9 
ROOT
HETATM    1  C1  UNL     1     -34.401  15.376  -4.212  1.00 20.00     0.047 A 
HETATM    2  C2  UNL     1     -34.286  16.353  -3.206  1.00 20.00     0.069 A 
HETATM    3  C3  UNL     1     -34.161  16.055  -5.381  1.00 20.00     0.044 A 
HETATM    4  C4  UNL     1     -34.446  16.188  -1.749  1.00 20.00     0.074 C 
HETATM    5  C5  UNL     1     -34.133  15.608  -6.788  1.00 20.00     0.071 C 
HETATM    6  C6  UNL     1     -33.625  18.456  -5.895  1.00 20.00     0.179 C 
HETATM    7  N7  UNL     1     -33.997  17.563  -3.693  1.00 20.00    -0.176 NA
HETATM    8  N8  UNL     1     -33.927  17.349  -5.018  1.00 20.00    -0.277 N 
ENDROOT
BRANCH   1   9
HETATM    9  S9  UNL     1     -34.764  13.689  -4.007  1.00 20.00    -0.139 SA
HETATM   10  H19 UNL     1     -35.866  13.797  -3.236  1.00 20.00     0.107 HD
ENDBRANCH   1   9
TORSDOF 1
ENDMDL
MODEL 4
REMARK VINA RESULT:      -3.4      1.521      3.022
REMARK  1 active torsions:
REMARK  status: ('A' for Active; 'I' for Inactive)
REMARK    1  A    between atoms: C1_1  and  S9_9 
ROOT
HETATM    1  C1  UNL     1     -34.263  15.622  -5.156  1.00 20.00     0.047 A 
HETATM    2  C2  UNL     1     -34.536  14.621  -4.205  1.00 20.00     0.069 A 
HETATM    3  C3  UNL     1     -33.930  16.725  -4.408  1.00 20.00     0.044 A 
HETATM    4  C4  UNL     1     -34.945  13.224  -4.441  1.00 20.00     0.074 C 
HETATM    5  C5  UNL     1     -33.541  18.095  -4.799  1.00 20.00     0.071 C 
HETATM    6  C6  UNL     1     -33.765  17.140  -1.935  1.00 20.00     0.179 C 
HETATM    7  N7  UNL     1     -34.390  15.050  -2.949  1.00 20.00    -0.176 NA
HETATM    8  N8  UNL     1     -34.020  16.333  -3.105  1.00 20.00    -0.277 N 
ENDROOT
BRANCH   1   9
HETATM    9  S9  UNL     1     -34.335  15.481  -6.886  1.00 20.00    -0.139 SA
HETATM   10  H19 UNL     1     -35.550  16.027  -7.097  1.00 20.00     0.107 HD
ENDBRANCH   1   9
TORSDOF 1
ENDMDL
MODEL 5
REMARK VINA RESULT:      -3.3      2.448      3.199
REMARK  1 active torsions:
REMARK  status: ('A' for Active; 'I' for Inactive)
REMARK    1  A    between atoms: C1_1  and  S9_9 
ROOT
HETATM    1  C1  UNL     1     -36.248  16.025  -3.156  1.00 20.00     0.047 A 
HETATM    2  C2  UNL     1     -36.871  14.933  -3.789  1.00 20.00     0.069 A 
HETATM    3  C3  UNL     1     -34.924  15.666  -3.076  1.00 20.00     0.044 A 
HETATM    4  C4  UNL     1     -38.295  14.769  -4.133  1.00 20.00     0.074 C 
HETATM    5  C5  UNL     1     -33.749  16.368  -2.523  1.00 20.00     0.071 C 
HETATM    6  C6  UNL     1     -33.649  13.625  -3.798  1.00 20.00     0.179 C 
HETATM    7  N7  UNL     1     -36.014  13.953  -4.088  1.00 20.00    -0.176 NA
HETATM    8  N8  UNL     1     -34.839  14.429  -3.643  1.00 20.00    -0.277 N 
ENDROOT
BRANCH   1   9
HETATM    9  S9  UNL     1     -36.996  17.493  -2.605  1.00 20.00    -0.139 SA
HETATM   10  H19 UNL     1     -36.091  17.862  -1.676  1.00 20.00     0.107 HD
ENDBRANCH   1   9
TORSDOF 1
ENDMDL
MODEL 6
REMARK VINA RESULT:      -3.3      2.010      2.054
REMARK  1 active torsions:
REMARK  status: ('A' for Active; 'I' for Inactive)
REMARK    1  A    between atoms: C1_1  and  S9_9 
ROOT
HETATM    1  C1  UNL     1     -36.121  16.260  -3.333  1.00 20.00     0.047 A 
HETATM    2  C2  UNL     1     -35.050  15.842  -2.521  1.00 20.00     0.069 A 
HETATM    3  C3  UNL     1     -36.147  15.350  -4.362  1.00 20.00     0.044 A 
HETATM    4  C4  UNL     1     -34.560  16.453  -1.272  1.00 20.00     0.074 C 
HETATM    5  C5  UNL     1     -37.027  15.227  -5.542  1.00 20.00     0.071 C 
HETATM    6  C6  UNL     1     -34.747  13.337  -4.914  1.00 20.00     0.179 C 
HETATM    7  N7  UNL     1     -34.439  14.753  -2.994  1.00 20.00    -0.176 NA
HETATM    8  N8  UNL     1     -35.129  14.477  -4.114  1.00 20.00    -0.277 N 
ENDROOT
BRANCH   1   9
HETATM    9  S9  UNL     1     -37.169  17.622  -3.080  1.00 20.00    -0.139 SA
HETATM   10  H19 UNL     1     -36.417  18.583  -3.652  1.00 20.00     0.107 HD
ENDBRANCH   1   9
TORSDOF 1
ENDMDL
MODEL 7
REMARK VINA RESULT:      -3.3      1.139      2.949
REMARK  1 active torsions:
REMARK  status: ('A' for Active; 'I' for Inactive)
REMARK    1  A    between atoms: C1_1  and  S9_9 
ROOT
HETATM    1  C1  UNL     1     -34.006  16.762  -5.434  1.00 20.00     0.047 A 
HETATM    2  C2  UNL     1     -34.469  16.194  -6.636  1.00 20.00     0.069 A 
HETATM    3  C3  UNL     1     -33.925  15.703  -4.563  1.00 20.00     0.044 A 
HETATM    4  C4  UNL     1     -34.743  16.868  -7.918  1.00 20.00     0.074 C 
HETATM    5  C5  UNL     1     -33.508  15.626  -3.148  1.00 20.00     0.071 C 
HETATM    6  C6  UNL     1     -34.419  13.249  -4.786  1.00 20.00     0.179 C 
HETATM    7  N7  UNL     1     -34.670  14.877  -6.539  1.00 20.00    -0.176 NA
HETATM    8  N8  UNL     1     -34.329  14.608  -5.268  1.00 20.00    -0.277 N 
ENDROOT
BRANCH   1   9
HETATM    9  S9  UNL     1     -33.624  18.429  -5.133  1.00 20.00    -0.139 SA
HETATM   10  H19 UNL     1     -33.394  18.363  -3.806  1.00 20.00     0.107 HD
ENDBRANCH   1   9
TORSDOF 1
ENDMDL
MODEL 8
REMARK VINA RESULT:      -3.2      2.699      3.362
REMARK  1 active torsions:
REMARK  status: ('A' for Active; 'I' for Inactive)
REMARK    1  A    between atoms: C1_1  and  S9_9 
ROOT
HETATM    1  C1  UNL     1     -35.316  15.740  -3.257  1.00 20.00     0.047 A 
HETATM    2  C2  UNL     1     -35.277  14.402  -3.693  1.00 20.00     0.069 A 
HETATM    3  C3  UNL     1     -36.649  16.070  -3.280  1.00 20.00     0.044 A 
HETATM    4  C4  UNL     1     -34.100  13.531  -3.865  1.00 20.00     0.074 C 
HETATM    5  C5  UNL     1     -37.356  17.321  -2.939  1.00 20.00     0.071 C 
HETATM    6  C6  UNL     1     -38.725  14.800  -3.905  1.00 20.00     0.179 C 
HETATM    7  N7  UNL     1     -36.489  13.916  -3.975  1.00 20.00    -0.176 NA
HETATM    8  N8  UNL     1     -37.302  14.954  -3.713  1.00 20.00    -0.277 N 
ENDROOT
BRANCH   1   9
HETATM    9  S9  UNL     1     -33.971  16.738  -2.795  1.00 20.00    -0.139 SA
HETATM   10  H19 UNL     1     -33.985  16.517  -1.465  1.00 20.00     0.107 HD
ENDBRANCH   1   9
TORSDOF 1
ENDMDL
MODEL 9
REMARK VINA RESULT:      -3.2      3.097      3.505
REMARK  1 active torsions:
REMARK  status: ('A' for Active; 'I' for Inactive)
REMARK    1  A    between atoms: C1_1  and  S9_9 
ROOT
HETATM    1  C1  UNL     1     -35.843  14.845  -5.657  1.00 20.00     0.047 A 
HETATM    2  C2  UNL     1     -35.729  14.164  -4.430  1.00 20.00     0.069 A 
HETATM    3  C3  UNL     1     -37.161  15.226  -5.717  1.00 20.00     0.044 A 
HETATM    4  C4  UNL     1     -34.532  13.535  -3.843  1.00 20.00     0.074 C 
HETATM    5  C5  UNL     1     -37.922  15.970  -6.740  1.00 20.00     0.071 C 
HETATM    6  C6  UNL     1     -39.113  14.918  -4.164  1.00 20.00     0.179 C 
HETATM    7  N7  UNL     1     -36.883  14.113  -3.760  1.00 20.00    -0.176 NA
HETATM    8  N8  UNL     1     -37.735  14.768  -4.567  1.00 20.00    -0.277 N 
ENDROOT
BRANCH   1   9
HETATM    9  S9  UNL     1     -34.589  15.133  -6.824  1.00 20.00    -0.139 SA
HETATM   10  H19 UNL     1     -33.880  13.998  -6.664  1.00 20.00     0.107 HD
ENDBRANCH   1   9
TORSDOF 1
ENDMDL
