MODEL 1
REMARK VINA RESULT:      -4.2      0.000      0.000
REMARK  2 active torsions:
REMARK  status: ('A' for Active; 'I' for Inactive)
REMARK    1  A    between atoms: C1_1  and  C5_5 
REMARK       I    between atoms: C1_1  and  N7_7 
REMARK    2  A    between atoms: C5_5  and  C6_6 
ROOT
HETATM    1  C1  UNL     1     -33.562   6.012   3.540  1.00 20.00     0.220 C 
HETATM    2  C2  UNL     1     -35.116   5.134   6.437  1.00 20.00     0.040 C 
HETATM    3  C3  UNL     1     -34.937   4.476   5.064  1.00 20.00     0.127 C 
HETATM    4  C4  UNL     1     -33.942   6.060   6.102  1.00 20.00     0.127 C 
HETATM    5  N7  UNL     1     -34.079   5.597   4.736  1.00 20.00    -0.352 N 
HETATM    6  O8  UNL     1     -33.765   5.447   2.466  1.00 20.00    -0.273 OA
ENDROOT
BRANCH   1   7
HETATM    7  C5  UNL     1     -32.708   7.248   3.628  1.00 20.00     0.118 C 
BRANCH   7   8
HETATM    8  C6  UNL     1     -32.095   7.572   2.281  1.00 20.00     0.124 C 
HETATM    9 CL9  UNL     1     -32.421   9.256   1.802  1.00 20.00    -0.130 Cl
ENDBRANCH   7   8
ENDBRANCH   1   7
TORSDOF 2
ENDMDL
MODEL 2
REMARK VINA RESULT:      -4.0      1.416      1.721
REMARK  2 active torsions:
REMARK  status: ('A' for Active; 'I' for Inactive)
REMARK    1  A    between atoms: C1_1  and  C5_5 
REMARK       I    between atoms: C1_1  and  N7_7 
REMARK    2  A    between atoms: C5_5  and  C6_6 
ROOT
HETATM    1  C1  UNL     1     -33.178   6.628   4.552  1.00 20.00     0.220 C 
HETATM    2  C2  UNL     1     -35.247   4.145   5.618  1.00 20.00     0.040 C 
HETATM    3  C3  UNL     1     -34.583   5.359   6.280  1.00 20.00     0.127 C 
HETATM    4  C4  UNL     1     -34.988   4.798   4.255  1.00 20.00     0.127 C 
HETATM    5  N7  UNL     1     -34.108   5.710   4.958  1.00 20.00    -0.352 N 
HETATM    6  O8  UNL     1     -32.550   7.359   5.316  1.00 20.00    -0.273 OA
ENDROOT
BRANCH   1   7
HETATM    7  C5  UNL     1     -32.967   6.680   3.062  1.00 20.00     0.118 C 
BRANCH   7   8
HETATM    8  C6  UNL     1     -31.789   7.570   2.721  1.00 20.00     0.124 C 
HETATM    9 CL9  UNL     1     -32.159   8.644   1.348  1.00 20.00    -0.130 Cl
ENDBRANCH   7   8
ENDBRANCH   1   7
TORSDOF 2
ENDMDL
MODEL 3
REMARK VINA RESULT:      -3.9     11.525     12.766
REMARK  2 active torsions:
REMARK  status: ('A' for Active; 'I' for Inactive)
REMARK    1  A    between atoms: C1_1  and  C5_5 
REMARK       I    between atoms: C1_1  and  N7_7 
REMARK    2  A    between atoms: C5_5  and  C6_6 
ROOT
HETATM    1  C1  UNL     1     -34.683  13.923  -4.438  1.00 20.00     0.220 C 
HETATM    2  C2  UNL     1     -34.504  15.426  -7.485  1.00 20.00     0.040 C 
HETATM    3  C3  UNL     1     -35.196  14.172  -6.937  1.00 20.00     0.127 C 
HETATM    4  C4  UNL     1     -34.365  15.930  -6.044  1.00 20.00     0.127 C 
HETATM    5  N7  UNL     1     -34.721  14.587  -5.633  1.00 20.00    -0.352 N 
HETATM    6  O8  UNL     1     -35.083  12.771  -4.275  1.00 20.00    -0.273 OA
ENDROOT
BRANCH   1   7
HETATM    7  C5  UNL     1     -34.098  14.720  -3.303  1.00 20.00     0.118 C 
BRANCH   7   8
HETATM    8  C6  UNL     1     -35.176  15.521  -2.601  1.00 20.00     0.124 C 
HETATM    9 CL9  UNL     1     -34.535  16.369  -1.172  1.00 20.00    -0.130 Cl
ENDBRANCH   7   8
ENDBRANCH   1   7
TORSDOF 2
ENDMDL
MODEL 4
REMARK VINA RESULT:      -3.8     12.162     13.149
REMARK  2 active torsions:
REMARK  status: ('A' for Active; 'I' for Inactive)
REMARK    1  A    between atoms: C1_1  and  C5_5 
REMARK       I    between atoms: C1_1  and  N7_7 
REMARK    2  A    between atoms: C5_5  and  C6_6 
ROOT
HETATM    1  C1  UNL     1     -33.651  15.817  -4.580  1.00 20.00     0.220 C 
HETATM    2  C2  UNL     1     -35.379  14.343  -7.114  1.00 20.00     0.040 C 
HETATM    3  C3  UNL     1     -34.259  15.387  -7.033  1.00 20.00     0.127 C 
HETATM    4  C4  UNL     1     -35.038  13.925  -5.679  1.00 20.00     0.127 C 
HETATM    5  N7  UNL     1     -34.250  15.139  -5.606  1.00 20.00    -0.352 N 
HETATM    6  O8  UNL     1     -32.968  16.829  -4.728  1.00 20.00    -0.273 OA
ENDROOT
BRANCH   1   7
HETATM    7  C5  UNL     1     -33.895  15.225  -3.218  1.00 20.00     0.118 C 
BRANCH   7   8
HETATM    8  C6  UNL     1     -35.040  15.935  -2.525  1.00 20.00     0.124 C 
HETATM    9 CL9  UNL     1     -34.579  16.479  -0.893  1.00 20.00    -0.130 Cl
ENDBRANCH   7   8
ENDBRANCH   1   7
TORSDOF 2
ENDMDL
MODEL 5
REMARK VINA RESULT:      -3.8     11.852     12.226
REMARK  2 active torsions:
REMARK  status: ('A' for Active; 'I' for Inactive)
REMARK    1  A    between atoms: C1_1  and  C5_5 
REMARK       I    between atoms: C1_1  and  N7_7 
REMARK    2  A    between atoms: C5_5  and  C6_6 
ROOT
HETATM    1  C1  UNL     1     -35.564  14.191  -4.057  1.00 20.00     0.220 C 
HETATM    2  C2  UNL     1     -33.735  16.544  -2.415  1.00 20.00     0.040 C 
HETATM    3  C3  UNL     1     -35.087  15.862  -2.173  1.00 20.00     0.127 C 
HETATM    4  C4  UNL     1     -33.379  15.406  -3.378  1.00 20.00     0.127 C 
HETATM    5  N7  UNL     1     -34.780  15.041  -3.326  1.00 20.00    -0.352 N 
HETATM    6  O8  UNL     1     -36.752  13.976  -3.825  1.00 20.00    -0.273 OA
ENDROOT
BRANCH   1   7
HETATM    7  C5  UNL     1     -34.852  13.521  -5.202  1.00 20.00     0.118 C 
BRANCH   7   8
HETATM    8  C6  UNL     1     -35.221  14.177  -6.517  1.00 20.00     0.124 C 
HETATM    9 CL9  UNL     1     -34.104  15.506  -6.920  1.00 20.00    -0.130 Cl
ENDBRANCH   7   8
ENDBRANCH   1   7
TORSDOF 2
ENDMDL
MODEL 6
REMARK VINA RESULT:      -3.8     11.802     12.408
REMARK  2 active torsions:
REMARK  status: ('A' for Active; 'I' for Inactive)
REMARK    1  A    between atoms: C1_1  and  C5_5 
REMARK       I    between atoms: C1_1  and  N7_7 
REMARK    2  A    between atoms: C5_5  and  C6_6 
ROOT
HETATM    1  C1  UNL     1     -33.282  15.760  -3.894  1.00 20.00     0.220 C 
HETATM    2  C2  UNL     1     -34.242  17.599  -1.197  1.00 20.00     0.040 C 
HETATM    3  C3  UNL     1     -33.829  17.926  -2.637  1.00 20.00     0.127 C 
HETATM    4  C4  UNL     1     -34.498  16.155  -1.641  1.00 20.00     0.127 C 
HETATM    5  N7  UNL     1     -33.787  16.495  -2.857  1.00 20.00    -0.352 N 
HETATM    6  O8  UNL     1     -32.738  16.247  -4.885  1.00 20.00    -0.273 OA
ENDROOT
BRANCH   1   7
HETATM    7  C5  UNL     1     -33.436  14.272  -3.733  1.00 20.00     0.118 C 
BRANCH   7   8
HETATM    8  C6  UNL     1     -34.459  13.732  -4.713  1.00 20.00     0.124 C 
HETATM    9 CL9  UNL     1     -36.123  14.062  -4.168  1.00 20.00    -0.130 Cl
ENDBRANCH   7   8
ENDBRANCH   1   7
TORSDOF 2
ENDMDL
MODEL 7
REMARK VINA RESULT:      -3.6     11.569     11.980
REMARK  2 active torsions:
REMARK  status: ('A' for Active; 'I' for Inactive)
REMARK    1  A    between atoms: C1_1  and  C5_5 
REMARK       I    between atoms: C1_1  and  N7_7 
REMARK    2  A    between atoms: C5_5  and  C6_6 
ROOT
HETATM    1  C1  UNL     1     -35.405  16.136  -2.613  1.00 20.00     0.220 C 
HETATM    2  C2  UNL     1     -35.084  13.214  -4.326  1.00 20.00     0.040 C 
HETATM    3  C3  UNL     1     -36.069  14.388  -4.367  1.00 20.00     0.127 C 
HETATM    4  C4  UNL     1     -34.098  14.118  -3.578  1.00 20.00     0.127 C 
HETATM    5  N7  UNL     1     -35.211  15.027  -3.390  1.00 20.00    -0.352 N 
HETATM    6  O8  UNL     1     -36.429  16.818  -2.627  1.00 20.00    -0.273 OA
ENDROOT
BRANCH   1   7
HETATM    7  C5  UNL     1     -34.249  16.471  -1.709  1.00 20.00     0.118 C 
BRANCH   7   8
HETATM    8  C6  UNL     1     -34.748  16.942  -0.357  1.00 20.00     0.124 C 
HETATM    9 CL9  UNL     1     -33.675  18.183   0.338  1.00 20.00    -0.130 Cl
ENDBRANCH   7   8
ENDBRANCH   1   7
TORSDOF 2
ENDMDL
MODEL 8
REMARK VINA RESULT:      -3.5     10.631     10.928
REMARK  2 active torsions:
REMARK  status: ('A' for Active; 'I' for Inactive)
REMARK    1  A    between atoms: C1_1  and  C5_5 
REMARK       I    between atoms: C1_1  and  N7_7 
REMARK    2  A    between atoms: C5_5  and  C6_6 
ROOT
HETATM    1  C1  UNL     1     -42.630   6.570  -2.985  1.00 20.00     0.220 C 
HETATM    2  C2  UNL     1     -40.812   5.787  -0.217  1.00 20.00     0.040 C 
HETATM    3  C3  UNL     1     -41.384   4.991  -1.395  1.00 20.00     0.127 C 
HETATM    4  C4  UNL     1     -40.980   7.063  -1.050  1.00 20.00     0.127 C 
HETATM    5  N7  UNL     1     -41.794   6.267  -1.946  1.00 20.00    -0.352 N 
HETATM    6  O8  UNL     1     -43.211   5.730  -3.671  1.00 20.00    -0.273 OA
ENDROOT
BRANCH   1   7
HETATM    7  C5  UNL     1     -42.799   8.044  -3.236  1.00 20.00     0.118 C 
BRANCH   7   8
HETATM    8  C6  UNL     1     -43.010   8.313  -4.712  1.00 20.00     0.124 C 
HETATM    9 CL9  UNL     1     -41.679   9.278  -5.398  1.00 20.00    -0.130 Cl
ENDBRANCH   7   8
ENDBRANCH   1   7
TORSDOF 2
ENDMDL
MODEL 9
REMARK VINA RESULT:      -3.5     11.732     12.423
REMARK  2 active torsions:
REMARK  status: ('A' for Active; 'I' for Inactive)
REMARK    1  A    between atoms: C1_1  and  C5_5 
REMARK       I    between atoms: C1_1  and  N7_7 
REMARK    2  A    between atoms: C5_5  and  C6_6 
ROOT
HETATM    1  C1  UNL     1     -35.226  15.973  -3.962  1.00 20.00     0.220 C 
HETATM    2  C2  UNL     1     -33.659  17.392  -1.295  1.00 20.00     0.040 C 
HETATM    3  C3  UNL     1     -33.987  17.845  -2.723  1.00 20.00     0.127 C 
HETATM    4  C4  UNL     1     -34.720  16.295  -1.442  1.00 20.00     0.127 C 
HETATM    5  N7  UNL     1     -34.709  16.596  -2.860  1.00 20.00    -0.352 N 
HETATM    6  O8  UNL     1     -35.149  16.419  -5.106  1.00 20.00    -0.273 OA
ENDROOT
BRANCH   1   7
HETATM    7  C5  UNL     1     -35.910  14.665  -3.673  1.00 20.00     0.118 C 
BRANCH   7   8
HETATM    8  C6  UNL     1     -35.117  13.509  -4.249  1.00 20.00     0.124 C 
HETATM    9 CL9  UNL     1     -33.390  13.627  -3.827  1.00 20.00    -0.130 Cl
ENDBRANCH   7   8
ENDBRANCH   1   7
TORSDOF 2
ENDMDL
