MODEL 1
REMARK VINA RESULT:      -4.7      0.000      0.000
REMARK  3 active torsions:
REMARK  status: ('A' for Active; 'I' for Inactive)
REMARK    1  A    between atoms: C2_2  and  C4_4 
REMARK    2  A    between atoms: C2_2  and  C9_9 
REMARK    3  A    between atoms: C8_8  and  C9_9 
ROOT
HETATM    1  C1  UNL     1     -37.084  14.803  -3.705  1.00 20.00     0.071 C 
HETATM    2  C9  UNL     1     -35.766  15.460  -3.623  1.00 20.00     0.162 C 
HETATM    3  N10 UNL     1     -38.122  14.288  -3.773  1.00 20.00    -0.196 NA
ENDROOT
BRANCH   2   4
HETATM    4  C2  UNL     1     -35.731  16.491  -2.507  1.00 20.00     0.148 C 
HETATM    5  O11 UNL     1     -36.485  17.455  -2.432  1.00 20.00    -0.296 OA
BRANCH   4   6
HETATM    6  C4  UNL     1     -34.690  16.288  -1.456  1.00 20.00     0.061 A 
HETATM    7  C3  UNL     1     -34.747  17.131  -0.222  1.00 20.00     0.017 A 
HETATM    8  C5  UNL     1     -33.645  17.333  -1.223  1.00 20.00    -0.007 A 
HETATM    9  C6  UNL     1     -33.573  18.600  -2.006  1.00 20.00     0.011 C 
ENDBRANCH   4   6
ENDBRANCH   2   4
BRANCH   2  10
HETATM   10  C8  UNL     1     -34.629  14.439  -3.470  1.00 20.00     0.022 C 
HETATM   11  C7  UNL     1     -34.625  13.330  -4.519  1.00 20.00     0.007 C 
ENDBRANCH   2  10
TORSDOF 3
ENDMDL
MODEL 2
REMARK VINA RESULT:      -4.7      2.526      2.882
REMARK  3 active torsions:
REMARK  status: ('A' for Active; 'I' for Inactive)
REMARK    1  A    between atoms: C2_2  and  C4_4 
REMARK    2  A    between atoms: C2_2  and  C9_9 
REMARK    3  A    between atoms: C8_8  and  C9_9 
ROOT
HETATM    1  C1  UNL     1     -34.790  13.702  -4.940  1.00 20.00     0.071 C 
HETATM    2  C9  UNL     1     -34.709  15.140  -5.256  1.00 20.00     0.162 C 
HETATM    3  N10 UNL     1     -34.858  12.571  -4.688  1.00 20.00    -0.196 NA
ENDROOT
BRANCH   2   4
HETATM    4  C2  UNL     1     -33.611  15.821  -4.455  1.00 20.00     0.148 C 
HETATM    5  O11 UNL     1     -32.701  16.480  -4.948  1.00 20.00    -0.296 OA
BRANCH   4   6
HETATM    6  C4  UNL     1     -33.673  15.647  -2.974  1.00 20.00     0.061 A 
HETATM    7  C3  UNL     1     -34.971  15.907  -2.278  1.00 20.00     0.017 A 
HETATM    8  C5  UNL     1     -33.812  16.842  -2.083  1.00 20.00    -0.007 A 
HETATM    9  C6  UNL     1     -33.884  18.238  -2.600  1.00 20.00     0.011 C 
ENDBRANCH   4   6
ENDBRANCH   2   4
BRANCH   2  10
HETATM   10  C8  UNL     1     -34.529  15.382  -6.762  1.00 20.00     0.022 C 
HETATM   11  C7  UNL     1     -35.403  14.507  -7.656  1.00 20.00     0.007 C 
ENDBRANCH   2  10
TORSDOF 3
ENDMDL
MODEL 3
REMARK VINA RESULT:      -4.7      2.435      3.093
REMARK  3 active torsions:
REMARK  status: ('A' for Active; 'I' for Inactive)
REMARK    1  A    between atoms: C2_2  and  C4_4 
REMARK    2  A    between atoms: C2_2  and  C9_9 
REMARK    3  A    between atoms: C8_8  and  C9_9 
ROOT
HETATM    1  C1  UNL     1     -37.305  14.557  -4.278  1.00 20.00     0.071 C 
HETATM    2  C9  UNL     1     -36.010  14.738  -4.959  1.00 20.00     0.162 C 
HETATM    3  N10 UNL     1     -38.324  14.418  -3.740  1.00 20.00    -0.196 NA
ENDROOT
BRANCH   2   4
HETATM    4  C2  UNL     1     -34.957  13.792  -4.405  1.00 20.00     0.148 C 
HETATM    5  O11 UNL     1     -34.723  12.676  -4.854  1.00 20.00    -0.296 OA
BRANCH   4   6
HETATM    6  C4  UNL     1     -34.182  14.289  -3.229  1.00 20.00     0.061 A 
HETATM    7  C3  UNL     1     -34.552  15.611  -2.636  1.00 20.00     0.017 A 
HETATM    8  C5  UNL     1     -33.256  15.456  -3.379  1.00 20.00    -0.007 A 
HETATM    9  C6  UNL     1     -33.048  16.167  -4.672  1.00 20.00     0.011 C 
ENDBRANCH   4   6
ENDBRANCH   2   4
BRANCH   2  10
HETATM   10  C8  UNL     1     -36.142  14.589  -6.482  1.00 20.00     0.022 C 
HETATM   11  C7  UNL     1     -34.905  15.007  -7.272  1.00 20.00     0.007 C 
ENDBRANCH   2  10
TORSDOF 3
ENDMDL
MODEL 4
REMARK VINA RESULT:      -4.6      1.800      2.071
REMARK  3 active torsions:
REMARK  status: ('A' for Active; 'I' for Inactive)
REMARK    1  A    between atoms: C2_2  and  C4_4 
REMARK    2  A    between atoms: C2_2  and  C9_9 
REMARK    3  A    between atoms: C8_8  and  C9_9 
ROOT
HETATM    1  C1  UNL     1     -34.895  13.991  -4.345  1.00 20.00     0.071 C 
HETATM    2  C9  UNL     1     -34.906  15.461  -4.458  1.00 20.00     0.162 C 
HETATM    3  N10 UNL     1     -34.890  12.834  -4.259  1.00 20.00    -0.196 NA
ENDROOT
BRANCH   2   4
HETATM    4  C2  UNL     1     -35.334  16.113  -3.153  1.00 20.00     0.148 C 
HETATM    5  O11 UNL     1     -36.405  16.686  -2.984  1.00 20.00    -0.296 OA
BRANCH   4   6
HETATM    6  C4  UNL     1     -34.354  16.037  -2.029  1.00 20.00     0.061 A 
HETATM    7  C3  UNL     1     -34.729  16.643  -0.713  1.00 20.00     0.017 A 
HETATM    8  C5  UNL     1     -33.657  17.275  -1.556  1.00 20.00    -0.007 A 
HETATM    9  C6  UNL     1     -33.882  18.617  -2.164  1.00 20.00     0.011 C 
ENDBRANCH   4   6
ENDBRANCH   2   4
BRANCH   2  10
HETATM   10  C8  UNL     1     -33.551  16.006  -4.932  1.00 20.00     0.022 C 
HETATM   11  C7  UNL     1     -33.620  17.358  -5.637  1.00 20.00     0.007 C 
ENDBRANCH   2  10
TORSDOF 3
ENDMDL
MODEL 5
REMARK VINA RESULT:      -4.6      2.709      4.277
REMARK  3 active torsions:
REMARK  status: ('A' for Active; 'I' for Inactive)
REMARK    1  A    between atoms: C2_2  and  C4_4 
REMARK    2  A    between atoms: C2_2  and  C9_9 
REMARK    3  A    between atoms: C8_8  and  C9_9 
ROOT
HETATM    1  C1  UNL     1     -34.496  13.650  -4.155  1.00 20.00     0.071 C 
HETATM    2  C9  UNL     1     -34.008  14.969  -3.713  1.00 20.00     0.162 C 
HETATM    3  N10 UNL     1     -34.876  12.610  -4.503  1.00 20.00    -0.196 NA
ENDROOT
BRANCH   2   4
HETATM    4  C2  UNL     1     -33.718  15.877  -4.897  1.00 20.00     0.148 C 
HETATM    5  O11 UNL     1     -32.922  16.810  -4.876  1.00 20.00    -0.296 OA
BRANCH   4   6
HETATM    6  C4  UNL     1     -34.479  15.588  -6.149  1.00 20.00     0.061 A 
HETATM    7  C3  UNL     1     -34.483  16.616  -7.236  1.00 20.00     0.017 A 
HETATM    8  C5  UNL     1     -35.736  16.342  -6.454  1.00 20.00    -0.007 A 
HETATM    9  C6  UNL     1     -36.295  17.388  -5.551  1.00 20.00     0.011 C 
ENDBRANCH   4   6
ENDBRANCH   2   4
BRANCH   2  10
HETATM   10  C8  UNL     1     -34.980  15.635  -2.728  1.00 20.00     0.022 C 
HETATM   11  C7  UNL     1     -34.310  16.442  -1.620  1.00 20.00     0.007 C 
ENDBRANCH   2  10
TORSDOF 3
ENDMDL
MODEL 6
REMARK VINA RESULT:      -4.6      1.944      2.184
REMARK  3 active torsions:
REMARK  status: ('A' for Active; 'I' for Inactive)
REMARK    1  A    between atoms: C2_2  and  C4_4 
REMARK    2  A    between atoms: C2_2  and  C9_9 
REMARK    3  A    between atoms: C8_8  and  C9_9 
ROOT
HETATM    1  C1  UNL     1     -33.599  16.031  -4.126  1.00 20.00     0.071 C 
HETATM    2  C9  UNL     1     -34.420  15.347  -3.110  1.00 20.00     0.162 C 
HETATM    3  N10 UNL     1     -32.949  16.568  -4.924  1.00 20.00    -0.196 NA
ENDROOT
BRANCH   2   4
HETATM    4  C2  UNL     1     -35.133  16.346  -2.212  1.00 20.00     0.148 C 
HETATM    5  O11 UNL     1     -36.145  16.962  -2.528  1.00 20.00    -0.296 OA
BRANCH   4   6
HETATM    6  C4  UNL     1     -34.525  16.570  -0.867  1.00 20.00     0.061 A 
HETATM    7  C3  UNL     1     -35.077  17.662  -0.007  1.00 20.00     0.017 A 
HETATM    8  C5  UNL     1     -33.707  17.797  -0.608  1.00 20.00    -0.007 A 
HETATM    9  C6  UNL     1     -33.447  18.834  -1.647  1.00 20.00     0.011 C 
ENDBRANCH   4   6
ENDBRANCH   2   4
BRANCH   2  10
HETATM   10  C8  UNL     1     -35.415  14.366  -3.748  1.00 20.00     0.022 C 
HETATM   11  C7  UNL     1     -34.775  13.283  -4.612  1.00 20.00     0.007 C 
ENDBRANCH   2  10
TORSDOF 3
ENDMDL
MODEL 7
REMARK VINA RESULT:      -4.6      2.274      4.163
REMARK  3 active torsions:
REMARK  status: ('A' for Active; 'I' for Inactive)
REMARK    1  A    between atoms: C2_2  and  C4_4 
REMARK    2  A    between atoms: C2_2  and  C9_9 
REMARK    3  A    between atoms: C8_8  and  C9_9 
ROOT
HETATM    1  C1  UNL     1     -34.606  16.462  -1.501  1.00 20.00     0.071 C 
HETATM    2  C9  UNL     1     -34.498  16.122  -2.931  1.00 20.00     0.162 C 
HETATM    3  N10 UNL     1     -34.688  16.728  -0.374  1.00 20.00    -0.196 NA
ENDROOT
BRANCH   2   4
HETATM    4  C2  UNL     1     -35.540  15.093  -3.336  1.00 20.00     0.148 C 
HETATM    5  O11 UNL     1     -36.747  15.308  -3.376  1.00 20.00    -0.296 OA
BRANCH   4   6
HETATM    6  C4  UNL     1     -35.023  13.738  -3.693  1.00 20.00     0.061 A 
HETATM    7  C3  UNL     1     -33.594  13.609  -4.118  1.00 20.00     0.017 A 
HETATM    8  C5  UNL     1     -34.698  13.411  -5.117  1.00 20.00    -0.007 A 
HETATM    9  C6  UNL     1     -34.874  14.381  -6.235  1.00 20.00     0.011 C 
ENDBRANCH   4   6
ENDBRANCH   2   4
BRANCH   2  10
HETATM   10  C8  UNL     1     -34.577  17.372  -3.821  1.00 20.00     0.022 C 
HETATM   11  C7  UNL     1     -33.484  17.468  -4.881  1.00 20.00     0.007 C 
ENDBRANCH   2  10
TORSDOF 3
ENDMDL
MODEL 8
REMARK VINA RESULT:      -4.5      2.738      4.692
REMARK  3 active torsions:
REMARK  status: ('A' for Active; 'I' for Inactive)
REMARK    1  A    between atoms: C2_2  and  C4_4 
REMARK    2  A    between atoms: C2_2  and  C9_9 
REMARK    3  A    between atoms: C8_8  and  C9_9 
ROOT
HETATM    1  C1  UNL     1     -33.783  17.721  -3.969  1.00 20.00     0.071 C 
HETATM    2  C9  UNL     1     -34.170  16.655  -3.027  1.00 20.00     0.162 C 
HETATM    3  N10 UNL     1     -33.482  18.560  -4.713  1.00 20.00    -0.196 NA
ENDROOT
BRANCH   2   4
HETATM    4  C2  UNL     1     -33.708  15.291  -3.515  1.00 20.00     0.148 C 
HETATM    5  O11 UNL     1     -32.536  14.937  -3.573  1.00 20.00    -0.296 OA
BRANCH   4   6
HETATM    6  C4  UNL     1     -34.783  14.350  -3.951  1.00 20.00     0.061 A 
HETATM    7  C3  UNL     1     -34.394  13.133  -4.728  1.00 20.00     0.017 A 
HETATM    8  C5  UNL     1     -35.147  14.246  -5.400  1.00 20.00    -0.007 A 
HETATM    9  C6  UNL     1     -34.487  15.056  -6.463  1.00 20.00     0.011 C 
ENDBRANCH   4   6
ENDBRANCH   2   4
BRANCH   2  10
HETATM   10  C8  UNL     1     -33.660  16.938  -1.606  1.00 20.00     0.022 C 
HETATM   11  C7  UNL     1     -34.724  16.837  -0.517  1.00 20.00     0.007 C 
ENDBRANCH   2  10
TORSDOF 3
ENDMDL
MODEL 9
REMARK VINA RESULT:      -4.5      1.867      2.360
REMARK  3 active torsions:
REMARK  status: ('A' for Active; 'I' for Inactive)
REMARK    1  A    between atoms: C2_2  and  C4_4 
REMARK    2  A    between atoms: C2_2  and  C9_9 
REMARK    3  A    between atoms: C8_8  and  C9_9 
ROOT
HETATM    1  C1  UNL     1     -34.983  13.754  -3.923  1.00 20.00     0.071 C 
HETATM    2  C9  UNL     1     -35.318  15.048  -3.301  1.00 20.00     0.162 C 
HETATM    3  N10 UNL     1     -34.720  12.734  -4.409  1.00 20.00    -0.196 NA
ENDROOT
BRANCH   2   4
HETATM    4  C2  UNL     1     -34.132  16.000  -3.331  1.00 20.00     0.148 C 
HETATM    5  O11 UNL     1     -33.532  16.325  -4.349  1.00 20.00    -0.296 OA
BRANCH   4   6
HETATM    6  C4  UNL     1     -33.694  16.546  -2.012  1.00 20.00     0.061 A 
HETATM    7  C3  UNL     1     -34.682  16.582  -0.890  1.00 20.00     0.017 A 
HETATM    8  C5  UNL     1     -34.224  17.861  -1.531  1.00 20.00    -0.007 A 
HETATM    9  C6  UNL     1     -35.185  18.686  -2.317  1.00 20.00     0.011 C 
ENDBRANCH   4   6
ENDBRANCH   2   4
BRANCH   2  10
HETATM   10  C8  UNL     1     -36.558  15.687  -3.945  1.00 20.00     0.022 C 
HETATM   11  C7  UNL     1     -37.807  14.811  -3.923  1.00 20.00     0.007 C 
ENDBRANCH   2  10
TORSDOF 3
ENDMDL
