MODEL 1
REMARK VINA RESULT:      -4.7      0.000      0.000
REMARK  3 active torsions:
REMARK  status: ('A' for Active; 'I' for Inactive)
REMARK    1  A    between atoms: C2_2  and  C7_7 
REMARK    2  A    between atoms: C2_2  and  C8_8 
REMARK    3  A    between atoms: C7_7  and  C9_9 
ROOT
HETATM    1  C1  UNL     1     -34.768  13.751  -4.884  1.00 20.00     0.071 C 
HETATM    2  C3  UNL     1     -34.330  15.212  -6.822  1.00 20.00     0.033 C 
HETATM    3  C8  UNL     1     -34.700  15.148  -5.344  1.00 20.00     0.158 C 
HETATM    4  N10 UNL     1     -34.825  12.651  -4.519  1.00 20.00    -0.196 NA
ENDROOT
BRANCH   3   5
HETATM    5  C2  UNL     1     -33.678  15.941  -4.536  1.00 20.00     0.144 C 
HETATM    6  O11 UNL     1     -32.817  16.638  -5.074  1.00 20.00    -0.296 OA
BRANCH   5   7
HETATM    7  C7  UNL     1     -33.741  15.812  -3.020  1.00 20.00     0.088 C 
BRANCH   7   8
HETATM    8  C9  UNL     1     -34.484  16.961  -2.302  1.00 20.00    -0.045 C 
HETATM    9  C4  UNL     1     -35.882  17.182  -2.901  1.00 20.00     0.015 C 
HETATM   10  C5  UNL     1     -33.686  18.274  -2.374  1.00 20.00     0.015 C 
HETATM   11  C6  UNL     1     -34.644  16.572  -0.819  1.00 20.00     0.015 C 
ENDBRANCH   7   8
ENDBRANCH   5   7
ENDBRANCH   3   5
TORSDOF 3
ENDMDL
MODEL 2
REMARK VINA RESULT:      -4.3      1.812      2.172
REMARK  3 active torsions:
REMARK  status: ('A' for Active; 'I' for Inactive)
REMARK    1  A    between atoms: C2_2  and  C7_7 
REMARK    2  A    between atoms: C2_2  and  C8_8 
REMARK    3  A    between atoms: C7_7  and  C9_9 
ROOT
HETATM    1  C1  UNL     1     -34.663  13.722  -4.362  1.00 20.00     0.071 C 
HETATM    2  C3  UNL     1     -32.826  15.166  -3.573  1.00 20.00     0.033 C 
HETATM    3  C8  UNL     1     -34.280  15.104  -4.027  1.00 20.00     0.158 C 
HETATM    4  N10 UNL     1     -34.966  12.634  -4.629  1.00 20.00    -0.196 NA
ENDROOT
BRANCH   3   5
HETATM    5  C2  UNL     1     -35.174  15.667  -2.927  1.00 20.00     0.144 C 
HETATM    6  O11 UNL     1     -36.395  15.756  -3.058  1.00 20.00    -0.296 OA
BRANCH   5   7
HETATM    7  C7  UNL     1     -34.490  16.149  -1.655  1.00 20.00     0.088 C 
BRANCH   7   8
HETATM    8  C9  UNL     1     -34.539  17.678  -1.431  1.00 20.00    -0.045 C 
HETATM    9  C4  UNL     1     -35.824  18.094  -0.699  1.00 20.00     0.015 C 
HETATM   10  C5  UNL     1     -34.443  18.441  -2.763  1.00 20.00     0.015 C 
HETATM   11  C6  UNL     1     -33.330  18.071  -0.559  1.00 20.00     0.015 C 
ENDBRANCH   7   8
ENDBRANCH   5   7
ENDBRANCH   3   5
TORSDOF 3
ENDMDL
MODEL 3
REMARK VINA RESULT:      -4.3      1.534      1.681
REMARK  3 active torsions:
REMARK  status: ('A' for Active; 'I' for Inactive)
REMARK    1  A    between atoms: C2_2  and  C7_7 
REMARK    2  A    between atoms: C2_2  and  C8_8 
REMARK    3  A    between atoms: C7_7  and  C9_9 
ROOT
HETATM    1  C1  UNL     1     -35.235  13.823  -4.078  1.00 20.00     0.071 C 
HETATM    2  C3  UNL     1     -36.329  15.923  -4.767  1.00 20.00     0.033 C 
HETATM    3  C8  UNL     1     -35.698  15.144  -3.619  1.00 20.00     0.158 C 
HETATM    4  N10 UNL     1     -34.871  12.781  -4.437  1.00 20.00    -0.196 NA
ENDROOT
BRANCH   3   5
HETATM    5  C2  UNL     1     -34.546  15.954  -3.035  1.00 20.00     0.144 C 
HETATM    6  O11 UNL     1     -33.683  16.472  -3.746  1.00 20.00    -0.296 OA
BRANCH   5   7
HETATM    7  C7  UNL     1     -34.481  16.076  -1.518  1.00 20.00     0.088 C 
BRANCH   7   8
HETATM    8  C9  UNL     1     -34.697  17.505  -0.972  1.00 20.00    -0.045 C 
HETATM    9  C4  UNL     1     -35.812  18.233  -1.739  1.00 20.00     0.015 C 
HETATM   10  C5  UNL     1     -33.403  18.334  -1.048  1.00 20.00     0.015 C 
HETATM   11  C6  UNL     1     -35.114  17.393   0.508  1.00 20.00     0.015 C 
ENDBRANCH   7   8
ENDBRANCH   5   7
ENDBRANCH   3   5
TORSDOF 3
ENDMDL
MODEL 4
REMARK VINA RESULT:      -4.3      1.169      1.568
REMARK  3 active torsions:
REMARK  status: ('A' for Active; 'I' for Inactive)
REMARK    1  A    between atoms: C2_2  and  C7_7 
REMARK    2  A    between atoms: C2_2  and  C8_8 
REMARK    3  A    between atoms: C7_7  and  C9_9 
ROOT
HETATM    1  C1  UNL     1     -35.013  14.678  -6.010  1.00 20.00     0.071 C 
HETATM    2  C3  UNL     1     -34.671  13.559  -3.839  1.00 20.00     0.033 C 
HETATM    3  C8  UNL     1     -34.029  14.370  -4.958  1.00 20.00     0.158 C 
HETATM    4  N10 UNL     1     -35.786  14.920  -6.841  1.00 20.00    -0.196 NA
ENDROOT
BRANCH   3   5
HETATM    5  C2  UNL     1     -33.435  15.648  -4.376  1.00 20.00     0.144 C 
HETATM    6  O11 UNL     1     -32.933  16.519  -5.086  1.00 20.00    -0.296 OA
BRANCH   5   7
HETATM    7  C7  UNL     1     -33.456  15.795  -2.860  1.00 20.00     0.088 C 
BRANCH   7   8
HETATM    8  C9  UNL     1     -34.374  16.920  -2.330  1.00 20.00    -0.045 C 
HETATM    9  C4  UNL     1     -35.687  16.989  -3.124  1.00 20.00     0.015 C 
HETATM   10  C5  UNL     1     -33.672  18.288  -2.388  1.00 20.00     0.015 C 
HETATM   11  C6  UNL     1     -34.708  16.610  -0.858  1.00 20.00     0.015 C 
ENDBRANCH   7   8
ENDBRANCH   5   7
ENDBRANCH   3   5
TORSDOF 3
ENDMDL
MODEL 5
REMARK VINA RESULT:      -4.3      1.359      3.782
REMARK  3 active torsions:
REMARK  status: ('A' for Active; 'I' for Inactive)
REMARK    1  A    between atoms: C2_2  and  C7_7 
REMARK    2  A    between atoms: C2_2  and  C8_8 
REMARK    3  A    between atoms: C7_7  and  C9_9 
ROOT
HETATM    1  C1  UNL     1     -34.254  13.821  -4.009  1.00 20.00     0.071 C 
HETATM    2  C3  UNL     1     -34.248  15.849  -2.605  1.00 20.00     0.033 C 
HETATM    3  C8  UNL     1     -33.548  15.080  -3.720  1.00 20.00     0.158 C 
HETATM    4  N10 UNL     1     -34.808  12.827  -4.237  1.00 20.00    -0.196 NA
ENDROOT
BRANCH   3   5
HETATM    5  C2  UNL     1     -33.470  15.960  -4.963  1.00 20.00     0.144 C 
HETATM    6  O11 UNL     1     -33.115  17.138  -4.910  1.00 20.00    -0.296 OA
BRANCH   5   7
HETATM    7  C7  UNL     1     -33.881  15.329  -6.288  1.00 20.00     0.088 C 
BRANCH   7   8
HETATM    8  C9  UNL     1     -35.170  15.911  -6.911  1.00 20.00    -0.045 C 
HETATM    9  C4  UNL     1     -34.855  17.096  -7.838  1.00 20.00     0.015 C 
HETATM   10  C5  UNL     1     -36.161  16.364  -5.826  1.00 20.00     0.015 C 
HETATM   11  C6  UNL     1     -35.838  14.802  -7.746  1.00 20.00     0.015 C 
ENDBRANCH   7   8
ENDBRANCH   5   7
ENDBRANCH   3   5
TORSDOF 3
ENDMDL
MODEL 6
REMARK VINA RESULT:      -4.2      2.545      4.429
REMARK  3 active torsions:
REMARK  status: ('A' for Active; 'I' for Inactive)
REMARK    1  A    between atoms: C2_2  and  C7_7 
REMARK    2  A    between atoms: C2_2  and  C8_8 
REMARK    3  A    between atoms: C7_7  and  C9_9 
ROOT
HETATM    1  C1  UNL     1     -34.373  15.749  -2.905  1.00 20.00     0.071 C 
HETATM    2  C3  UNL     1     -33.137  13.762  -3.683  1.00 20.00     0.033 C 
HETATM    3  C8  UNL     1     -34.463  14.301  -3.158  1.00 20.00     0.158 C 
HETATM    4  N10 UNL     1     -34.304  16.890  -2.703  1.00 20.00    -0.196 NA
ENDROOT
BRANCH   3   5
HETATM    5  C2  UNL     1     -35.565  13.990  -4.164  1.00 20.00     0.144 C 
HETATM    6  O11 UNL     1     -36.742  13.860  -3.825  1.00 20.00    -0.296 OA
BRANCH   5   7
HETATM    7  C7  UNL     1     -35.149  13.813  -5.618  1.00 20.00     0.088 C 
BRANCH   7   8
HETATM    8  C9  UNL     1     -35.343  15.063  -6.506  1.00 20.00    -0.045 C 
HETATM    9  C4  UNL     1     -34.039  15.867  -6.629  1.00 20.00     0.015 C 
HETATM   10  C5  UNL     1     -36.452  15.974  -5.953  1.00 20.00     0.015 C 
HETATM   11  C6  UNL     1     -35.760  14.590  -7.912  1.00 20.00     0.015 C 
ENDBRANCH   7   8
ENDBRANCH   5   7
ENDBRANCH   3   5
TORSDOF 3
ENDMDL
MODEL 7
REMARK VINA RESULT:      -4.1      1.623      1.772
REMARK  3 active torsions:
REMARK  status: ('A' for Active; 'I' for Inactive)
REMARK    1  A    between atoms: C2_2  and  C7_7 
REMARK    2  A    between atoms: C2_2  and  C8_8 
REMARK    3  A    between atoms: C7_7  and  C9_9 
ROOT
HETATM    1  C1  UNL     1     -34.160  13.610  -4.483  1.00 20.00     0.071 C 
HETATM    2  C3  UNL     1     -34.517  14.802  -6.613  1.00 20.00     0.033 C 
HETATM    3  C8  UNL     1     -35.172  14.203  -5.374  1.00 20.00     0.158 C 
HETATM    4  N10 UNL     1     -33.365  13.140  -3.781  1.00 20.00    -0.196 NA
ENDROOT
BRANCH   3   5
HETATM    5  C2  UNL     1     -35.966  15.287  -4.652  1.00 20.00     0.144 C 
HETATM    6  O11 UNL     1     -36.689  16.080  -5.257  1.00 20.00    -0.296 OA
BRANCH   5   7
HETATM    7  C7  UNL     1     -35.808  15.373  -3.140  1.00 20.00     0.088 C 
BRANCH   7   8
HETATM    8  C9  UNL     1     -35.167  16.683  -2.628  1.00 20.00    -0.045 C 
HETATM    9  C4  UNL     1     -36.204  17.815  -2.541  1.00 20.00     0.015 C 
HETATM   10  C5  UNL     1     -34.004  17.127  -3.533  1.00 20.00     0.015 C 
HETATM   11  C6  UNL     1     -34.609  16.422  -1.216  1.00 20.00     0.015 C 
ENDBRANCH   7   8
ENDBRANCH   5   7
ENDBRANCH   3   5
TORSDOF 3
ENDMDL
MODEL 8
REMARK VINA RESULT:      -4.0      2.689      4.538
REMARK  3 active torsions:
REMARK  status: ('A' for Active; 'I' for Inactive)
REMARK    1  A    between atoms: C2_2  and  C7_7 
REMARK    2  A    between atoms: C2_2  and  C8_8 
REMARK    3  A    between atoms: C7_7  and  C9_9 
ROOT
HETATM    1  C1  UNL     1     -34.747  17.152  -0.118  1.00 20.00     0.071 C 
HETATM    2  C3  UNL     1     -33.633  18.209  -2.048  1.00 20.00     0.033 C 
HETATM    3  C8  UNL     1     -34.157  16.910  -1.445  1.00 20.00     0.158 C 
HETATM    4  N10 UNL     1     -35.211  17.340   0.929  1.00 20.00    -0.196 NA
ENDROOT
BRANCH   3   5
HETATM    5  C2  UNL     1     -35.179  16.293  -2.394  1.00 20.00     0.144 C 
HETATM    6  O11 UNL     1     -36.178  16.908  -2.769  1.00 20.00    -0.296 OA
BRANCH   5   7
HETATM    7  C7  UNL     1     -34.932  14.858  -2.842  1.00 20.00     0.088 C 
BRANCH   7   8
HETATM    8  C9  UNL     1     -34.042  14.715  -4.097  1.00 20.00    -0.045 C 
HETATM    9  C4  UNL     1     -34.206  15.919  -5.039  1.00 20.00     0.015 C 
HETATM   10  C5  UNL     1     -34.363  13.421  -4.865  1.00 20.00     0.015 C 
HETATM   11  C6  UNL     1     -32.573  14.652  -3.636  1.00 20.00     0.015 C 
ENDBRANCH   7   8
ENDBRANCH   5   7
ENDBRANCH   3   5
TORSDOF 3
ENDMDL
MODEL 9
REMARK VINA RESULT:      -4.0      2.207      3.151
REMARK  3 active torsions:
REMARK  status: ('A' for Active; 'I' for Inactive)
REMARK    1  A    between atoms: C2_2  and  C7_7 
REMARK    2  A    between atoms: C2_2  and  C8_8 
REMARK    3  A    between atoms: C7_7  and  C9_9 
ROOT
HETATM    1  C1  UNL     1     -33.366  16.155  -4.309  1.00 20.00     0.071 C 
HETATM    2  C3  UNL     1     -34.287  14.007  -3.521  1.00 20.00     0.033 C 
HETATM    3  C8  UNL     1     -33.794  15.393  -3.123  1.00 20.00     0.158 C 
HETATM    4  N10 UNL     1     -33.027  16.756  -5.242  1.00 20.00    -0.196 NA
ENDROOT
BRANCH   3   5
HETATM    5  C2  UNL     1     -34.902  16.125  -2.375  1.00 20.00     0.144 C 
HETATM    6  O11 UNL     1     -35.958  16.448  -2.921  1.00 20.00    -0.296 OA
BRANCH   5   7
HETATM    7  C7  UNL     1     -34.641  16.475  -0.916  1.00 20.00     0.088 C 
BRANCH   7   8
HETATM    8  C9  UNL     1     -34.524  17.988  -0.622  1.00 20.00    -0.045 C 
HETATM    9  C4  UNL     1     -33.952  18.241   0.782  1.00 20.00     0.015 C 
HETATM   10  C5  UNL     1     -35.887  18.690  -0.750  1.00 20.00     0.015 C 
HETATM   11  C6  UNL     1     -33.563  18.602  -1.658  1.00 20.00     0.015 C 
ENDBRANCH   7   8
ENDBRANCH   5   7
ENDBRANCH   3   5
TORSDOF 3
ENDMDL
