MODEL 1
REMARK VINA RESULT:      -5.1      0.000      0.000
REMARK  4 active torsions:
REMARK  status: ('A' for Active; 'I' for Inactive)
REMARK    1  A    between atoms: C3_3  and  C6_6 
REMARK    2  A    between atoms: C3_3  and  C7_7 
REMARK    3  A    between atoms: C5_5  and  C6_6 
REMARK    4  A    between atoms: C7_7  and  C8_8 
ROOT
HETATM    1  C1  UNL     1     -33.662   7.128   6.654  1.00 20.00     0.012 C 
HETATM    2  C2  UNL     1     -34.263   6.109   6.453  1.00 20.00    -0.117 C 
HETATM    3  C5  UNL     1     -35.001   4.860   6.208  1.00 20.00     0.100 C 
ENDROOT
BRANCH   3   4
HETATM    4  C6  UNL     1     -34.697   4.281   4.828  1.00 20.00     0.090 C 
BRANCH   4   5
HETATM    5  C3  UNL     1     -35.003   5.233   3.680  1.00 20.00     0.127 C 
HETATM    6  O9  UNL     1     -36.082   5.813   3.575  1.00 20.00    -0.298 OA
BRANCH   5   7
HETATM    7  C7  UNL     1     -33.873   5.436   2.681  1.00 20.00     0.078 C 
BRANCH   7   8
HETATM    8  C8  UNL     1     -32.619   6.017   3.325  1.00 20.00     0.003 C 
HETATM    9  C4  UNL     1     -32.290   7.393   2.767  1.00 20.00     0.005 C 
ENDBRANCH   7   8
ENDBRANCH   5   7
ENDBRANCH   4   5
ENDBRANCH   3   4
TORSDOF 4
ENDMDL
MODEL 2
REMARK VINA RESULT:      -5.1      1.033      3.917
REMARK  4 active torsions:
REMARK  status: ('A' for Active; 'I' for Inactive)
REMARK    1  A    between atoms: C3_3  and  C6_6 
REMARK    2  A    between atoms: C3_3  and  C7_7 
REMARK    3  A    between atoms: C5_5  and  C6_6 
REMARK    4  A    between atoms: C7_7  and  C8_8 
ROOT
HETATM    1  C1  UNL     1     -32.164   8.899   1.489  1.00 20.00     0.012 C 
HETATM    2  C2  UNL     1     -32.118   8.003   2.286  1.00 20.00    -0.117 C 
HETATM    3  C5  UNL     1     -32.059   6.905   3.263  1.00 20.00     0.100 C 
ENDROOT
BRANCH   3   4
HETATM    4  C6  UNL     1     -33.122   5.842   2.990  1.00 20.00     0.090 C 
BRANCH   4   5
HETATM    5  C3  UNL     1     -34.335   5.934   3.907  1.00 20.00     0.127 C 
HETATM    6  O9  UNL     1     -35.476   5.700   3.515  1.00 20.00    -0.298 OA
BRANCH   5   7
HETATM    7  C7  UNL     1     -34.035   6.315   5.350  1.00 20.00     0.078 C 
BRANCH   7   8
HETATM    8  C8  UNL     1     -34.719   5.391   6.353  1.00 20.00     0.003 C 
HETATM    9  C4  UNL     1     -34.667   3.940   5.902  1.00 20.00     0.005 C 
ENDBRANCH   7   8
ENDBRANCH   5   7
ENDBRANCH   4   5
ENDBRANCH   3   4
TORSDOF 4
ENDMDL
MODEL 3
REMARK VINA RESULT:      -5.0      1.918      2.991
REMARK  4 active torsions:
REMARK  status: ('A' for Active; 'I' for Inactive)
REMARK    1  A    between atoms: C3_3  and  C6_6 
REMARK    2  A    between atoms: C3_3  and  C7_7 
REMARK    3  A    between atoms: C5_5  and  C6_6 
REMARK    4  A    between atoms: C7_7  and  C8_8 
ROOT
HETATM    1  C1  UNL     1     -35.114   4.202   6.055  1.00 20.00     0.012 C 
HETATM    2  C2  UNL     1     -34.976   4.745   4.994  1.00 20.00    -0.117 C 
HETATM    3  C5  UNL     1     -34.807   5.409   3.692  1.00 20.00     0.100 C 
ENDROOT
BRANCH   3   4
HETATM    4  C6  UNL     1     -33.981   6.688   3.809  1.00 20.00     0.090 C 
BRANCH   4   5
HETATM    5  C3  UNL     1     -32.564   6.558   3.264  1.00 20.00     0.127 C 
HETATM    6  O9  UNL     1     -32.050   5.468   3.022  1.00 20.00    -0.298 OA
BRANCH   5   7
HETATM    7  C7  UNL     1     -31.835   7.871   3.019  1.00 20.00     0.078 C 
BRANCH   7   8
HETATM    8  C8  UNL     1     -31.942   8.339   1.571  1.00 20.00     0.003 C 
HETATM    9  C4  UNL     1     -32.496   9.752   1.481  1.00 20.00     0.005 C 
ENDBRANCH   7   8
ENDBRANCH   5   7
ENDBRANCH   4   5
ENDBRANCH   3   4
TORSDOF 4
ENDMDL
MODEL 4
REMARK VINA RESULT:      -4.9      1.664      4.273
REMARK  4 active torsions:
REMARK  status: ('A' for Active; 'I' for Inactive)
REMARK    1  A    between atoms: C3_3  and  C6_6 
REMARK    2  A    between atoms: C3_3  and  C7_7 
REMARK    3  A    between atoms: C5_5  and  C6_6 
REMARK    4  A    between atoms: C7_7  and  C8_8 
ROOT
HETATM    1  C1  UNL     1     -32.257   9.134   1.013  1.00 20.00     0.012 C 
HETATM    2  C2  UNL     1     -32.039   8.390   1.929  1.00 20.00    -0.117 C 
HETATM    3  C5  UNL     1     -31.770   7.478   3.052  1.00 20.00     0.100 C 
ENDROOT
BRANCH   3   4
HETATM    4  C6  UNL     1     -32.715   6.278   3.049  1.00 20.00     0.090 C 
BRANCH   4   5
HETATM    5  C3  UNL     1     -33.680   6.252   4.228  1.00 20.00     0.127 C 
HETATM    6  O9  UNL     1     -33.442   6.831   5.286  1.00 20.00    -0.298 OA
BRANCH   5   7
HETATM    7  C7  UNL     1     -34.971   5.479   3.999  1.00 20.00     0.078 C 
BRANCH   7   8
HETATM    8  C8  UNL     1     -34.984   4.135   4.720  1.00 20.00     0.003 C 
HETATM    9  C4  UNL     1     -35.123   4.308   6.223  1.00 20.00     0.005 C 
ENDBRANCH   7   8
ENDBRANCH   5   7
ENDBRANCH   4   5
ENDBRANCH   3   4
TORSDOF 4
ENDMDL
MODEL 5
REMARK VINA RESULT:      -4.9      1.127      3.300
REMARK  4 active torsions:
REMARK  status: ('A' for Active; 'I' for Inactive)
REMARK    1  A    between atoms: C3_3  and  C6_6 
REMARK    2  A    between atoms: C3_3  and  C7_7 
REMARK    3  A    between atoms: C5_5  and  C6_6 
REMARK    4  A    between atoms: C7_7  and  C8_8 
ROOT
HETATM    1  C1  UNL     1     -31.989   6.985   3.285  1.00 20.00     0.012 C 
HETATM    2  C2  UNL     1     -32.960   6.314   3.069  1.00 20.00    -0.117 C 
HETATM    3  C5  UNL     1     -34.150   5.492   2.802  1.00 20.00     0.100 C 
ENDROOT
BRANCH   3   4
HETATM    4  C6  UNL     1     -35.140   5.529   3.965  1.00 20.00     0.090 C 
BRANCH   4   5
HETATM    5  C3  UNL     1     -34.847   4.508   5.056  1.00 20.00     0.127 C 
HETATM    6  O9  UNL     1     -35.162   3.324   4.951  1.00 20.00    -0.298 OA
BRANCH   5   7
HETATM    7  C7  UNL     1     -34.118   5.047   6.278  1.00 20.00     0.078 C 
BRANCH   7   8
HETATM    8  C8  UNL     1     -34.460   6.505   6.568  1.00 20.00     0.003 C 
HETATM    9  C4  UNL     1     -33.208   7.346   6.755  1.00 20.00     0.005 C 
ENDBRANCH   7   8
ENDBRANCH   5   7
ENDBRANCH   4   5
ENDBRANCH   3   4
TORSDOF 4
ENDMDL
MODEL 6
REMARK VINA RESULT:      -4.6      1.245      2.168
REMARK  4 active torsions:
REMARK  status: ('A' for Active; 'I' for Inactive)
REMARK    1  A    between atoms: C3_3  and  C6_6 
REMARK    2  A    between atoms: C3_3  and  C7_7 
REMARK    3  A    between atoms: C5_5  and  C6_6 
REMARK    4  A    between atoms: C7_7  and  C8_8 
ROOT
HETATM    1  C1  UNL     1     -35.112   3.855   5.955  1.00 20.00     0.012 C 
HETATM    2  C2  UNL     1     -34.655   4.962   5.874  1.00 20.00    -0.117 C 
HETATM    3  C5  UNL     1     -34.096   6.319   5.777  1.00 20.00     0.100 C 
ENDROOT
BRANCH   3   4
HETATM    4  C6  UNL     1     -34.216   6.884   4.362  1.00 20.00     0.090 C 
BRANCH   4   5
HETATM    5  C3  UNL     1     -33.584   6.003   3.292  1.00 20.00     0.127 C 
HETATM    6  O9  UNL     1     -34.243   5.221   2.609  1.00 20.00    -0.298 OA
BRANCH   5   7
HETATM    7  C7  UNL     1     -32.083   6.173   3.109  1.00 20.00     0.078 C 
BRANCH   7   8
HETATM    8  C8  UNL     1     -31.650   7.635   3.138  1.00 20.00     0.003 C 
HETATM    9  C4  UNL     1     -31.978   8.340   1.832  1.00 20.00     0.005 C 
ENDBRANCH   7   8
ENDBRANCH   5   7
ENDBRANCH   4   5
ENDBRANCH   3   4
TORSDOF 4
ENDMDL
MODEL 7
REMARK VINA RESULT:      -4.2     11.688     12.718
REMARK  4 active torsions:
REMARK  status: ('A' for Active; 'I' for Inactive)
REMARK    1  A    between atoms: C3_3  and  C6_6 
REMARK    2  A    between atoms: C3_3  and  C7_7 
REMARK    3  A    between atoms: C5_5  and  C6_6 
REMARK    4  A    between atoms: C7_7  and  C8_8 
ROOT
HETATM    1  C1  UNL     1     -34.763  16.273  -1.630  1.00 20.00     0.012 C 
HETATM    2  C2  UNL     1     -34.027  15.884  -2.494  1.00 20.00    -0.117 C 
HETATM    3  C5  UNL     1     -33.124  15.409  -3.555  1.00 20.00     0.100 C 
ENDROOT
BRANCH   3   4
HETATM    4  C6  UNL     1     -33.247  13.902  -3.774  1.00 20.00     0.090 C 
BRANCH   4   5
HETATM    5  C3  UNL     1     -34.411  13.503  -4.671  1.00 20.00     0.127 C 
HETATM    6  O9  UNL     1     -35.139  12.544  -4.418  1.00 20.00    -0.298 OA
BRANCH   5   7
HETATM    7  C7  UNL     1     -34.629  14.385  -5.891  1.00 20.00     0.078 C 
BRANCH   7   8
HETATM    8  C8  UNL     1     -36.045  14.946  -5.964  1.00 20.00     0.003 C 
HETATM    9  C4  UNL     1     -36.069  16.439  -5.681  1.00 20.00     0.005 C 
ENDBRANCH   7   8
ENDBRANCH   5   7
ENDBRANCH   4   5
ENDBRANCH   3   4
TORSDOF 4
ENDMDL
MODEL 8
REMARK VINA RESULT:      -4.1     11.664     12.676
REMARK  4 active torsions:
REMARK  status: ('A' for Active; 'I' for Inactive)
REMARK    1  A    between atoms: C3_3  and  C6_6 
REMARK    2  A    between atoms: C3_3  and  C7_7 
REMARK    3  A    between atoms: C5_5  and  C6_6 
REMARK    4  A    between atoms: C7_7  and  C8_8 
ROOT
HETATM    1  C1  UNL     1     -34.600  16.630  -0.912  1.00 20.00     0.012 C 
HETATM    2  C2  UNL     1     -34.252  16.240  -1.992  1.00 20.00    -0.117 C 
HETATM    3  C5  UNL     1     -33.826  15.764  -3.317  1.00 20.00     0.100 C 
ENDROOT
BRANCH   3   4
HETATM    4  C6  UNL     1     -33.850  14.239  -3.408  1.00 20.00     0.090 C 
BRANCH   4   5
HETATM    5  C3  UNL     1     -34.860  13.697  -4.412  1.00 20.00     0.127 C 
HETATM    6  O9  UNL     1     -34.951  12.499  -4.672  1.00 20.00    -0.298 OA
BRANCH   5   7
HETATM    7  C7  UNL     1     -35.764  14.738  -5.055  1.00 20.00     0.078 C 
BRANCH   7   8
HETATM    8  C8  UNL     1     -35.739  14.675  -6.579  1.00 20.00     0.003 C 
HETATM    9  C4  UNL     1     -34.378  15.066  -7.132  1.00 20.00     0.005 C 
ENDBRANCH   7   8
ENDBRANCH   5   7
ENDBRANCH   4   5
ENDBRANCH   3   4
TORSDOF 4
ENDMDL
MODEL 9
REMARK VINA RESULT:      -4.0     12.169     12.594
REMARK  4 active torsions:
REMARK  status: ('A' for Active; 'I' for Inactive)
REMARK    1  A    between atoms: C3_3  and  C6_6 
REMARK    2  A    between atoms: C3_3  and  C7_7 
REMARK    3  A    between atoms: C5_5  and  C6_6 
REMARK    4  A    between atoms: C7_7  and  C8_8 
ROOT
HETATM    1  C1  UNL     1     -34.813  17.462   0.575  1.00 20.00     0.012 C 
HETATM    2  C2  UNL     1     -34.746  16.879  -0.472  1.00 20.00    -0.117 C 
HETATM    3  C5  UNL     1     -34.664  16.163  -1.754  1.00 20.00     0.100 C 
ENDROOT
BRANCH   3   4
HETATM    4  C6  UNL     1     -33.613  16.772  -2.680  1.00 20.00     0.090 C 
BRANCH   4   5
HETATM    5  C3  UNL     1     -33.237  15.880  -3.856  1.00 20.00     0.127 C 
HETATM    6  O9  UNL     1     -32.869  16.336  -4.937  1.00 20.00    -0.298 OA
BRANCH   5   7
HETATM    7  C7  UNL     1     -33.328  14.383  -3.596  1.00 20.00     0.078 C 
BRANCH   7   8
HETATM    8  C8  UNL     1     -34.170  13.657  -4.640  1.00 20.00     0.003 C 
HETATM    9  C4  UNL     1     -35.656  13.778  -4.340  1.00 20.00     0.005 C 
ENDBRANCH   7   8
ENDBRANCH   5   7
ENDBRANCH   4   5
ENDBRANCH   3   4
TORSDOF 4
ENDMDL
