MODEL 1
REMARK VINA RESULT:      -5.2      0.000      0.000
REMARK  2 active torsions:
REMARK  status: ('A' for Active; 'I' for Inactive)
REMARK    1  A    between atoms: C1_1  and  C3_3 
REMARK    2  A    between atoms: C7_7  and  C9_9 
ROOT
HETATM    1  C1  UNL     1     -34.784  14.950  -4.177  1.00 20.00    -0.002 C 
HETATM    2  C2  UNL     1     -34.256  15.555  -5.255  1.00 20.00     0.021 C 
HETATM    3  C4  UNL     1     -34.653  15.514  -2.785  1.00 20.00     0.047 C 
HETATM    4  C5  UNL     1     -33.515  16.863  -5.175  1.00 20.00     0.052 C 
HETATM    5  C6  UNL     1     -33.690  17.585  -3.837  1.00 20.00     0.010 C 
HETATM    6  C7  UNL     1     -33.575  16.604  -2.666  1.00 20.00    -0.010 C 
HETATM    7 CL11 UNL     1     -34.365  14.920  -6.865  1.00 20.00    -0.088 Cl
ENDROOT
BRANCH   1   8
HETATM    8  C3  UNL     1     -35.524  13.680  -4.271  1.00 20.00     0.267 C 
HETATM    9  O10 UNL     1     -34.959  12.603  -4.372  1.00 20.00    -0.302 OA
ENDBRANCH   1   8
BRANCH   6  10
HETATM   10  C9  UNL     1     -33.684  17.331  -1.328  1.00 20.00     0.000 C 
HETATM   11  C8  UNL     1     -34.782  16.773  -0.484  1.00 20.00     0.005 C 
ENDBRANCH   6  10
TORSDOF 2
ENDMDL
MODEL 2
REMARK VINA RESULT:      -4.8      1.853      2.026
REMARK  2 active torsions:
REMARK  status: ('A' for Active; 'I' for Inactive)
REMARK    1  A    between atoms: C1_1  and  C3_3 
REMARK    2  A    between atoms: C7_7  and  C9_9 
ROOT
HETATM    1  C1  UNL     1     -35.929  15.028  -3.696  1.00 20.00    -0.002 C 
HETATM    2  C2  UNL     1     -34.814  14.381  -4.078  1.00 20.00     0.021 C 
HETATM    3  C4  UNL     1     -35.913  16.136  -2.674  1.00 20.00     0.047 C 
HETATM    4  C5  UNL     1     -33.448  14.723  -3.544  1.00 20.00     0.052 C 
HETATM    5  C6  UNL     1     -33.402  16.053  -2.787  1.00 20.00     0.010 C 
HETATM    6  C7  UNL     1     -34.611  16.197  -1.858  1.00 20.00    -0.010 C 
HETATM    7 CL11 UNL     1     -34.800  13.085  -5.231  1.00 20.00    -0.088 Cl
ENDROOT
BRANCH   1   8
HETATM    8  C3  UNL     1     -37.256  14.697  -4.241  1.00 20.00     0.267 C 
HETATM    9  O10 UNL     1     -38.163  14.283  -3.540  1.00 20.00    -0.302 OA
ENDBRANCH   1   8
BRANCH   6  10
HETATM   10  C9  UNL     1     -34.535  17.492  -1.053  1.00 20.00     0.000 C 
HETATM   11  C8  UNL     1     -34.961  17.288   0.363  1.00 20.00     0.005 C 
ENDBRANCH   6  10
TORSDOF 2
ENDMDL
MODEL 3
REMARK VINA RESULT:      -4.6      1.026      1.157
REMARK  2 active torsions:
REMARK  status: ('A' for Active; 'I' for Inactive)
REMARK    1  A    between atoms: C1_1  and  C3_3 
REMARK    2  A    between atoms: C7_7  and  C9_9 
ROOT
HETATM    1  C1  UNL     1     -35.038  15.166  -3.868  1.00 20.00    -0.002 C 
HETATM    2  C2  UNL     1     -34.323  15.785  -4.825  1.00 20.00     0.021 C 
HETATM    3  C4  UNL     1     -35.038  15.624  -2.432  1.00 20.00     0.047 C 
HETATM    4  C5  UNL     1     -33.485  17.006  -4.555  1.00 20.00     0.052 C 
HETATM    5  C6  UNL     1     -33.765  17.654  -3.197  1.00 20.00     0.010 C 
HETATM    6  C7  UNL     1     -33.890  16.593  -2.100  1.00 20.00    -0.010 C 
HETATM    7 CL11 UNL     1     -34.281  15.269  -6.480  1.00 20.00    -0.088 Cl
ENDROOT
BRANCH   1   8
HETATM    8  C3  UNL     1     -35.870  13.985  -4.149  1.00 20.00     0.267 C 
HETATM    9  O10 UNL     1     -37.070  13.966  -3.932  1.00 20.00    -0.302 OA
ENDBRANCH   1   8
BRANCH   6  10
HETATM   10  C9  UNL     1     -34.104  17.239  -0.733  1.00 20.00     0.000 C 
HETATM   11  C8  UNL     1     -33.100  18.312  -0.466  1.00 20.00     0.005 C 
ENDBRANCH   6  10
TORSDOF 2
ENDMDL
MODEL 4
REMARK VINA RESULT:      -4.5      1.437      1.607
REMARK  2 active torsions:
REMARK  status: ('A' for Active; 'I' for Inactive)
REMARK    1  A    between atoms: C1_1  and  C3_3 
REMARK    2  A    between atoms: C7_7  and  C9_9 
ROOT
HETATM    1  C1  UNL     1     -34.982  14.903  -4.248  1.00 20.00    -0.002 C 
HETATM    2  C2  UNL     1     -35.989  15.642  -4.745  1.00 20.00     0.021 C 
HETATM    3  C4  UNL     1     -34.180  15.329  -3.045  1.00 20.00     0.047 C 
HETATM    4  C5  UNL     1     -36.425  16.945  -4.130  1.00 20.00     0.052 C 
HETATM    5  C6  UNL     1     -35.845  17.187  -2.734  1.00 20.00     0.010 C 
HETATM    6  C7  UNL     1     -34.361  16.813  -2.685  1.00 20.00    -0.010 C 
HETATM    7 CL11 UNL     1     -36.914  15.194  -6.142  1.00 20.00    -0.088 Cl
ENDROOT
BRANCH   1   8
HETATM    8  C3  UNL     1     -34.579  13.620  -4.849  1.00 20.00     0.267 C 
HETATM    9  O10 UNL     1     -35.005  12.550  -4.447  1.00 20.00    -0.302 OA
ENDBRANCH   1   8
BRANCH   6  10
HETATM   10  C9  UNL     1     -33.764  17.114  -1.312  1.00 20.00     0.000 C 
HETATM   11  C8  UNL     1     -34.789  17.020  -0.230  1.00 20.00     0.005 C 
ENDBRANCH   6  10
TORSDOF 2
ENDMDL
MODEL 5
REMARK VINA RESULT:      -4.3     12.051     13.162
REMARK  2 active torsions:
REMARK  status: ('A' for Active; 'I' for Inactive)
REMARK    1  A    between atoms: C1_1  and  C3_3 
REMARK    2  A    between atoms: C7_7  and  C9_9 
ROOT
HETATM    1  C1  UNL     1     -33.848   6.308   5.470  1.00 20.00    -0.002 C 
HETATM    2  C2  UNL     1     -34.542   5.184   5.216  1.00 20.00     0.021 C 
HETATM    3  C4  UNL     1     -33.040   7.018   4.414  1.00 20.00     0.047 C 
HETATM    4  C5  UNL     1     -34.600   4.552   3.851  1.00 20.00     0.052 C 
HETATM    5  C6  UNL     1     -34.073   5.457   2.735  1.00 20.00     0.010 C 
HETATM    6  C7  UNL     1     -32.783   6.161   3.163  1.00 20.00    -0.010 C 
HETATM    7 CL11 UNL     1     -35.459   4.329   6.414  1.00 20.00    -0.088 Cl
ENDROOT
BRANCH   1   8
HETATM    8  C3  UNL     1     -33.816   6.927   6.806  1.00 20.00     0.267 C 
HETATM    9  O10 UNL     1     -32.943   7.711   7.140  1.00 20.00    -0.302 OA
ENDBRANCH   1   8
BRANCH   6  10
HETATM   10  C9  UNL     1     -32.219   7.014   2.028  1.00 20.00     0.000 C 
HETATM   11  C8  UNL     1     -32.256   8.470   2.361  1.00 20.00     0.005 C 
ENDBRANCH   6  10
TORSDOF 2
ENDMDL
MODEL 6
REMARK VINA RESULT:      -4.2      2.175      3.046
REMARK  2 active torsions:
REMARK  status: ('A' for Active; 'I' for Inactive)
REMARK    1  A    between atoms: C1_1  and  C3_3 
REMARK    2  A    between atoms: C7_7  and  C9_9 
ROOT
HETATM    1  C1  UNL     1     -33.986  16.925  -4.914  1.00 20.00    -0.002 C 
HETATM    2  C2  UNL     1     -34.236  15.691  -5.387  1.00 20.00     0.021 C 
HETATM    3  C4  UNL     1     -34.073  17.266  -3.448  1.00 20.00     0.047 C 
HETATM    4  C5  UNL     1     -34.595  14.533  -4.494  1.00 20.00     0.052 C 
HETATM    5  C6  UNL     1     -34.343  14.804  -3.009  1.00 20.00     0.010 C 
HETATM    6  C7  UNL     1     -34.818  16.207  -2.619  1.00 20.00    -0.010 C 
HETATM    7 CL11 UNL     1     -34.170  15.273  -7.068  1.00 20.00    -0.088 Cl
ENDROOT
BRANCH   1   8
HETATM    8  C3  UNL     1     -33.616  18.044  -5.797  1.00 20.00     0.267 C 
HETATM    9  O10 UNL     1     -33.439  19.176  -5.375  1.00 20.00    -0.302 OA
ENDBRANCH   1   8
BRANCH   6  10
HETATM   10  C9  UNL     1     -34.628  16.456  -1.125  1.00 20.00     0.000 C 
HETATM   11  C8  UNL     1     -33.652  17.556  -0.868  1.00 20.00     0.005 C 
ENDBRANCH   6  10
TORSDOF 2
ENDMDL
MODEL 7
REMARK VINA RESULT:      -4.1      2.804      3.480
REMARK  2 active torsions:
REMARK  status: ('A' for Active; 'I' for Inactive)
REMARK    1  A    between atoms: C1_1  and  C3_3 
REMARK    2  A    between atoms: C7_7  and  C9_9 
ROOT
HETATM    1  C1  UNL     1     -36.985  14.839  -5.143  1.00 20.00    -0.002 C 
HETATM    2  C2  UNL     1     -36.721  15.099  -6.436  1.00 20.00     0.021 C 
HETATM    3  C4  UNL     1     -35.928  14.363  -4.179  1.00 20.00     0.047 C 
HETATM    4  C5  UNL     1     -35.343  14.968  -7.029  1.00 20.00     0.052 C 
HETATM    5  C6  UNL     1     -34.236  14.825  -5.982  1.00 20.00     0.010 C 
HETATM    6  C7  UNL     1     -34.653  13.855  -4.873  1.00 20.00    -0.010 C 
HETATM    7 CL11 UNL     1     -37.917  15.623  -7.576  1.00 20.00    -0.088 Cl
ENDROOT
BRANCH   1   8
HETATM    8  C3  UNL     1     -38.333  14.991  -4.571  1.00 20.00     0.267 C 
HETATM    9  O10 UNL     1     -38.710  14.339  -3.611  1.00 20.00    -0.302 OA
ENDBRANCH   1   8
BRANCH   6  10
HETATM   10  C9  UNL     1     -33.526  13.659  -3.861  1.00 20.00     0.000 C 
HETATM   11  C8  UNL     1     -32.760  14.922  -3.637  1.00 20.00     0.005 C 
ENDBRANCH   6  10
TORSDOF 2
ENDMDL
MODEL 8
REMARK VINA RESULT:      -4.1     12.137     13.730
REMARK  2 active torsions:
REMARK  status: ('A' for Active; 'I' for Inactive)
REMARK    1  A    between atoms: C1_1  and  C3_3 
REMARK    2  A    between atoms: C7_7  and  C9_9 
ROOT
HETATM    1  C1  UNL     1     -42.419   6.214  -2.488  1.00 20.00    -0.002 C 
HETATM    2  C2  UNL     1     -41.549   6.404  -1.480  1.00 20.00     0.021 C 
HETATM    3  C4  UNL     1     -42.739   4.847  -3.036  1.00 20.00     0.047 C 
HETATM    4  C5  UNL     1     -40.840   5.270  -0.790  1.00 20.00     0.052 C 
HETATM    5  C6  UNL     1     -41.425   3.893  -1.115  1.00 20.00     0.010 C 
HETATM    6  C7  UNL     1     -41.730   3.767  -2.611  1.00 20.00    -0.010 C 
HETATM    7 CL11 UNL     1     -41.139   7.964  -0.844  1.00 20.00    -0.088 Cl
ENDROOT
BRANCH   1   8
HETATM    8  C3  UNL     1     -43.121   7.332  -3.141  1.00 20.00     0.267 C 
HETATM    9  O10 UNL     1     -43.417   7.312  -4.324  1.00 20.00    -0.302 OA
ENDBRANCH   1   8
BRANCH   6  10
HETATM   10  C9  UNL     1     -42.253   2.373  -2.950  1.00 20.00     0.000 C 
HETATM   11  C8  UNL     1     -41.423   1.713  -4.001  1.00 20.00     0.005 C 
ENDBRANCH   6  10
TORSDOF 2
ENDMDL
MODEL 9
REMARK VINA RESULT:      -4.0      4.498      6.246
REMARK  2 active torsions:
REMARK  status: ('A' for Active; 'I' for Inactive)
REMARK    1  A    between atoms: C1_1  and  C3_3 
REMARK    2  A    between atoms: C7_7  and  C9_9 
ROOT
HETATM    1  C1  UNL     1     -33.363  18.517   0.503  1.00 20.00    -0.002 C 
HETATM    2  C2  UNL     1     -34.501  18.498   1.219  1.00 20.00     0.021 C 
HETATM    3  C4  UNL     1     -33.230  17.823  -0.828  1.00 20.00     0.047 C 
HETATM    4  C5  UNL     1     -35.753  17.810   0.743  1.00 20.00     0.052 C 
HETATM    5  C6  UNL     1     -35.711  17.417  -0.736  1.00 20.00     0.010 C 
HETATM    6  C7  UNL     1     -34.354  16.810  -1.103  1.00 20.00    -0.010 C 
HETATM    7 CL11 UNL     1     -34.679  19.263   2.765  1.00 20.00    -0.088 Cl
ENDROOT
BRANCH   1   8
HETATM    8  C3  UNL     1     -32.152  19.211   0.972  1.00 20.00     0.267 C 
HETATM    9  O10 UNL     1     -31.131  19.263   0.305  1.00 20.00    -0.302 OA
ENDBRANCH   1   8
BRANCH   6  10
HETATM   10  C9  UNL     1     -34.331  16.357  -2.562  1.00 20.00     0.000 C 
HETATM   11  C8  UNL     1     -35.631  15.748  -2.971  1.00 20.00     0.005 C 
ENDBRANCH   6  10
TORSDOF 2
ENDMDL
