MODEL 1
REMARK VINA RESULT:      -4.6      0.000      0.000
REMARK  2 active torsions:
REMARK  status: ('A' for Active; 'I' for Inactive)
REMARK    1  A    between atoms: C2_2  and  C4_4 
REMARK    2  A    between atoms: C2_2  and  C8_8 
ROOT
HETATM    1  C1  UNL     1     -34.997   4.556   4.692  1.00 20.00     0.071 C 
HETATM    2  C7  UNL     1     -34.360   5.111   2.377  1.00 20.00     0.033 C 
HETATM    3  C8  UNL     1     -34.658   5.655   3.771  1.00 20.00     0.158 C 
HETATM    4  N9  UNL     1     -35.266   3.693   5.419  1.00 20.00    -0.196 NA
ENDROOT
BRANCH   3   5
HETATM    5  C2  UNL     1     -33.457   6.436   4.276  1.00 20.00     0.148 C 
HETATM    6  O10 UNL     1     -33.327   6.835   5.427  1.00 20.00    -0.296 OA
BRANCH   5   7
HETATM    7  C4  UNL     1     -32.397   6.732   3.267  1.00 20.00     0.061 A 
HETATM    8  C3  UNL     1     -31.232   7.568   3.683  1.00 20.00     0.017 A 
HETATM    9  C5  UNL     1     -32.274   8.142   2.759  1.00 20.00    -0.007 A 
HETATM   10  C6  UNL     1     -31.955   8.377   1.323  1.00 20.00     0.011 C 
ENDBRANCH   5   7
ENDBRANCH   3   5
TORSDOF 2
ENDMDL
MODEL 2
REMARK VINA RESULT:      -4.5     11.196     11.811
REMARK  2 active torsions:
REMARK  status: ('A' for Active; 'I' for Inactive)
REMARK    1  A    between atoms: C2_2  and  C4_4 
REMARK    2  A    between atoms: C2_2  and  C8_8 
ROOT
HETATM    1  C1  UNL     1     -34.492  13.707  -4.380  1.00 20.00     0.071 C 
HETATM    2  C7  UNL     1     -32.497  14.919  -3.592  1.00 20.00     0.033 C 
HETATM    3  C8  UNL     1     -33.957  15.030  -4.019  1.00 20.00     0.158 C 
HETATM    4  N9  UNL     1     -34.916  12.666  -4.667  1.00 20.00    -0.196 NA
ENDROOT
BRANCH   3   5
HETATM    5  C2  UNL     1     -34.766  15.656  -2.896  1.00 20.00     0.148 C 
HETATM    6  O10 UNL     1     -35.986  15.596  -2.806  1.00 20.00    -0.296 OA
BRANCH   5   7
HETATM    7  C4  UNL     1     -33.985  16.398  -1.861  1.00 20.00     0.061 A 
HETATM    8  C3  UNL     1     -34.670  16.779  -0.590  1.00 20.00     0.017 A 
HETATM    9  C5  UNL     1     -34.333  17.838  -1.607  1.00 20.00    -0.007 A 
HETATM   10  C6  UNL     1     -33.244  18.818  -1.337  1.00 20.00     0.011 C 
ENDBRANCH   5   7
ENDBRANCH   3   5
TORSDOF 2
ENDMDL
MODEL 3
REMARK VINA RESULT:      -4.5     11.719     12.367
REMARK  2 active torsions:
REMARK  status: ('A' for Active; 'I' for Inactive)
REMARK    1  A    between atoms: C2_2  and  C4_4 
REMARK    2  A    between atoms: C2_2  and  C8_8 
ROOT
HETATM    1  C1  UNL     1     -34.743  13.730  -4.903  1.00 20.00     0.071 C 
HETATM    2  C7  UNL     1     -34.492  15.406  -6.691  1.00 20.00     0.033 C 
HETATM    3  C8  UNL     1     -34.720  15.172  -5.201  1.00 20.00     0.158 C 
HETATM    4  N9  UNL     1     -34.765  12.595  -4.665  1.00 20.00    -0.196 NA
ENDROOT
BRANCH   3   5
HETATM    5  C2  UNL     1     -33.632  15.874  -4.407  1.00 20.00     0.148 C 
HETATM    6  O10 UNL     1     -32.649  16.408  -4.905  1.00 20.00    -0.296 OA
BRANCH   5   7
HETATM    7  C4  UNL     1     -33.802  15.876  -2.924  1.00 20.00     0.061 A 
HETATM    8  C3  UNL     1     -35.177  16.041  -2.365  1.00 20.00     0.017 A 
HETATM    9  C5  UNL     1     -34.184  17.168  -2.255  1.00 20.00    -0.007 A 
HETATM   10  C6  UNL     1     -33.584  17.513  -0.935  1.00 20.00     0.011 C 
ENDBRANCH   5   7
ENDBRANCH   3   5
TORSDOF 2
ENDMDL
MODEL 4
REMARK VINA RESULT:      -4.5     11.469     12.047
REMARK  2 active torsions:
REMARK  status: ('A' for Active; 'I' for Inactive)
REMARK    1  A    between atoms: C2_2  and  C4_4 
REMARK    2  A    between atoms: C2_2  and  C8_8 
ROOT
HETATM    1  C1  UNL     1     -35.452  13.667  -4.164  1.00 20.00     0.071 C 
HETATM    2  C7  UNL     1     -37.666  14.732  -3.978  1.00 20.00     0.033 C 
HETATM    3  C8  UNL     1     -36.199  14.785  -3.564  1.00 20.00     0.158 C 
HETATM    4  N9  UNL     1     -34.861  12.786  -4.633  1.00 20.00    -0.196 NA
ENDROOT
BRANCH   3   5
HETATM    5  C2  UNL     1     -35.605  16.121  -3.979  1.00 20.00     0.148 C 
HETATM    6  O10 UNL     1     -35.677  16.588  -5.108  1.00 20.00    -0.296 OA
BRANCH   5   7
HETATM    7  C4  UNL     1     -34.880  16.874  -2.913  1.00 20.00     0.061 A 
HETATM    8  C3  UNL     1     -33.519  16.409  -2.513  1.00 20.00     0.017 A 
HETATM    9  C5  UNL     1     -34.684  16.207  -1.580  1.00 20.00    -0.007 A 
HETATM   10  C6  UNL     1     -34.795  17.015  -0.333  1.00 20.00     0.011 C 
ENDBRANCH   5   7
ENDBRANCH   3   5
TORSDOF 2
ENDMDL
MODEL 5
REMARK VINA RESULT:      -4.4      1.195      1.735
REMARK  2 active torsions:
REMARK  status: ('A' for Active; 'I' for Inactive)
REMARK    1  A    between atoms: C2_2  and  C4_4 
REMARK    2  A    between atoms: C2_2  and  C8_8 
ROOT
HETATM    1  C1  UNL     1     -34.486   4.549   5.450  1.00 20.00     0.071 C 
HETATM    2  C7  UNL     1     -33.869   6.774   6.310  1.00 20.00     0.033 C 
HETATM    3  C8  UNL     1     -33.619   5.720   5.236  1.00 20.00     0.158 C 
HETATM    4  N9  UNL     1     -35.166   3.624   5.617  1.00 20.00    -0.196 NA
ENDROOT
BRANCH   3   5
HETATM    5  C2  UNL     1     -33.857   6.330   3.865  1.00 20.00     0.148 C 
HETATM    6  O10 UNL     1     -34.964   6.562   3.395  1.00 20.00    -0.296 OA
BRANCH   5   7
HETATM    7  C4  UNL     1     -32.636   6.636   3.063  1.00 20.00     0.061 A 
HETATM    8  C3  UNL     1     -31.541   7.421   3.706  1.00 20.00     0.017 A 
HETATM    9  C5  UNL     1     -32.399   8.061   2.646  1.00 20.00    -0.007 A 
HETATM   10  C6  UNL     1     -31.837   8.345   1.296  1.00 20.00     0.011 C 
ENDBRANCH   5   7
ENDBRANCH   3   5
TORSDOF 2
ENDMDL
MODEL 6
REMARK VINA RESULT:      -4.4     11.193     11.865
REMARK  2 active torsions:
REMARK  status: ('A' for Active; 'I' for Inactive)
REMARK    1  A    between atoms: C2_2  and  C4_4 
REMARK    2  A    between atoms: C2_2  and  C8_8 
ROOT
HETATM    1  C1  UNL     1     -36.863  14.520  -4.143  1.00 20.00     0.071 C 
HETATM    2  C7  UNL     1     -35.189  14.195  -5.922  1.00 20.00     0.033 C 
HETATM    3  C8  UNL     1     -35.516  14.893  -4.605  1.00 20.00     0.158 C 
HETATM    4  N9  UNL     1     -37.926  14.230  -3.778  1.00 20.00    -0.196 NA
ENDROOT
BRANCH   3   5
HETATM    5  C2  UNL     1     -34.466  14.532  -3.568  1.00 20.00     0.148 C 
HETATM    6  O10 UNL     1     -34.099  13.389  -3.326  1.00 20.00    -0.296 OA
BRANCH   5   7
HETATM    7  C4  UNL     1     -33.881  15.673  -2.804  1.00 20.00     0.061 A 
HETATM    8  C3  UNL     1     -34.627  16.196  -1.621  1.00 20.00     0.017 A 
HETATM    9  C5  UNL     1     -34.566  17.009  -2.887  1.00 20.00    -0.007 A 
HETATM   10  C6  UNL     1     -33.744  18.251  -2.942  1.00 20.00     0.011 C 
ENDBRANCH   5   7
ENDBRANCH   3   5
TORSDOF 2
ENDMDL
MODEL 7
REMARK VINA RESULT:      -4.3     11.099     12.433
REMARK  2 active torsions:
REMARK  status: ('A' for Active; 'I' for Inactive)
REMARK    1  A    between atoms: C2_2  and  C4_4 
REMARK    2  A    between atoms: C2_2  and  C8_8 
ROOT
HETATM    1  C1  UNL     1     -34.851  15.417  -2.832  1.00 20.00     0.071 C 
HETATM    2  C7  UNL     1     -32.631  14.726  -3.649  1.00 20.00     0.033 C 
HETATM    3  C8  UNL     1     -34.064  14.289  -3.360  1.00 20.00     0.158 C 
HETATM    4  N9  UNL     1     -35.473  16.302  -2.414  1.00 20.00    -0.196 NA
ENDROOT
BRANCH   3   5
HETATM    5  C2  UNL     1     -34.690  13.736  -4.629  1.00 20.00     0.148 C 
HETATM    6  O10 UNL     1     -34.747  12.545  -4.909  1.00 20.00    -0.296 OA
BRANCH   5   7
HETATM    7  C4  UNL     1     -35.245  14.746  -5.579  1.00 20.00     0.061 A 
HETATM    8  C3  UNL     1     -35.451  14.346  -7.002  1.00 20.00     0.017 A 
HETATM    9  C5  UNL     1     -34.336  15.293  -6.644  1.00 20.00    -0.007 A 
HETATM   10  C6  UNL     1     -34.427  16.733  -7.015  1.00 20.00     0.011 C 
ENDBRANCH   5   7
ENDBRANCH   3   5
TORSDOF 2
ENDMDL
MODEL 8
REMARK VINA RESULT:      -4.3     11.458     11.808
REMARK  2 active torsions:
REMARK  status: ('A' for Active; 'I' for Inactive)
REMARK    1  A    between atoms: C2_2  and  C4_4 
REMARK    2  A    between atoms: C2_2  and  C8_8 
ROOT
HETATM    1  C1  UNL     1     -36.647  14.453  -4.075  1.00 20.00     0.071 C 
HETATM    2  C7  UNL     1     -34.745  13.295  -5.130  1.00 20.00     0.033 C 
HETATM    3  C8  UNL     1     -35.287  14.624  -4.612  1.00 20.00     0.158 C 
HETATM    4  N9  UNL     1     -37.720  14.322  -3.653  1.00 20.00    -0.196 NA
ENDROOT
BRANCH   3   5
HETATM    5  C2  UNL     1     -34.348  15.173  -3.552  1.00 20.00     0.148 C 
HETATM    6  O10 UNL     1     -33.198  14.789  -3.381  1.00 20.00    -0.296 OA
BRANCH   5   7
HETATM    7  C4  UNL     1     -34.910  16.239  -2.669  1.00 20.00     0.061 A 
HETATM    8  C3  UNL     1     -34.273  17.589  -2.691  1.00 20.00     0.017 A 
HETATM    9  C5  UNL     1     -34.089  16.693  -1.494  1.00 20.00    -0.007 A 
HETATM   10  C6  UNL     1     -34.766  17.011  -0.206  1.00 20.00     0.011 C 
ENDBRANCH   5   7
ENDBRANCH   3   5
TORSDOF 2
ENDMDL
MODEL 9
REMARK VINA RESULT:      -4.3     11.353     12.297
REMARK  2 active torsions:
REMARK  status: ('A' for Active; 'I' for Inactive)
REMARK    1  A    between atoms: C2_2  and  C4_4 
REMARK    2  A    between atoms: C2_2  and  C8_8 
ROOT
HETATM    1  C1  UNL     1     -33.394  16.104  -4.397  1.00 20.00     0.071 C 
HETATM    2  C7  UNL     1     -34.058  13.870  -3.597  1.00 20.00     0.033 C 
HETATM    3  C8  UNL     1     -33.857  15.337  -3.229  1.00 20.00     0.158 C 
HETATM    4  N9  UNL     1     -33.027  16.710  -5.315  1.00 20.00    -0.196 NA
ENDROOT
BRANCH   3   5
HETATM    5  C2  UNL     1     -35.158  15.904  -2.687  1.00 20.00     0.148 C 
HETATM    6  O10 UNL     1     -36.270  15.479  -2.974  1.00 20.00    -0.296 OA
BRANCH   5   7
HETATM    7  C4  UNL     1     -35.029  17.066  -1.758  1.00 20.00     0.061 A 
HETATM    8  C3  UNL     1     -33.672  17.423  -1.248  1.00 20.00     0.017 A 
HETATM    9  C5  UNL     1     -34.679  16.792  -0.322  1.00 20.00    -0.007 A 
HETATM   10  C6  UNL     1     -35.317  17.599   0.755  1.00 20.00     0.011 C 
ENDBRANCH   5   7
ENDBRANCH   3   5
TORSDOF 2
ENDMDL
