MODEL 1
REMARK VINA RESULT:      -4.6      0.000      0.000
REMARK  3 active torsions:
REMARK  status: ('A' for Active; 'I' for Inactive)
REMARK    1  A    between atoms: C2_2  and  C5_5 
REMARK    2  A    between atoms: C2_2  and  C7_7 
REMARK    3  A    between atoms: C5_5  and  C6_6 
ROOT
HETATM    1  C1  UNL     1     -34.024   6.540   6.279  1.00 20.00     0.071 C 
HETATM    2  C4  UNL     1     -34.645   4.199   5.813  1.00 20.00     0.033 C 
HETATM    3  C7  UNL     1     -34.698   5.643   5.325  1.00 20.00     0.158 C 
HETATM    4  N8  UNL     1     -33.496   7.249   7.031  1.00 20.00    -0.196 NA
ENDROOT
BRANCH   3   5
HETATM    5  C2  UNL     1     -34.060   5.735   3.943  1.00 20.00     0.144 C 
HETATM    6  O9  UNL     1     -34.576   5.215   2.953  1.00 20.00    -0.297 OA
BRANCH   5   7
HETATM    7  C5  UNL     1     -32.743   6.495   3.862  1.00 20.00     0.079 C 
BRANCH   7   8
HETATM    8  C6  UNL     1     -32.272   6.763   2.434  1.00 20.00     0.003 C 
HETATM    9  C3  UNL     1     -32.133   8.250   2.136  1.00 20.00     0.005 C 
ENDBRANCH   7   8
ENDBRANCH   5   7
ENDBRANCH   3   5
TORSDOF 3
ENDMDL
MODEL 2
REMARK VINA RESULT:      -4.6      1.392      1.826
REMARK  3 active torsions:
REMARK  status: ('A' for Active; 'I' for Inactive)
REMARK    1  A    between atoms: C2_2  and  C5_5 
REMARK    2  A    between atoms: C2_2  and  C7_7 
REMARK    3  A    between atoms: C5_5  and  C6_6 
ROOT
HETATM    1  C1  UNL     1     -33.933   6.486   5.374  1.00 20.00     0.071 C 
HETATM    2  C4  UNL     1     -34.822   5.301   3.403  1.00 20.00     0.033 C 
HETATM    3  C7  UNL     1     -34.008   6.488   3.903  1.00 20.00     0.158 C 
HETATM    4  N8  UNL     1     -33.875   6.487   6.533  1.00 20.00    -0.196 NA
ENDROOT
BRANCH   3   5
HETATM    5  C2  UNL     1     -32.614   6.446   3.284  1.00 20.00     0.144 C 
HETATM    6  O9  UNL     1     -32.075   5.384   2.969  1.00 20.00    -0.297 OA
BRANCH   5   7
HETATM    7  C5  UNL     1     -31.926   7.790   3.091  1.00 20.00     0.079 C 
BRANCH   7   8
HETATM    8  C6  UNL     1     -31.956   8.296   1.650  1.00 20.00     0.003 C 
HETATM    9  C3  UNL     1     -32.480   9.722   1.546  1.00 20.00     0.005 C 
ENDBRANCH   7   8
ENDBRANCH   5   7
ENDBRANCH   3   5
TORSDOF 3
ENDMDL
MODEL 3
REMARK VINA RESULT:      -4.5      2.042      2.435
REMARK  3 active torsions:
REMARK  status: ('A' for Active; 'I' for Inactive)
REMARK    1  A    between atoms: C2_2  and  C5_5 
REMARK    2  A    between atoms: C2_2  and  C7_7 
REMARK    3  A    between atoms: C5_5  and  C6_6 
ROOT
HETATM    1  C1  UNL     1     -34.977   4.592   4.833  1.00 20.00     0.071 C 
HETATM    2  C4  UNL     1     -34.522   5.218   2.492  1.00 20.00     0.033 C 
HETATM    3  C7  UNL     1     -34.649   5.708   3.930  1.00 20.00     0.158 C 
HETATM    4  N8  UNL     1     -35.238   3.713   5.545  1.00 20.00    -0.196 NA
ENDROOT
BRANCH   3   5
HETATM    5  C2  UNL     1     -33.351   6.389   4.351  1.00 20.00     0.144 C 
HETATM    6  O9  UNL     1     -33.200   6.860   5.478  1.00 20.00    -0.297 OA
BRANCH   5   7
HETATM    7  C5  UNL     1     -32.260   6.463   3.292  1.00 20.00     0.079 C 
BRANCH   7   8
HETATM    8  C6  UNL     1     -31.727   7.875   3.054  1.00 20.00     0.003 C 
HETATM    9  C3  UNL     1     -32.080   8.405   1.671  1.00 20.00     0.005 C 
ENDBRANCH   7   8
ENDBRANCH   5   7
ENDBRANCH   3   5
TORSDOF 3
ENDMDL
MODEL 4
REMARK VINA RESULT:      -4.4     12.210     13.076
REMARK  3 active torsions:
REMARK  status: ('A' for Active; 'I' for Inactive)
REMARK    1  A    between atoms: C2_2  and  C5_5 
REMARK    2  A    between atoms: C2_2  and  C7_7 
REMARK    3  A    between atoms: C5_5  and  C6_6 
ROOT
HETATM    1  C1  UNL     1     -34.767  13.728  -4.967  1.00 20.00     0.071 C 
HETATM    2  C4  UNL     1     -34.272  15.285  -6.816  1.00 20.00     0.033 C 
HETATM    3  C7  UNL     1     -34.679  15.147  -5.353  1.00 20.00     0.158 C 
HETATM    4  N8  UNL     1     -34.839  12.610  -4.664  1.00 20.00    -0.196 NA
ENDROOT
BRANCH   3   5
HETATM    5  C2  UNL     1     -33.678  15.891  -4.475  1.00 20.00     0.144 C 
HETATM    6  O9  UNL     1     -32.866  16.687  -4.947  1.00 20.00    -0.297 OA
BRANCH   5   7
HETATM    7  C5  UNL     1     -33.734  15.582  -2.985  1.00 20.00     0.079 C 
BRANCH   7   8
HETATM    8  C6  UNL     1     -34.918  16.226  -2.266  1.00 20.00     0.003 C 
HETATM    9  C3  UNL     1     -34.568  16.672  -0.853  1.00 20.00     0.005 C 
ENDBRANCH   7   8
ENDBRANCH   5   7
ENDBRANCH   3   5
TORSDOF 3
ENDMDL
MODEL 5
REMARK VINA RESULT:      -4.4     11.528     12.359
REMARK  3 active torsions:
REMARK  status: ('A' for Active; 'I' for Inactive)
REMARK    1  A    between atoms: C2_2  and  C5_5 
REMARK    2  A    between atoms: C2_2  and  C7_7 
REMARK    3  A    between atoms: C5_5  and  C6_6 
ROOT
HETATM    1  C1  UNL     1     -37.307  14.617  -4.102  1.00 20.00     0.071 C 
HETATM    2  C4  UNL     1     -36.002  14.815  -6.185  1.00 20.00     0.033 C 
HETATM    3  C7  UNL     1     -35.970  14.873  -4.662  1.00 20.00     0.158 C 
HETATM    4  N8  UNL     1     -38.362  14.417  -3.661  1.00 20.00    -0.196 NA
ENDROOT
BRANCH   3   5
HETATM    5  C2  UNL     1     -34.954  13.864  -4.137  1.00 20.00     0.144 C 
HETATM    6  O9  UNL     1     -35.028  12.665  -4.408  1.00 20.00    -0.297 OA
BRANCH   5   7
HETATM    7  C5  UNL     1     -33.852  14.424  -3.247  1.00 20.00     0.079 C 
BRANCH   7   8
HETATM    8  C6  UNL     1     -33.976  15.923  -2.984  1.00 20.00     0.003 C 
HETATM    9  C3  UNL     1     -34.558  16.228  -1.610  1.00 20.00     0.005 C 
ENDBRANCH   7   8
ENDBRANCH   5   7
ENDBRANCH   3   5
TORSDOF 3
ENDMDL
MODEL 6
REMARK VINA RESULT:      -4.4      1.591      1.969
REMARK  3 active torsions:
REMARK  status: ('A' for Active; 'I' for Inactive)
REMARK    1  A    between atoms: C2_2  and  C5_5 
REMARK    2  A    between atoms: C2_2  and  C7_7 
REMARK    3  A    between atoms: C5_5  and  C6_6 
ROOT
HETATM    1  C1  UNL     1     -34.610   4.550   5.711  1.00 20.00     0.071 C 
HETATM    2  C4  UNL     1     -33.910   6.821   6.372  1.00 20.00     0.033 C 
HETATM    3  C7  UNL     1     -33.649   5.635   5.450  1.00 20.00     0.158 C 
HETATM    4  N8  UNL     1     -35.365   3.694   5.918  1.00 20.00    -0.196 NA
ENDROOT
BRANCH   3   5
HETATM    5  C2  UNL     1     -33.723   6.095   3.998  1.00 20.00     0.144 C 
HETATM    6  O9  UNL     1     -34.794   6.371   3.458  1.00 20.00    -0.297 OA
BRANCH   5   7
HETATM    7  C5  UNL     1     -32.398   6.179   3.253  1.00 20.00     0.079 C 
BRANCH   7   8
HETATM    8  C6  UNL     1     -31.789   7.580   3.234  1.00 20.00     0.003 C 
HETATM    9  C3  UNL     1     -32.080   8.323   1.937  1.00 20.00     0.005 C 
ENDBRANCH   7   8
ENDBRANCH   5   7
ENDBRANCH   3   5
TORSDOF 3
ENDMDL
MODEL 7
REMARK VINA RESULT:      -4.3     11.781     12.270
REMARK  3 active torsions:
REMARK  status: ('A' for Active; 'I' for Inactive)
REMARK    1  A    between atoms: C2_2  and  C5_5 
REMARK    2  A    between atoms: C2_2  and  C7_7 
REMARK    3  A    between atoms: C5_5  and  C6_6 
ROOT
HETATM    1  C1  UNL     1     -34.439  13.663  -4.445  1.00 20.00     0.071 C 
HETATM    2  C4  UNL     1     -32.438  14.803  -3.565  1.00 20.00     0.033 C 
HETATM    3  C7  UNL     1     -33.872  14.965  -4.056  1.00 20.00     0.158 C 
HETATM    4  N8  UNL     1     -34.886  12.637  -4.755  1.00 20.00    -0.196 NA
ENDROOT
BRANCH   3   5
HETATM    5  C2  UNL     1     -34.711  15.623  -2.965  1.00 20.00     0.144 C 
HETATM    6  O9  UNL     1     -35.927  15.451  -2.888  1.00 20.00    -0.297 OA
BRANCH   5   7
HETATM    7  C5  UNL     1     -33.957  16.514  -1.987  1.00 20.00     0.079 C 
BRANCH   7   8
HETATM    8  C6  UNL     1     -34.693  16.742  -0.668  1.00 20.00     0.003 C 
HETATM    9  C3  UNL     1     -34.096  17.886   0.141  1.00 20.00     0.005 C 
ENDBRANCH   7   8
ENDBRANCH   5   7
ENDBRANCH   3   5
TORSDOF 3
ENDMDL
MODEL 8
REMARK VINA RESULT:      -4.3      2.021      3.941
REMARK  3 active torsions:
REMARK  status: ('A' for Active; 'I' for Inactive)
REMARK    1  A    between atoms: C2_2  and  C5_5 
REMARK    2  A    between atoms: C2_2  and  C7_7 
REMARK    3  A    between atoms: C5_5  and  C6_6 
ROOT
HETATM    1  C1  UNL     1     -32.315   7.663   2.679  1.00 20.00     0.071 C 
HETATM    2  C4  UNL     1     -32.166   5.207   2.841  1.00 20.00     0.033 C 
HETATM    3  C7  UNL     1     -32.414   6.511   3.591  1.00 20.00     0.158 C 
HETATM    4  N8  UNL     1     -32.235   8.572   1.962  1.00 20.00    -0.196 NA
ENDROOT
BRANCH   3   5
HETATM    5  C2  UNL     1     -33.783   6.459   4.261  1.00 20.00     0.144 C 
HETATM    6  O9  UNL     1     -34.827   6.466   3.609  1.00 20.00    -0.297 OA
BRANCH   5   7
HETATM    7  C5  UNL     1     -33.782   6.412   5.783  1.00 20.00     0.079 C 
BRANCH   7   8
HETATM    8  C6  UNL     1     -34.802   5.439   6.370  1.00 20.00     0.003 C 
HETATM    9  C3  UNL     1     -34.685   4.042   5.774  1.00 20.00     0.005 C 
ENDBRANCH   7   8
ENDBRANCH   5   7
ENDBRANCH   3   5
TORSDOF 3
ENDMDL
MODEL 9
REMARK VINA RESULT:      -4.2     11.852     13.213
REMARK  3 active torsions:
REMARK  status: ('A' for Active; 'I' for Inactive)
REMARK    1  A    between atoms: C2_2  and  C5_5 
REMARK    2  A    between atoms: C2_2  and  C7_7 
REMARK    3  A    between atoms: C5_5  and  C6_6 
ROOT
HETATM    1  C1  UNL     1     -34.509  13.683  -4.021  1.00 20.00     0.071 C 
HETATM    2  C4  UNL     1     -34.679  15.639  -2.529  1.00 20.00     0.033 C 
HETATM    3  C7  UNL     1     -33.875  14.952  -3.626  1.00 20.00     0.158 C 
HETATM    4  N8  UNL     1     -35.007  12.681  -4.330  1.00 20.00    -0.196 NA
ENDROOT
BRANCH   3   5
HETATM    5  C2  UNL     1     -33.739  15.891  -4.821  1.00 20.00     0.144 C 
HETATM    6  O9  UNL     1     -32.747  16.603  -4.978  1.00 20.00    -0.297 OA
BRANCH   5   7
HETATM    7  C5  UNL     1     -34.907  15.905  -5.797  1.00 20.00     0.079 C 
BRANCH   7   8
HETATM    8  C6  UNL     1     -34.533  15.468  -7.212  1.00 20.00     0.003 C 
HETATM    9  C3  UNL     1     -35.522  14.465  -7.792  1.00 20.00     0.005 C 
ENDBRANCH   7   8
ENDBRANCH   5   7
ENDBRANCH   3   5
TORSDOF 3
ENDMDL
