MODEL 1
REMARK VINA RESULT:      -3.8      0.000      0.000
REMARK  3 active torsions:
REMARK  status: ('A' for Active; 'I' for Inactive)
REMARK    1  A    between atoms: C4_4  and  N9_9 
REMARK    2  A    between atoms: C6_6  and  N9_9 
REMARK    3  A    between atoms: C7_7  and  N9_9 
ROOT
HETATM    1  C1  UNL     1     -34.100  13.707  -3.983  1.00 20.00     0.089 C 
HETATM    2  C6  UNL     1     -33.098  14.707  -3.623  1.00 20.00     0.396 C 
HETATM    3  N8  UNL     1     -34.894  12.911  -4.270  1.00 20.00    -0.195 NA
ENDROOT
BRANCH   2   4
HETATM    4  N9  UNL     1     -33.732  15.971  -3.252  1.00 20.00     0.105 N 
BRANCH   4   5
HETATM    5  C4  UNL     1     -34.278  16.635  -4.434  1.00 20.00     0.224 A 
HETATM    6  C2  UNL     1     -33.799  18.006  -4.827  1.00 20.00     0.038 A 
HETATM    7  C3  UNL     1     -33.435  16.817  -5.666  1.00 20.00     0.038 A 
ENDBRANCH   4   5
BRANCH   4   8
HETATM    8  C7  UNL     1     -34.785  15.743  -2.262  1.00 20.00     0.269 C 
HETATM    9  C5  UNL     1     -34.567  16.577  -1.045  1.00 20.00     0.037 C 
ENDBRANCH   4   8
ENDBRANCH   2   4
TORSDOF 3
ENDMDL
MODEL 2
REMARK VINA RESULT:      -3.7      0.882      2.801
REMARK  3 active torsions:
REMARK  status: ('A' for Active; 'I' for Inactive)
REMARK    1  A    between atoms: C4_4  and  N9_9 
REMARK    2  A    between atoms: C6_6  and  N9_9 
REMARK    3  A    between atoms: C7_7  and  N9_9 
ROOT
HETATM    1  C1  UNL     1     -34.176  13.648  -4.168  1.00 20.00     0.089 C 
HETATM    2  C6  UNL     1     -33.339  14.755  -3.710  1.00 20.00     0.396 C 
HETATM    3  N8  UNL     1     -34.839  12.767  -4.531  1.00 20.00    -0.195 NA
ENDROOT
BRANCH   2   4
HETATM    4  N9  UNL     1     -33.984  16.041  -3.973  1.00 20.00     0.105 N 
BRANCH   4   5
HETATM    5  C4  UNL     1     -34.003  16.861  -2.763  1.00 20.00     0.224 A 
HETATM    6  C2  UNL     1     -35.304  17.379  -2.214  1.00 20.00     0.038 A 
HETATM    7  C3  UNL     1     -34.551  16.311  -1.475  1.00 20.00     0.038 A 
ENDBRANCH   4   5
BRANCH   4   8
HETATM    8  C7  UNL     1     -33.299  16.744  -5.057  1.00 20.00     0.269 C 
HETATM    9  C5  UNL     1     -34.182  16.882  -6.251  1.00 20.00     0.037 C 
ENDBRANCH   4   8
ENDBRANCH   2   4
TORSDOF 3
ENDMDL
MODEL 3
REMARK VINA RESULT:      -3.7      1.791      2.762
REMARK  3 active torsions:
REMARK  status: ('A' for Active; 'I' for Inactive)
REMARK    1  A    between atoms: C4_4  and  N9_9 
REMARK    2  A    between atoms: C6_6  and  N9_9 
REMARK    3  A    between atoms: C7_7  and  N9_9 
ROOT
HETATM    1  C1  UNL     1     -34.585  13.725  -4.103  1.00 20.00     0.089 C 
HETATM    2  C6  UNL     1     -34.296  15.033  -3.519  1.00 20.00     0.396 C 
HETATM    3  N8  UNL     1     -34.812  12.686  -4.569  1.00 20.00    -0.195 NA
ENDROOT
BRANCH   2   4
HETATM    4  N9  UNL     1     -35.386  15.466  -2.645  1.00 20.00     0.105 N 
BRANCH   4   5
HETATM    5  C4  UNL     1     -35.061  16.746  -2.019  1.00 20.00     0.224 A 
HETATM    6  C2  UNL     1     -34.762  16.819  -0.546  1.00 20.00     0.038 A 
HETATM    7  C3  UNL     1     -33.662  17.031  -1.545  1.00 20.00     0.038 A 
ENDBRANCH   4   5
BRANCH   4   8
HETATM    8  C7  UNL     1     -36.635  15.569  -3.400  1.00 20.00     0.269 C 
HETATM    9  C5  UNL     1     -36.690  16.839  -4.179  1.00 20.00     0.037 C 
ENDBRANCH   4   8
ENDBRANCH   2   4
TORSDOF 3
ENDMDL
MODEL 4
REMARK VINA RESULT:      -3.7      1.883      2.942
REMARK  3 active torsions:
REMARK  status: ('A' for Active; 'I' for Inactive)
REMARK    1  A    between atoms: C4_4  and  N9_9 
REMARK    2  A    between atoms: C6_6  and  N9_9 
REMARK    3  A    between atoms: C7_7  and  N9_9 
ROOT
HETATM    1  C1  UNL     1     -37.296  15.067  -3.741  1.00 20.00     0.089 C 
HETATM    2  C6  UNL     1     -36.160  15.982  -3.820  1.00 20.00     0.396 C 
HETATM    3  N8  UNL     1     -38.201  14.342  -3.680  1.00 20.00    -0.195 NA
ENDROOT
BRANCH   2   4
HETATM    4  N9  UNL     1     -34.987  15.415  -3.156  1.00 20.00     0.105 N 
BRANCH   4   5
HETATM    5  C4  UNL     1     -34.118  14.755  -4.128  1.00 20.00     0.224 A 
HETATM    6  C2  UNL     1     -33.273  13.579  -3.719  1.00 20.00     0.038 A 
HETATM    7  C3  UNL     1     -34.446  13.377  -4.634  1.00 20.00     0.038 A 
ENDBRANCH   4   5
BRANCH   4   8
HETATM    8  C7  UNL     1     -34.252  16.458  -2.439  1.00 20.00     0.269 C 
HETATM    9  C5  UNL     1     -34.653  16.508  -1.003  1.00 20.00     0.037 C 
ENDBRANCH   4   8
ENDBRANCH   2   4
TORSDOF 3
ENDMDL
MODEL 5
REMARK VINA RESULT:      -3.7      2.463      3.389
REMARK  3 active torsions:
REMARK  status: ('A' for Active; 'I' for Inactive)
REMARK    1  A    between atoms: C4_4  and  N9_9 
REMARK    2  A    between atoms: C6_6  and  N9_9 
REMARK    3  A    between atoms: C7_7  and  N9_9 
ROOT
HETATM    1  C1  UNL     1     -37.400  14.776  -4.025  1.00 20.00     0.089 C 
HETATM    2  C6  UNL     1     -36.102  15.256  -4.495  1.00 20.00     0.396 C 
HETATM    3  N8  UNL     1     -38.431  14.398  -3.650  1.00 20.00    -0.195 NA
ENDROOT
BRANCH   2   4
HETATM    4  N9  UNL     1     -35.434  14.240  -5.307  1.00 20.00     0.105 N 
BRANCH   4   5
HETATM    5  C4  UNL     1     -34.442  14.859  -6.186  1.00 20.00     0.224 A 
HETATM    6  C2  UNL     1     -34.680  14.933  -7.669  1.00 20.00     0.038 A 
HETATM    7  C3  UNL     1     -34.722  16.183  -6.840  1.00 20.00     0.038 A 
ENDBRANCH   4   5
BRANCH   4   8
HETATM    8  C7  UNL     1     -34.803  13.236  -4.451  1.00 20.00     0.269 C 
HETATM    9  C5  UNL     1     -33.539  13.756  -3.854  1.00 20.00     0.037 C 
ENDBRANCH   4   8
ENDBRANCH   2   4
TORSDOF 3
ENDMDL
MODEL 6
REMARK VINA RESULT:      -3.6      1.334      3.354
REMARK  3 active torsions:
REMARK  status: ('A' for Active; 'I' for Inactive)
REMARK    1  A    between atoms: C4_4  and  N9_9 
REMARK    2  A    between atoms: C6_6  and  N9_9 
REMARK    3  A    between atoms: C7_7  and  N9_9 
ROOT
HETATM    1  C1  UNL     1     -33.349  16.621  -4.878  1.00 20.00     0.089 C 
HETATM    2  C6  UNL     1     -33.014  15.599  -3.888  1.00 20.00     0.396 C 
HETATM    3  N8  UNL     1     -33.613  17.432  -5.665  1.00 20.00    -0.195 NA
ENDROOT
BRANCH   2   4
HETATM    4  N9  UNL     1     -34.153  15.331  -3.010  1.00 20.00     0.105 N 
BRANCH   4   5
HETATM    5  C4  UNL     1     -34.562  16.551  -2.317  1.00 20.00     0.224 A 
HETATM    6  C2  UNL     1     -34.785  16.543  -0.829  1.00 20.00     0.038 A 
HETATM    7  C3  UNL     1     -33.606  17.270  -1.406  1.00 20.00     0.038 A 
ENDBRANCH   4   5
BRANCH   4   8
HETATM    8  C7  UNL     1     -35.270  14.778  -3.777  1.00 20.00     0.269 C 
HETATM    9  C5  UNL     1     -34.995  13.372  -4.188  1.00 20.00     0.037 C 
ENDBRANCH   4   8
ENDBRANCH   2   4
TORSDOF 3
ENDMDL
MODEL 7
REMARK VINA RESULT:      -3.5      1.506      3.356
REMARK  3 active torsions:
REMARK  status: ('A' for Active; 'I' for Inactive)
REMARK    1  A    between atoms: C4_4  and  N9_9 
REMARK    2  A    between atoms: C6_6  and  N9_9 
REMARK    3  A    between atoms: C7_7  and  N9_9 
ROOT
HETATM    1  C1  UNL     1     -33.472  17.570  -5.213  1.00 20.00     0.089 C 
HETATM    2  C6  UNL     1     -33.314  16.365  -4.402  1.00 20.00     0.396 C 
HETATM    3  N8  UNL     1     -33.595  18.528  -5.857  1.00 20.00    -0.195 NA
ENDROOT
BRANCH   2   4
HETATM    4  N9  UNL     1     -34.602  15.918  -3.874  1.00 20.00     0.105 N 
BRANCH   4   5
HETATM    5  C4  UNL     1     -34.491  14.567  -3.328  1.00 20.00     0.224 A 
HETATM    6  C2  UNL     1     -34.971  13.383  -4.121  1.00 20.00     0.038 A 
HETATM    7  C3  UNL     1     -33.501  13.591  -3.901  1.00 20.00     0.038 A 
ENDBRANCH   4   5
BRANCH   4   8
HETATM    8  C7  UNL     1     -35.084  16.846  -2.850  1.00 20.00     0.269 C 
HETATM    9  C5  UNL     1     -34.668  16.405  -1.488  1.00 20.00     0.037 C 
ENDBRANCH   4   8
ENDBRANCH   2   4
TORSDOF 3
ENDMDL
MODEL 8
REMARK VINA RESULT:      -3.5      1.984      3.260
REMARK  3 active torsions:
REMARK  status: ('A' for Active; 'I' for Inactive)
REMARK    1  A    between atoms: C4_4  and  N9_9 
REMARK    2  A    between atoms: C6_6  and  N9_9 
REMARK    3  A    between atoms: C7_7  and  N9_9 
ROOT
HETATM    1  C1  UNL     1     -37.267  14.953  -4.039  1.00 20.00     0.089 C 
HETATM    2  C6  UNL     1     -36.118  15.757  -4.450  1.00 20.00     0.396 C 
HETATM    3  N8  UNL     1     -38.181  14.315  -3.713  1.00 20.00    -0.195 NA
ENDROOT
BRANCH   2   4
HETATM    4  N9  UNL     1     -34.938  15.427  -3.653  1.00 20.00     0.105 N 
BRANCH   4   5
HETATM    5  C4  UNL     1     -35.111  15.878  -2.273  1.00 20.00     0.224 A 
HETATM    6  C2  UNL     1     -34.046  16.700  -1.601  1.00 20.00     0.038 A 
HETATM    7  C3  UNL     1     -35.358  17.330  -1.969  1.00 20.00     0.038 A 
ENDBRANCH   4   5
BRANCH   4   8
HETATM    8  C7  UNL     1     -34.681  13.988  -3.692  1.00 20.00     0.269 C 
HETATM    9  C5  UNL     1     -33.217  13.704  -3.724  1.00 20.00     0.037 C 
ENDBRANCH   4   8
ENDBRANCH   2   4
TORSDOF 3
ENDMDL
MODEL 9
REMARK VINA RESULT:      -3.5      2.353      3.748
REMARK  3 active torsions:
REMARK  status: ('A' for Active; 'I' for Inactive)
REMARK    1  A    between atoms: C4_4  and  N9_9 
REMARK    2  A    between atoms: C6_6  and  N9_9 
REMARK    3  A    between atoms: C7_7  and  N9_9 
ROOT
HETATM    1  C1  UNL     1     -37.237  15.042  -4.205  1.00 20.00     0.089 C 
HETATM    2  C6  UNL     1     -36.296  16.012  -4.761  1.00 20.00     0.396 C 
HETATM    3  N8  UNL     1     -37.986  14.273  -3.763  1.00 20.00    -0.195 NA
ENDROOT
BRANCH   2   4
HETATM    4  N9  UNL     1     -35.019  15.376  -5.081  1.00 20.00     0.105 N 
BRANCH   4   5
HETATM    5  C4  UNL     1     -34.383  14.868  -3.867  1.00 20.00     0.224 A 
HETATM    6  C2  UNL     1     -32.916  15.095  -3.622  1.00 20.00     0.038 A 
HETATM    7  C3  UNL     1     -33.935  15.812  -2.786  1.00 20.00     0.038 A 
ENDBRANCH   4   5
BRANCH   4   8
HETATM    8  C7  UNL     1     -35.214  14.295  -6.047  1.00 20.00     0.269 C 
HETATM    9  C5  UNL     1     -34.866  14.740  -7.427  1.00 20.00     0.037 C 
ENDBRANCH   4   8
ENDBRANCH   2   4
TORSDOF 3
ENDMDL
