MODEL 1
REMARK VINA RESULT:      -3.8      0.000      0.000
REMARK  3 active torsions:
REMARK  status: ('A' for Active; 'I' for Inactive)
REMARK    1  A    between atoms: C1_1  and  C4_4 
REMARK       I    between atoms: C1_1  and  N7_7 
REMARK    2  A    between atoms: C5_5  and  C6_6 
REMARK    3  A    between atoms: C6_6  and  N7_7 
ROOT
HETATM    1  C1  UNL     1     -35.534  14.153  -4.088  1.00 20.00     0.233 C 
HETATM    2  C3  UNL     1     -33.306  15.313  -3.702  1.00 20.00     0.152 C 
HETATM    3  N7  UNL     1     -34.719  15.077  -3.420  1.00 20.00    -0.356 N 
HETATM    4  O8  UNL     1     -36.726  13.988  -3.815  1.00 20.00    -0.272 OA
ENDROOT
BRANCH   3   5
HETATM    5  C6  UNL     1     -35.285  15.898  -2.356  1.00 20.00     0.125 C 
BRANCH   5   6
HETATM    6  C5  UNL     1     -34.212  16.606  -1.537  1.00 20.00     0.015 C 
HETATM    7  C2  UNL     1     -34.726  17.092  -0.189  1.00 20.00     0.006 C 
ENDBRANCH   5   6
ENDBRANCH   3   5
BRANCH   1   8
HETATM    8  C4  UNL     1     -34.856  13.353  -5.181  1.00 20.00     0.217 C 
HETATM    9 CL9  UNL     1     -35.020  14.166  -6.751  1.00 20.00    -0.121 Cl
ENDBRANCH   1   8
TORSDOF 3
ENDMDL
MODEL 2
REMARK VINA RESULT:      -3.7      1.689      2.004
REMARK  3 active torsions:
REMARK  status: ('A' for Active; 'I' for Inactive)
REMARK    1  A    between atoms: C1_1  and  C4_4 
REMARK       I    between atoms: C1_1  and  N7_7 
REMARK    2  A    between atoms: C5_5  and  C6_6 
REMARK    3  A    between atoms: C6_6  and  N7_7 
ROOT
HETATM    1  C1  UNL     1     -33.623  14.645  -3.706  1.00 20.00     0.233 C 
HETATM    2  C3  UNL     1     -35.936  15.508  -3.099  1.00 20.00     0.152 C 
HETATM    3  N7  UNL     1     -34.477  15.515  -3.015  1.00 20.00    -0.356 N 
HETATM    4  O8  UNL     1     -32.395  14.688  -3.604  1.00 20.00    -0.272 OA
ENDROOT
BRANCH   3   5
HETATM    5  C6  UNL     1     -33.912  16.521  -2.124  1.00 20.00     0.125 C 
BRANCH   5   6
HETATM    6  C5  UNL     1     -34.659  16.606  -0.798  1.00 20.00     0.015 C 
HETATM    7  C2  UNL     1     -34.210  17.786   0.055  1.00 20.00     0.006 C 
ENDBRANCH   5   6
ENDBRANCH   3   5
BRANCH   1   8
HETATM    8  C4  UNL     1     -34.307  13.631  -4.601  1.00 20.00     0.217 C 
HETATM    9 CL9  UNL     1     -34.597  14.311  -6.215  1.00 20.00    -0.121 Cl
ENDBRANCH   1   8
TORSDOF 3
ENDMDL
MODEL 3
REMARK VINA RESULT:      -3.7     11.666     11.850
REMARK  3 active torsions:
REMARK  status: ('A' for Active; 'I' for Inactive)
REMARK    1  A    between atoms: C1_1  and  C4_4 
REMARK       I    between atoms: C1_1  and  N7_7 
REMARK    2  A    between atoms: C5_5  and  C6_6 
REMARK    3  A    between atoms: C6_6  and  N7_7 
ROOT
HETATM    1  C1  UNL     1     -34.320   5.467   3.452  1.00 20.00     0.233 C 
HETATM    2  C3  UNL     1     -33.294   6.873   5.305  1.00 20.00     0.152 C 
HETATM    3  N7  UNL     1     -33.323   6.313   3.955  1.00 20.00    -0.356 N 
HETATM    4  O8  UNL     1     -34.303   5.018   2.303  1.00 20.00    -0.272 OA
ENDROOT
BRANCH   3   5
HETATM    5  C6  UNL     1     -32.201   6.689   3.104  1.00 20.00     0.125 C 
BRANCH   5   6
HETATM    6  C5  UNL     1     -32.227   8.167   2.729  1.00 20.00     0.015 C 
HETATM    7  C2  UNL     1     -31.868   8.409   1.269  1.00 20.00     0.006 C 
ENDBRANCH   5   6
ENDBRANCH   3   5
BRANCH   1   8
HETATM    8  C4  UNL     1     -35.440   5.130   4.415  1.00 20.00     0.217 C 
HETATM    9 CL9  UNL     1     -34.946   3.840   5.530  1.00 20.00    -0.121 Cl
ENDBRANCH   1   8
TORSDOF 3
ENDMDL
MODEL 4
REMARK VINA RESULT:      -3.6     12.068     12.255
REMARK  3 active torsions:
REMARK  status: ('A' for Active; 'I' for Inactive)
REMARK    1  A    between atoms: C1_1  and  C4_4 
REMARK       I    between atoms: C1_1  and  N7_7 
REMARK    2  A    between atoms: C5_5  and  C6_6 
REMARK    3  A    between atoms: C6_6  and  N7_7 
ROOT
HETATM    1  C1  UNL     1     -33.932   6.190   5.367  1.00 20.00     0.233 C 
HETATM    2  C3  UNL     1     -33.971   5.557   2.905  1.00 20.00     0.152 C 
HETATM    3  N7  UNL     1     -33.439   6.280   4.058  1.00 20.00    -0.356 N 
HETATM    4  O8  UNL     1     -33.450   6.820   6.311  1.00 20.00    -0.272 OA
ENDROOT
BRANCH   3   5
HETATM    5  C6  UNL     1     -32.310   7.157   3.773  1.00 20.00     0.125 C 
BRANCH   5   6
HETATM    6  C5  UNL     1     -32.096   7.359   2.277  1.00 20.00     0.015 C 
HETATM    7  C2  UNL     1     -32.212   8.818   1.858  1.00 20.00     0.006 C 
ENDBRANCH   5   6
ENDBRANCH   3   5
BRANCH   1   8
HETATM    8  C4  UNL     1     -35.110   5.257   5.560  1.00 20.00     0.217 C 
HETATM    9 CL9  UNL     1     -34.558   3.588   5.814  1.00 20.00    -0.121 Cl
ENDBRANCH   1   8
TORSDOF 3
ENDMDL
MODEL 5
REMARK VINA RESULT:      -3.5     11.533     11.685
REMARK  3 active torsions:
REMARK  status: ('A' for Active; 'I' for Inactive)
REMARK    1  A    between atoms: C1_1  and  C4_4 
REMARK       I    between atoms: C1_1  and  N7_7 
REMARK    2  A    between atoms: C5_5  and  C6_6 
REMARK    3  A    between atoms: C6_6  and  N7_7 
ROOT
HETATM    1  C1  UNL     1     -32.194   7.289   3.359  1.00 20.00     0.233 C 
HETATM    2  C3  UNL     1     -34.081   5.755   2.618  1.00 20.00     0.152 C 
HETATM    3  N7  UNL     1     -33.240   6.396   3.626  1.00 20.00    -0.356 N 
HETATM    4  O8  UNL     1     -31.509   7.806   4.244  1.00 20.00    -0.272 OA
ENDROOT
BRANCH   3   5
HETATM    5  C6  UNL     1     -33.547   6.041   5.006  1.00 20.00     0.125 C 
BRANCH   5   6
HETATM    6  C5  UNL     1     -34.889   5.328   5.137  1.00 20.00     0.015 C 
HETATM    7  C2  UNL     1     -34.790   4.029   5.924  1.00 20.00     0.006 C 
ENDBRANCH   5   6
ENDBRANCH   3   5
BRANCH   1   8
HETATM    8  C4  UNL     1     -31.949   7.589   1.894  1.00 20.00     0.217 C 
HETATM    9 CL9  UNL     1     -32.369   9.273   1.517  1.00 20.00    -0.121 Cl
ENDBRANCH   1   8
TORSDOF 3
ENDMDL
MODEL 6
REMARK VINA RESULT:      -3.5      2.818      4.521
REMARK  3 active torsions:
REMARK  status: ('A' for Active; 'I' for Inactive)
REMARK    1  A    between atoms: C1_1  and  C4_4 
REMARK       I    between atoms: C1_1  and  N7_7 
REMARK    2  A    between atoms: C5_5  and  C6_6 
REMARK    3  A    between atoms: C6_6  and  N7_7 
ROOT
HETATM    1  C1  UNL     1     -34.536  15.638  -3.173  1.00 20.00     0.233 C 
HETATM    2  C3  UNL     1     -36.777  14.662  -3.872  1.00 20.00     0.152 C 
HETATM    3  N7  UNL     1     -35.319  14.744  -3.915  1.00 20.00    -0.356 N 
HETATM    4  O8  UNL     1     -33.305  15.672  -3.241  1.00 20.00    -0.272 OA
ENDROOT
BRANCH   3   5
HETATM    5  C6  UNL     1     -34.671  13.804  -4.821  1.00 20.00     0.125 C 
BRANCH   5   6
HETATM    6  C5  UNL     1     -35.058  14.042  -6.277  1.00 20.00     0.015 C 
HETATM    7  C2  UNL     1     -34.322  15.223  -6.895  1.00 20.00     0.006 C 
ENDBRANCH   5   6
ENDBRANCH   3   5
BRANCH   1   8
HETATM    8  C4  UNL     1     -35.302  16.579  -2.264  1.00 20.00     0.217 C 
HETATM    9 CL9  UNL     1     -34.599  16.593  -0.634  1.00 20.00    -0.121 Cl
ENDBRANCH   1   8
TORSDOF 3
ENDMDL
MODEL 7
REMARK VINA RESULT:      -3.4      2.887      4.354
REMARK  3 active torsions:
REMARK  status: ('A' for Active; 'I' for Inactive)
REMARK    1  A    between atoms: C1_1  and  C4_4 
REMARK       I    between atoms: C1_1  and  N7_7 
REMARK    2  A    between atoms: C5_5  and  C6_6 
REMARK    3  A    between atoms: C6_6  and  N7_7 
ROOT
HETATM    1  C1  UNL     1     -34.332  13.806  -4.872  1.00 20.00     0.233 C 
HETATM    2  C3  UNL     1     -33.951  16.006  -6.086  1.00 20.00     0.152 C 
HETATM    3  N7  UNL     1     -34.512  14.663  -5.966  1.00 20.00    -0.356 N 
HETATM    4  O8  UNL     1     -34.826  12.677  -4.814  1.00 20.00    -0.272 OA
ENDROOT
BRANCH   3   5
HETATM    5  C6  UNL     1     -35.308  14.220  -7.103  1.00 20.00     0.125 C 
BRANCH   5   6
HETATM    6  C5  UNL     1     -36.243  15.309  -7.617  1.00 20.00     0.015 C 
HETATM    7  C2  UNL     1     -37.606  15.283  -6.939  1.00 20.00     0.006 C 
ENDBRANCH   5   6
ENDBRANCH   3   5
BRANCH   1   8
HETATM    8  C4  UNL     1     -33.484  14.356  -3.743  1.00 20.00     0.217 C 
HETATM    9 CL9  UNL     1     -34.466  15.338  -2.637  1.00 20.00    -0.121 Cl
ENDBRANCH   1   8
TORSDOF 3
ENDMDL
MODEL 8
REMARK VINA RESULT:      -3.4      1.778      2.059
REMARK  3 active torsions:
REMARK  status: ('A' for Active; 'I' for Inactive)
REMARK    1  A    between atoms: C1_1  and  C4_4 
REMARK       I    between atoms: C1_1  and  N7_7 
REMARK    2  A    between atoms: C5_5  and  C6_6 
REMARK    3  A    between atoms: C6_6  and  N7_7 
ROOT
HETATM    1  C1  UNL     1     -34.106  15.606  -4.690  1.00 20.00     0.233 C 
HETATM    2  C3  UNL     1     -36.281  15.178  -3.446  1.00 20.00     0.152 C 
HETATM    3  N7  UNL     1     -35.045  15.915  -3.697  1.00 20.00    -0.356 N 
HETATM    4  O8  UNL     1     -33.074  16.259  -4.866  1.00 20.00    -0.272 OA
ENDROOT
BRANCH   3   5
HETATM    5  C6  UNL     1     -34.811  17.051  -2.814  1.00 20.00     0.125 C 
BRANCH   5   6
HETATM    6  C5  UNL     1     -34.047  16.659  -1.554  1.00 20.00     0.015 C 
HETATM    7  C2  UNL     1     -34.790  17.031  -0.278  1.00 20.00     0.006 C 
ENDBRANCH   5   6
ENDBRANCH   3   5
BRANCH   1   8
HETATM    8  C4  UNL     1     -34.437  14.404  -5.551  1.00 20.00     0.217 C 
HETATM    9 CL9  UNL     1     -34.491  14.854  -7.268  1.00 20.00    -0.121 Cl
ENDBRANCH   1   8
TORSDOF 3
ENDMDL
MODEL 9
REMARK VINA RESULT:      -3.4     12.214     12.415
REMARK  3 active torsions:
REMARK  status: ('A' for Active; 'I' for Inactive)
REMARK    1  A    between atoms: C1_1  and  C4_4 
REMARK       I    between atoms: C1_1  and  N7_7 
REMARK    2  A    between atoms: C5_5  and  C6_6 
REMARK    3  A    between atoms: C6_6  and  N7_7 
ROOT
HETATM    1  C1  UNL     1     -33.287   6.145   3.427  1.00 20.00     0.233 C 
HETATM    2  C3  UNL     1     -33.601   6.912   5.830  1.00 20.00     0.152 C 
HETATM    3  N7  UNL     1     -33.991   6.161   4.638  1.00 20.00    -0.356 N 
HETATM    4  O8  UNL     1     -33.655   5.495   2.445  1.00 20.00    -0.272 OA
ENDROOT
BRANCH   3   5
HETATM    5  C6  UNL     1     -35.220   5.389   4.767  1.00 20.00     0.125 C 
BRANCH   5   6
HETATM    6  C5  UNL     1     -35.218   4.496   6.003  1.00 20.00     0.015 C 
HETATM    7  C2  UNL     1     -34.099   3.464   5.981  1.00 20.00     0.006 C 
ENDBRANCH   5   6
ENDBRANCH   3   5
BRANCH   1   8
HETATM    8  C4  UNL     1     -32.027   6.984   3.391  1.00 20.00     0.217 C 
HETATM    9 CL9  UNL     1     -32.119   8.207   2.107  1.00 20.00    -0.121 Cl
ENDBRANCH   1   8
TORSDOF 3
ENDMDL
