MODEL 1
REMARK VINA RESULT:      -4.6      0.000      0.000
REMARK  0 active torsions:
REMARK  status: ('A' for Active; 'I' for Inactive)
ROOT
HETATM    1  C1  UNL     1     -33.596  17.289  -4.648  1.00 20.00     0.039 A 
HETATM    2  C2  UNL     1     -33.916  16.016  -5.124  1.00 20.00     0.022 A 
HETATM    3  C3  UNL     1     -34.416  15.252  -2.867  1.00 20.00     0.029 A 
HETATM    4  C4  UNL     1     -34.106  16.520  -2.411  1.00 20.00    -0.021 A 
HETATM    5  C5  UNL     1     -33.705  17.514  -3.290  1.00 20.00     0.075 A 
HETATM    6  C6  UNL     1     -34.326  15.004  -4.239  1.00 20.00     0.011 A 
HETATM    7  C7  UNL     1     -34.058  17.037  -1.025  1.00 20.00     0.073 C 
HETATM    8  C8  UNL     1     -33.941  18.539  -1.329  1.00 20.00     0.129 C 
HETATM    9  C9  UNL     1     -33.028  19.263  -0.352  1.00 20.00     0.040 C 
HETATM   10  O10 UNL     1     -33.418  18.705  -2.674  1.00 20.00    -0.345 OA
HETATM   11 BR11 UNL     1     -34.745  13.287  -4.912  1.00 20.00    -0.051 Br
ENDROOT
TORSDOF 0
ENDMDL
MODEL 2
REMARK VINA RESULT:      -4.6      2.634      4.269
REMARK  0 active torsions:
REMARK  status: ('A' for Active; 'I' for Inactive)
ROOT
HETATM    1  C1  UNL     1     -33.536  18.620  -2.421  1.00 20.00     0.039 A 
HETATM    2  C2  UNL     1     -33.874  18.814  -1.081  1.00 20.00     0.022 A 
HETATM    3  C3  UNL     1     -34.671  16.521  -0.905  1.00 20.00     0.029 A 
HETATM    4  C4  UNL     1     -34.323  16.339  -2.230  1.00 20.00    -0.021 A 
HETATM    5  C5  UNL     1     -33.766  17.373  -2.968  1.00 20.00     0.075 A 
HETATM    6  C6  UNL     1     -34.437  17.771  -0.326  1.00 20.00     0.011 A 
HETATM    7  C7  UNL     1     -34.511  15.157  -3.100  1.00 20.00     0.073 C 
HETATM    8  C8  UNL     1     -33.636  15.586  -4.289  1.00 20.00     0.129 C 
HETATM    9  C9  UNL     1     -34.222  15.167  -5.627  1.00 20.00     0.040 C 
HETATM   10  O10 UNL     1     -33.496  17.032  -4.268  1.00 20.00    -0.345 OA
HETATM   11 BR11 UNL     1     -34.891  18.067   1.486  1.00 20.00    -0.051 Br
ENDROOT
TORSDOF 0
ENDMDL
MODEL 3
REMARK VINA RESULT:      -4.5      2.664      4.313
REMARK  0 active torsions:
REMARK  status: ('A' for Active; 'I' for Inactive)
ROOT
HETATM    1  C1  UNL     1     -33.684  18.010  -3.610  1.00 20.00     0.039 A 
HETATM    2  C2  UNL     1     -33.731  18.445  -2.284  1.00 20.00     0.022 A 
HETATM    3  C3  UNL     1     -34.475  16.249  -1.545  1.00 20.00     0.029 A 
HETATM    4  C4  UNL     1     -34.414  15.828  -2.860  1.00 20.00    -0.021 A 
HETATM    5  C5  UNL     1     -34.025  16.697  -3.868  1.00 20.00     0.075 A 
HETATM    6  C6  UNL     1     -34.123  17.570  -1.258  1.00 20.00     0.011 A 
HETATM    7  C7  UNL     1     -34.783  14.522  -3.450  1.00 20.00     0.073 C 
HETATM    8  C8  UNL     1     -34.178  14.706  -4.850  1.00 20.00     0.129 C 
HETATM    9  C9  UNL     1     -35.034  14.084  -5.942  1.00 20.00     0.040 C 
HETATM   10  O10 UNL     1     -34.036  16.127  -5.115  1.00 20.00    -0.345 OA
HETATM   11 BR11 UNL     1     -34.185  18.191   0.528  1.00 20.00    -0.051 Br
ENDROOT
TORSDOF 0
ENDMDL
MODEL 4
REMARK VINA RESULT:      -4.4      2.599      4.566
REMARK  0 active torsions:
REMARK  status: ('A' for Active; 'I' for Inactive)
ROOT
HETATM    1  C1  UNL     1     -33.603  17.443  -4.455  1.00 20.00     0.039 A 
HETATM    2  C2  UNL     1     -33.758  17.628  -3.081  1.00 20.00     0.022 A 
HETATM    3  C3  UNL     1     -35.074  15.587  -2.910  1.00 20.00     0.029 A 
HETATM    4  C4  UNL     1     -34.904  15.410  -4.270  1.00 20.00    -0.021 A 
HETATM    5  C5  UNL     1     -34.182  16.324  -5.023  1.00 20.00     0.075 A 
HETATM    6  C6  UNL     1     -34.487  16.705  -2.312  1.00 20.00     0.011 A 
HETATM    7  C7  UNL     1     -35.456  14.365  -5.161  1.00 20.00     0.073 C 
HETATM    8  C8  UNL     1     -34.616  14.645  -6.417  1.00 20.00     0.129 C 
HETATM    9  C9  UNL     1     -35.408  14.463  -7.701  1.00 20.00     0.040 C 
HETATM   10  O10 UNL     1     -34.125  16.011  -6.356  1.00 20.00    -0.345 OA
HETATM   11 BR11 UNL     1     -34.686  16.988  -0.452  1.00 20.00    -0.051 Br
ENDROOT
TORSDOF 0
ENDMDL
MODEL 5
REMARK VINA RESULT:      -4.3      2.784      4.666
REMARK  0 active torsions:
REMARK  status: ('A' for Active; 'I' for Inactive)
ROOT
HETATM    1  C1  UNL     1     -34.975  15.500  -2.406  1.00 20.00     0.039 A 
HETATM    2  C2  UNL     1     -34.533  16.392  -1.427  1.00 20.00     0.022 A 
HETATM    3  C3  UNL     1     -33.621  17.875  -3.129  1.00 20.00     0.029 A 
HETATM    4  C4  UNL     1     -34.073  16.988  -4.088  1.00 20.00    -0.021 A 
HETATM    5  C5  UNL     1     -34.736  15.825  -3.727  1.00 20.00     0.075 A 
HETATM    6  C6  UNL     1     -33.862  17.573  -1.786  1.00 20.00     0.011 A 
HETATM    7  C7  UNL     1     -33.906  17.025  -5.558  1.00 20.00     0.073 C 
HETATM    8  C8  UNL     1     -34.898  15.916  -5.944  1.00 20.00     0.129 C 
HETATM    9  C9  UNL     1     -34.409  15.078  -7.115  1.00 20.00     0.040 C 
HETATM   10  O10 UNL     1     -35.100  15.049  -4.796  1.00 20.00    -0.345 OA
HETATM   11 BR11 UNL     1     -33.268  18.758  -0.437  1.00 20.00    -0.051 Br
ENDROOT
TORSDOF 0
ENDMDL
MODEL 6
REMARK VINA RESULT:      -4.3     13.507     15.187
REMARK  0 active torsions:
REMARK  status: ('A' for Active; 'I' for Inactive)
ROOT
HETATM    1  C1  UNL     1     -40.795   5.177  -0.968  1.00 20.00     0.039 A 
HETATM    2  C2  UNL     1     -41.399   6.386  -0.620  1.00 20.00     0.022 A 
HETATM    3  C3  UNL     1     -43.261   5.936  -2.122  1.00 20.00     0.029 A 
HETATM    4  C4  UNL     1     -42.657   4.737  -2.450  1.00 20.00    -0.021 A 
HETATM    5  C5  UNL     1     -41.447   4.370  -1.881  1.00 20.00     0.075 A 
HETATM    6  C6  UNL     1     -42.626   6.762  -1.192  1.00 20.00     0.011 A 
HETATM    7  C7  UNL     1     -43.069   3.711  -3.434  1.00 20.00     0.073 C 
HETATM    8  C8  UNL     1     -42.108   2.583  -3.030  1.00 20.00     0.129 C 
HETATM    9  C9  UNL     1     -41.594   1.796  -4.225  1.00 20.00     0.040 C 
HETATM   10  O10 UNL     1     -40.976   3.163  -2.327  1.00 20.00    -0.345 OA
HETATM   11 BR11 UNL     1     -43.417   8.410  -0.707  1.00 20.00    -0.051 Br
ENDROOT
TORSDOF 0
ENDMDL
MODEL 7
REMARK VINA RESULT:      -4.3      1.748      2.626
REMARK  0 active torsions:
REMARK  status: ('A' for Active; 'I' for Inactive)
ROOT
HETATM    1  C1  UNL     1     -35.007  14.049  -3.829  1.00 20.00     0.039 A 
HETATM    2  C2  UNL     1     -35.136  13.945  -5.215  1.00 20.00     0.022 A 
HETATM    3  C3  UNL     1     -34.495  16.277  -5.493  1.00 20.00     0.029 A 
HETATM    4  C4  UNL     1     -34.361  16.364  -4.120  1.00 20.00    -0.021 A 
HETATM    5  C5  UNL     1     -34.614  15.267  -3.310  1.00 20.00     0.075 A 
HETATM    6  C6  UNL     1     -34.880  15.051  -6.043  1.00 20.00     0.011 A 
HETATM    7  C7  UNL     1     -34.031  17.534  -3.278  1.00 20.00     0.073 C 
HETATM    8  C8  UNL     1     -33.778  16.813  -1.945  1.00 20.00     0.129 C 
HETATM    9  C9  UNL     1     -34.279  17.605  -0.748  1.00 20.00     0.040 C 
HETATM   10  O10 UNL     1     -34.453  15.527  -1.973  1.00 20.00    -0.345 OA
HETATM   11 BR11 UNL     1     -35.070  14.880  -7.917  1.00 20.00    -0.051 Br
ENDROOT
TORSDOF 0
ENDMDL
MODEL 8
REMARK VINA RESULT:      -4.2      3.096      4.810
REMARK  0 active torsions:
REMARK  status: ('A' for Active; 'I' for Inactive)
ROOT
HETATM    1  C1  UNL     1     -32.972  18.976  -0.614  1.00 20.00     0.039 A 
HETATM    2  C2  UNL     1     -33.311  19.084   0.736  1.00 20.00     0.022 A 
HETATM    3  C3  UNL     1     -34.892  17.244   0.530  1.00 20.00     0.029 A 
HETATM    4  C4  UNL     1     -34.540  17.141  -0.803  1.00 20.00    -0.021 A 
HETATM    5  C5  UNL     1     -33.597  17.994  -1.358  1.00 20.00     0.075 A 
HETATM    6  C6  UNL     1     -34.264  18.222   1.305  1.00 20.00     0.011 A 
HETATM    7  C7  UNL     1     -35.079  16.251  -1.854  1.00 20.00     0.073 C 
HETATM    8  C8  UNL     1     -34.027  16.496  -2.947  1.00 20.00     0.129 C 
HETATM    9  C9  UNL     1     -34.629  16.521  -4.342  1.00 20.00     0.040 C 
HETATM   10  O10 UNL     1     -33.377  17.771  -2.692  1.00 20.00    -0.345 OA
HETATM   11 BR11 UNL     1     -34.708  18.398   3.135  1.00 20.00    -0.051 Br
ENDROOT
TORSDOF 0
ENDMDL
MODEL 9
REMARK VINA RESULT:      -4.1      3.323      4.612
REMARK  0 active torsions:
REMARK  status: ('A' for Active; 'I' for Inactive)
ROOT
HETATM    1  C1  UNL     1     -32.763  18.761   0.331  1.00 20.00     0.039 A 
HETATM    2  C2  UNL     1     -33.115  18.051  -0.818  1.00 20.00     0.022 A 
HETATM    3  C3  UNL     1     -35.063  17.116   0.304  1.00 20.00     0.029 A 
HETATM    4  C4  UNL     1     -34.709  17.832   1.432  1.00 20.00    -0.021 A 
HETATM    5  C5  UNL     1     -33.580  18.637   1.439  1.00 20.00     0.075 A 
HETATM    6  C6  UNL     1     -34.258  17.235  -0.832  1.00 20.00     0.011 A 
HETATM    7  C7  UNL     1     -35.334  17.848   2.773  1.00 20.00     0.073 C 
HETATM    8  C8  UNL     1     -34.600  19.058   3.371  1.00 20.00     0.129 C 
HETATM    9  C9  UNL     1     -34.276  18.875   4.845  1.00 20.00     0.040 C 
HETATM   10  O10 UNL     1     -33.362  19.263   2.639  1.00 20.00    -0.345 OA
HETATM   11 BR11 UNL     1     -34.704  16.279  -2.402  1.00 20.00    -0.051 Br
ENDROOT
TORSDOF 0
ENDMDL
