MODEL 1
REMARK VINA RESULT:      -5.5      0.000      0.000
REMARK  2 active torsions:
REMARK  status: ('A' for Active; 'I' for Inactive)
REMARK    1  A    between atoms: C7_7  and  C12_12 
REMARK    2  A    between atoms: C11_11  and  C12_12 
ROOT
HETATM    1  C1  UNL     1     -34.473  14.455  -6.006  1.00 20.00     0.064 C 
HETATM    2  C2  UNL     1     -33.351  14.020  -3.837  1.00 20.00     0.019 C 
HETATM    3  C3  UNL     1     -35.873  13.929  -4.028  1.00 20.00     0.019 C 
HETATM    4  C4  UNL     1     -33.453  15.409  -3.201  1.00 20.00     0.007 C 
HETATM    5  C5  UNL     1     -35.970  15.316  -3.391  1.00 20.00     0.007 C 
HETATM    6  C6  UNL     1     -34.540  13.689  -4.746  1.00 20.00     0.093 C 
HETATM    7  C7  UNL     1     -34.783  15.598  -2.462  1.00 20.00    -0.007 C 
HETATM    8  N13 UNL     1     -34.420  15.057  -6.996  1.00 20.00    -0.197 NA
ENDROOT
BRANCH   7   9
HETATM    9  C12 UNL     1     -34.880  17.006  -1.876  1.00 20.00    -0.044 C 
HETATM   10  C9  UNL     1     -33.771  17.882  -2.493  1.00 20.00     0.015 C 
HETATM   11  C10 UNL     1     -36.251  17.608  -2.244  1.00 20.00     0.015 C 
BRANCH   9  12
HETATM   12  C11 UNL     1     -34.714  16.916  -0.333  1.00 20.00     0.004 C 
HETATM   13  C8  UNL     1     -33.976  18.070   0.335  1.00 20.00     0.006 C 
ENDBRANCH   9  12
ENDBRANCH   7   9
TORSDOF 2
ENDMDL
MODEL 2
REMARK VINA RESULT:      -5.3      0.434      1.388
REMARK  2 active torsions:
REMARK  status: ('A' for Active; 'I' for Inactive)
REMARK    1  A    between atoms: C7_7  and  C12_12 
REMARK    2  A    between atoms: C11_11  and  C12_12 
ROOT
HETATM    1  C1  UNL     1     -34.471  14.529  -6.018  1.00 20.00     0.064 C 
HETATM    2  C2  UNL     1     -33.367  14.057  -3.848  1.00 20.00     0.019 C 
HETATM    3  C3  UNL     1     -35.889  13.995  -4.055  1.00 20.00     0.019 C 
HETATM    4  C4  UNL     1     -33.458  15.438  -3.196  1.00 20.00     0.007 C 
HETATM    5  C5  UNL     1     -35.975  15.376  -3.402  1.00 20.00     0.007 C 
HETATM    6  C6  UNL     1     -34.554  13.749  -4.768  1.00 20.00     0.093 C 
HETATM    7  C7  UNL     1     -34.790  15.634  -2.462  1.00 20.00    -0.007 C 
HETATM    8  N13 UNL     1     -34.406  15.142  -7.000  1.00 20.00    -0.197 NA
ENDROOT
BRANCH   7   9
HETATM    9  C12 UNL     1     -34.875  17.035  -1.861  1.00 20.00    -0.044 C 
HETATM   10  C9  UNL     1     -36.270  17.623  -2.154  1.00 20.00     0.015 C 
HETATM   11  C10 UNL     1     -34.689  16.938  -0.333  1.00 20.00     0.015 C 
BRANCH   9  12
HETATM   12  C11 UNL     1     -33.763  17.918  -2.495  1.00 20.00     0.004 C 
HETATM   13  C8  UNL     1     -33.259  19.080  -1.649  1.00 20.00     0.006 C 
ENDBRANCH   9  12
ENDBRANCH   7   9
TORSDOF 2
ENDMDL
MODEL 3
REMARK VINA RESULT:      -5.2      0.433      1.644
REMARK  2 active torsions:
REMARK  status: ('A' for Active; 'I' for Inactive)
REMARK    1  A    between atoms: C7_7  and  C12_12 
REMARK    2  A    between atoms: C11_11  and  C12_12 
ROOT
HETATM    1  C1  UNL     1     -34.474  14.489  -6.051  1.00 20.00     0.064 C 
HETATM    2  C2  UNL     1     -33.405  13.995  -3.868  1.00 20.00     0.019 C 
HETATM    3  C3  UNL     1     -35.925  13.973  -4.107  1.00 20.00     0.019 C 
HETATM    4  C4  UNL     1     -33.482  15.377  -3.214  1.00 20.00     0.007 C 
HETATM    5  C5  UNL     1     -35.997  15.354  -3.453  1.00 20.00     0.007 C 
HETATM    6  C6  UNL     1     -34.585  13.707  -4.804  1.00 20.00     0.093 C 
HETATM    7  C7  UNL     1     -34.821  15.592  -2.497  1.00 20.00    -0.007 C 
HETATM    8  N13 UNL     1     -34.386  15.102  -7.031  1.00 20.00    -0.197 NA
ENDROOT
BRANCH   7   9
HETATM    9  C12 UNL     1     -34.891  16.994  -1.895  1.00 20.00    -0.044 C 
HETATM   10  C9  UNL     1     -34.696  16.894  -0.369  1.00 20.00     0.015 C 
HETATM   11  C10 UNL     1     -33.754  17.851  -2.486  1.00 20.00     0.015 C 
BRANCH   9  12
HETATM   12  C11 UNL     1     -36.278  17.611  -2.231  1.00 20.00     0.004 C 
HETATM   13  C8  UNL     1     -36.270  19.034  -2.775  1.00 20.00     0.006 C 
ENDBRANCH   9  12
ENDBRANCH   7   9
TORSDOF 2
ENDMDL
MODEL 4
REMARK VINA RESULT:      -5.0      2.648      5.102
REMARK  2 active torsions:
REMARK  status: ('A' for Active; 'I' for Inactive)
REMARK    1  A    between atoms: C7_7  and  C12_12 
REMARK    2  A    between atoms: C11_11  and  C12_12 
ROOT
HETATM    1  C1  UNL     1     -32.815  18.834  -0.359  1.00 20.00     0.064 C 
HETATM    2  C2  UNL     1     -34.622  19.181  -2.022  1.00 20.00     0.019 C 
HETATM    3  C3  UNL     1     -34.638  17.159  -0.500  1.00 20.00     0.019 C 
HETATM    4  C4  UNL     1     -34.101  18.310  -3.168  1.00 20.00     0.007 C 
HETATM    5  C5  UNL     1     -34.118  16.292  -1.648  1.00 20.00     0.007 C 
HETATM    6  C6  UNL     1     -34.251  18.636  -0.638  1.00 20.00     0.093 C 
HETATM    7  C7  UNL     1     -34.539  16.848  -3.014  1.00 20.00    -0.007 C 
HETATM    8  N13 UNL     1     -31.687  18.990  -0.140  1.00 20.00    -0.197 NA
ENDROOT
BRANCH   7   9
HETATM    9  C12 UNL     1     -33.967  15.992  -4.143  1.00 20.00    -0.044 C 
HETATM   10  C9  UNL     1     -33.400  16.919  -5.238  1.00 20.00     0.015 C 
HETATM   11  C10 UNL     1     -32.821  15.125  -3.584  1.00 20.00     0.015 C 
BRANCH   9  12
HETATM   12  C11 UNL     1     -35.104  15.099  -4.716  1.00 20.00     0.004 C 
HETATM   13  C8  UNL     1     -35.179  13.675  -4.180  1.00 20.00     0.006 C 
ENDBRANCH   9  12
ENDBRANCH   7   9
TORSDOF 2
ENDMDL
MODEL 5
REMARK VINA RESULT:      -4.9      1.643      2.474
REMARK  2 active torsions:
REMARK  status: ('A' for Active; 'I' for Inactive)
REMARK    1  A    between atoms: C7_7  and  C12_12 
REMARK    2  A    between atoms: C11_11  and  C12_12 
ROOT
HETATM    1  C1  UNL     1     -34.943  13.696  -5.255  1.00 20.00     0.064 C 
HETATM    2  C2  UNL     1     -36.381  15.699  -5.525  1.00 20.00     0.019 C 
HETATM    3  C3  UNL     1     -33.924  15.782  -6.127  1.00 20.00     0.019 C 
HETATM    4  C4  UNL     1     -36.080  16.423  -4.210  1.00 20.00     0.007 C 
HETATM    5  C5  UNL     1     -33.627  16.506  -4.813  1.00 20.00     0.007 C 
HETATM    6  C6  UNL     1     -35.182  14.908  -6.063  1.00 20.00     0.093 C 
HETATM    7  C7  UNL     1     -34.837  17.314  -4.325  1.00 20.00    -0.007 C 
HETATM    8  N13 UNL     1     -34.755  12.743  -4.621  1.00 20.00    -0.197 NA
ENDROOT
BRANCH   7   9
HETATM    9  C12 UNL     1     -34.530  17.988  -2.988  1.00 20.00    -0.044 C 
HETATM   10  C9  UNL     1     -33.572  19.170  -3.231  1.00 20.00     0.015 C 
HETATM   11  C10 UNL     1     -35.844  18.528  -2.387  1.00 20.00     0.015 C 
BRANCH   9  12
HETATM   12  C11 UNL     1     -33.881  16.941  -2.040  1.00 20.00     0.004 C 
HETATM   13  C8  UNL     1     -34.614  16.668  -0.732  1.00 20.00     0.006 C 
ENDBRANCH   9  12
ENDBRANCH   7   9
TORSDOF 2
ENDMDL
MODEL 6
REMARK VINA RESULT:      -4.9      2.386      4.989
REMARK  2 active torsions:
REMARK  status: ('A' for Active; 'I' for Inactive)
REMARK    1  A    between atoms: C7_7  and  C12_12 
REMARK    2  A    between atoms: C11_11  and  C12_12 
ROOT
HETATM    1  C1  UNL     1     -36.144  18.936  -0.991  1.00 20.00     0.064 C 
HETATM    2  C2  UNL     1     -34.716  17.087  -0.157  1.00 20.00     0.019 C 
HETATM    3  C3  UNL     1     -33.732  18.946  -1.565  1.00 20.00     0.019 C 
HETATM    4  C4  UNL     1     -34.726  16.169  -1.382  1.00 20.00     0.007 C 
HETATM    5  C5  UNL     1     -33.743  18.025  -2.787  1.00 20.00     0.007 C 
HETATM    6  C6  UNL     1     -34.792  18.574  -0.522  1.00 20.00     0.093 C 
HETATM    7  C7  UNL     1     -33.630  16.549  -2.385  1.00 20.00    -0.007 C 
HETATM    8  N13 UNL     1     -37.207  19.220  -1.359  1.00 20.00    -0.197 NA
ENDROOT
BRANCH   7   9
HETATM    9  C12 UNL     1     -33.691  15.649  -3.618  1.00 20.00    -0.044 C 
HETATM   10  C9  UNL     1     -33.548  16.520  -4.882  1.00 20.00     0.015 C 
HETATM   11  C10 UNL     1     -32.517  14.650  -3.568  1.00 20.00     0.015 C 
BRANCH   9  12
HETATM   12  C11 UNL     1     -35.052  14.898  -3.620  1.00 20.00     0.004 C 
HETATM   13  C8  UNL     1     -35.039  13.477  -4.169  1.00 20.00     0.006 C 
ENDBRANCH   9  12
ENDBRANCH   7   9
TORSDOF 2
ENDMDL
MODEL 7
REMARK VINA RESULT:      -4.9      1.452      1.801
REMARK  2 active torsions:
REMARK  status: ('A' for Active; 'I' for Inactive)
REMARK    1  A    between atoms: C7_7  and  C12_12 
REMARK    2  A    between atoms: C11_11  and  C12_12 
ROOT
HETATM    1  C1  UNL     1     -35.472  15.323  -5.306  1.00 20.00     0.064 C 
HETATM    2  C2  UNL     1     -33.295  16.426  -4.864  1.00 20.00     0.019 C 
HETATM    3  C3  UNL     1     -34.094  14.513  -3.411  1.00 20.00     0.019 C 
HETATM    4  C4  UNL     1     -33.715  17.421  -3.780  1.00 20.00     0.007 C 
HETATM    5  C5  UNL     1     -34.511  15.512  -2.329  1.00 20.00     0.007 C 
HETATM    6  C6  UNL     1     -34.094  15.118  -4.820  1.00 20.00     0.093 C 
HETATM    7  C7  UNL     1     -33.667  16.791  -2.382  1.00 20.00    -0.007 C 
HETATM    8  N13 UNL     1     -36.555  15.485  -5.689  1.00 20.00    -0.197 NA
ENDROOT
BRANCH   7   9
HETATM    9  C12 UNL     1     -34.135  17.789  -1.325  1.00 20.00    -0.044 C 
HETATM   10  C9  UNL     1     -32.918  18.591  -0.819  1.00 20.00     0.015 C 
HETATM   11  C10 UNL     1     -35.140  18.766  -1.967  1.00 20.00     0.015 C 
BRANCH   9  12
HETATM   12  C11 UNL     1     -34.798  17.005  -0.158  1.00 20.00     0.004 C 
HETATM   13  C8  UNL     1     -35.053  17.787   1.124  1.00 20.00     0.006 C 
ENDBRANCH   9  12
ENDBRANCH   7   9
TORSDOF 2
ENDMDL
MODEL 8
REMARK VINA RESULT:      -4.8      2.230      4.942
REMARK  2 active torsions:
REMARK  status: ('A' for Active; 'I' for Inactive)
REMARK    1  A    between atoms: C7_7  and  C12_12 
REMARK    2  A    between atoms: C11_11  and  C12_12 
ROOT
HETATM    1  C1  UNL     1     -35.916  18.939  -1.526  1.00 20.00     0.064 C 
HETATM    2  C2  UNL     1     -34.508  17.111  -0.617  1.00 20.00     0.019 C 
HETATM    3  C3  UNL     1     -33.628  18.639  -2.434  1.00 20.00     0.019 C 
HETATM    4  C4  UNL     1     -34.772  16.025  -1.663  1.00 20.00     0.007 C 
HETATM    5  C5  UNL     1     -33.893  17.550  -3.476  1.00 20.00     0.007 C 
HETATM    6  C6  UNL     1     -34.536  18.528  -1.203  1.00 20.00     0.093 C 
HETATM    7  C7  UNL     1     -33.821  16.147  -2.861  1.00 20.00    -0.007 C 
HETATM    8  N13 UNL     1     -37.001  19.263  -1.780  1.00 20.00    -0.197 NA
ENDROOT
BRANCH   7   9
HETATM    9  C12 UNL     1     -34.136  15.082  -3.910  1.00 20.00    -0.044 C 
HETATM   10  C9  UNL     1     -33.206  13.872  -3.692  1.00 20.00     0.015 C 
HETATM   11  C10 UNL     1     -35.598  14.623  -3.735  1.00 20.00     0.015 C 
BRANCH   9  12
HETATM   12  C11 UNL     1     -33.917  15.695  -5.322  1.00 20.00     0.004 C 
HETATM   13  C8  UNL     1     -34.525  14.930  -6.492  1.00 20.00     0.006 C 
ENDBRANCH   9  12
ENDBRANCH   7   9
TORSDOF 2
ENDMDL
MODEL 9
REMARK VINA RESULT:      -4.8      2.156      3.698
REMARK  2 active torsions:
REMARK  status: ('A' for Active; 'I' for Inactive)
REMARK    1  A    between atoms: C7_7  and  C12_12 
REMARK    2  A    between atoms: C11_11  and  C12_12 
ROOT
HETATM    1  C1  UNL     1     -36.579  16.756  -7.727  1.00 20.00     0.064 C 
HETATM    2  C2  UNL     1     -34.368  17.446  -6.839  1.00 20.00     0.019 C 
HETATM    3  C3  UNL     1     -34.729  15.103  -7.727  1.00 20.00     0.019 C 
HETATM    4  C4  UNL     1     -34.478  16.917  -5.407  1.00 20.00     0.007 C 
HETATM    5  C5  UNL     1     -34.838  14.579  -6.295  1.00 20.00     0.007 C 
HETATM    6  C6  UNL     1     -35.119  16.581  -7.858  1.00 20.00     0.093 C 
HETATM    7  C7  UNL     1     -34.046  15.448  -5.310  1.00 20.00    -0.007 C 
HETATM    8  N13 UNL     1     -37.726  16.894  -7.624  1.00 20.00    -0.197 NA
ENDROOT
BRANCH   7   9
HETATM    9  C12 UNL     1     -34.209  14.931  -3.882  1.00 20.00    -0.044 C 
HETATM   10  C9  UNL     1     -35.693  14.591  -3.639  1.00 20.00     0.015 C 
HETATM   11  C10 UNL     1     -33.372  13.647  -3.715  1.00 20.00     0.015 C 
BRANCH   9  12
HETATM   12  C11 UNL     1     -33.730  16.032  -2.895  1.00 20.00     0.004 C 
HETATM   13  C8  UNL     1     -34.600  16.261  -1.665  1.00 20.00     0.006 C 
ENDBRANCH   9  12
ENDBRANCH   7   9
TORSDOF 2
ENDMDL
