MODEL 1
REMARK VINA RESULT:      -4.8      0.000      0.000
REMARK  0 active torsions:
REMARK  status: ('A' for Active; 'I' for Inactive)
ROOT
HETATM    1  C1  UNL     1     -34.934  13.688  -4.204  1.00 20.00     0.064 C 
HETATM    2  C2  UNL     1     -33.802  15.466  -2.829  1.00 20.00     0.023 C 
HETATM    3  C3  UNL     1     -35.678  16.084  -4.403  1.00 20.00     0.028 C 
HETATM    4  C4  UNL     1     -34.555  17.887  -3.009  1.00 20.00     0.013 C 
HETATM    5  C5  UNL     1     -35.127  15.008  -3.455  1.00 20.00     0.094 C 
HETATM    6  C6  UNL     1     -33.903  16.819  -2.118  1.00 20.00    -0.017 C 
HETATM    7  C7  UNL     1     -35.860  17.463  -3.731  1.00 20.00    -0.046 C 
HETATM    8  C8  UNL     1     -34.583  16.693  -0.817  1.00 20.00     0.010 C 
HETATM    9  C9  UNL     1     -37.060  17.440  -2.764  1.00 20.00     0.015 C 
HETATM   10  C10 UNL     1     -36.176  18.508  -4.823  1.00 20.00     0.015 C 
HETATM   11  N11 UNL     1     -34.787  12.687  -4.771  1.00 20.00    -0.197 NA
ENDROOT
TORSDOF 0
ENDMDL
MODEL 2
REMARK VINA RESULT:      -4.6      1.907      2.907
REMARK  0 active torsions:
REMARK  status: ('A' for Active; 'I' for Inactive)
ROOT
HETATM    1  C1  UNL     1     -37.665  14.635  -3.795  1.00 20.00     0.064 C 
HETATM    2  C2  UNL     1     -35.367  14.293  -4.764  1.00 20.00     0.023 C 
HETATM    3  C3  UNL     1     -35.928  16.442  -3.561  1.00 20.00     0.028 C 
HETATM    4  C4  UNL     1     -33.600  16.103  -4.519  1.00 20.00     0.013 C 
HETATM    5  C5  UNL     1     -36.173  14.926  -3.621  1.00 20.00     0.094 C 
HETATM    6  C6  UNL     1     -33.868  14.600  -4.691  1.00 20.00    -0.017 C 
HETATM    7  C7  UNL     1     -34.437  16.820  -3.428  1.00 20.00    -0.046 C 
HETATM    8  C8  UNL     1     -33.204  13.797  -3.651  1.00 20.00     0.010 C 
HETATM    9  C9  UNL     1     -33.919  16.496  -2.013  1.00 20.00     0.015 C 
HETATM   10  C10 UNL     1     -34.293  18.345  -3.627  1.00 20.00     0.015 C 
HETATM   11  N11 UNL     1     -38.796  14.414  -3.928  1.00 20.00    -0.197 NA
ENDROOT
TORSDOF 0
ENDMDL
MODEL 3
REMARK VINA RESULT:      -4.6      0.780      2.849
REMARK  0 active torsions:
REMARK  status: ('A' for Active; 'I' for Inactive)
ROOT
HETATM    1  C1  UNL     1     -35.040  13.820  -4.200  1.00 20.00     0.064 C 
HETATM    2  C2  UNL     1     -36.596  15.792  -4.045  1.00 20.00     0.023 C 
HETATM    3  C3  UNL     1     -34.744  15.502  -2.352  1.00 20.00     0.028 C 
HETATM    4  C4  UNL     1     -36.297  17.507  -2.193  1.00 20.00     0.013 C 
HETATM    5  C5  UNL     1     -35.161  15.295  -3.816  1.00 20.00     0.094 C 
HETATM    6  C6  UNL     1     -36.809  17.247  -3.617  1.00 20.00    -0.017 C 
HETATM    7  C7  UNL     1     -34.880  16.964  -1.873  1.00 20.00    -0.046 C 
HETATM    8  C8  UNL     1     -36.228  18.185  -4.594  1.00 20.00     0.010 C 
HETATM    9  C9  UNL     1     -33.782  17.844  -2.502  1.00 20.00     0.015 C 
HETATM   10  C10 UNL     1     -34.675  17.005  -0.343  1.00 20.00     0.015 C 
HETATM   11  N11 UNL     1     -34.950  12.700  -4.491  1.00 20.00    -0.197 NA
ENDROOT
TORSDOF 0
ENDMDL
MODEL 4
REMARK VINA RESULT:      -4.6      2.473      3.901
REMARK  0 active torsions:
REMARK  status: ('A' for Active; 'I' for Inactive)
ROOT
HETATM    1  C1  UNL     1     -33.710  18.136  -5.818  1.00 20.00     0.064 C 
HETATM    2  C2  UNL     1     -34.950  17.444  -3.741  1.00 20.00     0.023 C 
HETATM    3  C3  UNL     1     -33.959  15.693  -5.269  1.00 20.00     0.028 C 
HETATM    4  C4  UNL     1     -35.194  14.980  -3.166  1.00 20.00     0.013 C 
HETATM    5  C5  UNL     1     -33.791  17.107  -4.691  1.00 20.00     0.094 C 
HETATM    6  C6  UNL     1     -35.134  16.415  -2.621  1.00 20.00    -0.017 C 
HETATM    7  C7  UNL     1     -34.093  14.597  -4.189  1.00 20.00    -0.046 C 
HETATM    8  C8  UNL     1     -34.108  16.568  -1.576  1.00 20.00     0.010 C 
HETATM    9  C9  UNL     1     -32.738  14.351  -3.497  1.00 20.00     0.015 C 
HETATM   10  C10 UNL     1     -34.501  13.275  -4.873  1.00 20.00     0.015 C 
HETATM   11  N11 UNL     1     -33.649  18.918  -6.674  1.00 20.00    -0.197 NA
ENDROOT
TORSDOF 0
ENDMDL
MODEL 5
REMARK VINA RESULT:      -4.6      2.006      3.522
REMARK  0 active torsions:
REMARK  status: ('A' for Active; 'I' for Inactive)
ROOT
HETATM    1  C1  UNL     1     -37.673  14.711  -4.010  1.00 20.00     0.064 C 
HETATM    2  C2  UNL     1     -36.223  16.304  -5.310  1.00 20.00     0.023 C 
HETATM    3  C3  UNL     1     -35.586  15.642  -2.957  1.00 20.00     0.028 C 
HETATM    4  C4  UNL     1     -34.103  17.238  -4.264  1.00 20.00     0.013 C 
HETATM    5  C5  UNL     1     -36.240  15.177  -4.267  1.00 20.00     0.094 C 
HETATM    6  C6  UNL     1     -34.822  16.869  -5.570  1.00 20.00    -0.017 C 
HETATM    7  C7  UNL     1     -34.146  16.170  -3.141  1.00 20.00    -0.046 C 
HETATM    8  C8  UNL     1     -34.021  15.956  -6.404  1.00 20.00     0.010 C 
HETATM    9  C9  UNL     1     -33.175  15.008  -3.426  1.00 20.00     0.015 C 
HETATM   10  C10 UNL     1     -33.690  16.831  -1.821  1.00 20.00     0.015 C 
HETATM   11  N11 UNL     1     -38.761  14.358  -3.816  1.00 20.00    -0.197 NA
ENDROOT
TORSDOF 0
ENDMDL
MODEL 6
REMARK VINA RESULT:      -4.5      1.876      2.217
REMARK  0 active torsions:
REMARK  status: ('A' for Active; 'I' for Inactive)
ROOT
HETATM    1  C1  UNL     1     -37.428  14.980  -3.713  1.00 20.00     0.064 C 
HETATM    2  C2  UNL     1     -35.031  15.112  -2.957  1.00 20.00     0.023 C 
HETATM    3  C3  UNL     1     -35.814  16.475  -4.935  1.00 20.00     0.028 C 
HETATM    4  C4  UNL     1     -33.395  16.631  -4.174  1.00 20.00     0.013 C 
HETATM    5  C5  UNL     1     -36.206  15.888  -3.570  1.00 20.00     0.094 C 
HETATM    6  C6  UNL     1     -33.748  15.943  -2.846  1.00 20.00    -0.017 C 
HETATM    7  C7  UNL     1     -34.558  17.372  -4.883  1.00 20.00    -0.046 C 
HETATM    8  C8  UNL     1     -33.822  16.900  -1.729  1.00 20.00     0.010 C 
HETATM    9  C9  UNL     1     -34.879  18.713  -4.194  1.00 20.00     0.015 C 
HETATM   10  C10 UNL     1     -34.121  17.696  -6.328  1.00 20.00     0.015 C 
HETATM   11  N11 UNL     1     -38.354  14.290  -3.820  1.00 20.00    -0.197 NA
ENDROOT
TORSDOF 0
ENDMDL
MODEL 7
REMARK VINA RESULT:      -4.4      2.581      3.892
REMARK  0 active torsions:
REMARK  status: ('A' for Active; 'I' for Inactive)
ROOT
HETATM    1  C1  UNL     1     -33.774  18.116  -3.574  1.00 20.00     0.064 C 
HETATM    2  C2  UNL     1     -34.216  15.734  -2.892  1.00 20.00     0.023 C 
HETATM    3  C3  UNL     1     -35.247  16.660  -5.004  1.00 20.00     0.028 C 
HETATM    4  C4  UNL     1     -35.688  14.249  -4.337  1.00 20.00     0.013 C 
HETATM    5  C5  UNL     1     -34.023  16.692  -4.076  1.00 20.00     0.094 C 
HETATM    6  C6  UNL     1     -34.537  14.298  -3.321  1.00 20.00    -0.017 C 
HETATM    7  C7  UNL     1     -35.591  15.245  -5.520  1.00 20.00    -0.046 C 
HETATM    8  C8  UNL     1     -33.335  13.602  -3.812  1.00 20.00     0.010 C 
HETATM    9  C9  UNL     1     -34.558  14.784  -6.566  1.00 20.00     0.015 C 
HETATM   10  C10 UNL     1     -36.963  15.297  -6.228  1.00 20.00     0.015 C 
HETATM   11  N11 UNL     1     -33.585  19.195  -3.192  1.00 20.00    -0.197 NA
ENDROOT
TORSDOF 0
ENDMDL
MODEL 8
REMARK VINA RESULT:      -4.4      2.331      3.861
REMARK  0 active torsions:
REMARK  status: ('A' for Active; 'I' for Inactive)
ROOT
HETATM    1  C1  UNL     1     -34.789  16.760  -1.194  1.00 20.00     0.064 C 
HETATM    2  C2  UNL     1     -33.748  17.314  -3.417  1.00 20.00     0.023 C 
HETATM    3  C3  UNL     1     -34.807  15.051  -3.041  1.00 20.00     0.028 C 
HETATM    4  C4  UNL     1     -33.774  15.602  -5.296  1.00 20.00     0.013 C 
HETATM    5  C5  UNL     1     -34.874  16.549  -2.706  1.00 20.00     0.094 C 
HETATM    6  C6  UNL     1     -33.730  17.094  -4.933  1.00 20.00    -0.017 C 
HETATM    7  C7  UNL     1     -34.843  14.756  -4.557  1.00 20.00    -0.046 C 
HETATM    8  C8  UNL     1     -34.798  17.858  -5.600  1.00 20.00     0.010 C 
HETATM    9  C9  UNL     1     -36.254  15.006  -5.123  1.00 20.00     0.015 C 
HETATM   10  C10 UNL     1     -34.522  13.262  -4.778  1.00 20.00     0.015 C 
HETATM   11  N11 UNL     1     -34.724  16.921  -0.047  1.00 20.00    -0.197 NA
ENDROOT
TORSDOF 0
ENDMDL
MODEL 9
REMARK VINA RESULT:      -4.4      2.613      3.579
REMARK  0 active torsions:
REMARK  status: ('A' for Active; 'I' for Inactive)
ROOT
HETATM    1  C1  UNL     1     -34.354  17.073  -7.015  1.00 20.00     0.064 C 
HETATM    2  C2  UNL     1     -33.509  16.738  -4.668  1.00 20.00     0.023 C 
HETATM    3  C3  UNL     1     -35.725  15.750  -5.372  1.00 20.00     0.028 C 
HETATM    4  C4  UNL     1     -34.877  15.389  -3.004  1.00 20.00     0.013 C 
HETATM    5  C5  UNL     1     -34.303  16.114  -5.825  1.00 20.00     0.094 C 
HETATM    6  C6  UNL     1     -33.473  15.859  -3.414  1.00 20.00    -0.017 C 
HETATM    7  C7  UNL     1     -35.759  14.815  -4.143  1.00 20.00    -0.046 C 
HETATM    8  C8  UNL     1     -32.537  14.733  -3.574  1.00 20.00     0.010 C 
HETATM    9  C9  UNL     1     -35.322  13.390  -4.534  1.00 20.00     0.015 C 
HETATM   10  C10 UNL     1     -37.214  14.721  -3.633  1.00 20.00     0.015 C 
HETATM   11  N11 UNL     1     -34.391  17.802  -7.918  1.00 20.00    -0.197 NA
ENDROOT
TORSDOF 0
ENDMDL
