MODEL 1
REMARK VINA RESULT:      -4.1      0.000      0.000
REMARK  6 active torsions:
REMARK  status: ('A' for Active; 'I' for Inactive)
REMARK    1  A    between atoms: C1_1  and  C5_5 
REMARK    2  A    between atoms: C1_1  and  O10_10 
REMARK    3  A    between atoms: C5_5  and  C6_6 
REMARK    4  A    between atoms: C6_6  and  C7_7 
REMARK    5  A    between atoms: C7_7  and  O11_11 
REMARK    6  A    between atoms: C8_8  and  O11_11 
ROOT
HETATM    1  C6  UNL     1     -33.659   5.737   2.843  1.00 20.00     0.036 C 
ENDROOT
BRANCH   1   2
HETATM    2  C5  UNL     1     -32.164   5.931   3.072  1.00 20.00     0.113 C 
BRANCH   2   3
HETATM    3  C1  UNL     1     -31.772   7.391   3.054  1.00 20.00     0.258 C 
HETATM    4  O9  UNL     1     -31.342   8.019   4.011  1.00 20.00    -0.265 OA
BRANCH   3   5
HETATM    5  O10 UNL     1     -31.974   7.886   1.796  1.00 20.00    -0.326 OA
HETATM    6  C4  UNL     1     -32.396   9.253   1.733  1.00 20.00     0.213 C 
ENDBRANCH   3   5
ENDBRANCH   2   3
ENDBRANCH   1   2
BRANCH   1   7
HETATM    7  C7  UNL     1     -34.484   6.351   3.964  1.00 20.00     0.168 C 
BRANCH   7   8
HETATM    8  O11 UNL     1     -35.362   5.361   4.484  1.00 20.00    -0.387 OA
BRANCH   8   9
HETATM    9  C8  UNL     1     -35.078   5.074   5.846  1.00 20.00     0.113 C 
HETATM   10  C2  UNL     1     -34.403   3.715   5.942  1.00 20.00     0.039 C 
HETATM   11  C3  UNL     1     -34.207   6.182   6.420  1.00 20.00     0.039 C 
ENDBRANCH   8   9
ENDBRANCH   7   8
ENDBRANCH   1   7
TORSDOF 6
ENDMDL
MODEL 2
REMARK VINA RESULT:      -4.0      1.171      5.046
REMARK  6 active torsions:
REMARK  status: ('A' for Active; 'I' for Inactive)
REMARK    1  A    between atoms: C1_1  and  C5_5 
REMARK    2  A    between atoms: C1_1  and  O10_10 
REMARK    3  A    between atoms: C5_5  and  C6_6 
REMARK    4  A    between atoms: C6_6  and  C7_7 
REMARK    5  A    between atoms: C7_7  and  O11_11 
REMARK    6  A    between atoms: C8_8  and  O11_11 
ROOT
HETATM    1  C6  UNL     1     -33.547   5.548   3.086  1.00 20.00     0.036 C 
ENDROOT
BRANCH   1   2
HETATM    2  C5  UNL     1     -34.616   5.952   4.095  1.00 20.00     0.113 C 
BRANCH   2   3
HETATM    3  C1  UNL     1     -34.905   4.847   5.087  1.00 20.00     0.258 C 
HETATM    4  O9  UNL     1     -35.194   3.695   4.795  1.00 20.00    -0.265 OA
BRANCH   3   5
HETATM    5  O10 UNL     1     -34.786   5.347   6.352  1.00 20.00    -0.326 OA
HETATM    6  C4  UNL     1     -34.040   6.563   6.467  1.00 20.00     0.213 C 
ENDBRANCH   3   5
ENDBRANCH   2   3
ENDBRANCH   1   2
BRANCH   1   7
HETATM    7  C7  UNL     1     -32.451   6.598   2.978  1.00 20.00     0.168 C 
BRANCH   7   8
HETATM    8  O11 UNL     1     -33.034   7.833   2.584  1.00 20.00    -0.387 OA
BRANCH   8   9
HETATM    9  C8  UNL     1     -32.074   8.700   1.996  1.00 20.00     0.113 C 
HETATM   10  C2  UNL     1     -31.698   8.173   0.621  1.00 20.00     0.039 C 
HETATM   11  C3  UNL     1     -32.648  10.108   1.927  1.00 20.00     0.039 C 
ENDBRANCH   8   9
ENDBRANCH   7   8
ENDBRANCH   1   7
TORSDOF 6
ENDMDL
MODEL 3
REMARK VINA RESULT:      -3.9      1.286      4.797
REMARK  6 active torsions:
REMARK  status: ('A' for Active; 'I' for Inactive)
REMARK    1  A    between atoms: C1_1  and  C5_5 
REMARK    2  A    between atoms: C1_1  and  O10_10 
REMARK    3  A    between atoms: C5_5  and  C6_6 
REMARK    4  A    between atoms: C6_6  and  C7_7 
REMARK    5  A    between atoms: C7_7  and  O11_11 
REMARK    6  A    between atoms: C8_8  and  O11_11 
ROOT
HETATM    1  C6  UNL     1     -34.222   5.362   2.959  1.00 20.00     0.036 C 
ENDROOT
BRANCH   1   2
HETATM    2  C5  UNL     1     -35.079   5.767   4.153  1.00 20.00     0.113 C 
BRANCH   2   3
HETATM    3  C1  UNL     1     -35.012   4.749   5.270  1.00 20.00     0.258 C 
HETATM    4  O9  UNL     1     -35.070   3.536   5.124  1.00 20.00    -0.265 OA
BRANCH   3   5
HETATM    5  O10 UNL     1     -34.874   5.408   6.459  1.00 20.00    -0.326 OA
HETATM    6  C4  UNL     1     -34.007   6.547   6.436  1.00 20.00     0.213 C 
ENDBRANCH   3   5
ENDBRANCH   2   3
ENDBRANCH   1   2
BRANCH   1   7
HETATM    7  C7  UNL     1     -32.744   5.619   3.215  1.00 20.00     0.168 C 
BRANCH   7   8
HETATM    8  O11 UNL     1     -32.237   6.457   2.185  1.00 20.00    -0.387 OA
BRANCH   8   9
HETATM    9  C8  UNL     1     -32.261   7.826   2.566  1.00 20.00     0.113 C 
HETATM   10  C2  UNL     1     -31.306   8.038   3.730  1.00 20.00     0.039 C 
HETATM   11  C3  UNL     1     -31.894   8.686   1.366  1.00 20.00     0.039 C 
ENDBRANCH   8   9
ENDBRANCH   7   8
ENDBRANCH   1   7
TORSDOF 6
ENDMDL
MODEL 4
REMARK VINA RESULT:      -3.9      1.208      1.590
REMARK  6 active torsions:
REMARK  status: ('A' for Active; 'I' for Inactive)
REMARK    1  A    between atoms: C1_1  and  C5_5 
REMARK    2  A    between atoms: C1_1  and  O10_10 
REMARK    3  A    between atoms: C5_5  and  C6_6 
REMARK    4  A    between atoms: C6_6  and  C7_7 
REMARK    5  A    between atoms: C7_7  and  O11_11 
REMARK    6  A    between atoms: C8_8  and  O11_11 
ROOT
HETATM    1  C6  UNL     1     -32.508   6.554   2.929  1.00 20.00     0.036 C 
ENDROOT
BRANCH   1   2
HETATM    2  C5  UNL     1     -31.702   7.847   2.981  1.00 20.00     0.113 C 
BRANCH   2   3
HETATM    3  C1  UNL     1     -32.120   8.818   1.899  1.00 20.00     0.258 C 
HETATM    4  O9  UNL     1     -32.784   9.830   2.076  1.00 20.00    -0.265 OA
BRANCH   3   5
HETATM    5  O10 UNL     1     -31.631   8.380   0.701  1.00 20.00    -0.326 OA
HETATM    6  C4  UNL     1     -32.431   8.697  -0.444  1.00 20.00     0.213 C 
ENDBRANCH   3   5
ENDBRANCH   2   3
ENDBRANCH   1   2
BRANCH   1   7
HETATM    7  C7  UNL     1     -33.808   6.669   3.711  1.00 20.00     0.168 C 
BRANCH   7   8
HETATM    8  O11 UNL     1     -34.253   5.364   4.059  1.00 20.00    -0.387 OA
BRANCH   8   9
HETATM    9  C8  UNL     1     -34.857   5.344   5.345  1.00 20.00     0.113 C 
HETATM   10  C2  UNL     1     -34.856   3.919   5.876  1.00 20.00     0.039 C 
HETATM   11  C3  UNL     1     -34.107   6.294   6.266  1.00 20.00     0.039 C 
ENDBRANCH   8   9
ENDBRANCH   7   8
ENDBRANCH   1   7
TORSDOF 6
ENDMDL
MODEL 5
REMARK VINA RESULT:      -3.9     10.800     13.063
REMARK  6 active torsions:
REMARK  status: ('A' for Active; 'I' for Inactive)
REMARK    1  A    between atoms: C1_1  and  C5_5 
REMARK    2  A    between atoms: C1_1  and  O10_10 
REMARK    3  A    between atoms: C5_5  and  C6_6 
REMARK    4  A    between atoms: C6_6  and  C7_7 
REMARK    5  A    between atoms: C7_7  and  O11_11 
REMARK    6  A    between atoms: C8_8  and  O11_11 
ROOT
HETATM    1  C6  UNL     1     -33.435  16.028  -3.047  1.00 20.00     0.036 C 
ENDROOT
BRANCH   1   2
HETATM    2  C5  UNL     1     -34.607  15.066  -2.881  1.00 20.00     0.113 C 
BRANCH   2   3
HETATM    3  C1  UNL     1     -34.400  13.783  -3.654  1.00 20.00     0.258 C 
HETATM    4  O9  UNL     1     -33.339  13.182  -3.753  1.00 20.00    -0.265 OA
BRANCH   3   5
HETATM    5  O10 UNL     1     -35.588  13.409  -4.216  1.00 20.00    -0.326 OA
HETATM    6  C4  UNL     1     -36.649  14.363  -4.104  1.00 20.00     0.213 C 
ENDBRANCH   3   5
ENDBRANCH   2   3
ENDBRANCH   1   2
BRANCH   1   7
HETATM    7  C7  UNL     1     -33.672  17.012  -4.183  1.00 20.00     0.168 C 
BRANCH   7   8
HETATM    8  O11 UNL     1     -33.150  16.462  -5.385  1.00 20.00    -0.387 OA
BRANCH   8   9
HETATM    9  C8  UNL     1     -34.069  16.591  -6.461  1.00 20.00     0.113 C 
HETATM   10  C2  UNL     1     -34.368  15.214  -7.032  1.00 20.00     0.039 C 
HETATM   11  C3  UNL     1     -35.328  17.286  -5.964  1.00 20.00     0.039 C 
ENDBRANCH   8   9
ENDBRANCH   7   8
ENDBRANCH   1   7
TORSDOF 6
ENDMDL
MODEL 6
REMARK VINA RESULT:      -3.9      1.410      5.197
REMARK  6 active torsions:
REMARK  status: ('A' for Active; 'I' for Inactive)
REMARK    1  A    between atoms: C1_1  and  C5_5 
REMARK    2  A    between atoms: C1_1  and  O10_10 
REMARK    3  A    between atoms: C5_5  and  C6_6 
REMARK    4  A    between atoms: C6_6  and  C7_7 
REMARK    5  A    between atoms: C7_7  and  O11_11 
REMARK    6  A    between atoms: C8_8  and  O11_11 
ROOT
HETATM    1  C6  UNL     1     -32.722   6.352   3.574  1.00 20.00     0.036 C 
ENDROOT
BRANCH   1   2
HETATM    2  C5  UNL     1     -34.101   6.193   4.204  1.00 20.00     0.113 C 
BRANCH   2   3
HETATM    3  C1  UNL     1     -34.040   6.215   5.715  1.00 20.00     0.258 C 
HETATM    4  O9  UNL     1     -33.313   6.939   6.381  1.00 20.00    -0.265 OA
BRANCH   3   5
HETATM    5  O10 UNL     1     -34.928   5.301   6.207  1.00 20.00    -0.326 OA
HETATM    6  C4  UNL     1     -34.930   4.029   5.550  1.00 20.00     0.213 C 
ENDBRANCH   3   5
ENDBRANCH   2   3
ENDBRANCH   1   2
BRANCH   1   7
HETATM    7  C7  UNL     1     -32.500   7.766   3.056  1.00 20.00     0.168 C 
BRANCH   7   8
HETATM    8  O11 UNL     1     -31.796   7.699   1.823  1.00 20.00    -0.387 OA
BRANCH   8   9
HETATM    9  C8  UNL     1     -31.875   8.925   1.109  1.00 20.00     0.113 C 
HETATM   10  C2  UNL     1     -32.481   8.667  -0.261  1.00 20.00     0.039 C 
HETATM   11  C3  UNL     1     -32.695   9.921   1.915  1.00 20.00     0.039 C 
ENDBRANCH   8   9
ENDBRANCH   7   8
ENDBRANCH   1   7
TORSDOF 6
ENDMDL
MODEL 7
REMARK VINA RESULT:      -3.9     11.345     12.717
REMARK  6 active torsions:
REMARK  status: ('A' for Active; 'I' for Inactive)
REMARK    1  A    between atoms: C1_1  and  C5_5 
REMARK    2  A    between atoms: C1_1  and  O10_10 
REMARK    3  A    between atoms: C5_5  and  C6_6 
REMARK    4  A    between atoms: C6_6  and  C7_7 
REMARK    5  A    between atoms: C7_7  and  O11_11 
REMARK    6  A    between atoms: C8_8  and  O11_11 
ROOT
HETATM    1  C6  UNL     1     -34.193  15.128  -5.813  1.00 20.00     0.036 C 
ENDROOT
BRANCH   1   2
HETATM    2  C5  UNL     1     -35.649  14.808  -5.496  1.00 20.00     0.113 C 
BRANCH   2   3
HETATM    3  C1  UNL     1     -35.776  13.732  -4.441  1.00 20.00     0.258 C 
HETATM    4  O9  UNL     1     -34.973  12.829  -4.255  1.00 20.00    -0.265 OA
BRANCH   3   5
HETATM    5  O10 UNL     1     -36.928  13.940  -3.736  1.00 20.00    -0.326 OA
HETATM    6  C4  UNL     1     -37.504  15.243  -3.866  1.00 20.00     0.213 C 
ENDBRANCH   3   5
ENDBRANCH   2   3
ENDBRANCH   1   2
BRANCH   1   7
HETATM    7  C7  UNL     1     -33.733  16.402  -5.119  1.00 20.00     0.168 C 
BRANCH   7   8
HETATM    8  O11 UNL     1     -33.308  16.080  -3.801  1.00 20.00    -0.387 OA
BRANCH   8   9
HETATM    9  C8  UNL     1     -33.871  16.964  -2.841  1.00 20.00     0.113 C 
HETATM   10  C2  UNL     1     -34.813  17.930  -3.541  1.00 20.00     0.039 C 
HETATM   11  C3  UNL     1     -34.584  16.151  -1.770  1.00 20.00     0.039 C 
ENDBRANCH   8   9
ENDBRANCH   7   8
ENDBRANCH   1   7
TORSDOF 6
ENDMDL
MODEL 8
REMARK VINA RESULT:      -3.8     11.132     12.181
REMARK  6 active torsions:
REMARK  status: ('A' for Active; 'I' for Inactive)
REMARK    1  A    between atoms: C1_1  and  C5_5 
REMARK    2  A    between atoms: C1_1  and  O10_10 
REMARK    3  A    between atoms: C5_5  and  C6_6 
REMARK    4  A    between atoms: C6_6  and  C7_7 
REMARK    5  A    between atoms: C7_7  and  O11_11 
REMARK    6  A    between atoms: C8_8  and  O11_11 
ROOT
HETATM    1  C6  UNL     1     -33.353  15.645  -3.671  1.00 20.00     0.036 C 
ENDROOT
BRANCH   1   2
HETATM    2  C5  UNL     1     -34.269  14.458  -3.394  1.00 20.00     0.113 C 
BRANCH   2   3
HETATM    3  C1  UNL     1     -34.572  13.671  -4.649  1.00 20.00     0.258 C 
HETATM    4  O9  UNL     1     -34.963  12.512  -4.678  1.00 20.00    -0.265 OA
BRANCH   3   5
HETATM    5  O10 UNL     1     -34.340  14.466  -5.736  1.00 20.00    -0.326 OA
HETATM    6  C4  UNL     1     -35.289  14.346  -6.800  1.00 20.00     0.213 C 
ENDBRANCH   3   5
ENDBRANCH   2   3
ENDBRANCH   1   2
BRANCH   1   7
HETATM    7  C7  UNL     1     -33.806  16.891  -2.925  1.00 20.00     0.168 C 
BRANCH   7   8
HETATM    8  O11 UNL     1     -33.857  16.603  -1.535  1.00 20.00    -0.387 OA
BRANCH   8   9
HETATM    9  C8  UNL     1     -34.174  17.759  -0.772  1.00 20.00     0.113 C 
HETATM   10  C2  UNL     1     -35.011  17.352   0.430  1.00 20.00     0.039 C 
HETATM   11  C3  UNL     1     -32.885  18.454  -0.358  1.00 20.00     0.039 C 
ENDBRANCH   8   9
ENDBRANCH   7   8
ENDBRANCH   1   7
TORSDOF 6
ENDMDL
MODEL 9
REMARK VINA RESULT:      -3.7      1.193      5.261
REMARK  6 active torsions:
REMARK  status: ('A' for Active; 'I' for Inactive)
REMARK    1  A    between atoms: C1_1  and  C5_5 
REMARK    2  A    between atoms: C1_1  and  O10_10 
REMARK    3  A    between atoms: C5_5  and  C6_6 
REMARK    4  A    between atoms: C6_6  and  C7_7 
REMARK    5  A    between atoms: C7_7  and  O11_11 
REMARK    6  A    between atoms: C8_8  and  O11_11 
ROOT
HETATM    1  C6  UNL     1     -32.592   6.810   3.994  1.00 20.00     0.036 C 
ENDROOT
BRANCH   1   2
HETATM    2  C5  UNL     1     -33.535   5.949   3.161  1.00 20.00     0.113 C 
BRANCH   2   3
HETATM    3  C1  UNL     1     -34.668   5.385   3.990  1.00 20.00     0.258 C 
HETATM    4  O9  UNL     1     -35.854   5.446   3.698  1.00 20.00    -0.265 OA
BRANCH   3   5
HETATM    5  O10 UNL     1     -34.147   4.796   5.107  1.00 20.00    -0.326 OA
HETATM    6  C4  UNL     1     -35.093   4.476   6.133  1.00 20.00     0.213 C 
ENDBRANCH   3   5
ENDBRANCH   2   3
ENDBRANCH   1   2
BRANCH   1   7
HETATM    7  C7  UNL     1     -31.654   7.626   3.118  1.00 20.00     0.168 C 
BRANCH   7   8
HETATM    8  O11 UNL     1     -32.156   7.635   1.789  1.00 20.00    -0.387 OA
BRANCH   8   9
HETATM    9  C8  UNL     1     -31.970   8.899   1.168  1.00 20.00     0.113 C 
HETATM   10  C2  UNL     1     -32.493   8.839  -0.258  1.00 20.00     0.039 C 
HETATM   11  C3  UNL     1     -32.678   9.968   1.988  1.00 20.00     0.039 C 
ENDBRANCH   8   9
ENDBRANCH   7   8
ENDBRANCH   1   7
TORSDOF 6
ENDMDL
