MODEL 1
REMARK VINA RESULT:      -4.0      0.000      0.000
REMARK  3 active torsions:
REMARK  status: ('A' for Active; 'I' for Inactive)
REMARK    1  A    between atoms: C6_6  and  C8_8 
REMARK    2  A    between atoms: C7_7  and  C8_8 
REMARK    3  A    between atoms: C8_8  and  N10_10 
ROOT
HETATM    1  C1  UNL     1     -34.963  13.900  -4.134  1.00 20.00     0.102 C 
HETATM    2  C8  UNL     1     -35.075  15.336  -3.796  1.00 20.00     0.244 C 
HETATM    3  N9  UNL     1     -34.877  12.773  -4.397  1.00 20.00    -0.194 NA
ENDROOT
BRANCH   2   4
HETATM    4  C6  UNL     1     -34.079  15.688  -2.660  1.00 20.00     0.053 C 
HETATM    5  C2  UNL     1     -34.710  16.338  -1.430  1.00 20.00     0.009 C 
ENDBRANCH   2   4
BRANCH   2   6
HETATM    6  C7  UNL     1     -36.509  15.655  -3.301  1.00 20.00     0.053 C 
HETATM    7  C3  UNL     1     -37.607  14.769  -3.885  1.00 20.00     0.009 C 
ENDBRANCH   2   6
BRANCH   2   8
HETATM    8  N10 UNL     1     -34.777  16.132  -4.972  1.00 20.00     0.103 N 
HETATM    9  C4  UNL     1     -33.331  16.318  -5.125  1.00 20.00     0.311 C 
HETATM   10  C5  UNL     1     -35.446  17.437  -4.901  1.00 20.00     0.311 C 
ENDBRANCH   2   8
TORSDOF 3
ENDMDL
MODEL 2
REMARK VINA RESULT:      -3.9      1.345      2.383
REMARK  3 active torsions:
REMARK  status: ('A' for Active; 'I' for Inactive)
REMARK    1  A    between atoms: C6_6  and  C8_8 
REMARK    2  A    between atoms: C7_7  and  C8_8 
REMARK    3  A    between atoms: C8_8  and  N10_10 
ROOT
HETATM    1  C1  UNL     1     -36.766  14.891  -3.679  1.00 20.00     0.102 C 
HETATM    2  C8  UNL     1     -35.486  15.630  -3.615  1.00 20.00     0.244 C 
HETATM    3  N9  UNL     1     -37.770  14.312  -3.727  1.00 20.00    -0.194 NA
ENDROOT
BRANCH   2   4
HETATM    4  C6  UNL     1     -34.325  14.646  -3.313  1.00 20.00     0.053 C 
HETATM    5  C2  UNL     1     -34.283  13.408  -4.207  1.00 20.00     0.009 C 
ENDBRANCH   2   4
BRANCH   2   6
HETATM    6  C7  UNL     1     -35.537  16.684  -2.479  1.00 20.00     0.053 C 
HETATM    7  C3  UNL     1     -34.638  16.387  -1.280  1.00 20.00     0.009 C 
ENDBRANCH   2   6
BRANCH   2   8
HETATM    8  N10 UNL     1     -35.247  16.294  -4.883  1.00 20.00     0.103 N 
HETATM    9  C4  UNL     1     -33.942  16.962  -4.886  1.00 20.00     0.311 C 
HETATM   10  C5  UNL     1     -36.309  17.265  -5.171  1.00 20.00     0.311 C 
ENDBRANCH   2   8
TORSDOF 3
ENDMDL
MODEL 3
REMARK VINA RESULT:      -3.9      1.568      2.719
REMARK  3 active torsions:
REMARK  status: ('A' for Active; 'I' for Inactive)
REMARK    1  A    between atoms: C6_6  and  C8_8 
REMARK    2  A    between atoms: C7_7  and  C8_8 
REMARK    3  A    between atoms: C8_8  and  N10_10 
ROOT
HETATM    1  C1  UNL     1     -36.521  14.810  -3.930  1.00 20.00     0.102 C 
HETATM    2  C8  UNL     1     -35.166  15.316  -4.241  1.00 20.00     0.244 C 
HETATM    3  N9  UNL     1     -37.583  14.414  -3.685  1.00 20.00    -0.194 NA
ENDROOT
BRANCH   2   4
HETATM    4  C6  UNL     1     -34.289  15.295  -2.962  1.00 20.00     0.053 C 
HETATM    5  C2  UNL     1     -34.824  16.132  -1.801  1.00 20.00     0.009 C 
ENDBRANCH   2   4
BRANCH   2   6
HETATM    6  C7  UNL     1     -35.250  16.779  -4.748  1.00 20.00     0.053 C 
HETATM    7  C3  UNL     1     -33.907  17.427  -5.081  1.00 20.00     0.009 C 
ENDBRANCH   2   6
BRANCH   2   8
HETATM    8  N10 UNL     1     -34.562  14.482  -5.263  1.00 20.00     0.103 N 
HETATM    9  C4  UNL     1     -35.394  14.450  -6.471  1.00 20.00     0.311 C 
HETATM   10  C5  UNL     1     -34.348  13.119  -4.765  1.00 20.00     0.311 C 
ENDBRANCH   2   8
TORSDOF 3
ENDMDL
MODEL 4
REMARK VINA RESULT:      -3.8      1.096      2.835
REMARK  3 active torsions:
REMARK  status: ('A' for Active; 'I' for Inactive)
REMARK    1  A    between atoms: C6_6  and  C8_8 
REMARK    2  A    between atoms: C7_7  and  C8_8 
REMARK    3  A    between atoms: C8_8  and  N10_10 
ROOT
HETATM    1  C1  UNL     1     -34.123  14.341  -3.602  1.00 20.00     0.102 C 
HETATM    2  C8  UNL     1     -34.648  15.711  -3.413  1.00 20.00     0.244 C 
HETATM    3  N9  UNL     1     -33.711  13.267  -3.750  1.00 20.00    -0.194 NA
ENDROOT
BRANCH   2   4
HETATM    4  C6  UNL     1     -33.636  16.744  -3.972  1.00 20.00     0.053 C 
HETATM    5  C2  UNL     1     -33.286  16.567  -5.448  1.00 20.00     0.009 C 
ENDBRANCH   2   4
BRANCH   2   6
HETATM    6  C7  UNL     1     -34.850  15.997  -1.902  1.00 20.00     0.053 C 
HETATM    7  C3  UNL     1     -33.882  17.015  -1.301  1.00 20.00     0.009 C 
ENDBRANCH   2   6
BRANCH   2   8
HETATM    8  N10 UNL     1     -35.916  15.842  -4.106  1.00 20.00     0.103 N 
HETATM    9  C4  UNL     1     -36.514  17.158  -3.855  1.00 20.00     0.311 C 
HETATM   10  C5  UNL     1     -36.846  14.782  -3.700  1.00 20.00     0.311 C 
ENDBRANCH   2   8
TORSDOF 3
ENDMDL
MODEL 5
REMARK VINA RESULT:      -3.8      1.663      2.741
REMARK  3 active torsions:
REMARK  status: ('A' for Active; 'I' for Inactive)
REMARK    1  A    between atoms: C6_6  and  C8_8 
REMARK    2  A    between atoms: C7_7  and  C8_8 
REMARK    3  A    between atoms: C8_8  and  N10_10 
ROOT
HETATM    1  C1  UNL     1     -34.726  13.767  -4.904  1.00 20.00     0.102 C 
HETATM    2  C8  UNL     1     -34.666  15.187  -5.313  1.00 20.00     0.244 C 
HETATM    3  N9  UNL     1     -34.774  12.652  -4.584  1.00 20.00    -0.194 NA
ENDROOT
BRANCH   2   4
HETATM    4  C6  UNL     1     -35.998  15.895  -4.951  1.00 20.00     0.053 C 
HETATM    5  C2  UNL     1     -37.100  14.970  -4.440  1.00 20.00     0.009 C 
ENDBRANCH   2   4
BRANCH   2   6
HETATM    6  C7  UNL     1     -34.462  15.290  -6.846  1.00 20.00     0.053 C 
HETATM    7  C3  UNL     1     -35.438  14.467  -7.685  1.00 20.00     0.009 C 
ENDBRANCH   2   6
BRANCH   2   8
HETATM    8  N10 UNL     1     -33.564  15.840  -4.631  1.00 20.00     0.103 N 
HETATM    9  C4  UNL     1     -33.773  15.838  -3.179  1.00 20.00     0.311 C 
HETATM   10  C5  UNL     1     -33.394  17.215  -5.112  1.00 20.00     0.311 C 
ENDBRANCH   2   8
TORSDOF 3
ENDMDL
MODEL 6
REMARK VINA RESULT:      -3.8      1.480      3.350
REMARK  3 active torsions:
REMARK  status: ('A' for Active; 'I' for Inactive)
REMARK    1  A    between atoms: C6_6  and  C8_8 
REMARK    2  A    between atoms: C7_7  and  C8_8 
REMARK    3  A    between atoms: C8_8  and  N10_10 
ROOT
HETATM    1  C1  UNL     1     -33.971  14.160  -4.246  1.00 20.00     0.102 C 
HETATM    2  C8  UNL     1     -34.450  15.521  -4.574  1.00 20.00     0.244 C 
HETATM    3  N9  UNL     1     -33.595  13.093  -3.989  1.00 20.00    -0.194 NA
ENDROOT
BRANCH   2   4
HETATM    4  C6  UNL     1     -35.226  15.495  -5.917  1.00 20.00     0.053 C 
HETATM    5  C2  UNL     1     -34.489  14.822  -7.074  1.00 20.00     0.009 C 
ENDBRANCH   2   4
BRANCH   2   6
HETATM    6  C7  UNL     1     -33.245  16.484  -4.728  1.00 20.00     0.053 C 
HETATM    7  C3  UNL     1     -33.596  17.883  -5.233  1.00 20.00     0.009 C 
ENDBRANCH   2   6
BRANCH   2   8
HETATM    8  N10 UNL     1     -35.320  15.995  -3.515  1.00 20.00     0.103 N 
HETATM    9  C4  UNL     1     -34.629  15.973  -2.221  1.00 20.00     0.311 C 
HETATM   10  C5  UNL     1     -36.543  15.188  -3.444  1.00 20.00     0.311 C 
ENDBRANCH   2   8
TORSDOF 3
ENDMDL
MODEL 7
REMARK VINA RESULT:      -3.8      1.782      3.012
REMARK  3 active torsions:
REMARK  status: ('A' for Active; 'I' for Inactive)
REMARK    1  A    between atoms: C6_6  and  C8_8 
REMARK    2  A    between atoms: C7_7  and  C8_8 
REMARK    3  A    between atoms: C8_8  and  N10_10 
ROOT
HETATM    1  C1  UNL     1     -36.562  14.637  -4.140  1.00 20.00     0.102 C 
HETATM    2  C8  UNL     1     -35.202  15.094  -4.498  1.00 20.00     0.244 C 
HETATM    3  N9  UNL     1     -37.629  14.277  -3.859  1.00 20.00    -0.194 NA
ENDROOT
BRANCH   2   4
HETATM    4  C6  UNL     1     -34.732  14.382  -5.794  1.00 20.00     0.053 C 
HETATM    5  C2  UNL     1     -35.676  14.527  -6.986  1.00 20.00     0.009 C 
ENDBRANCH   2   4
BRANCH   2   6
HETATM    6  C7  UNL     1     -34.207  14.742  -3.363  1.00 20.00     0.053 C 
HETATM    7  C3  UNL     1     -33.237  13.605  -3.681  1.00 20.00     0.009 C 
ENDBRANCH   2   6
BRANCH   2   8
HETATM    8  N10 UNL     1     -35.214  16.530  -4.706  1.00 20.00     0.103 N 
HETATM    9  C4  UNL     1     -33.869  17.024  -5.019  1.00 20.00     0.311 C 
HETATM   10  C5  UNL     1     -35.741  17.224  -3.525  1.00 20.00     0.311 C 
ENDBRANCH   2   8
TORSDOF 3
ENDMDL
MODEL 8
REMARK VINA RESULT:      -3.7      1.334      2.645
REMARK  3 active torsions:
REMARK  status: ('A' for Active; 'I' for Inactive)
REMARK    1  A    between atoms: C6_6  and  C8_8 
REMARK    2  A    between atoms: C7_7  and  C8_8 
REMARK    3  A    between atoms: C8_8  and  N10_10 
ROOT
HETATM    1  C1  UNL     1     -34.036  14.222  -3.947  1.00 20.00     0.102 C 
HETATM    2  C8  UNL     1     -34.476  15.574  -4.357  1.00 20.00     0.244 C 
HETATM    3  N9  UNL     1     -33.691  13.162  -3.625  1.00 20.00    -0.194 NA
ENDROOT
BRANCH   2   4
HETATM    4  C6  UNL     1     -33.247  16.423  -4.775  1.00 20.00     0.053 C 
HETATM    5  C2  UNL     1     -33.548  17.893  -5.061  1.00 20.00     0.009 C 
ENDBRANCH   2   4
BRANCH   2   6
HETATM    6  C7  UNL     1     -35.176  16.286  -3.171  1.00 20.00     0.053 C 
HETATM    7  C3  UNL     1     -34.462  16.159  -1.826  1.00 20.00     0.009 C 
ENDBRANCH   2   6
BRANCH   2   8
HETATM    8  N10 UNL     1     -35.398  15.465  -5.472  1.00 20.00     0.103 N 
HETATM    9  C4  UNL     1     -36.676  14.892  -5.038  1.00 20.00     0.311 C 
HETATM   10  C5  UNL     1     -34.821  14.649  -6.547  1.00 20.00     0.311 C 
ENDBRANCH   2   8
TORSDOF 3
ENDMDL
MODEL 9
REMARK VINA RESULT:      -3.7      1.448      2.940
REMARK  3 active torsions:
REMARK  status: ('A' for Active; 'I' for Inactive)
REMARK    1  A    between atoms: C6_6  and  C8_8 
REMARK    2  A    between atoms: C7_7  and  C8_8 
REMARK    3  A    between atoms: C8_8  and  N10_10 
ROOT
HETATM    1  C1  UNL     1     -33.921  16.131  -4.523  1.00 20.00     0.102 C 
HETATM    2  C8  UNL     1     -35.033  15.395  -3.883  1.00 20.00     0.244 C 
HETATM    3  N9  UNL     1     -33.049  16.709  -5.024  1.00 20.00    -0.194 NA
ENDROOT
BRANCH   2   4
HETATM    4  C6  UNL     1     -35.376  16.044  -2.517  1.00 20.00     0.053 C 
HETATM    5  C2  UNL     1     -34.170  16.519  -1.709  1.00 20.00     0.009 C 
ENDBRANCH   2   4
BRANCH   2   6
HETATM    6  C7  UNL     1     -34.619  13.922  -3.631  1.00 20.00     0.053 C 
HETATM    7  C3  UNL     1     -33.115  13.655  -3.683  1.00 20.00     0.009 C 
ENDBRANCH   2   6
BRANCH   2   8
HETATM    8  N10 UNL     1     -36.198  15.431  -4.748  1.00 20.00     0.103 N 
HETATM    9  C4  UNL     1     -37.347  14.787  -4.104  1.00 20.00     0.311 C 
HETATM   10  C5  UNL     1     -35.913  14.782  -6.033  1.00 20.00     0.311 C 
ENDBRANCH   2   8
TORSDOF 3
ENDMDL
