MODEL 1
REMARK VINA RESULT:      -4.1      0.000      0.000
REMARK  3 active torsions:
REMARK  status: ('A' for Active; 'I' for Inactive)
REMARK    1  A    between atoms: C5_5  and  C6_6 
REMARK    2  A    between atoms: C6_6  and  C7_7 
REMARK    3  A    between atoms: C7_7  and  N9_9 
ROOT
HETATM    1  C1  UNL     1     -34.377  13.825  -4.326  1.00 20.00     0.095 C 
HETATM    2  C7  UNL     1     -33.636  15.095  -4.399  1.00 20.00     0.327 C 
HETATM    3  N8  UNL     1     -34.959  12.823  -4.270  1.00 20.00    -0.195 NA
ENDROOT
BRANCH   2   4
HETATM    4  C6  UNL     1     -33.514  15.762  -3.017  1.00 20.00     0.050 C 
BRANCH   4   5
HETATM    5  C5  UNL     1     -34.826  15.854  -2.226  1.00 20.00    -0.001 C 
HETATM    6  C2  UNL     1     -34.627  16.596  -0.912  1.00 20.00     0.005 C 
ENDBRANCH   4   5
ENDBRANCH   2   4
BRANCH   2   7
HETATM    7  N9  UNL     1     -34.262  15.996  -5.365  1.00 20.00     0.098 N 
HETATM    8  C3  UNL     1     -34.295  15.380  -6.691  1.00 20.00     0.311 C 
HETATM    9  C4  UNL     1     -33.550  17.272  -5.414  1.00 20.00     0.311 C 
ENDBRANCH   2   7
TORSDOF 3
ENDMDL
MODEL 2
REMARK VINA RESULT:      -3.9      1.078      1.282
REMARK  3 active torsions:
REMARK  status: ('A' for Active; 'I' for Inactive)
REMARK    1  A    between atoms: C5_5  and  C6_6 
REMARK    2  A    between atoms: C6_6  and  C7_7 
REMARK    3  A    between atoms: C7_7  and  N9_9 
ROOT
HETATM    1  C1  UNL     1     -34.583  13.854  -4.249  1.00 20.00     0.095 C 
HETATM    2  C7  UNL     1     -34.226  15.226  -3.852  1.00 20.00     0.327 C 
HETATM    3  N8  UNL     1     -34.861  12.772  -4.564  1.00 20.00    -0.195 NA
ENDROOT
BRANCH   2   4
HETATM    4  C6  UNL     1     -34.774  15.574  -2.457  1.00 20.00     0.050 C 
BRANCH   4   5
HETATM    5  C5  UNL     1     -34.016  16.689  -1.724  1.00 20.00    -0.001 C 
HETATM    6  C2  UNL     1     -34.658  16.999  -0.379  1.00 20.00     0.005 C 
ENDBRANCH   4   5
ENDBRANCH   2   4
BRANCH   2   7
HETATM    7  N9  UNL     1     -34.688  16.184  -4.855  1.00 20.00     0.098 N 
HETATM    8  C3  UNL     1     -36.144  16.128  -4.982  1.00 20.00     0.311 C 
HETATM    9  C4  UNL     1     -34.052  15.923  -6.146  1.00 20.00     0.311 C 
ENDBRANCH   2   7
TORSDOF 3
ENDMDL
MODEL 3
REMARK VINA RESULT:      -3.9      0.988      1.352
REMARK  3 active torsions:
REMARK  status: ('A' for Active; 'I' for Inactive)
REMARK    1  A    between atoms: C5_5  and  C6_6 
REMARK    2  A    between atoms: C6_6  and  C7_7 
REMARK    3  A    between atoms: C7_7  and  N9_9 
ROOT
HETATM    1  C1  UNL     1     -34.609  13.839  -4.089  1.00 20.00     0.095 C 
HETATM    2  C7  UNL     1     -34.234  15.238  -3.825  1.00 20.00     0.327 C 
HETATM    3  N8  UNL     1     -34.902  12.736  -4.298  1.00 20.00    -0.195 NA
ENDROOT
BRANCH   2   4
HETATM    4  C6  UNL     1     -34.929  15.785  -2.566  1.00 20.00     0.050 C 
BRANCH   4   5
HETATM    5  C5  UNL     1     -34.022  16.583  -1.621  1.00 20.00    -0.001 C 
HETATM    6  C2  UNL     1     -34.759  16.974  -0.348  1.00 20.00     0.005 C 
ENDBRANCH   4   5
ENDBRANCH   2   4
BRANCH   2   7
HETATM    7  N9  UNL     1     -34.521  16.072  -4.991  1.00 20.00     0.098 N 
HETATM    8  C3  UNL     1     -33.429  17.017  -5.225  1.00 20.00     0.311 C 
HETATM    9  C4  UNL     1     -35.784  16.787  -4.811  1.00 20.00     0.311 C 
ENDBRANCH   2   7
TORSDOF 3
ENDMDL
MODEL 4
REMARK VINA RESULT:      -3.7     11.666     13.090
REMARK  3 active torsions:
REMARK  status: ('A' for Active; 'I' for Inactive)
REMARK    1  A    between atoms: C5_5  and  C6_6 
REMARK    2  A    between atoms: C6_6  and  C7_7 
REMARK    3  A    between atoms: C7_7  and  N9_9 
ROOT
HETATM    1  C1  UNL     1     -33.707   6.453   5.737  1.00 20.00     0.095 C 
HETATM    2  C7  UNL     1     -33.561   5.586   4.556  1.00 20.00     0.327 C 
HETATM    3  N8  UNL     1     -33.821   7.134   6.670  1.00 20.00    -0.195 NA
ENDROOT
BRANCH   2   4
HETATM    4  C6  UNL     1     -33.333   6.407   3.274  1.00 20.00     0.050 C 
BRANCH   4   5
HETATM    5  C5  UNL     1     -32.013   7.190   3.235  1.00 20.00    -0.001 C 
HETATM    6  C2  UNL     1     -32.010   8.208   2.103  1.00 20.00     0.005 C 
ENDBRANCH   4   5
ENDBRANCH   2   4
BRANCH   2   7
HETATM    7  N9  UNL     1     -34.722   4.709   4.420  1.00 20.00     0.098 N 
HETATM    8  C3  UNL     1     -35.867   5.454   3.896  1.00 20.00     0.311 C 
HETATM    9  C4  UNL     1     -35.057   4.098   5.706  1.00 20.00     0.311 C 
ENDBRANCH   2   7
TORSDOF 3
ENDMDL
MODEL 5
REMARK VINA RESULT:      -3.7      1.553      2.829
REMARK  3 active torsions:
REMARK  status: ('A' for Active; 'I' for Inactive)
REMARK    1  A    between atoms: C5_5  and  C6_6 
REMARK    2  A    between atoms: C6_6  and  C7_7 
REMARK    3  A    between atoms: C7_7  and  N9_9 
ROOT
HETATM    1  C1  UNL     1     -33.945  16.267  -4.529  1.00 20.00     0.095 C 
HETATM    2  C7  UNL     1     -35.167  15.908  -3.791  1.00 20.00     0.327 C 
HETATM    3  N8  UNL     1     -32.984  16.553  -5.113  1.00 20.00    -0.195 NA
ENDROOT
BRANCH   2   4
HETATM    4  C6  UNL     1     -34.868  15.606  -2.312  1.00 20.00     0.050 C 
BRANCH   4   5
HETATM    5  C5  UNL     1     -34.102  16.708  -1.568  1.00 20.00    -0.001 C 
HETATM    6  C2  UNL     1     -34.758  17.032  -0.233  1.00 20.00     0.005 C 
ENDBRANCH   4   5
ENDBRANCH   2   4
BRANCH   2   7
HETATM    7  N9  UNL     1     -35.839  14.780  -4.434  1.00 20.00     0.098 N 
HETATM    8  C3  UNL     1     -37.217  14.668  -3.959  1.00 20.00     0.311 C 
HETATM    9  C4  UNL     1     -35.110  13.537  -4.182  1.00 20.00     0.311 C 
ENDBRANCH   2   7
TORSDOF 3
ENDMDL
MODEL 6
REMARK VINA RESULT:      -3.7      1.265      1.285
REMARK  3 active torsions:
REMARK  status: ('A' for Active; 'I' for Inactive)
REMARK    1  A    between atoms: C5_5  and  C6_6 
REMARK    2  A    between atoms: C6_6  and  C7_7 
REMARK    3  A    between atoms: C7_7  and  N9_9 
ROOT
HETATM    1  C1  UNL     1     -36.143  14.449  -4.043  1.00 20.00     0.095 C 
HETATM    2  C7  UNL     1     -34.714  14.703  -4.290  1.00 20.00     0.327 C 
HETATM    3  N8  UNL     1     -37.269  14.245  -3.851  1.00 20.00    -0.195 NA
ENDROOT
BRANCH   2   4
HETATM    4  C6  UNL     1     -34.001  15.209  -3.024  1.00 20.00     0.050 C 
BRANCH   4   5
HETATM    5  C5  UNL     1     -34.894  15.978  -2.041  1.00 20.00    -0.001 C 
HETATM    6  C2  UNL     1     -34.086  16.980  -1.229  1.00 20.00     0.005 C 
ENDBRANCH   4   5
ENDBRANCH   2   4
BRANCH   2   7
HETATM    7  N9  UNL     1     -34.547  15.641  -5.399  1.00 20.00     0.098 N 
HETATM    8  C3  UNL     1     -34.517  14.925  -6.674  1.00 20.00     0.311 C 
HETATM    9  C4  UNL     1     -33.326  16.428  -5.226  1.00 20.00     0.311 C 
ENDBRANCH   2   7
TORSDOF 3
ENDMDL
MODEL 7
REMARK VINA RESULT:      -3.7      1.810      3.755
REMARK  3 active torsions:
REMARK  status: ('A' for Active; 'I' for Inactive)
REMARK    1  A    between atoms: C5_5  and  C6_6 
REMARK    2  A    between atoms: C6_6  and  C7_7 
REMARK    3  A    between atoms: C7_7  and  N9_9 
ROOT
HETATM    1  C1  UNL     1     -36.838  14.529  -4.061  1.00 20.00     0.095 C 
HETATM    2  C7  UNL     1     -35.448  14.803  -4.457  1.00 20.00     0.327 C 
HETATM    3  N8  UNL     1     -37.935  14.315  -3.747  1.00 20.00    -0.195 NA
ENDROOT
BRANCH   2   4
HETATM    4  C6  UNL     1     -35.029  13.963  -5.676  1.00 20.00     0.050 C 
BRANCH   4   5
HETATM    5  C5  UNL     1     -34.720  14.771  -6.944  1.00 20.00    -0.001 C 
HETATM    6  C2  UNL     1     -34.283  16.188  -6.601  1.00 20.00     0.005 C 
ENDBRANCH   4   5
ENDBRANCH   2   4
BRANCH   2   7
HETATM    7  N9  UNL     1     -34.543  14.585  -3.330  1.00 20.00     0.098 N 
HETATM    8  C3  UNL     1     -34.075  15.863  -2.795  1.00 20.00     0.311 C 
HETATM    9  C4  UNL     1     -33.408  13.756  -3.736  1.00 20.00     0.311 C 
ENDBRANCH   2   7
TORSDOF 3
ENDMDL
MODEL 8
REMARK VINA RESULT:      -3.6      1.266      3.625
REMARK  3 active torsions:
REMARK  status: ('A' for Active; 'I' for Inactive)
REMARK    1  A    between atoms: C5_5  and  C6_6 
REMARK    2  A    between atoms: C6_6  and  C7_7 
REMARK    3  A    between atoms: C7_7  and  N9_9 
ROOT
HETATM    1  C1  UNL     1     -34.721  13.763  -4.938  1.00 20.00     0.095 C 
HETATM    2  C7  UNL     1     -34.614  15.151  -5.416  1.00 20.00     0.327 C 
HETATM    3  N8  UNL     1     -34.806  12.669  -4.559  1.00 20.00    -0.195 NA
ENDROOT
BRANCH   2   4
HETATM    4  C6  UNL     1     -34.403  15.212  -6.939  1.00 20.00     0.050 C 
BRANCH   4   5
HETATM    5  C5  UNL     1     -35.454  14.462  -7.768  1.00 20.00    -0.001 C 
HETATM    6  C2  UNL     1     -36.807  15.157  -7.702  1.00 20.00     0.005 C 
ENDBRANCH   4   5
ENDBRANCH   2   4
BRANCH   2   7
HETATM    7  N9  UNL     1     -33.547  15.854  -4.707  1.00 20.00     0.098 N 
HETATM    8  C3  UNL     1     -33.820  15.883  -3.270  1.00 20.00     0.311 C 
HETATM    9  C4  UNL     1     -33.396  17.214  -5.225  1.00 20.00     0.311 C 
ENDBRANCH   2   7
TORSDOF 3
ENDMDL
MODEL 9
REMARK VINA RESULT:      -3.6      1.990      3.127
REMARK  3 active torsions:
REMARK  status: ('A' for Active; 'I' for Inactive)
REMARK    1  A    between atoms: C5_5  and  C6_6 
REMARK    2  A    between atoms: C6_6  and  C7_7 
REMARK    3  A    between atoms: C7_7  and  N9_9 
ROOT
HETATM    1  C1  UNL     1     -34.575  16.289  -1.785  1.00 20.00     0.095 C 
HETATM    2  C7  UNL     1     -34.544  15.898  -3.203  1.00 20.00     0.327 C 
HETATM    3  N8  UNL     1     -34.602  16.597  -0.666  1.00 20.00    -0.195 NA
ENDROOT
BRANCH   2   4
HETATM    4  C6  UNL     1     -33.265  15.115  -3.549  1.00 20.00     0.050 C 
BRANCH   4   5
HETATM    5  C5  UNL     1     -33.474  13.616  -3.802  1.00 20.00    -0.001 C 
HETATM    6  C2  UNL     1     -34.813  13.352  -4.477  1.00 20.00     0.005 C 
ENDBRANCH   4   5
ENDBRANCH   2   4
BRANCH   2   7
HETATM    7  N9  UNL     1     -34.690  17.073  -4.060  1.00 20.00     0.098 N 
HETATM    8  C3  UNL     1     -35.912  16.976  -4.857  1.00 20.00     0.311 C 
HETATM    9  C4  UNL     1     -33.524  17.223  -4.930  1.00 20.00     0.311 C 
ENDBRANCH   2   7
TORSDOF 3
ENDMDL
