MODEL 1
REMARK VINA RESULT:      -4.0      0.000      0.000
REMARK  3 active torsions:
REMARK  status: ('A' for Active; 'I' for Inactive)
REMARK    1  A    between atoms: C5_5  and  C6_6 
REMARK    2  A    between atoms: C6_6  and  C7_7 
REMARK    3  A    between atoms: C7_7  and  N9_9 
ROOT
HETATM    1  C1  UNL     1     -34.691  13.933  -4.242  1.00 20.00     0.095 C 
HETATM    2  C7  UNL     1     -34.465  15.384  -4.142  1.00 20.00     0.327 C 
HETATM    3  N8  UNL     1     -34.874  12.790  -4.319  1.00 20.00    -0.195 NA
ENDROOT
BRANCH   2   4
HETATM    4  C6  UNL     1     -33.804  15.762  -2.805  1.00 20.00     0.050 C 
BRANCH   4   5
HETATM    5  C5  UNL     1     -34.781  16.148  -1.686  1.00 20.00    -0.001 C 
HETATM    6  C2  UNL     1     -34.176  17.196  -0.764  1.00 20.00     0.005 C 
ENDBRANCH   4   5
ENDBRANCH   2   4
BRANCH   2   7
HETATM    7  N9  UNL     1     -33.675  15.856  -5.278  1.00 20.00     0.098 N 
HETATM    8  C3  UNL     1     -33.460  17.300  -5.187  1.00 20.00     0.311 C 
HETATM    9  C4  UNL     1     -34.337  15.518  -6.537  1.00 20.00     0.311 C 
ENDBRANCH   2   7
TORSDOF 3
ENDMDL
MODEL 2
REMARK VINA RESULT:      -3.9      1.827      2.306
REMARK  3 active torsions:
REMARK  status: ('A' for Active; 'I' for Inactive)
REMARK    1  A    between atoms: C5_5  and  C6_6 
REMARK    2  A    between atoms: C6_6  and  C7_7 
REMARK    3  A    between atoms: C7_7  and  N9_9 
ROOT
HETATM    1  C1  UNL     1     -37.107  14.714  -3.882  1.00 20.00     0.095 C 
HETATM    2  C7  UNL     1     -35.727  15.142  -4.167  1.00 20.00     0.327 C 
HETATM    3  N8  UNL     1     -38.196  14.381  -3.657  1.00 20.00    -0.195 NA
ENDROOT
BRANCH   2   4
HETATM    4  C6  UNL     1     -34.819  14.974  -2.937  1.00 20.00     0.050 C 
BRANCH   4   5
HETATM    5  C5  UNL     1     -34.174  16.270  -2.426  1.00 20.00    -0.001 C 
HETATM    6  C2  UNL     1     -34.606  16.574  -0.999  1.00 20.00     0.005 C 
ENDBRANCH   4   5
ENDBRANCH   2   4
BRANCH   2   7
HETATM    7  N9  UNL     1     -35.198  14.420  -5.322  1.00 20.00     0.098 N 
HETATM    8  C3  UNL     1     -34.479  13.221  -4.890  1.00 20.00     0.311 C 
HETATM    9  C4  UNL     1     -34.319  15.286  -6.108  1.00 20.00     0.311 C 
ENDBRANCH   2   7
TORSDOF 3
ENDMDL
MODEL 3
REMARK VINA RESULT:      -3.9      1.344      2.596
REMARK  3 active torsions:
REMARK  status: ('A' for Active; 'I' for Inactive)
REMARK    1  A    between atoms: C5_5  and  C6_6 
REMARK    2  A    between atoms: C6_6  and  C7_7 
REMARK    3  A    between atoms: C7_7  and  N9_9 
ROOT
HETATM    1  C1  UNL     1     -33.528  15.807  -4.160  1.00 20.00     0.095 C 
HETATM    2  C7  UNL     1     -34.256  15.001  -3.166  1.00 20.00     0.327 C 
HETATM    3  N8  UNL     1     -32.950  16.442  -4.941  1.00 20.00    -0.195 NA
ENDROOT
BRANCH   2   4
HETATM    4  C6  UNL     1     -34.995  15.889  -2.150  1.00 20.00     0.050 C 
BRANCH   4   5
HETATM    5  C5  UNL     1     -34.094  16.831  -1.339  1.00 20.00    -0.001 C 
HETATM    6  C2  UNL     1     -34.747  17.215  -0.019  1.00 20.00     0.005 C 
ENDBRANCH   4   5
ENDBRANCH   2   4
BRANCH   2   7
HETATM    7  N9  UNL     1     -35.173  14.078  -3.831  1.00 20.00     0.098 N 
HETATM    8  C3  UNL     1     -34.448  13.229  -4.777  1.00 20.00     0.311 C 
HETATM    9  C4  UNL     1     -36.233  14.816  -4.517  1.00 20.00     0.311 C 
ENDBRANCH   2   7
TORSDOF 3
ENDMDL
MODEL 4
REMARK VINA RESULT:      -3.8      1.203      1.488
REMARK  3 active torsions:
REMARK  status: ('A' for Active; 'I' for Inactive)
REMARK    1  A    between atoms: C5_5  and  C6_6 
REMARK    2  A    between atoms: C6_6  and  C7_7 
REMARK    3  A    between atoms: C7_7  and  N9_9 
ROOT
HETATM    1  C1  UNL     1     -35.062  13.755  -4.170  1.00 20.00     0.095 C 
HETATM    2  C7  UNL     1     -35.325  15.111  -3.660  1.00 20.00     0.327 C 
HETATM    3  N8  UNL     1     -34.857  12.685  -4.569  1.00 20.00    -0.195 NA
ENDROOT
BRANCH   2   4
HETATM    4  C6  UNL     1     -34.215  15.579  -2.703  1.00 20.00     0.050 C 
BRANCH   4   5
HETATM    5  C5  UNL     1     -34.705  16.362  -1.476  1.00 20.00    -0.001 C 
HETATM    6  C2  UNL     1     -33.700  17.429  -1.067  1.00 20.00     0.005 C 
ENDBRANCH   4   5
ENDBRANCH   2   4
BRANCH   2   7
HETATM    7  N9  UNL     1     -35.501  16.047  -4.768  1.00 20.00     0.098 N 
HETATM    8  C3  UNL     1     -36.613  15.628  -5.620  1.00 20.00     0.311 C 
HETATM    9  C4  UNL     1     -34.270  16.152  -5.550  1.00 20.00     0.311 C 
ENDBRANCH   2   7
TORSDOF 3
ENDMDL
MODEL 5
REMARK VINA RESULT:      -3.8      1.360      2.702
REMARK  3 active torsions:
REMARK  status: ('A' for Active; 'I' for Inactive)
REMARK    1  A    between atoms: C5_5  and  C6_6 
REMARK    2  A    between atoms: C6_6  and  C7_7 
REMARK    3  A    between atoms: C7_7  and  N9_9 
ROOT
HETATM    1  C1  UNL     1     -33.600  16.476  -4.427  1.00 20.00     0.095 C 
HETATM    2  C7  UNL     1     -34.137  15.312  -3.704  1.00 20.00     0.327 C 
HETATM    3  N8  UNL     1     -33.172  17.393  -4.996  1.00 20.00    -0.195 NA
ENDROOT
BRANCH   2   4
HETATM    4  C6  UNL     1     -34.807  15.728  -2.383  1.00 20.00     0.050 C 
BRANCH   4   5
HETATM    5  C5  UNL     1     -34.017  16.747  -1.549  1.00 20.00    -0.001 C 
HETATM    6  C2  UNL     1     -34.729  17.057  -0.241  1.00 20.00     0.005 C 
ENDBRANCH   4   5
ENDBRANCH   2   4
BRANCH   2   7
HETATM    7  N9  UNL     1     -35.060  14.564  -4.555  1.00 20.00     0.098 N 
HETATM    8  C3  UNL     1     -36.396  14.537  -3.961  1.00 20.00     0.311 C 
HETATM    9  C4  UNL     1     -34.569  13.203  -4.770  1.00 20.00     0.311 C 
ENDBRANCH   2   7
TORSDOF 3
ENDMDL
MODEL 6
REMARK VINA RESULT:      -3.7      2.348      2.924
REMARK  3 active torsions:
REMARK  status: ('A' for Active; 'I' for Inactive)
REMARK    1  A    between atoms: C5_5  and  C6_6 
REMARK    2  A    between atoms: C6_6  and  C7_7 
REMARK    3  A    between atoms: C7_7  and  N9_9 
ROOT
HETATM    1  C1  UNL     1     -36.806  14.472  -4.238  1.00 20.00     0.095 C 
HETATM    2  C7  UNL     1     -35.536  14.637  -4.964  1.00 20.00     0.327 C 
HETATM    3  N8  UNL     1     -37.805  14.345  -3.661  1.00 20.00    -0.195 NA
ENDROOT
BRANCH   2   4
HETATM    4  C6  UNL     1     -34.602  13.434  -4.749  1.00 20.00     0.050 C 
BRANCH   4   5
HETATM    5  C5  UNL     1     -33.445  13.679  -3.770  1.00 20.00    -0.001 C 
HETATM    6  C2  UNL     1     -33.106  15.160  -3.679  1.00 20.00     0.005 C 
ENDBRANCH   4   5
ENDBRANCH   2   4
BRANCH   2   7
HETATM    7  N9  UNL     1     -35.788  14.867  -6.385  1.00 20.00     0.098 N 
HETATM    8  C3  UNL     1     -34.529  14.907  -7.128  1.00 20.00     0.311 C 
HETATM    9  C4  UNL     1     -36.534  16.111  -6.578  1.00 20.00     0.311 C 
ENDBRANCH   2   7
TORSDOF 3
ENDMDL
MODEL 7
REMARK VINA RESULT:      -3.7      1.723      3.807
REMARK  3 active torsions:
REMARK  status: ('A' for Active; 'I' for Inactive)
REMARK    1  A    between atoms: C5_5  and  C6_6 
REMARK    2  A    between atoms: C6_6  and  C7_7 
REMARK    3  A    between atoms: C7_7  and  N9_9 
ROOT
HETATM    1  C1  UNL     1     -36.600  14.309  -3.862  1.00 20.00     0.095 C 
HETATM    2  C7  UNL     1     -35.134  14.171  -3.897  1.00 20.00     0.327 C 
HETATM    3  N8  UNL     1     -37.755  14.413  -3.832  1.00 20.00    -0.195 NA
ENDROOT
BRANCH   2   4
HETATM    4  C6  UNL     1     -34.652  13.613  -5.247  1.00 20.00     0.050 C 
BRANCH   4   5
HETATM    5  C5  UNL     1     -35.325  14.231  -6.481  1.00 20.00    -0.001 C 
HETATM    6  C2  UNL     1     -34.357  15.117  -7.250  1.00 20.00     0.005 C 
ENDBRANCH   4   5
ENDBRANCH   2   4
BRANCH   2   7
HETATM    7  N9  UNL     1     -34.495  15.448  -3.591  1.00 20.00     0.098 N 
HETATM    8  C3  UNL     1     -33.043  15.341  -3.733  1.00 20.00     0.311 C 
HETATM    9  C4  UNL     1     -34.843  15.884  -2.239  1.00 20.00     0.311 C 
ENDBRANCH   2   7
TORSDOF 3
ENDMDL
MODEL 8
REMARK VINA RESULT:      -3.7      1.668      1.668
REMARK  3 active torsions:
REMARK  status: ('A' for Active; 'I' for Inactive)
REMARK    1  A    between atoms: C5_5  and  C6_6 
REMARK    2  A    between atoms: C6_6  and  C7_7 
REMARK    3  A    between atoms: C7_7  and  N9_9 
ROOT
HETATM    1  C1  UNL     1     -36.620  15.050  -3.671  1.00 20.00     0.095 C 
HETATM    2  C7  UNL     1     -35.501  16.003  -3.601  1.00 20.00     0.327 C 
HETATM    3  N8  UNL     1     -37.505  14.301  -3.724  1.00 20.00    -0.195 NA
ENDROOT
BRANCH   2   4
HETATM    4  C6  UNL     1     -34.526  15.647  -2.464  1.00 20.00     0.050 C 
BRANCH   4   5
HETATM    5  C5  UNL     1     -34.709  16.461  -1.176  1.00 20.00    -0.001 C 
HETATM    6  C2  UNL     1     -33.635  17.531  -1.043  1.00 20.00     0.005 C 
ENDBRANCH   4   5
ENDBRANCH   2   4
BRANCH   2   7
HETATM    7  N9  UNL     1     -34.812  16.077  -4.887  1.00 20.00     0.098 N 
HETATM    8  C3  UNL     1     -33.391  16.365  -4.692  1.00 20.00     0.311 C 
HETATM    9  C4  UNL     1     -35.427  17.095  -5.739  1.00 20.00     0.311 C 
ENDBRANCH   2   7
TORSDOF 3
ENDMDL
MODEL 9
REMARK VINA RESULT:      -3.5      2.190      3.571
REMARK  3 active torsions:
REMARK  status: ('A' for Active; 'I' for Inactive)
REMARK    1  A    between atoms: C5_5  and  C6_6 
REMARK    2  A    between atoms: C6_6  and  C7_7 
REMARK    3  A    between atoms: C7_7  and  N9_9 
ROOT
HETATM    1  C1  UNL     1     -34.432  16.571  -1.292  1.00 20.00     0.095 C 
HETATM    2  C7  UNL     1     -34.013  16.198  -2.653  1.00 20.00     0.327 C 
HETATM    3  N8  UNL     1     -34.758  16.863  -0.217  1.00 20.00    -0.195 NA
ENDROOT
BRANCH   2   4
HETATM    4  C6  UNL     1     -34.900  15.080  -3.230  1.00 20.00     0.050 C 
BRANCH   4   5
HETATM    5  C5  UNL     1     -34.157  13.786  -3.590  1.00 20.00    -0.001 C 
HETATM    6  C2  UNL     1     -34.693  13.184  -4.881  1.00 20.00     0.005 C 
ENDBRANCH   4   5
ENDBRANCH   2   4
BRANCH   2   7
HETATM    7  N9  UNL     1     -34.004  17.371  -3.523  1.00 20.00     0.098 N 
HETATM    8  C3  UNL     1     -35.362  17.885  -3.704  1.00 20.00     0.311 C 
HETATM    9  C4  UNL     1     -33.407  17.044  -4.818  1.00 20.00     0.311 C 
ENDBRANCH   2   7
TORSDOF 3
ENDMDL
