MODEL 1
REMARK VINA RESULT:      -4.0      0.000      0.000
REMARK  4 active torsions:
REMARK  status: ('A' for Active; 'I' for Inactive)
REMARK    1  A    between atoms: C1_1  and  C8_8 
REMARK    2  A    between atoms: C7_7  and  N10_10 
REMARK    3  A    between atoms: C8_8  and  N10_10 
REMARK    4  A    between atoms: C9_9  and  N10_10 
ROOT
HETATM    1  N10 UNL     1     -34.834  16.005  -3.779  1.00 20.00     0.103 N 
ENDROOT
BRANCH   1   2
HETATM    2  C7  UNL     1     -34.991  16.998  -2.705  1.00 20.00     0.269 C 
HETATM    3  C3  UNL     1     -34.637  16.416  -1.379  1.00 20.00     0.037 C 
ENDBRANCH   1   2
BRANCH   1   4
HETATM    4  C8  UNL     1     -35.514  14.778  -3.460  1.00 20.00     0.287 C 
HETATM    5  C4  UNL     1     -36.875  14.697  -4.127  1.00 20.00     0.051 C 
BRANCH   4   6
HETATM    6  C1  UNL     1     -34.623  13.636  -3.917  1.00 20.00     0.155 C 
HETATM    7  C2  UNL     1     -33.146  13.786  -3.655  1.00 20.00     0.093 C 
HETATM    8  O11 UNL     1     -35.073  12.614  -4.437  1.00 20.00    -0.296 OA
ENDBRANCH   4   6
ENDBRANCH   1   4
BRANCH   1   9
HETATM    9  C9  UNL     1     -35.319  16.573  -5.047  1.00 20.00     0.216 C 
HETATM   10  C5  UNL     1     -34.225  16.453  -6.098  1.00 20.00     0.042 C 
HETATM   11  C6  UNL     1     -35.721  18.022  -4.816  1.00 20.00     0.042 C 
ENDBRANCH   1   9
TORSDOF 4
ENDMDL
MODEL 2
REMARK VINA RESULT:      -3.9      1.357      2.872
REMARK  4 active torsions:
REMARK  status: ('A' for Active; 'I' for Inactive)
REMARK    1  A    between atoms: C1_1  and  C8_8 
REMARK    2  A    between atoms: C7_7  and  N10_10 
REMARK    3  A    between atoms: C8_8  and  N10_10 
REMARK    4  A    between atoms: C9_9  and  N10_10 
ROOT
HETATM    1  N10 UNL     1     -34.501  15.790  -4.137  1.00 20.00     0.103 N 
ENDROOT
BRANCH   1   2
HETATM    2  C7  UNL     1     -33.652  16.958  -3.854  1.00 20.00     0.269 C 
HETATM    3  C3  UNL     1     -33.552  17.850  -5.044  1.00 20.00     0.037 C 
ENDBRANCH   1   2
BRANCH   1   4
HETATM    4  C8  UNL     1     -33.722  14.684  -4.626  1.00 20.00     0.287 C 
HETATM    5  C4  UNL     1     -32.989  13.971  -3.504  1.00 20.00     0.051 C 
BRANCH   4   6
HETATM    6  C1  UNL     1     -34.677  13.735  -5.331  1.00 20.00     0.155 C 
HETATM    7  C2  UNL     1     -35.330  14.249  -6.589  1.00 20.00     0.093 C 
HETATM    8  O11 UNL     1     -34.884  12.588  -4.934  1.00 20.00    -0.296 OA
ENDBRANCH   4   6
ENDBRANCH   1   4
BRANCH   1   9
HETATM    9  C9  UNL     1     -35.252  15.425  -2.926  1.00 20.00     0.216 C 
HETATM   10  C5  UNL     1     -36.742  15.548  -3.206  1.00 20.00     0.042 C 
HETATM   11  C6  UNL     1     -34.817  16.331  -1.784  1.00 20.00     0.042 C 
ENDBRANCH   1   9
TORSDOF 4
ENDMDL
MODEL 3
REMARK VINA RESULT:      -3.8      1.074      2.580
REMARK  4 active torsions:
REMARK  status: ('A' for Active; 'I' for Inactive)
REMARK    1  A    between atoms: C1_1  and  C8_8 
REMARK    2  A    between atoms: C7_7  and  N10_10 
REMARK    3  A    between atoms: C8_8  and  N10_10 
REMARK    4  A    between atoms: C9_9  and  N10_10 
ROOT
HETATM    1  N10 UNL     1     -35.751  15.569  -3.499  1.00 20.00     0.103 N 
ENDROOT
BRANCH   1   2
HETATM    2  C7  UNL     1     -37.109  15.948  -3.919  1.00 20.00     0.269 C 
HETATM    3  C3  UNL     1     -38.021  14.769  -3.915  1.00 20.00     0.037 C 
ENDBRANCH   1   2
BRANCH   1   4
HETATM    4  C8  UNL     1     -34.975  15.089  -4.610  1.00 20.00     0.287 C 
HETATM    5  C4  UNL     1     -33.844  16.038  -4.962  1.00 20.00     0.051 C 
BRANCH   4   6
HETATM    6  C1  UNL     1     -34.430  13.724  -4.225  1.00 20.00     0.155 C 
HETATM    7  C2  UNL     1     -33.047  13.695  -3.625  1.00 20.00     0.093 C 
HETATM    8  O11 UNL     1     -35.088  12.690  -4.350  1.00 20.00    -0.296 OA
ENDBRANCH   4   6
ENDBRANCH   1   4
BRANCH   1   9
HETATM    9  C9  UNL     1     -35.102  16.718  -2.847  1.00 20.00     0.216 C 
HETATM   10  C5  UNL     1     -34.665  16.315  -1.447  1.00 20.00     0.042 C 
HETATM   11  C6  UNL     1     -36.077  17.885  -2.819  1.00 20.00     0.042 C 
ENDBRANCH   1   9
TORSDOF 4
ENDMDL
MODEL 4
REMARK VINA RESULT:      -3.8      0.925      3.001
REMARK  4 active torsions:
REMARK  status: ('A' for Active; 'I' for Inactive)
REMARK    1  A    between atoms: C1_1  and  C8_8 
REMARK    2  A    between atoms: C7_7  and  N10_10 
REMARK    3  A    between atoms: C8_8  and  N10_10 
REMARK    4  A    between atoms: C9_9  and  N10_10 
ROOT
HETATM    1  N10 UNL     1     -34.685  16.228  -3.830  1.00 20.00     0.103 N 
ENDROOT
BRANCH   1   2
HETATM    2  C7  UNL     1     -34.684  17.302  -4.835  1.00 20.00     0.269 C 
HETATM    3  C3  UNL     1     -34.440  16.759  -6.202  1.00 20.00     0.037 C 
ENDBRANCH   1   2
BRANCH   1   4
HETATM    4  C8  UNL     1     -34.137  15.011  -4.366  1.00 20.00     0.287 C 
HETATM    5  C4  UNL     1     -32.844  14.621  -3.672  1.00 20.00     0.051 C 
BRANCH   4   6
HETATM    6  C1  UNL     1     -35.187  13.926  -4.192  1.00 20.00     0.155 C 
HETATM    7  C2  UNL     1     -36.608  14.390  -3.997  1.00 20.00     0.093 C 
HETATM    8  O11 UNL     1     -34.914  12.727  -4.250  1.00 20.00    -0.296 OA
ENDBRANCH   4   6
ENDBRANCH   1   4
BRANCH   1   9
HETATM    9  C9  UNL     1     -33.946  16.671  -2.638  1.00 20.00     0.216 C 
HETATM   10  C5  UNL     1     -34.766  16.355  -1.396  1.00 20.00     0.042 C 
HETATM   11  C6  UNL     1     -33.660  18.160  -2.761  1.00 20.00     0.042 C 
ENDBRANCH   1   9
TORSDOF 4
ENDMDL
MODEL 5
REMARK VINA RESULT:      -3.8      1.608      3.516
REMARK  4 active torsions:
REMARK  status: ('A' for Active; 'I' for Inactive)
REMARK    1  A    between atoms: C1_1  and  C8_8 
REMARK    2  A    between atoms: C7_7  and  N10_10 
REMARK    3  A    between atoms: C8_8  and  N10_10 
REMARK    4  A    between atoms: C9_9  and  N10_10 
ROOT
HETATM    1  N10 UNL     1     -34.831  15.620  -4.450  1.00 20.00     0.103 N 
ENDROOT
BRANCH   1   2
HETATM    2  C7  UNL     1     -33.870  15.986  -5.502  1.00 20.00     0.269 C 
HETATM    3  C3  UNL     1     -34.505  15.938  -6.850  1.00 20.00     0.037 C 
ENDBRANCH   1   2
BRANCH   1   4
HETATM    4  C8  UNL     1     -35.738  14.599  -4.902  1.00 20.00     0.287 C 
HETATM    5  C4  UNL     1     -35.319  13.221  -4.426  1.00 20.00     0.051 C 
BRANCH   4   6
HETATM    6  C1  UNL     1     -37.118  14.954  -4.374  1.00 20.00     0.155 C 
HETATM    7  C2  UNL     1     -37.627  16.337  -4.694  1.00 20.00     0.093 C 
HETATM    8  O11 UNL     1     -37.815  14.150  -3.754  1.00 20.00    -0.296 OA
ENDBRANCH   4   6
ENDBRANCH   1   4
BRANCH   1   9
HETATM    9  C9  UNL     1     -34.101  15.194  -3.246  1.00 20.00     0.216 C 
HETATM   10  C5  UNL     1     -34.458  16.120  -2.093  1.00 20.00     0.042 C 
HETATM   11  C6  UNL     1     -32.609  15.212  -3.541  1.00 20.00     0.042 C 
ENDBRANCH   1   9
TORSDOF 4
ENDMDL
MODEL 6
REMARK VINA RESULT:      -3.7      2.025      3.334
REMARK  4 active torsions:
REMARK  status: ('A' for Active; 'I' for Inactive)
REMARK    1  A    between atoms: C1_1  and  C8_8 
REMARK    2  A    between atoms: C7_7  and  N10_10 
REMARK    3  A    between atoms: C8_8  and  N10_10 
REMARK    4  A    between atoms: C9_9  and  N10_10 
ROOT
HETATM    1  N10 UNL     1     -35.058  15.372  -4.286  1.00 20.00     0.103 N 
ENDROOT
BRANCH   1   2
HETATM    2  C7  UNL     1     -36.152  14.390  -4.227  1.00 20.00     0.269 C 
HETATM    3  C3  UNL     1     -37.390  14.998  -3.661  1.00 20.00     0.037 C 
ENDBRANCH   1   2
BRANCH   1   4
HETATM    4  C8  UNL     1     -34.151  15.211  -3.181  1.00 20.00     0.287 C 
HETATM    5  C4  UNL     1     -32.763  14.808  -3.644  1.00 20.00     0.051 C 
BRANCH   4   6
HETATM    6  C1  UNL     1     -34.106  16.535  -2.437  1.00 20.00     0.155 C 
HETATM    7  C2  UNL     1     -34.633  16.532  -1.024  1.00 20.00     0.093 C 
HETATM    8  O11 UNL     1     -33.627  17.556  -2.931  1.00 20.00    -0.296 OA
ENDBRANCH   4   6
ENDBRANCH   1   4
BRANCH   1   9
HETATM    9  C9  UNL     1     -34.360  15.251  -5.575  1.00 20.00     0.216 C 
HETATM   10  C5  UNL     1     -34.360  16.603  -6.272  1.00 20.00     0.042 C 
HETATM   11  C6  UNL     1     -35.052  14.186  -6.413  1.00 20.00     0.042 C 
ENDBRANCH   1   9
TORSDOF 4
ENDMDL
MODEL 7
REMARK VINA RESULT:      -3.7      1.405      2.895
REMARK  4 active torsions:
REMARK  status: ('A' for Active; 'I' for Inactive)
REMARK    1  A    between atoms: C1_1  and  C8_8 
REMARK    2  A    between atoms: C7_7  and  N10_10 
REMARK    3  A    between atoms: C8_8  and  N10_10 
REMARK    4  A    between atoms: C9_9  and  N10_10 
ROOT
HETATM    1  N10 UNL     1     -34.593  15.853  -4.979  1.00 20.00     0.103 N 
ENDROOT
BRANCH   1   2
HETATM    2  C7  UNL     1     -33.959  16.061  -6.289  1.00 20.00     0.269 C 
HETATM    3  C3  UNL     1     -34.473  15.089  -7.296  1.00 20.00     0.037 C 
ENDBRANCH   1   2
BRANCH   1   4
HETATM    4  C8  UNL     1     -33.649  15.356  -4.014  1.00 20.00     0.287 C 
HETATM    5  C4  UNL     1     -33.803  16.040  -2.669  1.00 20.00     0.051 C 
BRANCH   4   6
HETATM    6  C1  UNL     1     -33.880  13.859  -3.885  1.00 20.00     0.155 C 
HETATM    7  C2  UNL     1     -35.276  13.366  -4.170  1.00 20.00     0.093 C 
HETATM    8  O11 UNL     1     -32.975  13.072  -3.606  1.00 20.00    -0.296 OA
ENDBRANCH   4   6
ENDBRANCH   1   4
BRANCH   1   9
HETATM    9  C9  UNL     1     -35.210  17.110  -4.527  1.00 20.00     0.216 C 
HETATM   10  C5  UNL     1     -36.723  16.991  -4.637  1.00 20.00     0.042 C 
HETATM   11  C6  UNL     1     -34.672  18.255  -5.372  1.00 20.00     0.042 C 
ENDBRANCH   1   9
TORSDOF 4
ENDMDL
MODEL 8
REMARK VINA RESULT:      -3.6      1.803      2.855
REMARK  4 active torsions:
REMARK  status: ('A' for Active; 'I' for Inactive)
REMARK    1  A    between atoms: C1_1  and  C8_8 
REMARK    2  A    between atoms: C7_7  and  N10_10 
REMARK    3  A    between atoms: C8_8  and  N10_10 
REMARK    4  A    between atoms: C9_9  and  N10_10 
ROOT
HETATM    1  N10 UNL     1     -35.682  15.370  -4.973  1.00 20.00     0.103 N 
ENDROOT
BRANCH   1   2
HETATM    2  C7  UNL     1     -37.149  15.372  -5.082  1.00 20.00     0.269 C 
HETATM    3  C3  UNL     1     -37.783  14.937  -3.805  1.00 20.00     0.037 C 
ENDBRANCH   1   2
BRANCH   1   4
HETATM    4  C8  UNL     1     -35.239  14.526  -3.896  1.00 20.00     0.287 C 
HETATM    5  C4  UNL     1     -34.643  13.226  -4.405  1.00 20.00     0.051 C 
BRANCH   4   6
HETATM    6  C1  UNL     1     -34.211  15.312  -3.099  1.00 20.00     0.155 C 
HETATM    7  C2  UNL     1     -34.726  16.084  -1.911  1.00 20.00     0.093 C 
HETATM    8  O11 UNL     1     -33.010  15.294  -3.370  1.00 20.00    -0.296 OA
ENDBRANCH   4   6
ENDBRANCH   1   4
BRANCH   1   9
HETATM    9  C9  UNL     1     -35.096  14.953  -6.257  1.00 20.00     0.216 C 
HETATM   10  C5  UNL     1     -34.093  16.004  -6.712  1.00 20.00     0.042 C 
HETATM   11  C6  UNL     1     -36.214  14.764  -7.271  1.00 20.00     0.042 C 
ENDBRANCH   1   9
TORSDOF 4
ENDMDL
MODEL 9
REMARK VINA RESULT:      -3.5      1.717      3.157
REMARK  4 active torsions:
REMARK  status: ('A' for Active; 'I' for Inactive)
REMARK    1  A    between atoms: C1_1  and  C8_8 
REMARK    2  A    between atoms: C7_7  and  N10_10 
REMARK    3  A    between atoms: C8_8  and  N10_10 
REMARK    4  A    between atoms: C9_9  and  N10_10 
ROOT
HETATM    1  N10 UNL     1     -35.335  15.449  -4.095  1.00 20.00     0.103 N 
ENDROOT
BRANCH   1   2
HETATM    2  C7  UNL     1     -34.755  14.180  -3.630  1.00 20.00     0.269 C 
HETATM    3  C3  UNL     1     -34.553  13.234  -4.765  1.00 20.00     0.037 C 
ENDBRANCH   1   2
BRANCH   1   4
HETATM    4  C8  UNL     1     -36.607  15.701  -3.472  1.00 20.00     0.287 C 
HETATM    5  C4  UNL     1     -36.903  17.187  -3.376  1.00 20.00     0.051 C 
BRANCH   4   6
HETATM    6  C1  UNL     1     -37.665  14.996  -4.303  1.00 20.00     0.155 C 
HETATM    7  C2  UNL     1     -37.689  15.316  -5.777  1.00 20.00     0.093 C 
HETATM    8  O11 UNL     1     -38.441  14.170  -3.822  1.00 20.00    -0.296 OA
ENDBRANCH   4   6
ENDBRANCH   1   4
BRANCH   1   9
HETATM    9  C9  UNL     1     -34.386  16.544  -3.840  1.00 20.00     0.216 C 
HETATM   10  C5  UNL     1     -33.493  16.725  -5.059  1.00 20.00     0.042 C 
HETATM   11  C6  UNL     1     -33.578  16.216  -2.593  1.00 20.00     0.042 C 
ENDBRANCH   1   9
TORSDOF 4
ENDMDL
