MODEL 1
REMARK VINA RESULT:      -5.0      0.000      0.000
REMARK  4 active torsions:
REMARK  status: ('A' for Active; 'I' for Inactive)
REMARK    1  A    between atoms: C1_1  and  C8_8 
REMARK    2  A    between atoms: C4_4  and  C7_7 
REMARK    3  A    between atoms: C7_7  and  O10_10 
REMARK    4  A    between atoms: C8_8  and  O10_10 
ROOT
HETATM    1  C6  UNL     1     -34.581   5.330   3.394  1.00 20.00     0.048 C 
HETATM    2  C8  UNL     1     -34.113   6.430   4.329  1.00 20.00     0.186 C 
ENDROOT
BRANCH   2   3
HETATM    3  C1  UNL     1     -34.257   6.019   5.788  1.00 20.00     0.151 C 
HETATM    4  C5  UNL     1     -34.909   4.689   6.067  1.00 20.00     0.093 C 
HETATM    5  O9  UNL     1     -33.867   6.734   6.711  1.00 20.00    -0.296 OA
ENDBRANCH   2   3
BRANCH   2   6
HETATM    6  O10 UNL     1     -32.748   6.695   4.053  1.00 20.00    -0.378 OA
BRANCH   6   7
HETATM    7  C7  UNL     1     -32.499   6.767   2.655  1.00 20.00     0.173 C 
BRANCH   7   8
HETATM    8  C4  UNL     1     -31.840   8.093   2.338  1.00 20.00     0.009 A 
HETATM    9  C2  UNL     1     -31.735   8.565   0.914  1.00 20.00     0.007 A 
HETATM   10  C3  UNL     1     -32.669   9.256   1.868  1.00 20.00     0.007 A 
ENDBRANCH   7   8
ENDBRANCH   6   7
ENDBRANCH   2   6
TORSDOF 4
ENDMDL
MODEL 2
REMARK VINA RESULT:      -4.7      1.259      1.713
REMARK  4 active torsions:
REMARK  status: ('A' for Active; 'I' for Inactive)
REMARK    1  A    between atoms: C1_1  and  C8_8 
REMARK    2  A    between atoms: C4_4  and  C7_7 
REMARK    3  A    between atoms: C7_7  and  O10_10 
REMARK    4  A    between atoms: C8_8  and  O10_10 
ROOT
HETATM    1  C6  UNL     1     -33.713   6.808   6.129  1.00 20.00     0.048 C 
HETATM    2  C8  UNL     1     -33.671   6.047   4.816  1.00 20.00     0.186 C 
ENDROOT
BRANCH   2   3
HETATM    3  C1  UNL     1     -34.892   5.152   4.651  1.00 20.00     0.151 C 
HETATM    4  C5  UNL     1     -35.055   4.024   5.638  1.00 20.00     0.093 C 
HETATM    5  O9  UNL     1     -35.714   5.326   3.752  1.00 20.00    -0.296 OA
ENDBRANCH   2   3
BRANCH   2   6
HETATM    6  O10 UNL     1     -33.641   6.992   3.759  1.00 20.00    -0.378 OA
BRANCH   6   7
HETATM    7  C7  UNL     1     -32.574   6.733   2.854  1.00 20.00     0.173 C 
BRANCH   7   8
HETATM    8  C4  UNL     1     -31.888   8.040   2.514  1.00 20.00     0.009 A 
HETATM    9  C2  UNL     1     -31.759   8.475   1.080  1.00 20.00     0.007 A 
HETATM   10  C3  UNL     1     -32.691   9.206   2.007  1.00 20.00     0.007 A 
ENDBRANCH   7   8
ENDBRANCH   6   7
ENDBRANCH   2   6
TORSDOF 4
ENDMDL
MODEL 3
REMARK VINA RESULT:      -4.5      1.256      4.549
REMARK  4 active torsions:
REMARK  status: ('A' for Active; 'I' for Inactive)
REMARK    1  A    between atoms: C1_1  and  C8_8 
REMARK    2  A    between atoms: C4_4  and  C7_7 
REMARK    3  A    between atoms: C7_7  and  O10_10 
REMARK    4  A    between atoms: C8_8  and  O10_10 
ROOT
HETATM    1  C6  UNL     1     -32.711   5.436   2.282  1.00 20.00     0.048 C 
HETATM    2  C8  UNL     1     -32.566   6.263   3.547  1.00 20.00     0.186 C 
ENDROOT
BRANCH   2   3
HETATM    3  C1  UNL     1     -31.807   7.556   3.282  1.00 20.00     0.151 C 
HETATM    4  C5  UNL     1     -32.072   8.254   1.972  1.00 20.00     0.093 C 
HETATM    5  O9  UNL     1     -31.003   8.021   4.090  1.00 20.00    -0.296 OA
ENDBRANCH   2   3
BRANCH   2   6
HETATM    6  O10 UNL     1     -33.865   6.576   4.023  1.00 20.00    -0.378 OA
BRANCH   6   7
HETATM    7  C7  UNL     1     -34.798   5.548   3.714  1.00 20.00     0.173 C 
BRANCH   7   8
HETATM    8  C4  UNL     1     -35.336   4.966   5.005  1.00 20.00     0.009 A 
HETATM    9  C2  UNL     1     -34.531   3.951   5.770  1.00 20.00     0.007 A 
HETATM   10  C3  UNL     1     -34.711   5.339   6.321  1.00 20.00     0.007 A 
ENDBRANCH   7   8
ENDBRANCH   6   7
ENDBRANCH   2   6
TORSDOF 4
ENDMDL
MODEL 4
REMARK VINA RESULT:      -4.3      1.293      1.810
REMARK  4 active torsions:
REMARK  status: ('A' for Active; 'I' for Inactive)
REMARK    1  A    between atoms: C1_1  and  C8_8 
REMARK    2  A    between atoms: C4_4  and  C7_7 
REMARK    3  A    between atoms: C7_7  and  O10_10 
REMARK    4  A    between atoms: C8_8  and  O10_10 
ROOT
HETATM    1  C6  UNL     1     -35.194   4.433   4.266  1.00 20.00     0.048 C 
HETATM    2  C8  UNL     1     -35.009   5.817   4.862  1.00 20.00     0.186 C 
ENDROOT
BRANCH   2   3
HETATM    3  C1  UNL     1     -34.275   5.755   6.194  1.00 20.00     0.151 C 
HETATM    4  C5  UNL     1     -33.726   7.050   6.738  1.00 20.00     0.093 C 
HETATM    5  O9  UNL     1     -34.123   4.699   6.810  1.00 20.00    -0.296 OA
ENDBRANCH   2   3
BRANCH   2   6
HETATM    6  O10 UNL     1     -34.251   6.594   3.949  1.00 20.00    -0.378 OA
BRANCH   6   7
HETATM    7  C7  UNL     1     -33.479   5.777   3.079  1.00 20.00     0.173 C 
BRANCH   7   8
HETATM    8  C4  UNL     1     -32.149   6.452   2.818  1.00 20.00     0.009 A 
HETATM    9  C2  UNL     1     -32.104   7.875   2.335  1.00 20.00     0.007 A 
HETATM   10  C3  UNL     1     -31.661   7.540   3.733  1.00 20.00     0.007 A 
ENDBRANCH   7   8
ENDBRANCH   6   7
ENDBRANCH   2   6
TORSDOF 4
ENDMDL
MODEL 5
REMARK VINA RESULT:      -4.3     10.582     11.597
REMARK  4 active torsions:
REMARK  status: ('A' for Active; 'I' for Inactive)
REMARK    1  A    between atoms: C1_1  and  C8_8 
REMARK    2  A    between atoms: C4_4  and  C7_7 
REMARK    3  A    between atoms: C7_7  and  O10_10 
REMARK    4  A    between atoms: C8_8  and  O10_10 
ROOT
HETATM    1  C6  UNL     1     -34.873  16.036  -4.927  1.00 20.00     0.048 C 
HETATM    2  C8  UNL     1     -35.575  14.885  -4.229  1.00 20.00     0.186 C 
ENDROOT
BRANCH   2   3
HETATM    3  C1  UNL     1     -34.692  13.646  -4.174  1.00 20.00     0.151 C 
HETATM    4  C5  UNL     1     -33.268  13.837  -3.717  1.00 20.00     0.093 C 
HETATM    5  O9  UNL     1     -35.107  12.531  -4.492  1.00 20.00    -0.296 OA
ENDBRANCH   2   3
BRANCH   2   6
HETATM    6  O10 UNL     1     -35.888  15.293  -2.908  1.00 20.00    -0.378 OA
BRANCH   6   7
HETATM    7  C7  UNL     1     -35.331  16.566  -2.606  1.00 20.00     0.173 C 
BRANCH   7   8
HETATM    8  C4  UNL     1     -34.450  16.442  -1.381  1.00 20.00     0.009 A 
HETATM    9  C2  UNL     1     -33.683  17.633  -0.877  1.00 20.00     0.007 A 
HETATM   10  C3  UNL     1     -34.851  17.104  -0.091  1.00 20.00     0.007 A 
ENDBRANCH   7   8
ENDBRANCH   6   7
ENDBRANCH   2   6
TORSDOF 4
ENDMDL
MODEL 6
REMARK VINA RESULT:      -4.1     10.517     12.311
REMARK  4 active torsions:
REMARK  status: ('A' for Active; 'I' for Inactive)
REMARK    1  A    between atoms: C1_1  and  C8_8 
REMARK    2  A    between atoms: C4_4  and  C7_7 
REMARK    3  A    between atoms: C7_7  and  O10_10 
REMARK    4  A    between atoms: C8_8  and  O10_10 
ROOT
HETATM    1  C6  UNL     1     -34.220  16.117  -2.688  1.00 20.00     0.048 C 
HETATM    2  C8  UNL     1     -33.136  15.305  -3.374  1.00 20.00     0.186 C 
ENDROOT
BRANCH   2   3
HETATM    3  C1  UNL     1     -33.628  13.908  -3.728  1.00 20.00     0.151 C 
HETATM    4  C5  UNL     1     -35.099  13.749  -4.017  1.00 20.00     0.093 C 
HETATM    5  O9  UNL     1     -32.869  12.939  -3.773  1.00 20.00    -0.296 OA
ENDBRANCH   2   3
BRANCH   2   6
HETATM    6  O10 UNL     1     -32.763  15.981  -4.563  1.00 20.00    -0.378 OA
BRANCH   6   7
HETATM    7  C7  UNL     1     -33.535  17.159  -4.761  1.00 20.00     0.173 C 
BRANCH   7   8
HETATM    8  C4  UNL     1     -34.080  17.160  -6.174  1.00 20.00     0.009 A 
HETATM    9  C2  UNL     1     -34.249  15.867  -6.921  1.00 20.00     0.007 A 
HETATM   10  C3  UNL     1     -35.458  16.629  -6.454  1.00 20.00     0.007 A 
ENDBRANCH   7   8
ENDBRANCH   6   7
ENDBRANCH   2   6
TORSDOF 4
ENDMDL
MODEL 7
REMARK VINA RESULT:      -4.1      1.361      4.800
REMARK  4 active torsions:
REMARK  status: ('A' for Active; 'I' for Inactive)
REMARK    1  A    between atoms: C1_1  and  C8_8 
REMARK    2  A    between atoms: C4_4  and  C7_7 
REMARK    3  A    between atoms: C7_7  and  O10_10 
REMARK    4  A    between atoms: C8_8  and  O10_10 
ROOT
HETATM    1  C6  UNL     1     -31.838   5.907   2.980  1.00 20.00     0.048 C 
HETATM    2  C8  UNL     1     -32.425   7.269   3.301  1.00 20.00     0.186 C 
ENDROOT
BRANCH   2   3
HETATM    3  C1  UNL     1     -32.234   8.243   2.146  1.00 20.00     0.151 C 
HETATM    4  C5  UNL     1     -32.888   9.596   2.271  1.00 20.00     0.093 C 
HETATM    5  O9  UNL     1     -31.582   7.950   1.143  1.00 20.00    -0.296 OA
ENDBRANCH   2   3
BRANCH   2   6
HETATM    6  O10 UNL     1     -33.812   7.107   3.546  1.00 20.00    -0.378 OA
BRANCH   6   7
HETATM    7  C7  UNL     1     -34.183   5.734   3.575  1.00 20.00     0.173 C 
BRANCH   7   8
HETATM    8  C4  UNL     1     -35.047   5.481   4.793  1.00 20.00     0.009 A 
HETATM    9  C2  UNL     1     -34.849   4.238   5.615  1.00 20.00     0.007 A 
HETATM   10  C3  UNL     1     -34.457   5.579   6.172  1.00 20.00     0.007 A 
ENDBRANCH   7   8
ENDBRANCH   6   7
ENDBRANCH   2   6
TORSDOF 4
ENDMDL
MODEL 8
REMARK VINA RESULT:      -3.9     10.837     12.307
REMARK  4 active torsions:
REMARK  status: ('A' for Active; 'I' for Inactive)
REMARK    1  A    between atoms: C1_1  and  C8_8 
REMARK    2  A    between atoms: C4_4  and  C7_7 
REMARK    3  A    between atoms: C7_7  and  O10_10 
REMARK    4  A    between atoms: C8_8  and  O10_10 
ROOT
HETATM    1  C6  UNL     1     -34.239  13.994  -3.670  1.00 20.00     0.048 C 
HETATM    2  C8  UNL     1     -33.287  15.162  -3.856  1.00 20.00     0.186 C 
ENDROOT
BRANCH   2   3
HETATM    3  C1  UNL     1     -33.612  15.950  -5.117  1.00 20.00     0.151 C 
HETATM    4  C5  UNL     1     -34.363  15.227  -6.206  1.00 20.00     0.093 C 
HETATM    5  O9  UNL     1     -33.277  17.127  -5.258  1.00 20.00    -0.296 OA
ENDBRANCH   2   3
BRANCH   2   6
HETATM    6  O10 UNL     1     -33.408  16.015  -2.730  1.00 20.00    -0.378 OA
BRANCH   6   7
HETATM    7  C7  UNL     1     -34.702  15.932  -2.145  1.00 20.00     0.173 C 
BRANCH   7   8
HETATM    8  C4  UNL     1     -34.671  16.587  -0.781  1.00 20.00     0.009 A 
HETATM    9  C2  UNL     1     -33.749  17.746  -0.519  1.00 20.00     0.007 A 
HETATM   10  C3  UNL     1     -35.235  17.968  -0.592  1.00 20.00     0.007 A 
ENDBRANCH   7   8
ENDBRANCH   6   7
ENDBRANCH   2   6
TORSDOF 4
ENDMDL
MODEL 9
REMARK VINA RESULT:      -3.9     10.879     11.971
REMARK  4 active torsions:
REMARK  status: ('A' for Active; 'I' for Inactive)
REMARK    1  A    between atoms: C1_1  and  C8_8 
REMARK    2  A    between atoms: C4_4  and  C7_7 
REMARK    3  A    between atoms: C7_7  and  O10_10 
REMARK    4  A    between atoms: C8_8  and  O10_10 
ROOT
HETATM    1  C6  UNL     1     -34.614  13.487  -4.120  1.00 20.00     0.048 C 
HETATM    2  C8  UNL     1     -35.190  14.706  -4.817  1.00 20.00     0.186 C 
ENDROOT
BRANCH   2   3
HETATM    3  C1  UNL     1     -36.642  14.939  -4.421  1.00 20.00     0.151 C 
HETATM    4  C5  UNL     1     -37.249  16.270  -4.786  1.00 20.00     0.093 C 
HETATM    5  O9  UNL     1     -37.302  14.090  -3.823  1.00 20.00    -0.296 OA
ENDBRANCH   2   3
BRANCH   2   6
HETATM    6  O10 UNL     1     -34.419  15.835  -4.443  1.00 20.00    -0.378 OA
BRANCH   6   7
HETATM    7  C7  UNL     1     -33.485  15.517  -3.419  1.00 20.00     0.173 C 
BRANCH   7   8
HETATM    8  C4  UNL     1     -33.637  16.509  -2.286  1.00 20.00     0.009 A 
HETATM    9  C2  UNL     1     -34.762  17.507  -2.299  1.00 20.00     0.007 A 
HETATM   10  C3  UNL     1     -34.773  16.374  -1.310  1.00 20.00     0.007 A 
ENDBRANCH   7   8
ENDBRANCH   6   7
ENDBRANCH   2   6
TORSDOF 4
ENDMDL
