MODEL 1
REMARK VINA RESULT:      -4.9      0.000      0.000
REMARK  4 active torsions:
REMARK  status: ('A' for Active; 'I' for Inactive)
REMARK    1  A    between atoms: C3_3  and  C7_7 
REMARK    2  A    between atoms: C5_5  and  C6_6 
REMARK    3  A    between atoms: C6_6  and  C7_7 
REMARK    4  A    between atoms: C7_7  and  O8_8 
ROOT
HETATM    1  C7  UNL     1     -34.331   6.078   3.951  1.00 20.00     0.122 C 
ENDROOT
BRANCH   1   2
HETATM    2  C3  UNL     1     -33.974   5.364   5.248  1.00 20.00     0.014 A 
HETATM    3  C1  UNL     1     -34.419   5.927   6.569  1.00 20.00     0.007 A 
HETATM    4  C2  UNL     1     -35.039   4.663   6.044  1.00 20.00     0.007 A 
ENDBRANCH   1   2
BRANCH   1   5
HETATM    5  C6  UNL     1     -33.186   6.007   2.936  1.00 20.00     0.032 C 
BRANCH   5   6
HETATM    6  C5  UNL     1     -32.093   7.039   3.229  1.00 20.00    -0.002 C 
HETATM    7  C4  UNL     1     -32.055   8.126   2.166  1.00 20.00     0.005 C 
ENDBRANCH   5   6
ENDBRANCH   1   5
BRANCH   1   8
HETATM    8  O8  UNL     1     -35.503   5.477   3.407  1.00 20.00    -0.395 OA
HETATM    9  H22 UNL     1     -35.912   6.141   2.830  1.00 20.00     0.210 HD
ENDBRANCH   1   8
TORSDOF 4
ENDMDL
MODEL 2
REMARK VINA RESULT:      -4.4      1.487      1.672
REMARK  4 active torsions:
REMARK  status: ('A' for Active; 'I' for Inactive)
REMARK    1  A    between atoms: C3_3  and  C7_7 
REMARK    2  A    between atoms: C5_5  and  C6_6 
REMARK    3  A    between atoms: C6_6  and  C7_7 
REMARK    4  A    between atoms: C7_7  and  O8_8 
ROOT
HETATM    1  C7  UNL     1     -33.510   5.941   4.789  1.00 20.00     0.122 C 
ENDROOT
BRANCH   1   2
HETATM    2  C3  UNL     1     -34.850   5.248   4.995  1.00 20.00     0.014 A 
HETATM    3  C1  UNL     1     -34.910   3.760   5.201  1.00 20.00     0.007 A 
HETATM    4  C2  UNL     1     -35.213   4.689   6.343  1.00 20.00     0.007 A 
ENDBRANCH   1   2
BRANCH   1   5
HETATM    5  C6  UNL     1     -33.421   6.594   3.406  1.00 20.00     0.032 C 
BRANCH   5   6
HETATM    6  C5  UNL     1     -32.021   7.143   3.117  1.00 20.00    -0.002 C 
HETATM    7  C4  UNL     1     -32.056   8.209   2.033  1.00 20.00     0.005 C 
ENDBRANCH   5   6
ENDBRANCH   1   5
BRANCH   1   8
HETATM    8  O8  UNL     1     -33.342   6.925   5.806  1.00 20.00    -0.395 OA
HETATM    9  H22 UNL     1     -33.879   7.688   5.543  1.00 20.00     0.210 HD
ENDBRANCH   1   8
TORSDOF 4
ENDMDL
MODEL 3
REMARK VINA RESULT:      -4.4      1.570      4.068
REMARK  4 active torsions:
REMARK  status: ('A' for Active; 'I' for Inactive)
REMARK    1  A    between atoms: C3_3  and  C7_7 
REMARK    2  A    between atoms: C5_5  and  C6_6 
REMARK    3  A    between atoms: C6_6  and  C7_7 
REMARK    4  A    between atoms: C7_7  and  O8_8 
ROOT
HETATM    1  C7  UNL     1     -33.772   6.594   3.857  1.00 20.00     0.122 C 
ENDROOT
BRANCH   1   2
HETATM    2  C3  UNL     1     -32.450   6.674   3.106  1.00 20.00     0.014 A 
HETATM    3  C1  UNL     1     -32.113   7.894   2.295  1.00 20.00     0.007 A 
HETATM    4  C2  UNL     1     -31.371   7.611   3.571  1.00 20.00     0.007 A 
ENDBRANCH   1   2
BRANCH   1   5
HETATM    5  C6  UNL     1     -34.509   5.283   3.561  1.00 20.00     0.032 C 
BRANCH   5   6
HETATM    6  C5  UNL     1     -35.468   4.894   4.690  1.00 20.00    -0.002 C 
HETATM    7  C4  UNL     1     -34.839   3.873   5.626  1.00 20.00     0.005 C 
ENDBRANCH   5   6
ENDBRANCH   1   5
BRANCH   1   8
HETATM    8  O8  UNL     1     -33.512   6.703   5.254  1.00 20.00    -0.395 OA
HETATM    9  H22 UNL     1     -33.499   5.799   5.605  1.00 20.00     0.210 HD
ENDBRANCH   1   8
TORSDOF 4
ENDMDL
MODEL 4
REMARK VINA RESULT:      -4.1      1.483      3.390
REMARK  4 active torsions:
REMARK  status: ('A' for Active; 'I' for Inactive)
REMARK    1  A    between atoms: C3_3  and  C7_7 
REMARK    2  A    between atoms: C5_5  and  C6_6 
REMARK    3  A    between atoms: C6_6  and  C7_7 
REMARK    4  A    between atoms: C7_7  and  O8_8 
ROOT
HETATM    1  C7  UNL     1     -34.377   4.564   5.076  1.00 20.00     0.122 C 
ENDROOT
BRANCH   1   2
HETATM    2  C3  UNL     1     -34.478   5.639   4.003  1.00 20.00     0.014 A 
HETATM    3  C1  UNL     1     -33.265   6.029   3.205  1.00 20.00     0.007 A 
HETATM    4  C2  UNL     1     -34.384   5.268   2.549  1.00 20.00     0.007 A 
ENDBRANCH   1   2
BRANCH   1   5
HETATM    5  C6  UNL     1     -34.332   5.173   6.481  1.00 20.00     0.032 C 
BRANCH   5   6
HETATM    6  C5  UNL     1     -34.447   6.700   6.450  1.00 20.00    -0.002 C 
HETATM    7  C4  UNL     1     -33.170   7.363   6.943  1.00 20.00     0.005 C 
ENDBRANCH   5   6
ENDBRANCH   1   5
BRANCH   1   8
HETATM    8  O8  UNL     1     -35.497   3.692   4.958  1.00 20.00    -0.395 OA
HETATM    9  H22 UNL     1     -36.260   4.171   5.316  1.00 20.00     0.210 HD
ENDBRANCH   1   8
TORSDOF 4
ENDMDL
MODEL 5
REMARK VINA RESULT:      -4.1      1.610      2.333
REMARK  4 active torsions:
REMARK  status: ('A' for Active; 'I' for Inactive)
REMARK    1  A    between atoms: C3_3  and  C7_7 
REMARK    2  A    between atoms: C5_5  and  C6_6 
REMARK    3  A    between atoms: C6_6  and  C7_7 
REMARK    4  A    between atoms: C7_7  and  O8_8 
ROOT
HETATM    1  C7  UNL     1     -32.807   6.478   2.949  1.00 20.00     0.122 C 
ENDROOT
BRANCH   1   2
HETATM    2  C3  UNL     1     -33.985   6.491   3.914  1.00 20.00     0.014 A 
HETATM    3  C1  UNL     1     -35.097   5.490   3.765  1.00 20.00     0.007 A 
HETATM    4  C2  UNL     1     -34.147   5.391   4.926  1.00 20.00     0.007 A 
ENDBRANCH   1   2
BRANCH   1   5
HETATM    5  C6  UNL     1     -32.096   7.835   2.912  1.00 20.00     0.032 C 
BRANCH   5   6
HETATM    6  C5  UNL     1     -31.917   8.351   1.481  1.00 20.00    -0.002 C 
HETATM    7  C4  UNL     1     -32.430   9.776   1.336  1.00 20.00     0.005 C 
ENDBRANCH   5   6
ENDBRANCH   1   5
BRANCH   1   8
HETATM    8  O8  UNL     1     -31.896   5.460   3.354  1.00 20.00    -0.395 OA
HETATM    9  H22 UNL     1     -32.022   4.717   2.744  1.00 20.00     0.210 HD
ENDBRANCH   1   8
TORSDOF 4
ENDMDL
MODEL 6
REMARK VINA RESULT:      -4.1      1.084      3.740
REMARK  4 active torsions:
REMARK  status: ('A' for Active; 'I' for Inactive)
REMARK    1  A    between atoms: C3_3  and  C7_7 
REMARK    2  A    between atoms: C5_5  and  C6_6 
REMARK    3  A    between atoms: C6_6  and  C7_7 
REMARK    4  A    between atoms: C7_7  and  O8_8 
ROOT
HETATM    1  C7  UNL     1     -33.839   5.485   3.331  1.00 20.00     0.122 C 
ENDROOT
BRANCH   1   2
HETATM    2  C3  UNL     1     -33.286   6.901   3.410  1.00 20.00     0.014 A 
HETATM    3  C1  UNL     1     -31.849   7.133   3.789  1.00 20.00     0.007 A 
HETATM    4  C2  UNL     1     -32.306   7.389   2.380  1.00 20.00     0.007 A 
ENDBRANCH   1   2
BRANCH   1   5
HETATM    5  C6  UNL     1     -35.164   5.355   4.089  1.00 20.00     0.032 C 
BRANCH   5   6
HETATM    6  C5  UNL     1     -34.994   4.628   5.426  1.00 20.00    -0.002 C 
HETATM    7  C4  UNL     1     -34.516   5.575   6.516  1.00 20.00     0.005 C 
ENDBRANCH   5   6
ENDBRANCH   1   5
BRANCH   1   8
HETATM    8  O8  UNL     1     -34.025   5.142   1.960  1.00 20.00    -0.395 OA
HETATM    9  H22 UNL     1     -33.403   5.685   1.453  1.00 20.00     0.210 HD
ENDBRANCH   1   8
TORSDOF 4
ENDMDL
MODEL 7
REMARK VINA RESULT:      -4.1     11.767     12.280
REMARK  4 active torsions:
REMARK  status: ('A' for Active; 'I' for Inactive)
REMARK    1  A    between atoms: C3_3  and  C7_7 
REMARK    2  A    between atoms: C5_5  and  C6_6 
REMARK    3  A    between atoms: C6_6  and  C7_7 
REMARK    4  A    between atoms: C7_7  and  O8_8 
ROOT
HETATM    1  C7  UNL     1     -33.797  15.765  -3.839  1.00 20.00     0.122 C 
ENDROOT
BRANCH   1   2
HETATM    2  C3  UNL     1     -34.246  14.340  -3.546  1.00 20.00     0.014 A 
HETATM    3  C1  UNL     1     -35.495  13.793  -4.181  1.00 20.00     0.007 A 
HETATM    4  C2  UNL     1     -34.147  13.281  -4.609  1.00 20.00     0.007 A 
ENDBRANCH   1   2
BRANCH   1   5
HETATM    5  C6  UNL     1     -33.655  16.586  -2.554  1.00 20.00     0.032 C 
BRANCH   5   6
HETATM    6  C5  UNL     1     -34.748  16.253  -1.534  1.00 20.00    -0.002 C 
HETATM    7  C4  UNL     1     -34.613  17.101  -0.279  1.00 20.00     0.005 C 
ENDBRANCH   5   6
ENDBRANCH   1   5
BRANCH   1   8
HETATM    8  O8  UNL     1     -32.551  15.719  -4.530  1.00 20.00    -0.395 OA
HETATM    9  H22 UNL     1     -32.658  15.080  -5.251  1.00 20.00     0.210 HD
ENDBRANCH   1   8
TORSDOF 4
ENDMDL
MODEL 8
REMARK VINA RESULT:      -4.0     11.211     12.626
REMARK  4 active torsions:
REMARK  status: ('A' for Active; 'I' for Inactive)
REMARK    1  A    between atoms: C3_3  and  C7_7 
REMARK    2  A    between atoms: C5_5  and  C6_6 
REMARK    3  A    between atoms: C6_6  and  C7_7 
REMARK    4  A    between atoms: C7_7  and  O8_8 
ROOT
HETATM    1  C7  UNL     1     -34.288  13.453  -4.790  1.00 20.00     0.122 C 
ENDROOT
BRANCH   1   2
HETATM    2  C3  UNL     1     -34.843  14.637  -5.571  1.00 20.00     0.014 A 
HETATM    3  C1  UNL     1     -34.343  14.930  -6.958  1.00 20.00     0.007 A 
HETATM    4  C2  UNL     1     -35.738  14.407  -6.757  1.00 20.00     0.007 A 
ENDBRANCH   1   2
BRANCH   1   5
HETATM    5  C6  UNL     1     -33.383  13.912  -3.641  1.00 20.00     0.032 C 
BRANCH   5   6
HETATM    6  C5  UNL     1     -33.436  15.429  -3.438  1.00 20.00    -0.002 C 
HETATM    7  C4  UNL     1     -34.339  15.802  -2.272  1.00 20.00     0.005 C 
ENDBRANCH   5   6
ENDBRANCH   1   5
BRANCH   1   8
HETATM    8  O8  UNL     1     -35.378  12.691  -4.278  1.00 20.00    -0.395 OA
HETATM    9  H22 UNL     1     -35.031  12.181  -3.530  1.00 20.00     0.210 HD
ENDBRANCH   1   8
TORSDOF 4
ENDMDL
MODEL 9
REMARK VINA RESULT:      -3.9     11.576     12.448
REMARK  4 active torsions:
REMARK  status: ('A' for Active; 'I' for Inactive)
REMARK    1  A    between atoms: C3_3  and  C7_7 
REMARK    2  A    between atoms: C5_5  and  C6_6 
REMARK    3  A    between atoms: C6_6  and  C7_7 
REMARK    4  A    between atoms: C7_7  and  O8_8 
ROOT
HETATM    1  C7  UNL     1     -32.938  15.199  -3.505  1.00 20.00     0.122 C 
ENDROOT
BRANCH   1   2
HETATM    2  C3  UNL     1     -34.109  16.024  -2.987  1.00 20.00     0.014 A 
HETATM    3  C1  UNL     1     -34.056  16.638  -1.616  1.00 20.00     0.007 A 
HETATM    4  C2  UNL     1     -33.977  17.513  -2.836  1.00 20.00     0.007 A 
ENDBRANCH   1   2
BRANCH   1   5
HETATM    5  C6  UNL     1     -33.346  13.745  -3.765  1.00 20.00     0.032 C 
BRANCH   5   6
HETATM    6  C5  UNL     1     -34.839  13.613  -4.081  1.00 20.00    -0.002 C 
HETATM    7  C4  UNL     1     -35.097  13.675  -5.578  1.00 20.00     0.005 C 
ENDBRANCH   5   6
ENDBRANCH   1   5
BRANCH   1   8
HETATM    8  O8  UNL     1     -32.456  15.794  -4.706  1.00 20.00    -0.395 OA
HETATM    9  H22 UNL     1     -33.030  16.553  -4.890  1.00 20.00     0.210 HD
ENDBRANCH   1   8
TORSDOF 4
ENDMDL
