MODEL 1
REMARK VINA RESULT:      -4.9      0.000      0.000
REMARK  3 active torsions:
REMARK  status: ('A' for Active; 'I' for Inactive)
REMARK    1  A    between atoms: C1_1  and  C4_4 
REMARK    2  A    between atoms: C1_1  and  C7_7 
REMARK    3  A    between atoms: C7_7  and  C8_8 
ROOT
HETATM    1  C1  UNL     1     -33.603   5.905   3.086  1.00 20.00     0.131 C 
HETATM    2  O9  UNL     1     -34.074   5.030   2.361  1.00 20.00    -0.298 OA
ENDROOT
BRANCH   1   3
HETATM    3  C4  UNL     1     -32.219   6.449   2.844  1.00 20.00     0.055 A 
HETATM    4  C2  UNL     1     -32.094   7.829   2.309  1.00 20.00     0.013 A 
HETATM    5  C3  UNL     1     -31.731   7.534   3.734  1.00 20.00     0.013 A 
ENDBRANCH   1   3
BRANCH   1   6
HETATM    6  C7  UNL     1     -34.344   6.470   4.288  1.00 20.00     0.082 C 
BRANCH   6   7
HETATM    7  C8  UNL     1     -34.019   5.757   5.609  1.00 20.00    -0.016 C 
HETATM    8  C5  UNL     1     -35.073   4.700   5.949  1.00 20.00     0.010 C 
HETATM    9  C6  UNL     1     -33.927   6.777   6.746  1.00 20.00     0.010 C 
ENDBRANCH   6   7
ENDBRANCH   1   6
TORSDOF 3
ENDMDL
MODEL 2
REMARK VINA RESULT:      -4.9      1.746      4.177
REMARK  3 active torsions:
REMARK  status: ('A' for Active; 'I' for Inactive)
REMARK    1  A    between atoms: C1_1  and  C4_4 
REMARK    2  A    between atoms: C1_1  and  C7_7 
REMARK    3  A    between atoms: C7_7  and  C8_8 
ROOT
HETATM    1  C1  UNL     1     -33.982   6.383   5.584  1.00 20.00     0.131 C 
HETATM    2  O9  UNL     1     -33.308   6.896   6.476  1.00 20.00    -0.298 OA
ENDROOT
BRANCH   1   3
HETATM    3  C4  UNL     1     -34.945   5.265   5.888  1.00 20.00     0.055 A 
HETATM    4  C2  UNL     1     -35.310   4.338   4.786  1.00 20.00     0.013 A 
HETATM    5  C3  UNL     1     -34.419   3.876   5.901  1.00 20.00     0.013 A 
ENDBRANCH   1   3
BRANCH   1   6
HETATM    6  C7  UNL     1     -33.873   6.795   4.124  1.00 20.00     0.082 C 
BRANCH   6   7
HETATM    7  C8  UNL     1     -32.442   6.740   3.569  1.00 20.00    -0.016 C 
HETATM    8  C5  UNL     1     -32.199   7.847   2.539  1.00 20.00     0.010 C 
HETATM    9  C6  UNL     1     -32.180   5.375   2.929  1.00 20.00     0.010 C 
ENDBRANCH   6   7
ENDBRANCH   1   6
TORSDOF 3
ENDMDL
MODEL 3
REMARK VINA RESULT:      -4.7      1.809      2.613
REMARK  3 active torsions:
REMARK  status: ('A' for Active; 'I' for Inactive)
REMARK    1  A    between atoms: C1_1  and  C4_4 
REMARK    2  A    between atoms: C1_1  and  C7_7 
REMARK    3  A    between atoms: C7_7  and  C8_8 
ROOT
HETATM    1  C1  UNL     1     -32.075   7.397   3.083  1.00 20.00     0.131 C 
HETATM    2  O9  UNL     1     -31.134   7.856   3.728  1.00 20.00    -0.298 OA
ENDROOT
BRANCH   1   3
HETATM    3  C4  UNL     1     -32.600   8.112   1.864  1.00 20.00     0.055 A 
HETATM    4  C2  UNL     1     -32.459   9.589   1.806  1.00 20.00     0.013 A 
HETATM    5  C3  UNL     1     -31.615   8.713   0.930  1.00 20.00     0.013 A 
ENDBRANCH   1   3
BRANCH   1   6
HETATM    6  C7  UNL     1     -32.801   6.119   3.475  1.00 20.00     0.082 C 
BRANCH   6   7
HETATM    7  C8  UNL     1     -34.123   6.359   4.219  1.00 20.00    -0.016 C 
HETATM    8  C5  UNL     1     -33.930   6.302   5.737  1.00 20.00     0.010 C 
HETATM    9  C6  UNL     1     -35.161   5.320   3.792  1.00 20.00     0.010 C 
ENDBRANCH   6   7
ENDBRANCH   1   6
TORSDOF 3
ENDMDL
MODEL 4
REMARK VINA RESULT:      -4.7      0.896      3.794
REMARK  3 active torsions:
REMARK  status: ('A' for Active; 'I' for Inactive)
REMARK    1  A    between atoms: C1_1  and  C4_4 
REMARK    2  A    between atoms: C1_1  and  C7_7 
REMARK    3  A    between atoms: C7_7  and  C8_8 
ROOT
HETATM    1  C1  UNL     1     -34.170   5.664   3.775  1.00 20.00     0.131 C 
HETATM    2  O9  UNL     1     -35.325   5.744   3.362  1.00 20.00    -0.298 OA
ENDROOT
BRANCH   1   3
HETATM    3  C4  UNL     1     -33.882   5.217   5.186  1.00 20.00     0.055 A 
HETATM    4  C2  UNL     1     -34.348   6.079   6.301  1.00 20.00     0.013 A 
HETATM    5  C3  UNL     1     -35.025   4.770   6.023  1.00 20.00     0.013 A 
ENDBRANCH   1   3
BRANCH   1   6
HETATM    6  C7  UNL     1     -32.961   6.040   2.932  1.00 20.00     0.082 C 
BRANCH   6   7
HETATM    7  C8  UNL     1     -32.519   7.501   3.098  1.00 20.00    -0.016 C 
HETATM    8  C5  UNL     1     -32.125   8.122   1.755  1.00 20.00     0.010 C 
HETATM    9  C6  UNL     1     -31.341   7.587   4.070  1.00 20.00     0.010 C 
ENDBRANCH   6   7
ENDBRANCH   1   6
TORSDOF 3
ENDMDL
MODEL 5
REMARK VINA RESULT:      -4.6      1.150      1.486
REMARK  3 active torsions:
REMARK  status: ('A' for Active; 'I' for Inactive)
REMARK    1  A    between atoms: C1_1  and  C4_4 
REMARK    2  A    between atoms: C1_1  and  C7_7 
REMARK    3  A    between atoms: C7_7  and  C8_8 
ROOT
HETATM    1  C1  UNL     1     -32.582   6.725   3.082  1.00 20.00     0.131 C 
HETATM    2  O9  UNL     1     -32.089   5.643   2.770  1.00 20.00    -0.298 OA
ENDROOT
BRANCH   1   3
HETATM    3  C4  UNL     1     -31.920   8.021   2.688  1.00 20.00     0.055 A 
HETATM    4  C2  UNL     1     -31.770   8.317   1.240  1.00 20.00     0.013 A 
HETATM    5  C3  UNL     1     -32.764   9.075   2.069  1.00 20.00     0.013 A 
ENDBRANCH   1   3
BRANCH   1   6
HETATM    6  C7  UNL     1     -33.852   6.847   3.910  1.00 20.00     0.082 C 
BRANCH   6   7
HETATM    7  C8  UNL     1     -34.047   5.707   4.920  1.00 20.00    -0.016 C 
HETATM    8  C5  UNL     1     -35.292   4.877   4.594  1.00 20.00     0.010 C 
HETATM    9  C6  UNL     1     -34.162   6.274   6.336  1.00 20.00     0.010 C 
ENDBRANCH   6   7
ENDBRANCH   1   6
TORSDOF 3
ENDMDL
MODEL 6
REMARK VINA RESULT:      -4.4      0.916      1.690
REMARK  3 active torsions:
REMARK  status: ('A' for Active; 'I' for Inactive)
REMARK    1  A    between atoms: C1_1  and  C4_4 
REMARK    2  A    between atoms: C1_1  and  C7_7 
REMARK    3  A    between atoms: C7_7  and  C8_8 
ROOT
HETATM    1  C1  UNL     1     -34.276   5.653   3.300  1.00 20.00     0.131 C 
HETATM    2  O9  UNL     1     -34.124   4.938   2.312  1.00 20.00    -0.298 OA
ENDROOT
BRANCH   1   3
HETATM    3  C4  UNL     1     -33.231   6.667   3.690  1.00 20.00     0.055 A 
HETATM    4  C2  UNL     1     -31.815   6.378   3.347  1.00 20.00     0.013 A 
HETATM    5  C3  UNL     1     -32.572   7.441   2.607  1.00 20.00     0.013 A 
ENDBRANCH   1   3
BRANCH   1   6
HETATM    6  C7  UNL     1     -35.484   5.549   4.219  1.00 20.00     0.082 C 
BRANCH   6   7
HETATM    7  C8  UNL     1     -35.164   4.964   5.602  1.00 20.00    -0.016 C 
HETATM    8  C5  UNL     1     -34.344   5.943   6.448  1.00 20.00     0.010 C 
HETATM    9  C6  UNL     1     -34.398   3.649   5.451  1.00 20.00     0.010 C 
ENDBRANCH   6   7
ENDBRANCH   1   6
TORSDOF 3
ENDMDL
MODEL 7
REMARK VINA RESULT:      -4.4      1.418      4.243
REMARK  3 active torsions:
REMARK  status: ('A' for Active; 'I' for Inactive)
REMARK    1  A    between atoms: C1_1  and  C4_4 
REMARK    2  A    between atoms: C1_1  and  C7_7 
REMARK    3  A    between atoms: C7_7  and  C8_8 
ROOT
HETATM    1  C1  UNL     1     -32.580   6.526   3.282  1.00 20.00     0.131 C 
HETATM    2  O9  UNL     1     -32.054   5.458   2.975  1.00 20.00    -0.298 OA
ENDROOT
BRANCH   1   3
HETATM    3  C4  UNL     1     -33.941   6.561   3.929  1.00 20.00     0.055 A 
HETATM    4  C2  UNL     1     -34.860   5.420   3.684  1.00 20.00     0.013 A 
HETATM    5  C3  UNL     1     -34.216   5.599   5.027  1.00 20.00     0.013 A 
ENDBRANCH   1   3
BRANCH   1   6
HETATM    6  C7  UNL     1     -31.936   7.876   3.004  1.00 20.00     0.082 C 
BRANCH   6   7
HETATM    7  C8  UNL     1     -32.467   8.568   1.741  1.00 20.00    -0.016 C 
HETATM    8  C5  UNL     1     -31.474   8.453   0.580  1.00 20.00     0.010 C 
HETATM    9  C6  UNL     1     -32.750  10.043   2.031  1.00 20.00     0.010 C 
ENDBRANCH   6   7
ENDBRANCH   1   6
TORSDOF 3
ENDMDL
MODEL 8
REMARK VINA RESULT:      -4.2     11.296     12.213
REMARK  3 active torsions:
REMARK  status: ('A' for Active; 'I' for Inactive)
REMARK    1  A    between atoms: C1_1  and  C4_4 
REMARK    2  A    between atoms: C1_1  and  C7_7 
REMARK    3  A    between atoms: C7_7  and  C8_8 
ROOT
HETATM    1  C1  UNL     1     -34.278  13.885  -4.089  1.00 20.00     0.131 C 
HETATM    2  O9  UNL     1     -33.290  13.232  -3.761  1.00 20.00    -0.298 OA
ENDROOT
BRANCH   1   3
HETATM    3  C4  UNL     1     -34.853  13.776  -5.479  1.00 20.00     0.055 A 
HETATM    4  C2  UNL     1     -35.862  14.782  -5.899  1.00 20.00     0.013 A 
HETATM    5  C3  UNL     1     -34.476  14.814  -6.472  1.00 20.00     0.013 A 
ENDBRANCH   1   3
BRANCH   1   6
HETATM    6  C7  UNL     1     -34.965  14.871  -3.156  1.00 20.00     0.082 C 
BRANCH   6   7
HETATM    7  C8  UNL     1     -34.013  15.902  -2.532  1.00 20.00    -0.016 C 
HETATM    8  C5  UNL     1     -34.587  16.480  -1.235  1.00 20.00     0.010 C 
HETATM    9  C6  UNL     1     -33.742  17.034  -3.525  1.00 20.00     0.010 C 
ENDBRANCH   6   7
ENDBRANCH   1   6
TORSDOF 3
ENDMDL
MODEL 9
REMARK VINA RESULT:      -4.2     11.046     12.987
REMARK  3 active torsions:
REMARK  status: ('A' for Active; 'I' for Inactive)
REMARK    1  A    between atoms: C1_1  and  C4_4 
REMARK    2  A    between atoms: C1_1  and  C7_7 
REMARK    3  A    between atoms: C7_7  and  C8_8 
ROOT
HETATM    1  C1  UNL     1     -34.764  13.660  -4.570  1.00 20.00     0.131 C 
HETATM    2  O9  UNL     1     -34.886  12.457  -4.790  1.00 20.00    -0.298 OA
ENDROOT
BRANCH   1   3
HETATM    3  C4  UNL     1     -33.973  14.155  -3.386  1.00 20.00     0.055 A 
HETATM    4  C2  UNL     1     -32.953  15.209  -3.618  1.00 20.00     0.013 A 
HETATM    5  C3  UNL     1     -34.230  15.536  -2.903  1.00 20.00     0.013 A 
ENDBRANCH   1   3
BRANCH   1   6
HETATM    6  C7  UNL     1     -35.421  14.729  -5.429  1.00 20.00     0.082 C 
BRANCH   6   7
HETATM    7  C8  UNL     1     -34.734  14.944  -6.786  1.00 20.00    -0.016 C 
HETATM    8  C5  UNL     1     -34.372  16.416  -7.003  1.00 20.00     0.010 C 
HETATM    9  C6  UNL     1     -35.646  14.466  -7.918  1.00 20.00     0.010 C 
ENDBRANCH   6   7
ENDBRANCH   1   6
TORSDOF 3
ENDMDL
