MODEL 1
REMARK VINA RESULT:      -4.2      0.000      0.000
REMARK  1 active torsions:
REMARK  status: ('A' for Active; 'I' for Inactive)
REMARK    1  A    between atoms: C2_2  and  C3_3 
ROOT
HETATM    1  C1  UNL     1     -34.017   5.846   3.959  1.00 20.00     0.064 C 
HETATM    2  C2  UNL     1     -35.166   5.070   4.448  1.00 20.00     0.194 C 
HETATM    3  N4  UNL     1     -33.110   6.458   3.573  1.00 20.00    -0.197 NA
ENDROOT
BRANCH   2   4
HETATM    4  C3  UNL     1     -35.036   4.757   5.926  1.00 20.00     0.366 C 
HETATM    5  F5  UNL     1     -34.774   5.888   6.625  1.00 20.00    -0.213 F 
HETATM    6  F6  UNL     1     -34.001   3.906   6.138  1.00 20.00    -0.213 F 
ENDBRANCH   2   4
TORSDOF 1
ENDMDL
MODEL 2
REMARK VINA RESULT:      -4.1      0.698      1.308
REMARK  1 active torsions:
REMARK  status: ('A' for Active; 'I' for Inactive)
REMARK    1  A    between atoms: C2_2  and  C3_3 
ROOT
HETATM    1  C1  UNL     1     -33.665   6.007   3.867  1.00 20.00     0.064 C 
HETATM    2  C2  UNL     1     -34.825   5.340   4.476  1.00 20.00     0.194 C 
HETATM    3  N4  UNL     1     -32.750   6.534   3.385  1.00 20.00    -0.197 NA
ENDROOT
BRANCH   2   4
HETATM    4  C3  UNL     1     -34.557   4.970   5.921  1.00 20.00     0.366 C 
HETATM    5  F5  UNL     1     -35.431   4.021   6.334  1.00 20.00    -0.213 F 
HETATM    6  F6  UNL     1     -34.730   6.050   6.724  1.00 20.00    -0.213 F 
ENDBRANCH   2   4
TORSDOF 1
ENDMDL
MODEL 3
REMARK VINA RESULT:      -4.0      2.257      2.643
REMARK  1 active torsions:
REMARK  status: ('A' for Active; 'I' for Inactive)
REMARK    1  A    between atoms: C2_2  and  C3_3 
ROOT
HETATM    1  C1  UNL     1     -34.309   5.983   6.263  1.00 20.00     0.064 C 
HETATM    2  C2  UNL     1     -34.984   4.777   5.764  1.00 20.00     0.194 C 
HETATM    3  N4  UNL     1     -33.775   6.934   6.658  1.00 20.00    -0.197 NA
ENDROOT
BRANCH   2   4
HETATM    4  C3  UNL     1     -35.074   4.777   4.251  1.00 20.00     0.366 C 
HETATM    5  F5  UNL     1     -34.006   5.417   3.716  1.00 20.00    -0.213 F 
HETATM    6  F6  UNL     1     -36.184   5.443   3.845  1.00 20.00    -0.213 F 
ENDBRANCH   2   4
TORSDOF 1
ENDMDL
MODEL 4
REMARK VINA RESULT:      -4.0      1.500      1.585
REMARK  1 active torsions:
REMARK  status: ('A' for Active; 'I' for Inactive)
REMARK    1  A    between atoms: C2_2  and  C3_3 
ROOT
HETATM    1  C1  UNL     1     -33.293   6.330   4.027  1.00 20.00     0.064 C 
HETATM    2  C2  UNL     1     -34.050   6.083   5.262  1.00 20.00     0.194 C 
HETATM    3  N4  UNL     1     -32.694   6.526   3.053  1.00 20.00    -0.197 NA
ENDROOT
BRANCH   2   4
HETATM    4  C3  UNL     1     -34.934   4.857   5.135  1.00 20.00     0.366 C 
HETATM    5  F5  UNL     1     -35.945   5.094   4.264  1.00 20.00    -0.213 F 
HETATM    6  F6  UNL     1     -35.498   4.557   6.331  1.00 20.00    -0.213 F 
ENDBRANCH   2   4
TORSDOF 1
ENDMDL
MODEL 5
REMARK VINA RESULT:      -3.9      1.329      1.711
REMARK  1 active torsions:
REMARK  status: ('A' for Active; 'I' for Inactive)
REMARK    1  A    between atoms: C2_2  and  C3_3 
ROOT
HETATM    1  C1  UNL     1     -33.544   6.252   4.387  1.00 20.00     0.064 C 
HETATM    2  C2  UNL     1     -34.127   5.938   5.699  1.00 20.00     0.194 C 
HETATM    3  N4  UNL     1     -33.083   6.501   3.352  1.00 20.00    -0.197 NA
ENDROOT
BRANCH   2   4
HETATM    4  C3  UNL     1     -35.157   4.831   5.598  1.00 20.00     0.366 C 
HETATM    5  F5  UNL     1     -34.552   3.619   5.644  1.00 20.00    -0.213 F 
HETATM    6  F6  UNL     1     -35.814   4.905   4.414  1.00 20.00    -0.213 F 
ENDBRANCH   2   4
TORSDOF 1
ENDMDL
MODEL 6
REMARK VINA RESULT:      -3.8      2.496      3.036
REMARK  1 active torsions:
REMARK  status: ('A' for Active; 'I' for Inactive)
REMARK    1  A    between atoms: C2_2  and  C3_3 
ROOT
HETATM    1  C1  UNL     1     -34.958   4.746   4.959  1.00 20.00     0.064 C 
HETATM    2  C2  UNL     1     -34.770   5.427   3.670  1.00 20.00     0.194 C 
HETATM    3  N4  UNL     1     -35.107   4.207   5.975  1.00 20.00    -0.197 NA
ENDROOT
BRANCH   2   4
HETATM    4  C3  UNL     1     -33.588   6.376   3.712  1.00 20.00     0.366 C 
HETATM    5  F5  UNL     1     -32.520   5.827   3.085  1.00 20.00    -0.213 F 
HETATM    6  F6  UNL     1     -33.219   6.614   4.995  1.00 20.00    -0.213 F 
ENDBRANCH   2   4
TORSDOF 1
ENDMDL
MODEL 7
REMARK VINA RESULT:      -3.7      2.834      3.225
REMARK  1 active torsions:
REMARK  status: ('A' for Active; 'I' for Inactive)
REMARK    1  A    between atoms: C2_2  and  C3_3 
ROOT
HETATM    1  C1  UNL     1     -34.637   4.831   5.056  1.00 20.00     0.064 C 
HETATM    2  C2  UNL     1     -33.988   6.122   4.789  1.00 20.00     0.194 C 
HETATM    3  N4  UNL     1     -35.150   3.812   5.267  1.00 20.00    -0.197 NA
ENDROOT
BRANCH   2   4
HETATM    4  C3  UNL     1     -33.419   6.178   3.384  1.00 20.00     0.366 C 
HETATM    5  F5  UNL     1     -34.054   5.287   2.584  1.00 20.00    -0.213 F 
HETATM    6  F6  UNL     1     -32.105   5.841   3.395  1.00 20.00    -0.213 F 
ENDBRANCH   2   4
TORSDOF 1
ENDMDL
MODEL 8
REMARK VINA RESULT:      -3.7      2.984      3.353
REMARK  1 active torsions:
REMARK  status: ('A' for Active; 'I' for Inactive)
REMARK    1  A    between atoms: C2_2  and  C3_3 
ROOT
HETATM    1  C1  UNL     1     -34.411   5.620   5.161  1.00 20.00     0.064 C 
HETATM    2  C2  UNL     1     -34.118   5.849   3.739  1.00 20.00     0.194 C 
HETATM    3  N4  UNL     1     -34.643   5.438   6.283  1.00 20.00    -0.197 NA
ENDROOT
BRANCH   2   4
HETATM    4  C3  UNL     1     -32.745   6.462   3.546  1.00 20.00     0.366 C 
HETATM    5  F5  UNL     1     -32.836   7.597   2.811  1.00 20.00    -0.213 F 
HETATM    6  F6  UNL     1     -31.939   5.609   2.868  1.00 20.00    -0.213 F 
ENDBRANCH   2   4
TORSDOF 1
ENDMDL
MODEL 9
REMARK VINA RESULT:      -3.5      1.825      2.103
REMARK  1 active torsions:
REMARK  status: ('A' for Active; 'I' for Inactive)
REMARK    1  A    between atoms: C2_2  and  C3_3 
ROOT
HETATM    1  C1  UNL     1     -34.832   5.258   4.480  1.00 20.00     0.064 C 
HETATM    2  C2  UNL     1     -34.717   5.345   5.942  1.00 20.00     0.194 C 
HETATM    3  N4  UNL     1     -34.925   5.189   3.326  1.00 20.00    -0.197 NA
ENDROOT
BRANCH   2   4
HETATM    4  C3  UNL     1     -33.663   6.353   6.357  1.00 20.00     0.366 C 
HETATM    5  F5  UNL     1     -34.236   7.387   7.021  1.00 20.00    -0.213 F 
HETATM    6  F6  UNL     1     -33.051   6.871   5.263  1.00 20.00    -0.213 F 
ENDBRANCH   2   4
TORSDOF 1
ENDMDL
