MODEL 1
REMARK VINA RESULT:      -5.1      0.000      0.000
REMARK  5 active torsions:
REMARK  status: ('A' for Active; 'I' for Inactive)
REMARK    1  A    between atoms: C4_4  and  C6_6 
REMARK    2  A    between atoms: C4_4  and  C7_7 
REMARK    3  A    between atoms: C5_5  and  C8_8 
REMARK    4  A    between atoms: C5_5  and  N9_9 
REMARK    5  A    between atoms: C7_7  and  N9_9 
ROOT
HETATM    1  C3  UNL     1     -32.137   5.548   2.985  1.00 20.00     0.042 C 
HETATM    2  C7  UNL     1     -33.093   6.486   3.717  1.00 20.00     0.217 C 
ENDROOT
BRANCH   2   3
HETATM    3  C4  UNL     1     -34.480   5.841   3.867  1.00 20.00     0.039 C 
BRANCH   3   4
HETATM    4  C6  UNL     1     -34.894   5.511   5.316  1.00 20.00    -0.021 C 
HETATM    5  C1  UNL     1     -34.041   6.324   6.294  1.00 20.00     0.009 C 
HETATM    6  C2  UNL     1     -34.764   4.021   5.637  1.00 20.00     0.009 C 
ENDBRANCH   3   4
ENDBRANCH   2   3
BRANCH   2   7
HETATM    7  N9  UNL     1     -33.198   7.722   2.970  1.00 20.00     0.092 N 
HETATM    8  H28 UNL     1     -33.337   8.504   3.614  1.00 20.00     0.316 HD
BRANCH   7   9
HETATM    9  C5  UNL     1     -31.992   7.969   2.184  1.00 20.00     0.340 C 
BRANCH   9  10
HETATM   10  C8  UNL     1     -32.149   9.223   1.349  1.00 20.00     0.381 C 
HETATM   11  F10 UNL     1     -33.126  10.006   1.870  1.00 20.00    -0.213 F 
HETATM   12  F11 UNL     1     -32.556   8.878   0.100  1.00 20.00    -0.213 F 
ENDBRANCH   9  10
ENDBRANCH   7   9
ENDBRANCH   2   7
TORSDOF 5
ENDMDL
MODEL 2
REMARK VINA RESULT:      -4.7      0.483      1.165
REMARK  5 active torsions:
REMARK  status: ('A' for Active; 'I' for Inactive)
REMARK    1  A    between atoms: C4_4  and  C6_6 
REMARK    2  A    between atoms: C4_4  and  C7_7 
REMARK    3  A    between atoms: C5_5  and  C8_8 
REMARK    4  A    between atoms: C5_5  and  N9_9 
REMARK    5  A    between atoms: C7_7  and  N9_9 
ROOT
HETATM    1  C3  UNL     1     -32.151   5.608   2.629  1.00 20.00     0.042 C 
HETATM    2  C7  UNL     1     -32.792   6.654   3.539  1.00 20.00     0.217 C 
ENDROOT
BRANCH   2   3
HETATM    3  C4  UNL     1     -34.111   6.128   4.128  1.00 20.00     0.039 C 
BRANCH   3   4
HETATM    4  C6  UNL     1     -34.003   5.540   5.550  1.00 20.00    -0.021 C 
HETATM    5  C1  UNL     1     -35.097   4.489   5.758  1.00 20.00     0.009 C 
HETATM    6  C2  UNL     1     -34.107   6.611   6.636  1.00 20.00     0.009 C 
ENDBRANCH   3   4
ENDBRANCH   2   3
BRANCH   2   7
HETATM    7  N9  UNL     1     -33.035   7.856   2.772  1.00 20.00     0.092 N 
HETATM    8  H28 UNL     1     -33.145   8.653   3.403  1.00 20.00     0.316 HD
BRANCH   7   9
HETATM    9  C5  UNL     1     -31.931   8.132   1.856  1.00 20.00     0.340 C 
BRANCH   9  10
HETATM   10  C8  UNL     1     -32.153   9.445   1.135  1.00 20.00     0.381 C 
HETATM   11  F10 UNL     1     -32.946  10.254   1.880  1.00 20.00    -0.213 F 
HETATM   12  F11 UNL     1     -32.824   9.208  -0.022  1.00 20.00    -0.213 F 
ENDBRANCH   9  10
ENDBRANCH   7   9
ENDBRANCH   2   7
TORSDOF 5
ENDMDL
MODEL 3
REMARK VINA RESULT:      -4.6     10.632     11.601
REMARK  5 active torsions:
REMARK  status: ('A' for Active; 'I' for Inactive)
REMARK    1  A    between atoms: C4_4  and  C6_6 
REMARK    2  A    between atoms: C4_4  and  C7_7 
REMARK    3  A    between atoms: C5_5  and  C8_8 
REMARK    4  A    between atoms: C5_5  and  N9_9 
REMARK    5  A    between atoms: C7_7  and  N9_9 
ROOT
HETATM    1  C3  UNL     1     -33.512  17.802  -5.131  1.00 20.00     0.042 C 
HETATM    2  C7  UNL     1     -34.001  16.482  -4.540  1.00 20.00     0.217 C 
ENDROOT
BRANCH   2   3
HETATM    3  C4  UNL     1     -33.575  16.354  -3.069  1.00 20.00     0.039 C 
BRANCH   3   4
HETATM    4  C6  UNL     1     -34.703  15.955  -2.094  1.00 20.00    -0.021 C 
HETATM    5  C1  UNL     1     -36.064  16.225  -2.742  1.00 20.00     0.009 C 
HETATM    6  C2  UNL     1     -34.613  16.697  -0.760  1.00 20.00     0.009 C 
ENDBRANCH   3   4
ENDBRANCH   2   3
BRANCH   2   7
HETATM    7  N9  UNL     1     -33.449  15.391  -5.314  1.00 20.00     0.092 N 
HETATM    8  H28 UNL     1     -32.749  14.893  -4.759  1.00 20.00     0.316 HD
BRANCH   7   9
HETATM    9  C5  UNL     1     -34.490  14.447  -5.714  1.00 20.00     0.340 C 
BRANCH   9  10
HETATM   10  C8  UNL     1     -34.433  13.198  -4.859  1.00 20.00     0.381 C 
HETATM   11  F10 UNL     1     -35.478  13.182  -3.995  1.00 20.00    -0.213 F 
HETATM   12  F11 UNL     1     -33.307  13.230  -4.100  1.00 20.00    -0.213 F 
ENDBRANCH   9  10
ENDBRANCH   7   9
ENDBRANCH   2   7
TORSDOF 5
ENDMDL
MODEL 4
REMARK VINA RESULT:      -4.4      3.088      5.374
REMARK  5 active torsions:
REMARK  status: ('A' for Active; 'I' for Inactive)
REMARK    1  A    between atoms: C4_4  and  C6_6 
REMARK    2  A    between atoms: C4_4  and  C7_7 
REMARK    3  A    between atoms: C5_5  and  C8_8 
REMARK    4  A    between atoms: C5_5  and  N9_9 
REMARK    5  A    between atoms: C7_7  and  N9_9 
ROOT
HETATM    1  C3  UNL     1     -32.130   5.323   3.028  1.00 20.00     0.042 C 
HETATM    2  C7  UNL     1     -32.985   6.588   3.020  1.00 20.00     0.217 C 
ENDROOT
BRANCH   2   3
HETATM    3  C4  UNL     1     -32.111   7.834   2.813  1.00 20.00     0.039 C 
BRANCH   3   4
HETATM    4  C6  UNL     1     -32.494   8.708   1.600  1.00 20.00    -0.021 C 
HETATM    5  C1  UNL     1     -31.409   8.601   0.524  1.00 20.00     0.009 C 
HETATM    6  C2  UNL     1     -32.702  10.175   1.977  1.00 20.00     0.009 C 
ENDBRANCH   3   4
ENDBRANCH   2   3
BRANCH   2   7
HETATM    7  N9  UNL     1     -33.694   6.681   4.279  1.00 20.00     0.092 N 
HETATM    8  H28 UNL     1     -34.366   7.450   4.240  1.00 20.00     0.316 HD
BRANCH   7   9
HETATM    9  C5  UNL     1     -34.410   5.444   4.576  1.00 20.00     0.340 C 
BRANCH   9  10
HETATM   10  C8  UNL     1     -34.429   5.185   6.068  1.00 20.00     0.381 C 
HETATM   11  F10 UNL     1     -35.534   4.474   6.400  1.00 20.00    -0.213 F 
HETATM   12  F11 UNL     1     -34.522   6.371   6.724  1.00 20.00    -0.213 F 
ENDBRANCH   9  10
ENDBRANCH   7   9
ENDBRANCH   2   7
TORSDOF 5
ENDMDL
MODEL 5
REMARK VINA RESULT:      -4.3     10.887     11.882
REMARK  5 active torsions:
REMARK  status: ('A' for Active; 'I' for Inactive)
REMARK    1  A    between atoms: C4_4  and  C6_6 
REMARK    2  A    between atoms: C4_4  and  C7_7 
REMARK    3  A    between atoms: C5_5  and  C8_8 
REMARK    4  A    between atoms: C5_5  and  N9_9 
REMARK    5  A    between atoms: C7_7  and  N9_9 
ROOT
HETATM    1  C3  UNL     1     -34.176  14.192  -3.493  1.00 20.00     0.042 C 
HETATM    2  C7  UNL     1     -33.120  15.295  -3.466  1.00 20.00     0.217 C 
ENDROOT
BRANCH   2   3
HETATM    3  C4  UNL     1     -33.667  16.555  -2.776  1.00 20.00     0.039 C 
BRANCH   3   4
HETATM    4  C6  UNL     1     -34.925  16.333  -1.912  1.00 20.00    -0.021 C 
HETATM    5  C1  UNL     1     -36.113  17.077  -2.528  1.00 20.00     0.009 C 
HETATM    6  C2  UNL     1     -34.730  16.787  -0.465  1.00 20.00     0.009 C 
ENDBRANCH   3   4
ENDBRANCH   2   3
BRANCH   2   7
HETATM    7  N9  UNL     1     -32.730  15.602  -4.825  1.00 20.00     0.092 N 
HETATM    8  H28 UNL     1     -32.968  14.819  -5.438  1.00 20.00     0.316 HD
BRANCH   7   9
HETATM    9  C5  UNL     1     -33.405  16.802  -5.311  1.00 20.00     0.340 C 
BRANCH   9  10
HETATM   10  C8  UNL     1     -34.372  16.456  -6.424  1.00 20.00     0.381 C 
HETATM   11  F10 UNL     1     -35.584  16.144  -5.902  1.00 20.00    -0.213 F 
HETATM   12  F11 UNL     1     -33.931  15.343  -7.065  1.00 20.00    -0.213 F 
ENDBRANCH   9  10
ENDBRANCH   7   9
ENDBRANCH   2   7
TORSDOF 5
ENDMDL
MODEL 6
REMARK VINA RESULT:      -4.2     10.646     11.691
REMARK  5 active torsions:
REMARK  status: ('A' for Active; 'I' for Inactive)
REMARK    1  A    between atoms: C4_4  and  C6_6 
REMARK    2  A    between atoms: C4_4  and  C7_7 
REMARK    3  A    between atoms: C5_5  and  C8_8 
REMARK    4  A    between atoms: C5_5  and  N9_9 
REMARK    5  A    between atoms: C7_7  and  N9_9 
ROOT
HETATM    1  C3  UNL     1     -33.297  16.616  -5.161  1.00 20.00     0.042 C 
HETATM    2  C7  UNL     1     -34.326  16.575  -4.035  1.00 20.00     0.217 C 
ENDROOT
BRANCH   2   3
HETATM    3  C4  UNL     1     -33.687  16.068  -2.732  1.00 20.00     0.039 C 
BRANCH   3   4
HETATM    4  C6  UNL     1     -33.658  17.092  -1.578  1.00 20.00    -0.021 C 
HETATM    5  C1  UNL     1     -34.776  16.776  -0.580  1.00 20.00     0.009 C 
HETATM    6  C2  UNL     1     -33.799  18.533  -2.069  1.00 20.00     0.009 C 
ENDBRANCH   3   4
ENDBRANCH   2   3
BRANCH   2   7
HETATM    7  N9  UNL     1     -35.414  15.703  -4.426  1.00 20.00     0.092 N 
HETATM    8  H28 UNL     1     -35.369  15.526  -5.432  1.00 20.00     0.316 HD
BRANCH   7   9
HETATM    9  C5  UNL     1     -35.349  14.426  -3.721  1.00 20.00     0.340 C 
BRANCH   9  10
HETATM   10  C8  UNL     1     -34.978  13.310  -4.675  1.00 20.00     0.381 C 
HETATM   11  F10 UNL     1     -33.656  13.029  -4.566  1.00 20.00    -0.213 F 
HETATM   12  F11 UNL     1     -35.178  13.730  -5.950  1.00 20.00    -0.213 F 
ENDBRANCH   9  10
ENDBRANCH   7   9
ENDBRANCH   2   7
TORSDOF 5
ENDMDL
MODEL 7
REMARK VINA RESULT:      -4.2     10.305     11.379
REMARK  5 active torsions:
REMARK  status: ('A' for Active; 'I' for Inactive)
REMARK    1  A    between atoms: C4_4  and  C6_6 
REMARK    2  A    between atoms: C4_4  and  C7_7 
REMARK    3  A    between atoms: C5_5  and  C8_8 
REMARK    4  A    between atoms: C5_5  and  N9_9 
REMARK    5  A    between atoms: C7_7  and  N9_9 
ROOT
HETATM    1  C3  UNL     1     -38.008  14.839  -4.036  1.00 20.00     0.042 C 
HETATM    2  C7  UNL     1     -36.500  15.029  -3.892  1.00 20.00     0.217 C 
ENDROOT
BRANCH   2   3
HETATM    3  C4  UNL     1     -35.761  13.698  -4.105  1.00 20.00     0.039 C 
BRANCH   3   4
HETATM    4  C6  UNL     1     -34.398  13.814  -4.817  1.00 20.00    -0.021 C 
HETATM    5  C1  UNL     1     -33.269  13.759  -3.783  1.00 20.00     0.009 C 
HETATM    6  C2  UNL     1     -34.275  15.096  -5.642  1.00 20.00     0.009 C 
ENDBRANCH   3   4
ENDBRANCH   2   3
BRANCH   2   7
HETATM    7  N9  UNL     1     -36.219  15.547  -2.570  1.00 20.00     0.092 N 
HETATM    8  H28 UNL     1     -35.613  14.897  -2.065  1.00 20.00     0.316 HD
BRANCH   7   9
HETATM    9  C5  UNL     1     -35.557  16.847  -2.641  1.00 20.00     0.340 C 
BRANCH   9  10
HETATM   10  C8  UNL     1     -34.466  16.947  -1.596  1.00 20.00     0.381 C 
HETATM   11  F10 UNL     1     -33.306  16.448  -2.089  1.00 20.00    -0.213 F 
HETATM   12  F11 UNL     1     -34.798  16.171  -0.532  1.00 20.00    -0.213 F 
ENDBRANCH   9  10
ENDBRANCH   7   9
ENDBRANCH   2   7
TORSDOF 5
ENDMDL
MODEL 8
REMARK VINA RESULT:      -4.2     10.266     12.010
REMARK  5 active torsions:
REMARK  status: ('A' for Active; 'I' for Inactive)
REMARK    1  A    between atoms: C4_4  and  C6_6 
REMARK    2  A    between atoms: C4_4  and  C7_7 
REMARK    3  A    between atoms: C5_5  and  C8_8 
REMARK    4  A    between atoms: C5_5  and  N9_9 
REMARK    5  A    between atoms: C7_7  and  N9_9 
ROOT
HETATM    1  C3  UNL     1     -34.602  13.752  -3.657  1.00 20.00     0.042 C 
HETATM    2  C7  UNL     1     -35.826  14.639  -3.877  1.00 20.00     0.217 C 
ENDROOT
BRANCH   2   3
HETATM    3  C4  UNL     1     -35.573  15.641  -5.014  1.00 20.00     0.039 C 
BRANCH   3   4
HETATM    4  C6  UNL     1     -34.231  15.464  -5.755  1.00 20.00    -0.021 C 
HETATM    5  C1  UNL     1     -33.415  16.756  -5.661  1.00 20.00     0.009 C 
HETATM    6  C2  UNL     1     -34.419  15.081  -7.223  1.00 20.00     0.009 C 
ENDBRANCH   3   4
ENDBRANCH   2   3
BRANCH   2   7
HETATM    7  N9  UNL     1     -36.118  15.345  -2.648  1.00 20.00     0.092 N 
HETATM    8  H28 UNL     1     -35.699  14.851  -1.857  1.00 20.00     0.316 HD
BRANCH   7   9
HETATM    9  C5  UNL     1     -35.593  16.707  -2.683  1.00 20.00     0.340 C 
BRANCH   9  10
HETATM   10  C8  UNL     1     -34.484  16.876  -1.666  1.00 20.00     0.381 C 
HETATM   11  F10 UNL     1     -33.328  16.358  -2.151  1.00 20.00    -0.213 F 
HETATM   12  F11 UNL     1     -34.789  16.161  -0.552  1.00 20.00    -0.213 F 
ENDBRANCH   9  10
ENDBRANCH   7   9
ENDBRANCH   2   7
TORSDOF 5
ENDMDL
MODEL 9
REMARK VINA RESULT:      -4.2      2.980      5.206
REMARK  5 active torsions:
REMARK  status: ('A' for Active; 'I' for Inactive)
REMARK    1  A    between atoms: C4_4  and  C6_6 
REMARK    2  A    between atoms: C4_4  and  C7_7 
REMARK    3  A    between atoms: C5_5  and  C8_8 
REMARK    4  A    between atoms: C5_5  and  N9_9 
REMARK    5  A    between atoms: C7_7  and  N9_9 
ROOT
HETATM    1  C3  UNL     1     -32.113   5.378   3.170  1.00 20.00     0.042 C 
HETATM    2  C7  UNL     1     -32.996   6.595   2.903  1.00 20.00     0.217 C 
ENDROOT
BRANCH   2   3
HETATM    3  C4  UNL     1     -32.143   7.864   2.754  1.00 20.00     0.039 C 
BRANCH   3   4
HETATM    4  C6  UNL     1     -32.493   8.748   1.538  1.00 20.00    -0.021 C 
HETATM    5  C1  UNL     1     -31.393   8.627   0.479  1.00 20.00     0.009 C 
HETATM    6  C2  UNL     1     -32.682  10.217   1.917  1.00 20.00     0.009 C 
ENDBRANCH   3   4
ENDBRANCH   2   3
BRANCH   2   7
HETATM    7  N9  UNL     1     -33.925   6.748   4.003  1.00 20.00     0.092 N 
HETATM    8  H28 UNL     1     -34.876   6.848   3.640  1.00 20.00     0.316 HD
BRANCH   7   9
HETATM    9  C5  UNL     1     -33.882   5.594   4.897  1.00 20.00     0.340 C 
BRANCH   9  10
HETATM   10  C8  UNL     1     -35.241   4.931   4.976  1.00 20.00     0.381 C 
HETATM   11  F10 UNL     1     -35.105   3.585   4.886  1.00 20.00    -0.213 F 
HETATM   12  F11 UNL     1     -35.986   5.315   3.908  1.00 20.00    -0.213 F 
ENDBRANCH   9  10
ENDBRANCH   7   9
ENDBRANCH   2   7
TORSDOF 5
ENDMDL
