MODEL 1
REMARK VINA RESULT:      -3.9      0.000      0.000
REMARK  1 active torsions:
REMARK  status: ('A' for Active; 'I' for Inactive)
REMARK    1  A    between atoms: C3_3  and  C6_6 
ROOT
HETATM    1  C1  UNL     1     -34.790  15.289  -2.441  1.00 20.00     0.019 A 
HETATM    2  C2  UNL     1     -34.705  16.654  -2.043  1.00 20.00     0.028 A 
HETATM    3  C3  UNL     1     -34.098  15.046  -3.607  1.00 20.00     0.015 A 
HETATM    4  C4  UNL     1     -33.952  17.404  -2.920  1.00 20.00     0.051 A 
HETATM    5  S8  UNL     1     -33.352  16.462  -4.217  1.00 20.00    -0.085 SA
HETATM    6 BR9  UNL     1     -33.609  19.261  -2.725  1.00 20.00    -0.043 Br
ENDROOT
BRANCH   3   7
HETATM    7  C6  UNL     1     -34.003  13.676  -4.283  1.00 20.00     0.185 A 
HETATM    8  C5  UNL     1     -34.875  13.403  -5.492  1.00 20.00     0.206 A 
HETATM    9  O7  UNL     1     -35.084  12.717  -4.255  1.00 20.00    -0.376 OA
ENDBRANCH   3   7
TORSDOF 1
ENDMDL
MODEL 2
REMARK VINA RESULT:      -3.6      1.690      1.761
REMARK  1 active torsions:
REMARK  status: ('A' for Active; 'I' for Inactive)
REMARK    1  A    between atoms: C3_3  and  C6_6 
ROOT
HETATM    1  C1  UNL     1     -33.667  15.899  -2.670  1.00 20.00     0.019 A 
HETATM    2  C2  UNL     1     -34.301  17.070  -2.164  1.00 20.00     0.028 A 
HETATM    3  C3  UNL     1     -34.570  15.027  -3.238  1.00 20.00     0.015 A 
HETATM    4  C4  UNL     1     -35.665  17.049  -2.364  1.00 20.00     0.051 A 
HETATM    5  S8  UNL     1     -36.174  15.621  -3.158  1.00 20.00    -0.085 SA
HETATM    6 BR9  UNL     1     -36.850  18.433  -1.830  1.00 20.00    -0.043 Br
ENDROOT
BRANCH   3   7
HETATM    7  C6  UNL     1     -34.191  13.684  -3.868  1.00 20.00     0.185 A 
HETATM    8  C5  UNL     1     -34.556  13.436  -5.318  1.00 20.00     0.206 A 
HETATM    9  O7  UNL     1     -35.176  12.702  -4.260  1.00 20.00    -0.376 OA
ENDBRANCH   3   7
TORSDOF 1
ENDMDL
MODEL 3
REMARK VINA RESULT:      -3.5      3.104      4.179
REMARK  1 active torsions:
REMARK  status: ('A' for Active; 'I' for Inactive)
REMARK    1  A    between atoms: C3_3  and  C6_6 
ROOT
HETATM    1  C1  UNL     1     -34.065  14.104  -3.723  1.00 20.00     0.019 A 
HETATM    2  C2  UNL     1     -34.489  13.661  -5.010  1.00 20.00     0.028 A 
HETATM    3  C3  UNL     1     -34.103  15.476  -3.611  1.00 20.00     0.015 A 
HETATM    4  C4  UNL     1     -34.833  14.711  -5.832  1.00 20.00     0.051 A 
HETATM    5  S8  UNL     1     -34.646  16.224  -5.053  1.00 20.00    -0.085 SA
HETATM    6 BR9  UNL     1     -35.449  14.520  -7.618  1.00 20.00    -0.043 Br
ENDROOT
BRANCH   3   7
HETATM    7  C6  UNL     1     -33.708  16.248  -2.349  1.00 20.00     0.185 A 
HETATM    8  C5  UNL     1     -34.766  16.501  -1.294  1.00 20.00     0.206 A 
HETATM    9  O7  UNL     1     -34.207  17.573  -2.059  1.00 20.00    -0.376 OA
ENDBRANCH   3   7
TORSDOF 1
ENDMDL
MODEL 4
REMARK VINA RESULT:      -3.5      2.263      2.737
REMARK  1 active torsions:
REMARK  status: ('A' for Active; 'I' for Inactive)
REMARK    1  A    between atoms: C3_3  and  C6_6 
ROOT
HETATM    1  C1  UNL     1     -34.511  13.893  -4.645  1.00 20.00     0.019 A 
HETATM    2  C2  UNL     1     -34.511  14.270  -3.271  1.00 20.00     0.028 A 
HETATM    3  C3  UNL     1     -34.539  14.987  -5.481  1.00 20.00     0.015 A 
HETATM    4  C4  UNL     1     -34.541  15.638  -3.109  1.00 20.00     0.051 A 
HETATM    5  S8  UNL     1     -34.568  16.461  -4.610  1.00 20.00    -0.085 SA
HETATM    6 BR9  UNL     1     -34.548  16.520  -1.428  1.00 20.00    -0.043 Br
ENDROOT
BRANCH   3   7
HETATM    7  C6  UNL     1     -34.544  14.904  -7.010  1.00 20.00     0.185 A 
HETATM    8  C5  UNL     1     -35.658  15.595  -7.770  1.00 20.00     0.206 A 
HETATM    9  O7  UNL     1     -35.547  14.169  -7.746  1.00 20.00    -0.376 OA
ENDBRANCH   3   7
TORSDOF 1
ENDMDL
MODEL 5
REMARK VINA RESULT:      -3.5      3.049      3.277
REMARK  1 active torsions:
REMARK  status: ('A' for Active; 'I' for Inactive)
REMARK    1  A    between atoms: C3_3  and  C6_6 
ROOT
HETATM    1  C1  UNL     1     -34.798  16.339  -1.952  1.00 20.00     0.019 A 
HETATM    2  C2  UNL     1     -34.626  16.691  -0.582  1.00 20.00     0.028 A 
HETATM    3  C3  UNL     1     -34.286  17.297  -2.799  1.00 20.00     0.015 A 
HETATM    4  C4  UNL     1     -33.990  17.904  -0.434  1.00 20.00     0.051 A 
HETATM    5  S8  UNL     1     -33.603  18.614  -1.943  1.00 20.00    -0.085 SA
HETATM    6 BR9  UNL     1     -33.581  18.706   1.238  1.00 20.00    -0.043 Br
ENDROOT
BRANCH   3   7
HETATM    7  C6  UNL     1     -34.320  17.202  -4.327  1.00 20.00     0.185 A 
HETATM    8  C5  UNL     1     -33.210  16.447  -5.030  1.00 20.00     0.206 A 
HETATM    9  O7  UNL     1     -33.349  17.863  -5.170  1.00 20.00    -0.376 OA
ENDBRANCH   3   7
TORSDOF 1
ENDMDL
MODEL 6
REMARK VINA RESULT:      -3.4      2.797      3.579
REMARK  1 active torsions:
REMARK  status: ('A' for Active; 'I' for Inactive)
REMARK    1  A    between atoms: C3_3  and  C6_6 
ROOT
HETATM    1  C1  UNL     1     -35.048  14.533  -6.937  1.00 20.00     0.019 A 
HETATM    2  C2  UNL     1     -34.866  15.648  -7.806  1.00 20.00     0.028 A 
HETATM    3  C3  UNL     1     -34.995  14.898  -5.610  1.00 20.00     0.015 A 
HETATM    4  C4  UNL     1     -34.681  16.822  -7.109  1.00 20.00     0.051 A 
HETATM    5  S8  UNL     1     -34.727  16.578  -5.416  1.00 20.00    -0.085 SA
HETATM    6 BR9  UNL     1     -34.409  18.519  -7.918  1.00 20.00    -0.043 Br
ENDROOT
BRANCH   3   7
HETATM    7  C6  UNL     1     -35.158  13.923  -4.441  1.00 20.00     0.185 A 
HETATM    8  C5  UNL     1     -33.911  13.361  -3.787  1.00 20.00     0.206 A 
HETATM    9  O7  UNL     1     -34.799  12.527  -4.536  1.00 20.00    -0.376 OA
ENDBRANCH   3   7
TORSDOF 1
ENDMDL
MODEL 7
REMARK VINA RESULT:      -3.4      2.100      2.396
REMARK  1 active torsions:
REMARK  status: ('A' for Active; 'I' for Inactive)
REMARK    1  A    between atoms: C3_3  and  C6_6 
ROOT
HETATM    1  C1  UNL     1     -33.361  15.058  -4.240  1.00 20.00     0.019 A 
HETATM    2  C2  UNL     1     -33.257  15.723  -2.985  1.00 20.00     0.028 A 
HETATM    3  C3  UNL     1     -34.672  14.822  -4.593  1.00 20.00     0.015 A 
HETATM    4  C4  UNL     1     -34.492  15.971  -2.425  1.00 20.00     0.051 A 
HETATM    5  S8  UNL     1     -35.769  15.402  -3.412  1.00 20.00    -0.085 SA
HETATM    6 BR9  UNL     1     -34.761  16.842  -0.760  1.00 20.00    -0.043 Br
ENDROOT
BRANCH   3   7
HETATM    7  C6  UNL     1     -35.105  14.126  -5.886  1.00 20.00     0.185 A 
HETATM    8  C5  UNL     1     -34.826  14.815  -7.207  1.00 20.00     0.206 A 
HETATM    9  O7  UNL     1     -36.161  14.637  -6.729  1.00 20.00    -0.376 OA
ENDBRANCH   3   7
TORSDOF 1
ENDMDL
MODEL 8
REMARK VINA RESULT:      -3.3     11.329     11.900
REMARK  1 active torsions:
REMARK  status: ('A' for Active; 'I' for Inactive)
REMARK    1  A    between atoms: C3_3  and  C6_6 
ROOT
HETATM    1  C1  UNL     1     -33.463   5.956   2.454  1.00 20.00     0.019 A 
HETATM    2  C2  UNL     1     -34.257   5.134   3.306  1.00 20.00     0.028 A 
HETATM    3  C3  UNL     1     -32.788   6.929   3.158  1.00 20.00     0.015 A 
HETATM    4  C4  UNL     1     -34.159   5.511   4.628  1.00 20.00     0.051 A 
HETATM    5  S8  UNL     1     -33.113   6.850   4.838  1.00 20.00    -0.085 SA
HETATM    6 BR9  UNL     1     -35.066   4.653   6.059  1.00 20.00    -0.043 Br
ENDROOT
BRANCH   3   7
HETATM    7  C6  UNL     1     -31.855   7.962   2.520  1.00 20.00     0.185 A 
HETATM    8  C5  UNL     1     -32.466   9.201   1.897  1.00 20.00     0.206 A 
HETATM    9  O7  UNL     1     -31.822   8.207   1.097  1.00 20.00    -0.376 OA
ENDBRANCH   3   7
TORSDOF 1
ENDMDL
MODEL 9
REMARK VINA RESULT:      -3.3      3.741      5.193
REMARK  1 active torsions:
REMARK  status: ('A' for Active; 'I' for Inactive)
REMARK    1  A    between atoms: C3_3  and  C6_6 
ROOT
HETATM    1  C1  UNL     1     -34.565  16.653  -0.786  1.00 20.00     0.019 A 
HETATM    2  C2  UNL     1     -34.382  16.146  -2.106  1.00 20.00     0.028 A 
HETATM    3  C3  UNL     1     -34.206  17.979  -0.688  1.00 20.00     0.015 A 
HETATM    4  C4  UNL     1     -33.889  17.104  -2.965  1.00 20.00     0.051 A 
HETATM    5  S8  UNL     1     -33.649  18.606  -2.181  1.00 20.00    -0.085 SA
HETATM    6 BR9  UNL     1     -33.518  16.808  -4.803  1.00 20.00    -0.043 Br
ENDROOT
BRANCH   3   7
HETATM    7  C6  UNL     1     -34.292  18.801   0.601  1.00 20.00     0.185 A 
HETATM    8  C5  UNL     1     -33.055  18.918   1.469  1.00 20.00     0.206 A 
HETATM    9  O7  UNL     1     -34.210  18.202   1.913  1.00 20.00    -0.376 OA
ENDBRANCH   3   7
TORSDOF 1
ENDMDL
