MODEL 1
REMARK VINA RESULT:      -5.3      0.000      0.000
REMARK  2 active torsions:
REMARK  status: ('A' for Active; 'I' for Inactive)
REMARK    1  A    between atoms: C7_7  and  C10_10 
REMARK    2  A    between atoms: C8_8  and  C9_9 
ROOT
HETATM    1  C1  UNL     1     -34.594  15.780  -1.869  1.00 20.00    -0.019 A 
HETATM    2  C3  UNL     1     -34.733  17.038  -1.431  1.00 20.00    -0.087 A 
HETATM    3  C5  UNL     1     -35.187  17.985  -2.503  1.00 20.00     0.039 A 
HETATM    4  C8  UNL     1     -34.932  15.647  -3.315  1.00 20.00     0.021 A 
HETATM    5  C10 UNL     1     -35.303  17.102  -3.751  1.00 20.00     0.005 A 
HETATM    6  C11 UNL     1     -34.480  17.524  -0.049  1.00 20.00     0.043 C 
ENDROOT
BRANCH   4   7
HETATM    7  C9  UNL     1     -33.790  15.274  -4.298  1.00 20.00     0.022 C 
HETATM    8  C4  UNL     1     -34.353  14.970  -5.672  1.00 20.00    -0.082 C 
HETATM    9  C2  UNL     1     -35.049  13.828  -5.575  1.00 20.00    -0.019 C 
HETATM   10  C12 UNL     1     -34.155  15.850  -6.846  1.00 20.00     0.043 C 
HETATM   11  C7  UNL     1     -34.952  13.362  -4.141  1.00 20.00     0.014 C 
HETATM   12  C6  UNL     1     -33.514  13.828  -3.856  1.00 20.00     0.018 C 
ENDBRANCH   4   7
TORSDOF 2
ENDMDL
MODEL 2
REMARK VINA RESULT:      -4.9     10.919     12.614
REMARK  2 active torsions:
REMARK  status: ('A' for Active; 'I' for Inactive)
REMARK    1  A    between atoms: C7_7  and  C10_10 
REMARK    2  A    between atoms: C8_8  and  C9_9 
ROOT
HETATM    1  C1  UNL     1     -33.193   6.860   2.217  1.00 20.00    -0.019 A 
HETATM    2  C3  UNL     1     -32.165   7.717   2.155  1.00 20.00    -0.087 A 
HETATM    3  C5  UNL     1     -31.386   7.791   3.435  1.00 20.00     0.039 A 
HETATM    4  C8  UNL     1     -33.293   6.198   3.550  1.00 20.00     0.021 A 
HETATM    5  C10 UNL     1     -32.117   6.822   4.370  1.00 20.00     0.005 A 
HETATM    6  C11 UNL     1     -31.776   8.544   0.982  1.00 20.00     0.043 C 
ENDROOT
BRANCH   4   7
HETATM    7  C9  UNL     1     -34.533   6.514   4.428  1.00 20.00     0.022 C 
HETATM    8  C4  UNL     1     -34.363   5.925   5.814  1.00 20.00    -0.082 C 
HETATM    9  C2  UNL     1     -34.416   4.590   5.692  1.00 20.00    -0.019 C 
HETATM   10  C12 UNL     1     -34.142   6.746   7.027  1.00 20.00     0.043 C 
HETATM   11  C7  UNL     1     -34.626   4.283   4.227  1.00 20.00     0.014 C 
HETATM   12  C6  UNL     1     -35.526   5.479   3.878  1.00 20.00     0.018 C 
ENDBRANCH   4   7
TORSDOF 2
ENDMDL
MODEL 3
REMARK VINA RESULT:      -4.8     12.082     14.526
REMARK  2 active torsions:
REMARK  status: ('A' for Active; 'I' for Inactive)
REMARK    1  A    between atoms: C7_7  and  C10_10 
REMARK    2  A    between atoms: C8_8  and  C9_9 
ROOT
HETATM    1  C1  UNL     1     -41.256   3.511  -2.680  1.00 20.00    -0.019 A 
HETATM    2  C3  UNL     1     -41.945   2.413  -3.015  1.00 20.00    -0.087 A 
HETATM    3  C5  UNL     1     -43.328   2.389  -2.432  1.00 20.00     0.039 A 
HETATM    4  C8  UNL     1     -42.048   4.430  -1.812  1.00 20.00     0.021 A 
HETATM    5  C10 UNL     1     -43.411   3.688  -1.623  1.00 20.00     0.005 A 
HETATM    6  C11 UNL     1     -41.462   1.294  -3.865  1.00 20.00     0.043 C 
ENDROOT
BRANCH   4   7
HETATM    7  C9  UNL     1     -41.567   4.646  -0.352  1.00 20.00     0.022 C 
HETATM    8  C4  UNL     1     -42.516   5.569   0.386  1.00 20.00    -0.082 C 
HETATM    9  C2  UNL     1     -42.389   6.790  -0.154  1.00 20.00    -0.019 C 
HETATM   10  C12 UNL     1     -43.417   5.114   1.470  1.00 20.00     0.043 C 
HETATM   11  C7  UNL     1     -41.354   6.689  -1.250  1.00 20.00     0.014 C 
HETATM   12  C6  UNL     1     -40.431   5.653  -0.587  1.00 20.00     0.018 C 
ENDBRANCH   4   7
TORSDOF 2
ENDMDL
MODEL 4
REMARK VINA RESULT:      -4.7      1.214      1.416
REMARK  2 active torsions:
REMARK  status: ('A' for Active; 'I' for Inactive)
REMARK    1  A    between atoms: C7_7  and  C10_10 
REMARK    2  A    between atoms: C8_8  and  C9_9 
ROOT
HETATM    1  C1  UNL     1     -34.658  16.357  -1.139  1.00 20.00    -0.019 A 
HETATM    2  C3  UNL     1     -35.243  17.421  -0.574  1.00 20.00    -0.087 A 
HETATM    3  C5  UNL     1     -35.898  18.329  -1.573  1.00 20.00     0.039 A 
HETATM    4  C8  UNL     1     -34.813  16.351  -2.622  1.00 20.00     0.021 A 
HETATM    5  C10 UNL     1     -35.613  17.661  -2.923  1.00 20.00     0.005 A 
HETATM    6  C11 UNL     1     -35.280  17.741   0.877  1.00 20.00     0.043 C 
ENDROOT
BRANCH   4   7
HETATM    7  C9  UNL     1     -33.536  16.519  -3.488  1.00 20.00     0.022 C 
HETATM    8  C4  UNL     1     -33.896  16.544  -4.961  1.00 20.00    -0.082 C 
HETATM    9  C2  UNL     1     -34.322  15.316  -5.290  1.00 20.00    -0.019 C 
HETATM   10  C12 UNL     1     -33.803  17.760  -5.801  1.00 20.00     0.043 C 
HETATM   11  C7  UNL     1     -34.244  14.465  -4.044  1.00 20.00     0.014 C 
HETATM   12  C6  UNL     1     -32.979  15.088  -3.430  1.00 20.00     0.018 C 
ENDBRANCH   4   7
TORSDOF 2
ENDMDL
MODEL 5
REMARK VINA RESULT:      -4.7      1.348      2.393
REMARK  2 active torsions:
REMARK  status: ('A' for Active; 'I' for Inactive)
REMARK    1  A    between atoms: C7_7  and  C10_10 
REMARK    2  A    between atoms: C8_8  and  C9_9 
ROOT
HETATM    1  C1  UNL     1     -33.065  17.325  -1.795  1.00 20.00    -0.019 A 
HETATM    2  C3  UNL     1     -33.515  18.057  -0.768  1.00 20.00    -0.087 A 
HETATM    3  C5  UNL     1     -34.807  17.542  -0.204  1.00 20.00     0.039 A 
HETATM    4  C8  UNL     1     -33.970  16.182  -2.111  1.00 20.00     0.021 A 
HETATM    5  C10 UNL     1     -35.137  16.329  -1.079  1.00 20.00     0.005 A 
HETATM    6  C11 UNL     1     -32.864  19.263  -0.192  1.00 20.00     0.043 C 
ENDROOT
BRANCH   4   7
HETATM    7  C9  UNL     1     -34.711  16.195  -3.474  1.00 20.00     0.022 C 
HETATM    8  C4  UNL     1     -35.474  14.901  -3.674  1.00 20.00    -0.082 C 
HETATM    9  C2  UNL     1     -34.570  13.923  -3.835  1.00 20.00    -0.019 C 
HETATM   10  C12 UNL     1     -36.952  14.813  -3.642  1.00 20.00     0.043 C 
HETATM   11  C7  UNL     1     -33.202  14.560  -3.748  1.00 20.00     0.014 C 
HETATM   12  C6  UNL     1     -33.539  15.899  -4.423  1.00 20.00     0.018 C 
ENDBRANCH   4   7
TORSDOF 2
ENDMDL
MODEL 6
REMARK VINA RESULT:      -4.6      1.395      2.554
REMARK  2 active torsions:
REMARK  status: ('A' for Active; 'I' for Inactive)
REMARK    1  A    between atoms: C7_7  and  C10_10 
REMARK    2  A    between atoms: C8_8  and  C9_9 
ROOT
HETATM    1  C1  UNL     1     -33.561  18.076  -2.189  1.00 20.00    -0.019 A 
HETATM    2  C3  UNL     1     -33.898  18.091  -0.893  1.00 20.00    -0.087 A 
HETATM    3  C5  UNL     1     -34.638  16.857  -0.467  1.00 20.00     0.039 A 
HETATM    4  C8  UNL     1     -34.010  16.829  -2.874  1.00 20.00     0.021 A 
HETATM    5  C10 UNL     1     -34.743  16.026  -1.750  1.00 20.00     0.005 A 
HETATM    6  C11 UNL     1     -33.609  19.175   0.081  1.00 20.00     0.043 C 
ENDROOT
BRANCH   4   7
HETATM    7  C9  UNL     1     -35.098  16.955  -3.974  1.00 20.00     0.022 C 
HETATM    8  C4  UNL     1     -35.325  15.616  -4.647  1.00 20.00    -0.082 C 
HETATM    9  C2  UNL     1     -34.220  15.328  -5.350  1.00 20.00    -0.019 C 
HETATM   10  C12 UNL     1     -36.559  14.815  -4.473  1.00 20.00     0.043 C 
HETATM   11  C7  UNL     1     -33.253  16.473  -5.154  1.00 20.00     0.014 C 
HETATM   12  C6  UNL     1     -34.277  17.618  -5.091  1.00 20.00     0.018 C 
ENDBRANCH   4   7
TORSDOF 2
ENDMDL
MODEL 7
REMARK VINA RESULT:      -4.6     11.694     14.059
REMARK  2 active torsions:
REMARK  status: ('A' for Active; 'I' for Inactive)
REMARK    1  A    between atoms: C7_7  and  C10_10 
REMARK    2  A    between atoms: C8_8  and  C9_9 
ROOT
HETATM    1  C1  UNL     1     -41.536   3.379  -2.224  1.00 20.00    -0.019 A 
HETATM    2  C3  UNL     1     -42.258   2.668  -3.100  1.00 20.00    -0.087 A 
HETATM    3  C5  UNL     1     -43.321   3.482  -3.779  1.00 20.00     0.039 A 
HETATM    4  C8  UNL     1     -41.978   4.802  -2.154  1.00 20.00     0.021 A 
HETATM    5  C10 UNL     1     -43.172   4.876  -3.162  1.00 20.00     0.005 A 
HETATM    6  C11 UNL     1     -42.089   1.226  -3.418  1.00 20.00     0.043 C 
ENDROOT
BRANCH   4   7
HETATM    7  C9  UNL     1     -42.613   5.302  -0.829  1.00 20.00     0.022 C 
HETATM    8  C4  UNL     1     -42.351   6.784  -0.643  1.00 20.00    -0.082 C 
HETATM    9  C2  UNL     1     -41.037   6.933  -0.420  1.00 20.00    -0.019 C 
HETATM   10  C12 UNL     1     -43.407   7.817  -0.747  1.00 20.00     0.043 C 
HETATM   11  C7  UNL     1     -40.417   5.555  -0.451  1.00 20.00     0.014 C 
HETATM   12  C6  UNL     1     -41.582   4.776   0.181  1.00 20.00     0.018 C 
ENDBRANCH   4   7
TORSDOF 2
ENDMDL
MODEL 8
REMARK VINA RESULT:      -4.5      1.699      3.959
REMARK  2 active torsions:
REMARK  status: ('A' for Active; 'I' for Inactive)
REMARK    1  A    between atoms: C7_7  and  C10_10 
REMARK    2  A    between atoms: C8_8  and  C9_9 
ROOT
HETATM    1  C1  UNL     1     -34.795  16.707  -6.645  1.00 20.00    -0.019 A 
HETATM    2  C3  UNL     1     -34.365  17.969  -6.781  1.00 20.00    -0.087 A 
HETATM    3  C5  UNL     1     -33.515  18.425  -5.632  1.00 20.00     0.039 A 
HETATM    4  C8  UNL     1     -34.311  16.081  -5.381  1.00 20.00     0.021 A 
HETATM    5  C10 UNL     1     -33.483  17.215  -4.692  1.00 20.00     0.005 A 
HETATM    6  C11 UNL     1     -34.658  18.883  -7.916  1.00 20.00     0.043 C 
ENDROOT
BRANCH   4   7
HETATM    7  C9  UNL     1     -35.364  15.717  -4.300  1.00 20.00     0.022 C 
HETATM    8  C4  UNL     1     -34.680  15.215  -3.044  1.00 20.00    -0.082 C 
HETATM    9  C2  UNL     1     -34.128  14.028  -3.336  1.00 20.00    -0.019 C 
HETATM   10  C12 UNL     1     -34.641  15.980  -1.777  1.00 20.00     0.043 C 
HETATM   11  C7  UNL     1     -34.444  13.730  -4.783  1.00 20.00     0.014 C 
HETATM   12  C6  UNL     1     -35.845  14.360  -4.837  1.00 20.00     0.018 C 
ENDBRANCH   4   7
TORSDOF 2
ENDMDL
MODEL 9
REMARK VINA RESULT:      -4.4      2.053      4.112
REMARK  2 active torsions:
REMARK  status: ('A' for Active; 'I' for Inactive)
REMARK    1  A    between atoms: C7_7  and  C10_10 
REMARK    2  A    between atoms: C8_8  and  C9_9 
ROOT
HETATM    1  C1  UNL     1     -36.642  15.119  -5.513  1.00 20.00    -0.019 A 
HETATM    2  C3  UNL     1     -37.829  15.709  -5.705  1.00 20.00    -0.087 A 
HETATM    3  C5  UNL     1     -38.027  16.920  -4.841  1.00 20.00     0.039 A 
HETATM    4  C8  UNL     1     -35.822  15.825  -4.487  1.00 20.00     0.021 A 
HETATM    5  C10 UNL     1     -36.737  17.005  -4.020  1.00 20.00     0.005 A 
HETATM    6  C11 UNL     1     -38.889  15.270  -6.650  1.00 20.00     0.043 C 
ENDROOT
BRANCH   4   7
HETATM    7  C9  UNL     1     -35.516  15.080  -3.160  1.00 20.00     0.022 C 
HETATM    8  C4  UNL     1     -34.459  15.823  -2.368  1.00 20.00    -0.082 C 
HETATM    9  C2  UNL     1     -33.305  15.718  -3.043  1.00 20.00    -0.019 C 
HETATM   10  C12 UNL     1     -34.743  16.543  -1.105  1.00 20.00     0.043 C 
HETATM   11  C7  UNL     1     -33.584  14.902  -4.284  1.00 20.00     0.014 C 
HETATM   12  C6  UNL     1     -34.627  13.943  -3.687  1.00 20.00     0.018 C 
ENDBRANCH   4   7
TORSDOF 2
ENDMDL
