MODEL 1
REMARK VINA RESULT:      -4.7      0.000      0.000
REMARK  1 active torsions:
REMARK  status: ('A' for Active; 'I' for Inactive)
REMARK    1  A    between atoms: C7_7  and  C8_8 
ROOT
HETATM    1  C1  UNL     1     -37.097  14.671  -3.969  1.00 20.00     0.066 C 
HETATM    2  C4  UNL     1     -35.136  14.391  -5.437  1.00 20.00     0.048 C 
HETATM    3  C5  UNL     1     -34.571  13.132  -4.815  1.00 20.00     0.169 C 
HETATM    4  C6  UNL     1     -35.722  15.124  -4.246  1.00 20.00     0.124 C 
HETATM    5  C8  UNL     1     -34.773  14.725  -3.113  1.00 20.00     0.143 C 
HETATM    6  N9  UNL     1     -38.180  14.315  -3.751  1.00 20.00    -0.197 NA
HETATM    7  O10 UNL     1     -34.157  13.479  -3.489  1.00 20.00    -0.384 OA
ENDROOT
BRANCH   5   8
HETATM    8  C7  UNL     1     -33.692  15.744  -2.884  1.00 20.00     0.016 A 
HETATM    9  C2  UNL     1     -33.918  17.184  -3.251  1.00 20.00     0.007 A 
HETATM   10  C3  UNL     1     -33.844  16.779  -1.805  1.00 20.00     0.007 A 
ENDBRANCH   5   8
TORSDOF 1
ENDMDL
MODEL 2
REMARK VINA RESULT:      -4.6      1.888      2.329
REMARK  1 active torsions:
REMARK  status: ('A' for Active; 'I' for Inactive)
REMARK    1  A    between atoms: C7_7  and  C8_8 
ROOT
HETATM    1  C1  UNL     1     -35.098  13.805  -4.201  1.00 20.00     0.066 C 
HETATM    2  C4  UNL     1     -35.130  16.042  -5.236  1.00 20.00     0.048 C 
HETATM    3  C5  UNL     1     -33.635  16.256  -5.348  1.00 20.00     0.169 C 
HETATM    4  C6  UNL     1     -35.263  15.248  -3.951  1.00 20.00     0.124 C 
HETATM    5  C8  UNL     1     -34.110  15.795  -3.104  1.00 20.00     0.143 C 
HETATM    6  N9  UNL     1     -34.968  12.669  -4.397  1.00 20.00    -0.197 NA
HETATM    7  O10 UNL     1     -33.129  16.332  -4.012  1.00 20.00    -0.384 OA
ENDROOT
BRANCH   5   8
HETATM    8  C7  UNL     1     -34.551  16.889  -2.173  1.00 20.00     0.016 A 
HETATM    9  C2  UNL     1     -34.714  16.614  -0.704  1.00 20.00     0.007 A 
HETATM   10  C3  UNL     1     -33.583  17.479  -1.187  1.00 20.00     0.007 A 
ENDBRANCH   5   8
TORSDOF 1
ENDMDL
MODEL 3
REMARK VINA RESULT:      -4.3      2.330      2.889
REMARK  1 active torsions:
REMARK  status: ('A' for Active; 'I' for Inactive)
REMARK    1  A    between atoms: C7_7  and  C8_8 
ROOT
HETATM    1  C1  UNL     1     -33.567  16.540  -4.984  1.00 20.00     0.066 C 
HETATM    2  C4  UNL     1     -33.471  14.405  -3.754  1.00 20.00     0.048 C 
HETATM    3  C5  UNL     1     -34.940  14.047  -3.817  1.00 20.00     0.169 C 
HETATM    4  C6  UNL     1     -33.496  15.918  -3.650  1.00 20.00     0.124 C 
HETATM    5  C8  UNL     1     -34.779  16.173  -2.855  1.00 20.00     0.143 C 
HETATM    6  N9  UNL     1     -33.623  17.030  -6.034  1.00 20.00    -0.197 NA
HETATM    7  O10 UNL     1     -35.638  15.034  -3.050  1.00 20.00    -0.384 OA
ENDROOT
BRANCH   5   8
HETATM    8  C7  UNL     1     -34.520  16.331  -1.382  1.00 20.00     0.016 A 
HETATM    9  C2  UNL     1     -33.691  17.479  -0.878  1.00 20.00     0.007 A 
HETATM   10  C3  UNL     1     -35.171  17.447  -0.615  1.00 20.00     0.007 A 
ENDBRANCH   5   8
TORSDOF 1
ENDMDL
MODEL 4
REMARK VINA RESULT:      -4.2      1.758      3.063
REMARK  1 active torsions:
REMARK  status: ('A' for Active; 'I' for Inactive)
REMARK    1  A    between atoms: C7_7  and  C8_8 
ROOT
HETATM    1  C1  UNL     1     -36.707  14.341  -4.269  1.00 20.00     0.066 C 
HETATM    2  C4  UNL     1     -34.538  13.212  -4.586  1.00 20.00     0.048 C 
HETATM    3  C5  UNL     1     -33.694  14.099  -3.696  1.00 20.00     0.169 C 
HETATM    4  C6  UNL     1     -35.550  14.181  -5.167  1.00 20.00     0.124 C 
HETATM    5  C8  UNL     1     -34.745  15.480  -5.266  1.00 20.00     0.143 C 
HETATM    6  N9  UNL     1     -37.617  14.468  -3.561  1.00 20.00    -0.197 NA
HETATM    7  O10 UNL     1     -33.676  15.395  -4.306  1.00 20.00    -0.384 OA
ENDROOT
BRANCH   5   8
HETATM    8  C7  UNL     1     -34.148  15.682  -6.631  1.00 20.00     0.016 A 
HETATM    9  C2  UNL     1     -34.751  15.004  -7.829  1.00 20.00     0.007 A 
HETATM   10  C3  UNL     1     -34.880  16.493  -7.664  1.00 20.00     0.007 A 
ENDBRANCH   5   8
TORSDOF 1
ENDMDL
MODEL 5
REMARK VINA RESULT:      -4.2     11.204     11.935
REMARK  1 active torsions:
REMARK  status: ('A' for Active; 'I' for Inactive)
REMARK    1  A    between atoms: C7_7  and  C8_8 
ROOT
HETATM    1  C1  UNL     1     -32.234   7.772   2.534  1.00 20.00     0.066 C 
HETATM    2  C4  UNL     1     -32.505   5.326   2.681  1.00 20.00     0.048 C 
HETATM    3  C5  UNL     1     -34.000   5.254   2.456  1.00 20.00     0.169 C 
HETATM    4  C6  UNL     1     -32.340   6.622   3.450  1.00 20.00     0.124 C 
HETATM    5  C8  UNL     1     -33.632   6.688   4.268  1.00 20.00     0.143 C 
HETATM    6  N9  UNL     1     -32.151   8.677   1.812  1.00 20.00    -0.197 NA
HETATM    7  O10 UNL     1     -34.616   5.893   3.579  1.00 20.00    -0.384 OA
ENDROOT
BRANCH   5   8
HETATM    8  C7  UNL     1     -33.460   6.140   5.657  1.00 20.00     0.016 A 
HETATM    9  C2  UNL     1     -34.165   6.785   6.818  1.00 20.00     0.007 A 
HETATM   10  C3  UNL     1     -34.598   5.428   6.336  1.00 20.00     0.007 A 
ENDBRANCH   5   8
TORSDOF 1
ENDMDL
MODEL 6
REMARK VINA RESULT:      -4.2      2.164      2.631
REMARK  1 active torsions:
REMARK  status: ('A' for Active; 'I' for Inactive)
REMARK    1  A    between atoms: C7_7  and  C8_8 
ROOT
HETATM    1  C1  UNL     1     -34.175  15.369  -5.700  1.00 20.00     0.066 C 
HETATM    2  C4  UNL     1     -35.115  13.919  -3.942  1.00 20.00     0.048 C 
HETATM    3  C5  UNL     1     -36.407  14.670  -3.701  1.00 20.00     0.169 C 
HETATM    4  C6  UNL     1     -34.134  15.028  -4.267  1.00 20.00     0.124 C 
HETATM    5  C8  UNL     1     -34.650  16.187  -3.410  1.00 20.00     0.143 C 
HETATM    6  N9  UNL     1     -34.208  15.638  -6.828  1.00 20.00    -0.197 NA
HETATM    7  O10 UNL     1     -36.047  15.944  -3.157  1.00 20.00    -0.384 OA
ENDROOT
BRANCH   5   8
HETATM    8  C7  UNL     1     -33.935  16.289  -2.092  1.00 20.00     0.016 A 
HETATM    9  C2  UNL     1     -33.770  17.625  -1.421  1.00 20.00     0.007 A 
HETATM   10  C3  UNL     1     -34.703  16.600  -0.837  1.00 20.00     0.007 A 
ENDBRANCH   5   8
TORSDOF 1
ENDMDL
MODEL 7
REMARK VINA RESULT:      -4.2      2.335      3.861
REMARK  1 active torsions:
REMARK  status: ('A' for Active; 'I' for Inactive)
REMARK    1  A    between atoms: C7_7  and  C8_8 
ROOT
HETATM    1  C1  UNL     1     -34.471  16.742  -0.931  1.00 20.00     0.066 C 
HETATM    2  C4  UNL     1     -33.898  17.464  -3.217  1.00 20.00     0.048 C 
HETATM    3  C5  UNL     1     -35.295  17.488  -3.800  1.00 20.00     0.169 C 
HETATM    4  C6  UNL     1     -33.958  16.305  -2.241  1.00 20.00     0.124 C 
HETATM    5  C8  UNL     1     -34.938  15.347  -2.924  1.00 20.00     0.143 C 
HETATM    6  N9  UNL     1     -34.876  17.087   0.101  1.00 20.00    -0.197 NA
HETATM    7  O10 UNL     1     -35.761  16.134  -3.806  1.00 20.00    -0.384 OA
ENDROOT
BRANCH   5   8
HETATM    8  C7  UNL     1     -34.238  14.294  -3.737  1.00 20.00     0.016 A 
HETATM    9  C2  UNL     1     -35.025  13.178  -4.368  1.00 20.00     0.007 A 
HETATM   10  C3  UNL     1     -34.413  14.249  -5.229  1.00 20.00     0.007 A 
ENDBRANCH   5   8
TORSDOF 1
ENDMDL
MODEL 8
REMARK VINA RESULT:      -4.1      2.518      3.396
REMARK  1 active torsions:
REMARK  status: ('A' for Active; 'I' for Inactive)
REMARK    1  A    between atoms: C7_7  and  C8_8 
ROOT
HETATM    1  C1  UNL     1     -34.698  16.141  -1.859  1.00 20.00     0.066 C 
HETATM    2  C4  UNL     1     -34.030  14.319  -3.380  1.00 20.00     0.048 C 
HETATM    3  C5  UNL     1     -32.638  14.811  -3.718  1.00 20.00     0.169 C 
HETATM    4  C6  UNL     1     -34.816  15.606  -3.228  1.00 20.00     0.124 C 
HETATM    5  C8  UNL     1     -34.136  16.532  -4.240  1.00 20.00     0.143 C 
HETATM    6  N9  UNL     1     -34.604  16.561  -0.782  1.00 20.00    -0.197 NA
HETATM    7  O10 UNL     1     -32.800  16.034  -4.445  1.00 20.00    -0.384 OA
ENDROOT
BRANCH   5   8
HETATM    8  C7  UNL     1     -34.846  16.555  -5.565  1.00 20.00     0.016 A 
HETATM    9  C2  UNL     1     -34.313  17.390  -6.695  1.00 20.00     0.007 A 
HETATM   10  C3  UNL     1     -34.231  15.891  -6.765  1.00 20.00     0.007 A 
ENDBRANCH   5   8
TORSDOF 1
ENDMDL
MODEL 9
REMARK VINA RESULT:      -4.0      3.646      5.413
REMARK  1 active torsions:
REMARK  status: ('A' for Active; 'I' for Inactive)
REMARK    1  A    between atoms: C7_7  and  C8_8 
ROOT
HETATM    1  C1  UNL     1     -32.412  18.957  -0.416  1.00 20.00     0.066 C 
HETATM    2  C4  UNL     1     -34.867  18.960  -0.639  1.00 20.00     0.048 C 
HETATM    3  C5  UNL     1     -35.173  17.778   0.254  1.00 20.00     0.169 C 
HETATM    4  C6  UNL     1     -33.546  18.572  -1.274  1.00 20.00     0.124 C 
HETATM    5  C8  UNL     1     -33.665  17.049  -1.379  1.00 20.00     0.143 C 
HETATM    6  N9  UNL     1     -31.519  19.259   0.260  1.00 20.00    -0.197 NA
HETATM    7  O10 UNL     1     -34.616  16.624  -0.385  1.00 20.00    -0.384 OA
ENDROOT
BRANCH   5   8
HETATM    8  C7  UNL     1     -34.153  16.603  -2.729  1.00 20.00     0.016 A 
HETATM    9  C2  UNL     1     -33.528  15.415  -3.406  1.00 20.00     0.007 A 
HETATM   10  C3  UNL     1     -34.929  15.323  -2.868  1.00 20.00     0.007 A 
ENDBRANCH   5   8
TORSDOF 1
ENDMDL
