MODEL 1
REMARK VINA RESULT:      -5.9      0.000      0.000
REMARK  2 active torsions:
REMARK  status: ('A' for Active; 'I' for Inactive)
REMARK    1  A    between atoms: C2_2  and  C3_3 
REMARK    2  A    between atoms: C3_3  and  O11_11 
ROOT
HETATM    1  C1  UNL     1     -33.979   5.994   3.930  1.00 20.00    -0.074 C 
HETATM    2  C2  UNL     1     -33.054   6.203   2.981  1.00 20.00     0.085 C 
HETATM    3  C4  UNL     1     -34.948   4.842   3.873  1.00 20.00     0.034 C 
HETATM    4  C5  UNL     1     -34.109   6.879   5.142  1.00 20.00     0.034 C 
HETATM    5  C6  UNL     1     -34.893   4.024   5.164  1.00 20.00     0.004 C 
HETATM    6  C7  UNL     1     -34.059   6.051   6.426  1.00 20.00     0.004 C 
HETATM    7  C8  UNL     1     -35.070   4.904   6.402  1.00 20.00     0.001 C 
ENDROOT
BRANCH   2   8
HETATM    8  C3  UNL     1     -32.132   7.350   3.094  1.00 20.00     0.282 C 
HETATM    9  O10 UNL     1     -31.150   7.402   3.816  1.00 20.00    -0.260 OA
BRANCH   8  10
HETATM   10  O11 UNL     1     -32.582   8.319   2.251  1.00 20.00    -0.323 OA
HETATM   11  C9  UNL     1     -31.739   8.596   1.128  1.00 20.00     0.213 C 
ENDBRANCH   8  10
ENDBRANCH   2   8
TORSDOF 2
ENDMDL
MODEL 2
REMARK VINA RESULT:      -4.6     11.326     12.373
REMARK  2 active torsions:
REMARK  status: ('A' for Active; 'I' for Inactive)
REMARK    1  A    between atoms: C2_2  and  C3_3 
REMARK    2  A    between atoms: C3_3  and  O11_11 
ROOT
HETATM    1  C1  UNL     1     -34.902  15.324  -2.850  1.00 20.00    -0.074 C 
HETATM    2  C2  UNL     1     -34.028  14.538  -3.494  1.00 20.00     0.085 C 
HETATM    3  C4  UNL     1     -34.499  16.205  -1.696  1.00 20.00     0.034 C 
HETATM    4  C5  UNL     1     -36.355  15.408  -3.240  1.00 20.00     0.034 C 
HETATM    5  C6  UNL     1     -34.920  17.653  -1.948  1.00 20.00     0.004 C 
HETATM    6  C7  UNL     1     -36.767  16.861  -3.484  1.00 20.00     0.004 C 
HETATM    7  C8  UNL     1     -36.405  17.760  -2.302  1.00 20.00     0.001 C 
ENDROOT
BRANCH   2   8
HETATM    8  C3  UNL     1     -34.484  13.697  -4.617  1.00 20.00     0.282 C 
HETATM    9  O10 UNL     1     -34.964  12.579  -4.518  1.00 20.00    -0.260 OA
BRANCH   8  10
HETATM   10  O11 UNL     1     -34.270  14.397  -5.764  1.00 20.00    -0.323 OA
HETATM   11  C9  UNL     1     -35.338  14.359  -6.715  1.00 20.00     0.213 C 
ENDBRANCH   8  10
ENDBRANCH   2   8
TORSDOF 2
ENDMDL
MODEL 3
REMARK VINA RESULT:      -4.5     11.336     12.641
REMARK  2 active torsions:
REMARK  status: ('A' for Active; 'I' for Inactive)
REMARK    1  A    between atoms: C2_2  and  C3_3 
REMARK    2  A    between atoms: C3_3  and  O11_11 
ROOT
HETATM    1  C1  UNL     1     -34.352  15.765  -3.996  1.00 20.00    -0.074 C 
HETATM    2  C2  UNL     1     -35.119  15.023  -4.809  1.00 20.00     0.085 C 
HETATM    3  C4  UNL     1     -33.741  17.071  -4.433  1.00 20.00     0.034 C 
HETATM    4  C5  UNL     1     -34.058  15.366  -2.574  1.00 20.00     0.034 C 
HETATM    5  C6  UNL     1     -34.105  18.192  -3.458  1.00 20.00     0.004 C 
HETATM    6  C7  UNL     1     -34.420  16.496  -1.609  1.00 20.00     0.004 C 
HETATM    7  C8  UNL     1     -33.770  17.819  -2.013  1.00 20.00     0.001 C 
ENDROOT
BRANCH   2   8
HETATM    8  C3  UNL     1     -35.690  13.752  -4.322  1.00 20.00     0.282 C 
HETATM    9  O10 UNL     1     -35.139  12.663  -4.368  1.00 20.00    -0.260 OA
BRANCH   8  10
HETATM   10  O11 UNL     1     -36.925  14.025  -3.822  1.00 20.00    -0.323 OA
HETATM   11  C9  UNL     1     -37.742  14.876  -4.632  1.00 20.00     0.213 C 
ENDBRANCH   8  10
ENDBRANCH   2   8
TORSDOF 2
ENDMDL
MODEL 4
REMARK VINA RESULT:      -4.3     11.533     13.800
REMARK  2 active torsions:
REMARK  status: ('A' for Active; 'I' for Inactive)
REMARK    1  A    between atoms: C2_2  and  C3_3 
REMARK    2  A    between atoms: C3_3  and  O11_11 
ROOT
HETATM    1  C1  UNL     1     -34.557  15.484  -5.950  1.00 20.00    -0.074 C 
HETATM    2  C2  UNL     1     -35.440  14.493  -5.753  1.00 20.00     0.085 C 
HETATM    3  C4  UNL     1     -34.490  16.260  -7.240  1.00 20.00     0.034 C 
HETATM    4  C5  UNL     1     -33.577  15.917  -4.892  1.00 20.00     0.034 C 
HETATM    5  C6  UNL     1     -34.593  17.762  -6.974  1.00 20.00     0.004 C 
HETATM    6  C7  UNL     1     -33.684  17.421  -4.638  1.00 20.00     0.004 C 
HETATM    7  C8  UNL     1     -33.572  18.226  -5.933  1.00 20.00     0.001 C 
ENDROOT
BRANCH   2   8
HETATM    8  C3  UNL     1     -35.456  13.770  -4.467  1.00 20.00     0.282 C 
HETATM    9  O10 UNL     1     -34.884  12.717  -4.238  1.00 20.00    -0.260 OA
BRANCH   8  10
HETATM   10  O11 UNL     1     -36.219  14.492  -3.602  1.00 20.00    -0.323 OA
HETATM   11  C9  UNL     1     -37.580  14.687  -3.999  1.00 20.00     0.213 C 
ENDBRANCH   8  10
ENDBRANCH   2   8
TORSDOF 2
ENDMDL
MODEL 5
REMARK VINA RESULT:      -4.2     11.475     12.744
REMARK  2 active torsions:
REMARK  status: ('A' for Active; 'I' for Inactive)
REMARK    1  A    between atoms: C2_2  and  C3_3 
REMARK    2  A    between atoms: C3_3  and  O11_11 
ROOT
HETATM    1  C1  UNL     1     -34.273  16.720  -2.156  1.00 20.00    -0.074 C 
HETATM    2  C2  UNL     1     -33.882  15.585  -2.753  1.00 20.00     0.085 C 
HETATM    3  C4  UNL     1     -34.574  16.796  -0.681  1.00 20.00     0.034 C 
HETATM    4  C5  UNL     1     -34.422  18.019  -2.905  1.00 20.00     0.034 C 
HETATM    5  C6  UNL     1     -33.764  17.911  -0.020  1.00 20.00     0.004 C 
HETATM    6  C7  UNL     1     -33.613  19.128  -2.232  1.00 20.00     0.004 C 
HETATM    7  C8  UNL     1     -33.940  19.247  -0.743  1.00 20.00     0.001 C 
ENDROOT
BRANCH   2   8
HETATM    8  C3  UNL     1     -33.602  15.575  -4.201  1.00 20.00     0.282 C 
HETATM    9  O10 UNL     1     -32.642  16.101  -4.742  1.00 20.00    -0.260 OA
BRANCH   8  10
HETATM   10  O11 UNL     1     -34.602  14.878  -4.806  1.00 20.00    -0.323 OA
HETATM   11  C9  UNL     1     -34.899  13.604  -4.227  1.00 20.00     0.213 C 
ENDBRANCH   8  10
ENDBRANCH   2   8
TORSDOF 2
ENDMDL
MODEL 6
REMARK VINA RESULT:      -4.2     11.172     12.660
REMARK  2 active torsions:
REMARK  status: ('A' for Active; 'I' for Inactive)
REMARK    1  A    between atoms: C2_2  and  C3_3 
REMARK    2  A    between atoms: C3_3  and  O11_11 
ROOT
HETATM    1  C1  UNL     1     -34.224  15.393  -3.172  1.00 20.00    -0.074 C 
HETATM    2  C2  UNL     1     -34.655  15.920  -2.017  1.00 20.00     0.085 C 
HETATM    3  C4  UNL     1     -34.389  13.933  -3.505  1.00 20.00     0.034 C 
HETATM    4  C5  UNL     1     -33.561  16.221  -4.242  1.00 20.00     0.034 C 
HETATM    5  C6  UNL     1     -35.091  13.760  -4.852  1.00 20.00     0.004 C 
HETATM    6  C7  UNL     1     -34.267  16.036  -5.586  1.00 20.00     0.004 C 
HETATM    7  C8  UNL     1     -34.402  14.560  -5.959  1.00 20.00     0.001 C 
ENDROOT
BRANCH   2   8
HETATM    8  C3  UNL     1     -34.464  17.359  -1.750  1.00 20.00     0.282 C 
HETATM    9  O10 UNL     1     -35.204  18.254  -2.125  1.00 20.00    -0.260 OA
BRANCH   8  10
HETATM   10  O11 UNL     1     -33.326  17.491  -1.016  1.00 20.00    -0.323 OA
HETATM   11  C9  UNL     1     -32.964  18.833  -0.679  1.00 20.00     0.213 C 
ENDBRANCH   8  10
ENDBRANCH   2   8
TORSDOF 2
ENDMDL
MODEL 7
REMARK VINA RESULT:      -4.1     11.467     12.648
REMARK  2 active torsions:
REMARK  status: ('A' for Active; 'I' for Inactive)
REMARK    1  A    between atoms: C2_2  and  C3_3 
REMARK    2  A    between atoms: C3_3  and  O11_11 
ROOT
HETATM    1  C1  UNL     1     -34.607  16.382  -3.307  1.00 20.00    -0.074 C 
HETATM    2  C2  UNL     1     -35.449  15.871  -4.217  1.00 20.00     0.085 C 
HETATM    3  C4  UNL     1     -33.750  17.588  -3.589  1.00 20.00     0.034 C 
HETATM    4  C5  UNL     1     -34.466  15.808  -1.922  1.00 20.00     0.034 C 
HETATM    5  C6  UNL     1     -33.959  18.663  -2.522  1.00 20.00     0.004 C 
HETATM    6  C7  UNL     1     -34.671  16.892  -0.863  1.00 20.00     0.004 C 
HETATM    7  C8  UNL     1     -33.774  18.105  -1.110  1.00 20.00     0.001 C 
ENDROOT
BRANCH   2   8
HETATM    8  C3  UNL     1     -36.264  14.687  -3.880  1.00 20.00     0.282 C 
HETATM    9  O10 UNL     1     -37.388  14.711  -3.406  1.00 20.00    -0.260 OA
BRANCH   8  10
HETATM   10  O11 UNL     1     -35.532  13.585  -4.196  1.00 20.00    -0.323 OA
HETATM   11  C9  UNL     1     -34.926  13.600  -5.492  1.00 20.00     0.213 C 
ENDBRANCH   8  10
ENDBRANCH   2   8
TORSDOF 2
ENDMDL
MODEL 8
REMARK VINA RESULT:      -4.0     10.979     13.345
REMARK  2 active torsions:
REMARK  status: ('A' for Active; 'I' for Inactive)
REMARK    1  A    between atoms: C2_2  and  C3_3 
REMARK    2  A    between atoms: C3_3  and  O11_11 
ROOT
HETATM    1  C1  UNL     1     -35.785  14.837  -5.373  1.00 20.00    -0.074 C 
HETATM    2  C2  UNL     1     -35.723  14.637  -4.048  1.00 20.00     0.085 C 
HETATM    3  C4  UNL     1     -37.048  15.277  -6.066  1.00 20.00     0.034 C 
HETATM    4  C5  UNL     1     -34.591  14.661  -6.275  1.00 20.00     0.034 C 
HETATM    5  C6  UNL     1     -36.798  16.532  -6.903  1.00 20.00     0.004 C 
HETATM    6  C7  UNL     1     -34.353  15.918  -7.112  1.00 20.00     0.004 C 
HETATM    7  C8  UNL     1     -35.616  16.352  -7.857  1.00 20.00     0.001 C 
ENDROOT
BRANCH   2   8
HETATM    8  C3  UNL     1     -34.455  14.207  -3.428  1.00 20.00     0.282 C 
HETATM    9  O10 UNL     1     -34.036  13.061  -3.392  1.00 20.00    -0.260 OA
BRANCH   8  10
HETATM   10  O11 UNL     1     -33.855  15.315  -2.915  1.00 20.00    -0.323 OA
HETATM   11  C9  UNL     1     -34.659  16.091  -2.022  1.00 20.00     0.213 C 
ENDBRANCH   8  10
ENDBRANCH   2   8
TORSDOF 2
ENDMDL
MODEL 9
REMARK VINA RESULT:      -3.9     11.802     13.685
REMARK  2 active torsions:
REMARK  status: ('A' for Active; 'I' for Inactive)
REMARK    1  A    between atoms: C2_2  and  C3_3 
REMARK    2  A    between atoms: C3_3  and  O11_11 
ROOT
HETATM    1  C1  UNL     1     -33.584  15.979  -4.780  1.00 20.00    -0.074 C 
HETATM    2  C2  UNL     1     -33.605  17.292  -4.506  1.00 20.00     0.085 C 
HETATM    3  C4  UNL     1     -33.068  14.957  -3.801  1.00 20.00     0.034 C 
HETATM    4  C5  UNL     1     -34.095  15.416  -6.081  1.00 20.00     0.034 C 
HETATM    5  C6  UNL     1     -34.110  13.865  -3.558  1.00 20.00     0.004 C 
HETATM    6  C7  UNL     1     -35.132  14.321  -5.826  1.00 20.00     0.004 C 
HETATM    7  C8  UNL     1     -34.606  13.251  -4.869  1.00 20.00     0.001 C 
ENDROOT
BRANCH   2   8
HETATM    8  C3  UNL     1     -34.124  18.243  -5.507  1.00 20.00     0.282 C 
HETATM    9  O10 UNL     1     -33.475  18.750  -6.407  1.00 20.00    -0.260 OA
BRANCH   8  10
HETATM   10  O11 UNL     1     -35.442  18.442  -5.236  1.00 20.00    -0.323 OA
HETATM   11  C9  UNL     1     -35.730  18.974  -3.939  1.00 20.00     0.213 C 
ENDBRANCH   8  10
ENDBRANCH   2   8
TORSDOF 2
ENDMDL
