MODEL 1
REMARK VINA RESULT:      -4.9      0.000      0.000
REMARK  3 active torsions:
REMARK  status: ('A' for Active; 'I' for Inactive)
REMARK    1  A    between atoms: C2_2  and  C8_8 
REMARK    2  A    between atoms: C6_6  and  C7_7 
REMARK    3  A    between atoms: C6_6  and  C8_8 
ROOT
HETATM    1  C1  UNL     1     -32.121   8.041   2.181  1.00 20.00     0.063 C 
HETATM    2  C4  UNL     1     -31.886   5.699   2.879  1.00 20.00     0.025 C 
HETATM    3  C7  UNL     1     -32.249   7.116   3.325  1.00 20.00     0.089 C 
HETATM    4  N9  UNL     1     -32.019   8.768   1.282  1.00 20.00    -0.197 NA
ENDROOT
BRANCH   3   5
HETATM    5  C6  UNL     1     -33.677   7.139   3.906  1.00 20.00     0.030 C 
BRANCH   5   6
HETATM    6  C8  UNL     1     -34.213   5.752   4.312  1.00 20.00     0.052 C 
HETATM    7  C5  UNL     1     -35.566   5.482   3.656  1.00 20.00     0.018 C 
BRANCH   6   8
HETATM    8  C2  UNL     1     -34.380   5.631   5.823  1.00 20.00     0.127 C 
HETATM    9  C3  UNL     1     -35.054   4.384   6.333  1.00 20.00     0.091 C 
HETATM   10  O10 UNL     1     -34.016   6.516   6.599  1.00 20.00    -0.298 OA
ENDBRANCH   6   8
ENDBRANCH   5   6
ENDBRANCH   3   5
TORSDOF 3
ENDMDL
MODEL 2
REMARK VINA RESULT:      -4.5     11.159     12.111
REMARK  3 active torsions:
REMARK  status: ('A' for Active; 'I' for Inactive)
REMARK    1  A    between atoms: C2_2  and  C8_8 
REMARK    2  A    between atoms: C6_6  and  C7_7 
REMARK    3  A    between atoms: C6_6  and  C8_8 
ROOT
HETATM    1  C1  UNL     1     -34.462  16.793  -0.938  1.00 20.00     0.063 C 
HETATM    2  C4  UNL     1     -33.924  17.767  -3.126  1.00 20.00     0.025 C 
HETATM    3  C7  UNL     1     -33.947  16.488  -2.287  1.00 20.00     0.089 C 
HETATM    4  N9  UNL     1     -34.866  17.032   0.123  1.00 20.00    -0.197 NA
ENDROOT
BRANCH   3   5
HETATM    5  C6  UNL     1     -34.806  15.414  -2.985  1.00 20.00     0.030 C 
BRANCH   5   6
HETATM    6  C8  UNL     1     -34.016  14.166  -3.425  1.00 20.00     0.052 C 
HETATM    7  C5  UNL     1     -32.529  14.487  -3.561  1.00 20.00     0.018 C 
BRANCH   6   8
HETATM    8  C2  UNL     1     -34.514  13.625  -4.762  1.00 20.00     0.127 C 
HETATM    9  C3  UNL     1     -34.547  14.593  -5.916  1.00 20.00     0.091 C 
HETATM   10  O10 UNL     1     -34.905  12.465  -4.898  1.00 20.00    -0.298 OA
ENDBRANCH   6   8
ENDBRANCH   5   6
ENDBRANCH   3   5
TORSDOF 3
ENDMDL
MODEL 3
REMARK VINA RESULT:      -4.3      2.818      4.564
REMARK  3 active torsions:
REMARK  status: ('A' for Active; 'I' for Inactive)
REMARK    1  A    between atoms: C2_2  and  C8_8 
REMARK    2  A    between atoms: C6_6  and  C7_7 
REMARK    3  A    between atoms: C6_6  and  C8_8 
ROOT
HETATM    1  C1  UNL     1     -34.661   4.644   5.271  1.00 20.00     0.063 C 
HETATM    2  C4  UNL     1     -33.991   6.691   6.449  1.00 20.00     0.025 C 
HETATM    3  C7  UNL     1     -33.785   5.831   5.201  1.00 20.00     0.089 C 
HETATM    4  N9  UNL     1     -35.348   3.710   5.326  1.00 20.00    -0.197 NA
ENDROOT
BRANCH   3   5
HETATM    5  C6  UNL     1     -34.068   6.661   3.933  1.00 20.00     0.030 C 
BRANCH   5   6
HETATM    6  C8  UNL     1     -32.988   6.532   2.842  1.00 20.00     0.052 C 
HETATM    7  C5  UNL     1     -32.162   5.264   3.047  1.00 20.00     0.018 C 
BRANCH   6   8
HETATM    8  C2  UNL     1     -32.040   7.728   2.841  1.00 20.00     0.127 C 
HETATM    9  C3  UNL     1     -32.073   8.618   1.627  1.00 20.00     0.091 C 
HETATM   10  O10 UNL     1     -31.256   7.947   3.766  1.00 20.00    -0.298 OA
ENDBRANCH   6   8
ENDBRANCH   5   6
ENDBRANCH   3   5
TORSDOF 3
ENDMDL
MODEL 4
REMARK VINA RESULT:      -4.2     11.627     12.443
REMARK  3 active torsions:
REMARK  status: ('A' for Active; 'I' for Inactive)
REMARK    1  A    between atoms: C2_2  and  C8_8 
REMARK    2  A    between atoms: C6_6  and  C7_7 
REMARK    3  A    between atoms: C6_6  and  C8_8 
ROOT
HETATM    1  C1  UNL     1     -34.541  13.693  -4.273  1.00 20.00     0.063 C 
HETATM    2  C4  UNL     1     -32.536  14.921  -3.563  1.00 20.00     0.025 C 
HETATM    3  C7  UNL     1     -34.039  15.011  -3.834  1.00 20.00     0.089 C 
HETATM    4  N9  UNL     1     -34.935  12.658  -4.619  1.00 20.00    -0.197 NA
ENDROOT
BRANCH   3   5
HETATM    5  C6  UNL     1     -34.776  15.498  -2.570  1.00 20.00     0.030 C 
BRANCH   5   6
HETATM    6  C8  UNL     1     -34.110  16.703  -1.878  1.00 20.00     0.052 C 
HETATM    7  C5  UNL     1     -34.641  16.871  -0.456  1.00 20.00     0.018 C 
BRANCH   6   8
HETATM    8  C2  UNL     1     -34.360  18.001  -2.640  1.00 20.00     0.127 C 
HETATM    9  C3  UNL     1     -35.786  18.296  -3.028  1.00 20.00     0.091 C 
HETATM   10  O10 UNL     1     -33.447  18.763  -2.960  1.00 20.00    -0.298 OA
ENDBRANCH   6   8
ENDBRANCH   5   6
ENDBRANCH   3   5
TORSDOF 3
ENDMDL
MODEL 5
REMARK VINA RESULT:      -4.2     11.518     12.814
REMARK  3 active torsions:
REMARK  status: ('A' for Active; 'I' for Inactive)
REMARK    1  A    between atoms: C2_2  and  C8_8 
REMARK    2  A    between atoms: C6_6  and  C7_7 
REMARK    3  A    between atoms: C6_6  and  C8_8 
ROOT
HETATM    1  C1  UNL     1     -37.030  14.546  -3.852  1.00 20.00     0.063 C 
HETATM    2  C4  UNL     1     -34.789  13.550  -3.953  1.00 20.00     0.025 C 
HETATM    3  C7  UNL     1     -35.586  14.850  -3.833  1.00 20.00     0.089 C 
HETATM    4  N9  UNL     1     -38.166  14.307  -3.869  1.00 20.00    -0.197 NA
ENDROOT
BRANCH   3   5
HETATM    5  C6  UNL     1     -35.189  15.598  -2.545  1.00 20.00     0.030 C 
BRANCH   5   6
HETATM    6  C8  UNL     1     -33.806  16.275  -2.611  1.00 20.00     0.052 C 
HETATM    7  C5  UNL     1     -33.629  17.258  -1.456  1.00 20.00     0.018 C 
BRANCH   6   8
HETATM    8  C2  UNL     1     -33.610  17.033  -3.921  1.00 20.00     0.127 C 
HETATM    9  C3  UNL     1     -34.370  18.326  -4.075  1.00 20.00     0.091 C 
HETATM   10  O10 UNL     1     -32.897  16.606  -4.829  1.00 20.00    -0.298 OA
ENDBRANCH   6   8
ENDBRANCH   5   6
ENDBRANCH   3   5
TORSDOF 3
ENDMDL
MODEL 6
REMARK VINA RESULT:      -4.2      1.148      1.587
REMARK  3 active torsions:
REMARK  status: ('A' for Active; 'I' for Inactive)
REMARK    1  A    between atoms: C2_2  and  C8_8 
REMARK    2  A    between atoms: C6_6  and  C7_7 
REMARK    3  A    between atoms: C6_6  and  C8_8 
ROOT
HETATM    1  C1  UNL     1     -32.327   7.774   2.624  1.00 20.00     0.063 C 
HETATM    2  C4  UNL     1     -32.075   5.373   3.072  1.00 20.00     0.025 C 
HETATM    3  C7  UNL     1     -32.594   6.708   3.610  1.00 20.00     0.089 C 
HETATM    4  N9  UNL     1     -32.116   8.612   1.850  1.00 20.00    -0.197 NA
ENDROOT
BRANCH   3   5
HETATM    5  C6  UNL     1     -34.100   6.602   3.925  1.00 20.00     0.030 C 
BRANCH   5   6
HETATM    6  C8  UNL     1     -34.416   6.383   5.418  1.00 20.00     0.052 C 
HETATM    7  C5  UNL     1     -33.337   7.011   6.297  1.00 20.00     0.018 C 
BRANCH   6   8
HETATM    8  C2  UNL     1     -34.512   4.899   5.763  1.00 20.00     0.127 C 
HETATM    9  C3  UNL     1     -35.205   4.014   4.760  1.00 20.00     0.091 C 
HETATM   10  O10 UNL     1     -34.079   4.440   6.820  1.00 20.00    -0.298 OA
ENDBRANCH   6   8
ENDBRANCH   5   6
ENDBRANCH   3   5
TORSDOF 3
ENDMDL
MODEL 7
REMARK VINA RESULT:      -4.1     11.143     12.430
REMARK  3 active torsions:
REMARK  status: ('A' for Active; 'I' for Inactive)
REMARK    1  A    between atoms: C2_2  and  C8_8 
REMARK    2  A    between atoms: C6_6  and  C7_7 
REMARK    3  A    between atoms: C6_6  and  C8_8 
ROOT
HETATM    1  C1  UNL     1     -37.802  14.956  -4.476  1.00 20.00     0.063 C 
HETATM    2  C4  UNL     1     -36.619  14.991  -6.627  1.00 20.00     0.025 C 
HETATM    3  C7  UNL     1     -36.864  15.732  -5.311  1.00 20.00     0.089 C 
HETATM    4  N9  UNL     1     -38.541  14.347  -3.820  1.00 20.00    -0.197 NA
ENDROOT
BRANCH   3   5
HETATM    5  C6  UNL     1     -35.527  15.967  -4.579  1.00 20.00     0.030 C 
BRANCH   5   6
HETATM    6  C8  UNL     1     -35.297  15.034  -3.375  1.00 20.00     0.052 C 
HETATM    7  C5  UNL     1     -34.580  15.774  -2.247  1.00 20.00     0.018 C 
BRANCH   6   8
HETATM    8  C2  UNL     1     -34.461  13.815  -3.756  1.00 20.00     0.127 C 
HETATM    9  C3  UNL     1     -32.966  13.951  -3.627  1.00 20.00     0.091 C 
HETATM   10  O10 UNL     1     -34.967  12.776  -4.181  1.00 20.00    -0.298 OA
ENDBRANCH   6   8
ENDBRANCH   5   6
ENDBRANCH   3   5
TORSDOF 3
ENDMDL
MODEL 8
REMARK VINA RESULT:      -4.1     11.259     12.473
REMARK  3 active torsions:
REMARK  status: ('A' for Active; 'I' for Inactive)
REMARK    1  A    between atoms: C2_2  and  C8_8 
REMARK    2  A    between atoms: C6_6  and  C7_7 
REMARK    3  A    between atoms: C6_6  and  C8_8 
ROOT
HETATM    1  C1  UNL     1     -34.377  13.676  -3.821  1.00 20.00     0.063 C 
HETATM    2  C4  UNL     1     -35.903  14.754  -5.414  1.00 20.00     0.025 C 
HETATM    3  C7  UNL     1     -35.686  14.347  -3.955  1.00 20.00     0.089 C 
HETATM    4  N9  UNL     1     -33.350  13.147  -3.716  1.00 20.00    -0.197 NA
ENDROOT
BRANCH   3   5
HETATM    5  C6  UNL     1     -35.776  15.585  -3.041  1.00 20.00     0.030 C 
BRANCH   5   6
HETATM    6  C8  UNL     1     -34.420  16.045  -2.470  1.00 20.00     0.052 C 
HETATM    7  C5  UNL     1     -34.577  16.527  -1.029  1.00 20.00     0.018 C 
BRANCH   6   8
HETATM    8  C2  UNL     1     -33.816  17.179  -3.292  1.00 20.00     0.127 C 
HETATM    9  C3  UNL     1     -33.864  18.557  -2.685  1.00 20.00     0.091 C 
HETATM   10  O10 UNL     1     -33.339  16.998  -4.413  1.00 20.00    -0.298 OA
ENDBRANCH   6   8
ENDBRANCH   5   6
ENDBRANCH   3   5
TORSDOF 3
ENDMDL
MODEL 9
REMARK VINA RESULT:      -4.1     11.218     12.713
REMARK  3 active torsions:
REMARK  status: ('A' for Active; 'I' for Inactive)
REMARK    1  A    between atoms: C2_2  and  C8_8 
REMARK    2  A    between atoms: C6_6  and  C7_7 
REMARK    3  A    between atoms: C6_6  and  C8_8 
ROOT
HETATM    1  C1  UNL     1     -33.920  17.258  -5.914  1.00 20.00     0.063 C 
HETATM    2  C4  UNL     1     -34.571  15.259  -7.182  1.00 20.00     0.025 C 
HETATM    3  C7  UNL     1     -34.317  15.841  -5.791  1.00 20.00     0.089 C 
HETATM    4  N9  UNL     1     -33.606  18.371  -6.011  1.00 20.00    -0.197 NA
ENDROOT
BRANCH   3   5
HETATM    5  C6  UNL     1     -35.577  15.688  -4.915  1.00 20.00     0.030 C 
BRANCH   5   6
HETATM    6  C8  UNL     1     -35.356  14.859  -3.635  1.00 20.00     0.052 C 
HETATM    7  C5  UNL     1     -34.629  15.684  -2.575  1.00 20.00     0.018 C 
BRANCH   6   8
HETATM    8  C2  UNL     1     -34.536  13.602  -3.910  1.00 20.00     0.127 C 
HETATM    9  C3  UNL     1     -33.075  13.652  -3.544  1.00 20.00     0.091 C 
HETATM   10  O10 UNL     1     -35.023  12.601  -4.437  1.00 20.00    -0.298 OA
ENDBRANCH   6   8
ENDBRANCH   5   6
ENDBRANCH   3   5
TORSDOF 3
ENDMDL
