MODEL 1
REMARK VINA RESULT:      -5.4      0.000      0.000
REMARK  3 active torsions:
REMARK  status: ('A' for Active; 'I' for Inactive)
REMARK    1  A    between atoms: C1_1  and  C4_4 
REMARK    2  A    between atoms: C2_2  and  C9_9 
REMARK    3  A    between atoms: C9_9  and  O10_10 
ROOT
HETATM    1  C3  UNL     1     -34.641   4.789   4.132  1.00 20.00    -0.011 C 
HETATM    2  C4  UNL     1     -33.942   5.866   4.506  1.00 20.00    -0.008 C 
HETATM    3  C5  UNL     1     -35.373   4.181   5.282  1.00 20.00     0.028 C 
HETATM    4  C6  UNL     1     -34.096   6.148   5.965  1.00 20.00     0.048 C 
HETATM    5  C7  UNL     1     -34.731   4.860   6.490  1.00 20.00     0.009 C 
ENDROOT
BRANCH   2   6
HETATM    6  C1  UNL     1     -33.166   6.650   3.620  1.00 20.00    -0.069 C 
HETATM    7  C2  UNL     1     -32.507   7.313   2.867  1.00 20.00    -0.075 C 
BRANCH   7   8
HETATM    8  C9  UNL     1     -31.707   8.125   1.952  1.00 20.00     0.261 C 
BRANCH   8   9
HETATM    9  O10 UNL     1     -32.415   9.310   1.617  1.00 20.00    -0.384 OA
HETATM   10  C8  UNL     1     -32.508   9.482   0.209  1.00 20.00     0.202 C 
ENDBRANCH   8   9
ENDBRANCH   7   8
ENDBRANCH   2   6
TORSDOF 3
ENDMDL
MODEL 2
REMARK VINA RESULT:      -4.3     10.987     11.796
REMARK  3 active torsions:
REMARK  status: ('A' for Active; 'I' for Inactive)
REMARK    1  A    between atoms: C1_1  and  C4_4 
REMARK    2  A    between atoms: C2_2  and  C9_9 
REMARK    3  A    between atoms: C9_9  and  O10_10 
ROOT
HETATM    1  C3  UNL     1     -34.797  17.623   0.795  1.00 20.00    -0.011 C 
HETATM    2  C4  UNL     1     -34.138  17.489  -0.361  1.00 20.00    -0.008 C 
HETATM    3  C5  UNL     1     -34.145  18.626   1.688  1.00 20.00     0.028 C 
HETATM    4  C6  UNL     1     -32.942  18.382  -0.424  1.00 20.00     0.048 C 
HETATM    5  C7  UNL     1     -32.783  18.832   1.029  1.00 20.00     0.009 C 
ENDROOT
BRANCH   2   6
HETATM    6  C1  UNL     1     -34.540  16.619  -1.402  1.00 20.00    -0.069 C 
HETATM    7  C2  UNL     1     -34.881  15.881  -2.284  1.00 20.00    -0.075 C 
BRANCH   7   8
HETATM    8  C9  UNL     1     -35.296  14.982  -3.360  1.00 20.00     0.261 C 
BRANCH   8   9
HETATM    9  O10 UNL     1     -34.390  13.891  -3.449  1.00 20.00    -0.384 OA
HETATM   10  C8  UNL     1     -34.488  13.234  -4.706  1.00 20.00     0.202 C 
ENDBRANCH   8   9
ENDBRANCH   7   8
ENDBRANCH   2   6
TORSDOF 3
ENDMDL
MODEL 3
REMARK VINA RESULT:      -4.3     11.327     12.044
REMARK  3 active torsions:
REMARK  status: ('A' for Active; 'I' for Inactive)
REMARK    1  A    between atoms: C1_1  and  C4_4 
REMARK    2  A    between atoms: C2_2  and  C9_9 
REMARK    3  A    between atoms: C9_9  and  O10_10 
ROOT
HETATM    1  C3  UNL     1     -34.818  17.046  -0.021  1.00 20.00    -0.011 C 
HETATM    2  C4  UNL     1     -34.399  16.979  -1.289  1.00 20.00    -0.008 C 
HETATM    3  C5  UNL     1     -34.126  18.135   0.730  1.00 20.00     0.028 C 
HETATM    4  C6  UNL     1     -33.362  18.013  -1.587  1.00 20.00     0.048 C 
HETATM    5  C7  UNL     1     -32.965  18.499  -0.193  1.00 20.00     0.009 C 
ENDROOT
BRANCH   2   6
HETATM    6  C1  UNL     1     -34.896  16.051  -2.235  1.00 20.00    -0.069 C 
HETATM    7  C2  UNL     1     -35.316  15.263  -3.037  1.00 20.00    -0.075 C 
BRANCH   7   8
HETATM    8  C9  UNL     1     -35.830  14.305  -4.014  1.00 20.00     0.261 C 
BRANCH   8   9
HETATM    9  O10 UNL     1     -37.192  14.016  -3.731  1.00 20.00    -0.384 OA
HETATM   10  C8  UNL     1     -38.040  15.102  -4.082  1.00 20.00     0.202 C 
ENDBRANCH   8   9
ENDBRANCH   7   8
ENDBRANCH   2   6
TORSDOF 3
ENDMDL
MODEL 4
REMARK VINA RESULT:      -4.3     11.147     11.756
REMARK  3 active torsions:
REMARK  status: ('A' for Active; 'I' for Inactive)
REMARK    1  A    between atoms: C1_1  and  C4_4 
REMARK    2  A    between atoms: C2_2  and  C9_9 
REMARK    3  A    between atoms: C9_9  and  O10_10 
ROOT
HETATM    1  C3  UNL     1     -33.558  14.557  -3.549  1.00 20.00    -0.011 C 
HETATM    2  C4  UNL     1     -34.514  15.276  -2.951  1.00 20.00    -0.008 C 
HETATM    3  C5  UNL     1     -34.127  13.621  -4.563  1.00 20.00     0.028 C 
HETATM    4  C6  UNL     1     -35.873  14.936  -3.472  1.00 20.00     0.048 C 
HETATM    5  C7  UNL     1     -35.620  13.639  -4.243  1.00 20.00     0.009 C 
ENDROOT
BRANCH   2   6
HETATM    6  C1  UNL     1     -34.262  16.253  -1.959  1.00 20.00    -0.069 C 
HETATM    7  C2  UNL     1     -34.048  17.082  -1.118  1.00 20.00    -0.075 C 
BRANCH   7   8
HETATM    8  C9  UNL     1     -33.785  18.091  -0.093  1.00 20.00     0.261 C 
BRANCH   8   9
HETATM    9  O10 UNL     1     -32.575  18.773  -0.392  1.00 20.00    -0.384 OA
HETATM   10  C8  UNL     1     -31.826  19.044   0.786  1.00 20.00     0.202 C 
ENDBRANCH   8   9
ENDBRANCH   7   8
ENDBRANCH   2   6
TORSDOF 3
ENDMDL
MODEL 5
REMARK VINA RESULT:      -4.2     11.044     11.661
REMARK  3 active torsions:
REMARK  status: ('A' for Active; 'I' for Inactive)
REMARK    1  A    between atoms: C1_1  and  C4_4 
REMARK    2  A    between atoms: C2_2  and  C9_9 
REMARK    3  A    between atoms: C9_9  and  O10_10 
ROOT
HETATM    1  C3  UNL     1     -33.646  14.836  -3.399  1.00 20.00    -0.011 C 
HETATM    2  C4  UNL     1     -34.724  15.338  -2.787  1.00 20.00    -0.008 C 
HETATM    3  C5  UNL     1     -34.024  13.977  -4.561  1.00 20.00     0.028 C 
HETATM    4  C6  UNL     1     -35.991  14.897  -3.442  1.00 20.00     0.048 C 
HETATM    5  C7  UNL     1     -35.520  13.758  -4.349  1.00 20.00     0.009 C 
ENDROOT
BRANCH   2   6
HETATM    6  C1  UNL     1     -34.663  16.199  -1.665  1.00 20.00    -0.069 C 
HETATM    7  C2  UNL     1     -34.612  16.928  -0.713  1.00 20.00    -0.075 C 
BRANCH   7   8
HETATM    8  C9  UNL     1     -34.548  17.818   0.445  1.00 20.00     0.261 C 
BRANCH   8   9
HETATM    9  O10 UNL     1     -35.711  17.650   1.243  1.00 20.00    -0.384 OA
HETATM   10  C8  UNL     1     -35.397  17.659   2.630  1.00 20.00     0.202 C 
ENDBRANCH   8   9
ENDBRANCH   7   8
ENDBRANCH   2   6
TORSDOF 3
ENDMDL
MODEL 6
REMARK VINA RESULT:      -4.2     10.604     11.718
REMARK  3 active torsions:
REMARK  status: ('A' for Active; 'I' for Inactive)
REMARK    1  A    between atoms: C1_1  and  C4_4 
REMARK    2  A    between atoms: C2_2  and  C9_9 
REMARK    3  A    between atoms: C9_9  and  O10_10 
ROOT
HETATM    1  C3  UNL     1     -40.711   4.706  -0.849  1.00 20.00    -0.011 C 
HETATM    2  C4  UNL     1     -41.447   4.555  -1.956  1.00 20.00    -0.008 C 
HETATM    3  C5  UNL     1     -40.795   6.099  -0.318  1.00 20.00     0.028 C 
HETATM    4  C6  UNL     1     -42.140   5.822  -2.339  1.00 20.00     0.048 C 
HETATM    5  C7  UNL     1     -41.429   6.866  -1.477  1.00 20.00     0.009 C 
ENDROOT
BRANCH   2   6
HETATM    6  C1  UNL     1     -41.565   3.335  -2.663  1.00 20.00    -0.069 C 
HETATM    7  C2  UNL     1     -41.665   2.300  -3.262  1.00 20.00    -0.075 C 
BRANCH   7   8
HETATM    8  C9  UNL     1     -41.788   1.041  -3.994  1.00 20.00     0.261 C 
BRANCH   8   9
HETATM    9  O10 UNL     1     -42.371   1.282  -5.268  1.00 20.00    -0.384 OA
HETATM   10  C8  UNL     1     -43.416   0.358  -5.546  1.00 20.00     0.202 C 
ENDBRANCH   8   9
ENDBRANCH   7   8
ENDBRANCH   2   6
TORSDOF 3
ENDMDL
MODEL 7
REMARK VINA RESULT:      -4.2     10.937     11.711
REMARK  3 active torsions:
REMARK  status: ('A' for Active; 'I' for Inactive)
REMARK    1  A    between atoms: C1_1  and  C4_4 
REMARK    2  A    between atoms: C2_2  and  C9_9 
REMARK    3  A    between atoms: C9_9  and  O10_10 
ROOT
HETATM    1  C3  UNL     1     -33.297  18.183  -0.134  1.00 20.00    -0.011 C 
HETATM    2  C4  UNL     1     -34.363  17.379  -0.213  1.00 20.00    -0.008 C 
HETATM    3  C5  UNL     1     -33.229  18.879   1.185  1.00 20.00     0.028 C 
HETATM    4  C6  UNL     1     -35.176  17.410   1.041  1.00 20.00     0.048 C 
HETATM    5  C7  UNL     1     -34.618  18.633   1.771  1.00 20.00     0.009 C 
ENDROOT
BRANCH   2   6
HETATM    6  C1  UNL     1     -34.669  16.584  -1.342  1.00 20.00    -0.069 C 
HETATM    7  C2  UNL     1     -34.929  15.909  -2.300  1.00 20.00    -0.075 C 
BRANCH   7   8
HETATM    8  C9  UNL     1     -35.244  15.089  -3.469  1.00 20.00     0.261 C 
BRANCH   8   9
HETATM    9  O10 UNL     1     -34.482  13.890  -3.434  1.00 20.00    -0.384 OA
HETATM   10  C8  UNL     1     -34.424  13.272  -4.713  1.00 20.00     0.202 C 
ENDBRANCH   8   9
ENDBRANCH   7   8
ENDBRANCH   2   6
TORSDOF 3
ENDMDL
MODEL 8
REMARK VINA RESULT:      -3.9     10.105     10.833
REMARK  3 active torsions:
REMARK  status: ('A' for Active; 'I' for Inactive)
REMARK    1  A    between atoms: C1_1  and  C4_4 
REMARK    2  A    between atoms: C2_2  and  C9_9 
REMARK    3  A    between atoms: C9_9  and  O10_10 
ROOT
HETATM    1  C3  UNL     1     -41.858   5.336  -2.041  1.00 20.00    -0.011 C 
HETATM    2  C4  UNL     1     -41.772   6.670  -2.092  1.00 20.00    -0.008 C 
HETATM    3  C5  UNL     1     -41.352   4.801  -0.742  1.00 20.00     0.028 C 
HETATM    4  C6  UNL     1     -41.195   7.238  -0.836  1.00 20.00     0.048 C 
HETATM    5  C7  UNL     1     -40.621   6.001  -0.143  1.00 20.00     0.009 C 
ENDROOT
BRANCH   2   6
HETATM    6  C1  UNL     1     -42.194   7.446  -3.197  1.00 20.00    -0.069 C 
HETATM    7  C2  UNL     1     -42.553   8.103  -4.135  1.00 20.00    -0.075 C 
BRANCH   7   8
HETATM    8  C9  UNL     1     -42.987   8.905  -5.278  1.00 20.00     0.261 C 
BRANCH   8   9
HETATM    9  O10 UNL     1     -41.869   9.570  -5.849  1.00 20.00    -0.384 OA
HETATM   10  C8  UNL     1     -41.873  10.958  -5.537  1.00 20.00     0.202 C 
ENDBRANCH   8   9
ENDBRANCH   7   8
ENDBRANCH   2   6
TORSDOF 3
ENDMDL
MODEL 9
REMARK VINA RESULT:      -3.9     10.285     11.239
REMARK  3 active torsions:
REMARK  status: ('A' for Active; 'I' for Inactive)
REMARK    1  A    between atoms: C1_1  and  C4_4 
REMARK    2  A    between atoms: C2_2  and  C9_9 
REMARK    3  A    between atoms: C9_9  and  O10_10 
ROOT
HETATM    1  C3  UNL     1     -41.218   1.896  -3.893  1.00 20.00    -0.011 C 
HETATM    2  C4  UNL     1     -41.951   2.429  -2.908  1.00 20.00    -0.008 C 
HETATM    3  C5  UNL     1     -41.888   0.705  -4.494  1.00 20.00     0.028 C 
HETATM    4  C6  UNL     1     -43.226   1.679  -2.697  1.00 20.00     0.048 C 
HETATM    5  C7  UNL     1     -42.990   0.389  -3.485  1.00 20.00     0.009 C 
ENDROOT
BRANCH   2   6
HETATM    6  C1  UNL     1     -41.568   3.575  -2.173  1.00 20.00    -0.069 C 
HETATM    7  C2  UNL     1     -41.244   4.548  -1.550  1.00 20.00    -0.075 C 
BRANCH   7   8
HETATM    8  C9  UNL     1     -40.848   5.732  -0.788  1.00 20.00     0.261 C 
BRANCH   8   9
HETATM    9  O10 UNL     1     -40.826   6.867  -1.642  1.00 20.00    -0.384 OA
HETATM   10  C8  UNL     1     -42.081   7.535  -1.654  1.00 20.00     0.202 C 
ENDBRANCH   8   9
ENDBRANCH   7   8
ENDBRANCH   2   6
TORSDOF 3
ENDMDL
