MODEL 1
REMARK VINA RESULT:      -5.9      0.000      0.000
REMARK  1 active torsions:
REMARK  status: ('A' for Active; 'I' for Inactive)
REMARK    1  A    between atoms: C2_2  and  C3_3 
ROOT
HETATM    1  C1  UNL     1     -33.979   5.956   3.966  1.00 20.00    -0.077 C 
HETATM    2  C2  UNL     1     -33.072   6.106   2.989  1.00 20.00     0.044 C 
HETATM    3  C4  UNL     1     -35.091   4.945   3.887  1.00 20.00     0.034 C 
HETATM    4  C5  UNL     1     -33.944   6.771   5.233  1.00 20.00     0.034 C 
HETATM    5  C6  UNL     1     -35.095   4.045   5.122  1.00 20.00     0.004 C 
HETATM    6  C7  UNL     1     -33.952   5.861   6.462  1.00 20.00     0.004 C 
HETATM    7  C8  UNL     1     -35.106   4.857   6.418  1.00 20.00     0.001 C 
ENDROOT
BRANCH   2   8
HETATM    8  C3  UNL     1     -32.028   7.128   3.178  1.00 20.00     0.259 C 
HETATM    9  O9  UNL     1     -31.888   8.066   2.401  1.00 20.00    -0.302 OA
ENDBRANCH   2   8
TORSDOF 1
ENDMDL
MODEL 2
REMARK VINA RESULT:      -4.4      0.993      2.099
REMARK  1 active torsions:
REMARK  status: ('A' for Active; 'I' for Inactive)
REMARK    1  A    between atoms: C2_2  and  C3_3 
ROOT
HETATM    1  C1  UNL     1     -32.946   6.510   4.018  1.00 20.00    -0.077 C 
HETATM    2  C2  UNL     1     -32.265   7.597   3.628  1.00 20.00     0.044 C 
HETATM    3  C4  UNL     1     -33.123   6.144   5.467  1.00 20.00     0.034 C 
HETATM    4  C5  UNL     1     -33.611   5.579   3.037  1.00 20.00     0.034 C 
HETATM    5  C6  UNL     1     -34.602   5.954   5.802  1.00 20.00     0.004 C 
HETATM    6  C7  UNL     1     -35.089   5.393   3.384  1.00 20.00     0.004 C 
HETATM    7  C8  UNL     1     -35.282   4.975   4.844  1.00 20.00     0.001 C 
ENDROOT
BRANCH   2   8
HETATM    8  C3  UNL     1     -32.159   7.855   2.181  1.00 20.00     0.259 C 
HETATM    9  O9  UNL     1     -32.231   8.987   1.716  1.00 20.00    -0.302 OA
ENDBRANCH   2   8
TORSDOF 1
ENDMDL
MODEL 3
REMARK VINA RESULT:      -4.3     11.463     12.964
REMARK  1 active torsions:
REMARK  status: ('A' for Active; 'I' for Inactive)
REMARK    1  A    between atoms: C2_2  and  C3_3 
ROOT
HETATM    1  C1  UNL     1     -34.594  15.474  -3.078  1.00 20.00    -0.077 C 
HETATM    2  C2  UNL     1     -34.396  14.159  -3.244  1.00 20.00     0.044 C 
HETATM    3  C4  UNL     1     -34.692  16.112  -1.717  1.00 20.00     0.034 C 
HETATM    4  C5  UNL     1     -34.710  16.427  -4.240  1.00 20.00     0.034 C 
HETATM    5  C6  UNL     1     -33.699  17.266  -1.586  1.00 20.00     0.004 C 
HETATM    6  C7  UNL     1     -33.717  17.581  -4.096  1.00 20.00     0.004 C 
HETATM    7  C8  UNL     1     -33.836  18.267  -2.734  1.00 20.00     0.001 C 
ENDROOT
BRANCH   2   8
HETATM    8  C3  UNL     1     -34.315  13.649  -4.624  1.00 20.00     0.259 C 
HETATM    9  O9  UNL     1     -34.761  12.551  -4.939  1.00 20.00    -0.302 OA
ENDBRANCH   2   8
TORSDOF 1
ENDMDL
MODEL 4
REMARK VINA RESULT:      -4.1     11.674     12.399
REMARK  1 active torsions:
REMARK  status: ('A' for Active; 'I' for Inactive)
REMARK    1  A    between atoms: C2_2  and  C3_3 
ROOT
HETATM    1  C1  UNL     1     -34.162  15.895  -2.827  1.00 20.00    -0.077 C 
HETATM    2  C2  UNL     1     -33.906  16.526  -1.673  1.00 20.00     0.044 C 
HETATM    3  C4  UNL     1     -33.100  15.156  -3.597  1.00 20.00     0.034 C 
HETATM    4  C5  UNL     1     -35.540  15.853  -3.436  1.00 20.00     0.034 C 
HETATM    5  C6  UNL     1     -33.536  13.718  -3.879  1.00 20.00     0.004 C 
HETATM    6  C7  UNL     1     -35.963  14.411  -3.718  1.00 20.00     0.004 C 
HETATM    7  C8  UNL     1     -34.913  13.660  -4.540  1.00 20.00     0.001 C 
ENDROOT
BRANCH   2   8
HETATM    8  C3  UNL     1     -35.026  17.215  -1.008  1.00 20.00     0.259 C 
HETATM    9  O9  UNL     1     -35.141  17.242   0.213  1.00 20.00    -0.302 OA
ENDBRANCH   2   8
TORSDOF 1
ENDMDL
MODEL 5
REMARK VINA RESULT:      -4.1      2.240      4.148
REMARK  1 active torsions:
REMARK  status: ('A' for Active; 'I' for Inactive)
REMARK    1  A    between atoms: C2_2  and  C3_3 
ROOT
HETATM    1  C1  UNL     1     -33.968   6.143   5.038  1.00 20.00    -0.077 C 
HETATM    2  C2  UNL     1     -34.248   5.447   6.149  1.00 20.00     0.044 C 
HETATM    3  C4  UNL     1     -32.995   7.292   5.027  1.00 20.00     0.034 C 
HETATM    4  C5  UNL     1     -34.587   5.817   3.703  1.00 20.00     0.034 C 
HETATM    5  C6  UNL     1     -31.924   7.084   3.957  1.00 20.00     0.004 C 
HETATM    6  C7  UNL     1     -33.507   5.617   2.639  1.00 20.00     0.004 C 
HETATM    7  C8  UNL     1     -32.536   6.798   2.586  1.00 20.00     0.001 C 
ENDROOT
BRANCH   2   8
HETATM    8  C3  UNL     1     -35.217   4.342   6.037  1.00 20.00     0.259 C 
HETATM    9  O9  UNL     1     -35.015   3.371   5.316  1.00 20.00    -0.302 OA
ENDBRANCH   2   8
TORSDOF 1
ENDMDL
MODEL 6
REMARK VINA RESULT:      -4.0     11.655     12.973
REMARK  1 active torsions:
REMARK  status: ('A' for Active; 'I' for Inactive)
REMARK    1  A    between atoms: C2_2  and  C3_3 
ROOT
HETATM    1  C1  UNL     1     -34.098  15.345  -3.244  1.00 20.00    -0.077 C 
HETATM    2  C2  UNL     1     -34.426  15.927  -2.082  1.00 20.00     0.044 C 
HETATM    3  C4  UNL     1     -34.530  13.947  -3.599  1.00 20.00     0.034 C 
HETATM    4  C5  UNL     1     -33.290  16.052  -4.301  1.00 20.00     0.034 C 
HETATM    5  C6  UNL     1     -35.247  13.927  -4.948  1.00 20.00     0.004 C 
HETATM    6  C7  UNL     1     -34.014  16.021  -5.648  1.00 20.00     0.004 C 
HETATM    7  C8  UNL     1     -34.420  14.600  -6.043  1.00 20.00     0.001 C 
ENDROOT
BRANCH   2   8
HETATM    8  C3  UNL     1     -33.947  17.300  -1.846  1.00 20.00     0.259 C 
HETATM    9  O9  UNL     1     -33.315  17.605  -0.841  1.00 20.00    -0.302 OA
ENDBRANCH   2   8
TORSDOF 1
ENDMDL
MODEL 7
REMARK VINA RESULT:      -4.0     11.970     13.271
REMARK  1 active torsions:
REMARK  status: ('A' for Active; 'I' for Inactive)
REMARK    1  A    between atoms: C2_2  and  C3_3 
ROOT
HETATM    1  C1  UNL     1     -34.036  15.646  -4.357  1.00 20.00    -0.077 C 
HETATM    2  C2  UNL     1     -34.684  14.819  -5.189  1.00 20.00     0.044 C 
HETATM    3  C4  UNL     1     -33.389  16.922  -4.827  1.00 20.00     0.034 C 
HETATM    4  C5  UNL     1     -33.923  15.380  -2.878  1.00 20.00     0.034 C 
HETATM    5  C6  UNL     1     -33.886  18.115  -4.010  1.00 20.00     0.004 C 
HETATM    6  C7  UNL     1     -34.417  16.580  -2.071  1.00 20.00     0.004 C 
HETATM    7  C8  UNL     1     -33.735  17.879  -2.507  1.00 20.00     0.001 C 
ENDROOT
BRANCH   2   8
HETATM    8  C3  UNL     1     -35.278  13.600  -4.614  1.00 20.00     0.259 C 
HETATM    9  O9  UNL     1     -34.775  12.493  -4.773  1.00 20.00    -0.302 OA
ENDBRANCH   2   8
TORSDOF 1
ENDMDL
MODEL 8
REMARK VINA RESULT:      -4.0      9.681     10.914
REMARK  1 active torsions:
REMARK  status: ('A' for Active; 'I' for Inactive)
REMARK    1  A    between atoms: C2_2  and  C3_3 
ROOT
HETATM    1  C1  UNL     1     -42.034   5.417  -2.375  1.00 20.00    -0.077 C 
HETATM    2  C2  UNL     1     -43.073   5.109  -3.164  1.00 20.00     0.044 C 
HETATM    3  C4  UNL     1     -41.593   6.837  -2.137  1.00 20.00     0.034 C 
HETATM    4  C5  UNL     1     -41.237   4.369  -1.642  1.00 20.00     0.034 C 
HETATM    5  C6  UNL     1     -41.526   7.140  -0.640  1.00 20.00     0.004 C 
HETATM    6  C7  UNL     1     -41.172   4.684  -0.147  1.00 20.00     0.004 C 
HETATM    7  C8  UNL     1     -40.682   6.110   0.112  1.00 20.00     0.001 C 
ENDROOT
BRANCH   2   8
HETATM    8  C3  UNL     1     -43.411   3.683  -3.321  1.00 20.00     0.259 C 
HETATM    9  O9  UNL     1     -43.341   3.114  -4.405  1.00 20.00    -0.302 OA
ENDBRANCH   2   8
TORSDOF 1
ENDMDL
MODEL 9
REMARK VINA RESULT:      -3.9     12.766     14.651
REMARK  1 active torsions:
REMARK  status: ('A' for Active; 'I' for Inactive)
REMARK    1  A    between atoms: C2_2  and  C3_3 
ROOT
HETATM    1  C1  UNL     1     -34.200  15.614  -6.084  1.00 20.00    -0.077 C 
HETATM    2  C2  UNL     1     -34.842  14.461  -5.850  1.00 20.00     0.044 C 
HETATM    3  C4  UNL     1     -34.428  16.429  -7.329  1.00 20.00     0.034 C 
HETATM    4  C5  UNL     1     -33.213  16.202  -5.108  1.00 20.00     0.034 C 
HETATM    5  C6  UNL     1     -34.793  17.870  -6.975  1.00 20.00     0.004 C 
HETATM    6  C7  UNL     1     -33.585  17.645  -4.764  1.00 20.00     0.004 C 
HETATM    7  C8  UNL     1     -33.776  18.497  -6.021  1.00 20.00     0.001 C 
ENDROOT
BRANCH   2   8
HETATM    8  C3  UNL     1     -34.537  13.752  -4.595  1.00 20.00     0.259 C 
HETATM    9  O9  UNL     1     -34.992  12.640  -4.350  1.00 20.00    -0.302 OA
ENDBRANCH   2   8
TORSDOF 1
ENDMDL
