MODEL 1
REMARK VINA RESULT:      -4.6      0.000      0.000
REMARK  0 active torsions:
REMARK  status: ('A' for Active; 'I' for Inactive)
ROOT
HETATM    1  C1  UNL     1     -33.717  17.428  -1.193  1.00 20.00     0.015 C 
HETATM    2  C2  UNL     1     -33.921  17.287  -2.368  1.00 20.00    -0.082 C 
HETATM    3  C3  UNL     1     -34.719  13.170  -4.946  1.00 20.00     0.000 C 
HETATM    4  C4  UNL     1     -34.048  13.561  -3.627  1.00 20.00     0.003 C 
HETATM    5  C5  UNL     1     -35.385  14.372  -5.619  1.00 20.00     0.003 C 
HETATM    6  C6  UNL     1     -33.058  14.710  -3.822  1.00 20.00     0.042 C 
HETATM    7  C7  UNL     1     -34.398  15.523  -5.815  1.00 20.00     0.042 C 
HETATM    8  C8  UNL     1     -34.162  17.120  -3.766  1.00 20.00     0.235 A 
HETATM    9  C9  UNL     1     -33.742  15.862  -4.505  1.00 20.00     0.099 A 
HETATM   10  O10 UNL     1     -32.955  17.060  -4.543  1.00 20.00    -0.356 OA
ENDROOT
TORSDOF 0
ENDMDL
MODEL 2
REMARK VINA RESULT:      -4.5      1.917      2.679
REMARK  0 active torsions:
REMARK  status: ('A' for Active; 'I' for Inactive)
ROOT
HETATM    1  C1  UNL     1     -34.625  16.391  -1.380  1.00 20.00     0.015 C 
HETATM    2  C2  UNL     1     -34.336  15.718  -2.331  1.00 20.00    -0.082 C 
HETATM    3  C3  UNL     1     -36.755  15.068  -6.569  1.00 20.00     0.000 C 
HETATM    4  C4  UNL     1     -37.088  15.483  -5.133  1.00 20.00     0.003 C 
HETATM    5  C5  UNL     1     -35.251  14.865  -6.764  1.00 20.00     0.003 C 
HETATM    6  C6  UNL     1     -36.525  14.488  -4.119  1.00 20.00     0.042 C 
HETATM    7  C7  UNL     1     -34.683  13.871  -5.750  1.00 20.00     0.042 C 
HETATM    8  C8  UNL     1     -33.991  14.918  -3.463  1.00 20.00     0.235 A 
HETATM    9  C9  UNL     1     -35.051  14.297  -4.355  1.00 20.00     0.099 A 
HETATM   10  O10 UNL     1     -34.395  13.546  -3.326  1.00 20.00    -0.356 OA
ENDROOT
TORSDOF 0
ENDMDL
MODEL 3
REMARK VINA RESULT:      -4.4      1.316      1.801
REMARK  0 active torsions:
REMARK  status: ('A' for Active; 'I' for Inactive)
ROOT
HETATM    1  C1  UNL     1     -34.598  16.637  -0.751  1.00 20.00     0.015 C 
HETATM    2  C2  UNL     1     -34.184  16.550  -1.874  1.00 20.00    -0.082 C 
HETATM    3  C3  UNL     1     -36.453  14.958  -5.943  1.00 20.00     0.000 C 
HETATM    4  C4  UNL     1     -36.591  14.772  -4.429  1.00 20.00     0.003 C 
HETATM    5  C5  UNL     1     -35.355  15.966  -6.290  1.00 20.00     0.003 C 
HETATM    6  C6  UNL     1     -35.258  14.386  -3.790  1.00 20.00     0.042 C 
HETATM    7  C7  UNL     1     -34.020  15.584  -5.651  1.00 20.00     0.042 C 
HETATM    8  C8  UNL     1     -33.691  16.446  -3.211  1.00 20.00     0.235 A 
HETATM    9  C9  UNL     1     -34.200  15.386  -4.171  1.00 20.00     0.099 A 
HETATM   10  O10 UNL     1     -32.970  15.227  -3.453  1.00 20.00    -0.356 OA
ENDROOT
TORSDOF 0
ENDMDL
MODEL 4
REMARK VINA RESULT:      -4.2      2.026      2.845
REMARK  0 active torsions:
REMARK  status: ('A' for Active; 'I' for Inactive)
ROOT
HETATM    1  C1  UNL     1     -34.420  16.647  -1.171  1.00 20.00     0.015 C 
HETATM    2  C2  UNL     1     -34.767  15.890  -2.036  1.00 20.00    -0.082 C 
HETATM    3  C3  UNL     1     -34.418  16.333  -6.926  1.00 20.00     0.000 C 
HETATM    4  C4  UNL     1     -34.457  17.263  -5.710  1.00 20.00     0.003 C 
HETATM    5  C5  UNL     1     -34.418  14.860  -6.511  1.00 20.00     0.003 C 
HETATM    6  C6  UNL     1     -35.641  16.941  -4.799  1.00 20.00     0.042 C 
HETATM    7  C7  UNL     1     -35.600  14.535  -5.598  1.00 20.00     0.042 C 
HETATM    8  C8  UNL     1     -35.180  14.988  -3.064  1.00 20.00     0.235 A 
HETATM    9  C9  UNL     1     -35.620  15.483  -4.430  1.00 20.00     0.099 A 
HETATM   10  O10 UNL     1     -36.567  15.131  -3.413  1.00 20.00    -0.356 OA
ENDROOT
TORSDOF 0
ENDMDL
MODEL 5
REMARK VINA RESULT:      -4.2      2.423      4.004
REMARK  0 active torsions:
REMARK  status: ('A' for Active; 'I' for Inactive)
ROOT
HETATM    1  C1  UNL     1     -37.886  15.142  -6.828  1.00 20.00     0.015 C 
HETATM    2  C2  UNL     1     -37.456  15.418  -5.742  1.00 20.00    -0.082 C 
HETATM    3  C3  UNL     1     -33.188  14.154  -3.638  1.00 20.00     0.000 C 
HETATM    4  C4  UNL     1     -34.103  13.618  -4.743  1.00 20.00     0.003 C 
HETATM    5  C5  UNL     1     -33.700  15.483  -3.077  1.00 20.00     0.003 C 
HETATM    6  C6  UNL     1     -35.549  13.500  -4.263  1.00 20.00     0.042 C 
HETATM    7  C7  UNL     1     -35.147  15.369  -2.598  1.00 20.00     0.042 C 
HETATM    8  C8  UNL     1     -36.945  15.748  -4.449  1.00 20.00     0.235 A 
HETATM    9  C9  UNL     1     -36.009  14.816  -3.699  1.00 20.00     0.099 A 
HETATM   10  O10 UNL     1     -37.414  14.865  -3.417  1.00 20.00    -0.356 OA
ENDROOT
TORSDOF 0
ENDMDL
MODEL 6
REMARK VINA RESULT:      -4.2      1.646      4.119
REMARK  0 active torsions:
REMARK  status: ('A' for Active; 'I' for Inactive)
ROOT
HETATM    1  C1  UNL     1     -35.026  14.773  -7.842  1.00 20.00     0.015 C 
HETATM    2  C2  UNL     1     -35.085  14.535  -6.667  1.00 20.00    -0.082 C 
HETATM    3  C3  UNL     1     -33.990  17.406  -2.821  1.00 20.00     0.000 C 
HETATM    4  C4  UNL     1     -33.615  17.315  -4.303  1.00 20.00     0.003 C 
HETATM    5  C5  UNL     1     -35.046  16.365  -2.441  1.00 20.00     0.003 C 
HETATM    6  C6  UNL     1     -33.166  15.903  -4.680  1.00 20.00     0.042 C 
HETATM    7  C7  UNL     1     -34.601  14.952  -2.819  1.00 20.00     0.042 C 
HETATM    8  C8  UNL     1     -35.155  14.250  -5.269  1.00 20.00     0.235 A 
HETATM    9  C9  UNL     1     -34.217  14.907  -4.272  1.00 20.00     0.099 A 
HETATM   10  O10 UNL     1     -33.983  13.584  -4.771  1.00 20.00    -0.356 OA
ENDROOT
TORSDOF 0
ENDMDL
MODEL 7
REMARK VINA RESULT:      -4.2      1.571      2.748
REMARK  0 active torsions:
REMARK  status: ('A' for Active; 'I' for Inactive)
ROOT
HETATM    1  C1  UNL     1     -33.646  18.719  -6.439  1.00 20.00     0.015 C 
HETATM    2  C2  UNL     1     -33.690  18.054  -5.441  1.00 20.00    -0.082 C 
HETATM    3  C3  UNL     1     -34.530  13.232  -4.911  1.00 20.00     0.000 C 
HETATM    4  C4  UNL     1     -34.833  14.323  -5.943  1.00 20.00     0.003 C 
HETATM    5  C5  UNL     1     -33.672  13.766  -3.761  1.00 20.00     0.003 C 
HETATM    6  C6  UNL     1     -35.476  15.547  -5.289  1.00 20.00     0.042 C 
HETATM    7  C7  UNL     1     -34.311  14.991  -3.107  1.00 20.00     0.042 C 
HETATM    8  C8  UNL     1     -33.742  17.264  -4.252  1.00 20.00     0.235 A 
HETATM    9  C9  UNL     1     -34.618  16.028  -4.152  1.00 20.00     0.099 A 
HETATM   10  O10 UNL     1     -35.029  17.291  -3.613  1.00 20.00    -0.356 OA
ENDROOT
TORSDOF 0
ENDMDL
MODEL 8
REMARK VINA RESULT:      -4.1      1.339      4.057
REMARK  0 active torsions:
REMARK  status: ('A' for Active; 'I' for Inactive)
ROOT
HETATM    1  C1  UNL     1     -34.781  13.099  -5.053  1.00 20.00     0.015 C 
HETATM    2  C2  UNL     1     -34.220  13.824  -4.278  1.00 20.00    -0.082 C 
HETATM    3  C3  UNL     1     -35.995  17.593  -1.654  1.00 20.00     0.000 C 
HETATM    4  C4  UNL     1     -36.357  16.846  -2.941  1.00 20.00     0.003 C 
HETATM    5  C5  UNL     1     -34.796  16.955  -0.949  1.00 20.00     0.003 C 
HETATM    6  C6  UNL     1     -35.154  16.734  -3.879  1.00 20.00     0.042 C 
HETATM    7  C7  UNL     1     -33.592  16.840  -1.885  1.00 20.00     0.042 C 
HETATM    8  C8  UNL     1     -33.552  14.687  -3.356  1.00 20.00     0.235 A 
HETATM    9  C9  UNL     1     -33.990  16.125  -3.147  1.00 20.00     0.099 A 
HETATM   10  O10 UNL     1     -32.886  15.788  -3.996  1.00 20.00    -0.356 OA
ENDROOT
TORSDOF 0
ENDMDL
MODEL 9
REMARK VINA RESULT:      -4.0      2.056      3.702
REMARK  0 active torsions:
REMARK  status: ('A' for Active; 'I' for Inactive)
ROOT
HETATM    1  C1  UNL     1     -37.320  17.353  -6.439  1.00 20.00     0.015 C 
HETATM    2  C2  UNL     1     -36.910  16.256  -6.174  1.00 20.00    -0.082 C 
HETATM    3  C3  UNL     1     -32.866  14.930  -3.699  1.00 20.00     0.000 C 
HETATM    4  C4  UNL     1     -33.352  16.143  -4.496  1.00 20.00     0.003 C 
HETATM    5  C5  UNL     1     -33.955  13.862  -3.576  1.00 20.00     0.003 C 
HETATM    6  C6  UNL     1     -33.887  15.733  -5.868  1.00 20.00     0.042 C 
HETATM    7  C7  UNL     1     -34.494  13.450  -4.946  1.00 20.00     0.042 C 
HETATM    8  C8  UNL     1     -36.422  14.951  -5.859  1.00 20.00     0.235 A 
HETATM    9  C9  UNL     1     -34.938  14.668  -5.708  1.00 20.00     0.099 A 
HETATM   10  O10 UNL     1     -35.645  14.369  -6.918  1.00 20.00    -0.356 OA
ENDROOT
TORSDOF 0
ENDMDL
