MODEL 1
REMARK VINA RESULT:      -4.6      0.000      0.000
REMARK  1 active torsions:
REMARK  status: ('A' for Active; 'I' for Inactive)
REMARK    1  A    between atoms: C2_2  and  C7_7 
ROOT
HETATM    1  C1  UNL     1     -34.002  15.639  -5.047  1.00 20.00     0.141 C 
HETATM    2  C3  UNL     1     -33.292  16.950  -4.775  1.00 20.00     0.079 C 
HETATM    3  C4  UNL     1     -33.922  17.677  -3.599  1.00 20.00     0.007 C 
HETATM    4  C5  UNL     1     -34.004  16.786  -2.365  1.00 20.00     0.002 C 
HETATM    5  C6  UNL     1     -34.795  15.513  -2.665  1.00 20.00     0.024 C 
HETATM    6  C7  UNL     1     -34.238  14.708  -3.854  1.00 20.00     0.070 C 
HETATM    7  C8  UNL     1     -32.917  14.012  -3.507  1.00 20.00     0.031 C 
HETATM    8  O9  UNL     1     -34.289  15.311  -6.199  1.00 20.00    -0.297 OA
ENDROOT
BRANCH   6   9
HETATM    9  C2  UNL     1     -35.258  13.642  -4.168  1.00 20.00     0.248 C 
HETATM   10  O10 UNL     1     -34.961  12.513  -4.545  1.00 20.00    -0.306 OA
ENDBRANCH   6   9
TORSDOF 1
ENDMDL
MODEL 2
REMARK VINA RESULT:      -4.6      1.460      3.015
REMARK  1 active torsions:
REMARK  status: ('A' for Active; 'I' for Inactive)
REMARK    1  A    between atoms: C2_2  and  C7_7 
ROOT
HETATM    1  C1  UNL     1     -34.544  13.679  -4.657  1.00 20.00     0.141 C 
HETATM    2  C3  UNL     1     -33.811  14.031  -3.379  1.00 20.00     0.079 C 
HETATM    3  C4  UNL     1     -32.722  15.058  -3.641  1.00 20.00     0.007 C 
HETATM    4  C5  UNL     1     -33.267  16.285  -4.363  1.00 20.00     0.002 C 
HETATM    5  C6  UNL     1     -33.928  15.889  -5.683  1.00 20.00     0.024 C 
HETATM    6  C7  UNL     1     -35.044  14.839  -5.523  1.00 20.00     0.070 C 
HETATM    7  C8  UNL     1     -36.299  15.431  -4.873  1.00 20.00     0.031 C 
HETATM    8  O9  UNL     1     -34.799  12.504  -4.928  1.00 20.00    -0.297 OA
ENDROOT
BRANCH   6   9
HETATM    9  C2  UNL     1     -35.410  14.384  -6.914  1.00 20.00     0.248 C 
HETATM   10  O10 UNL     1     -34.772  14.693  -7.915  1.00 20.00    -0.306 OA
ENDBRANCH   6   9
TORSDOF 1
ENDMDL
MODEL 3
REMARK VINA RESULT:      -4.5      1.570      2.424
REMARK  1 active torsions:
REMARK  status: ('A' for Active; 'I' for Inactive)
REMARK    1  A    between atoms: C2_2  and  C7_7 
ROOT
HETATM    1  C1  UNL     1     -36.121  15.115  -3.602  1.00 20.00     0.141 C 
HETATM    2  C3  UNL     1     -36.033  16.245  -2.598  1.00 20.00     0.079 C 
HETATM    3  C4  UNL     1     -34.728  16.183  -1.820  1.00 20.00     0.007 C 
HETATM    4  C5  UNL     1     -33.521  16.126  -2.750  1.00 20.00     0.002 C 
HETATM    5  C6  UNL     1     -33.616  14.926  -3.691  1.00 20.00     0.024 C 
HETATM    6  C7  UNL     1     -34.914  14.894  -4.520  1.00 20.00     0.070 C 
HETATM    7  C8  UNL     1     -34.925  15.970  -5.611  1.00 20.00     0.031 C 
HETATM    8  O9  UNL     1     -37.162  14.467  -3.726  1.00 20.00    -0.297 OA
ENDROOT
BRANCH   6   9
HETATM    9  C2  UNL     1     -34.962  13.546  -5.194  1.00 20.00     0.248 C 
HETATM   10  O10 UNL     1     -34.779  12.487  -4.602  1.00 20.00    -0.306 OA
ENDBRANCH   6   9
TORSDOF 1
ENDMDL
MODEL 4
REMARK VINA RESULT:      -4.5      1.875      2.566
REMARK  1 active torsions:
REMARK  status: ('A' for Active; 'I' for Inactive)
REMARK    1  A    between atoms: C2_2  and  C7_7 
ROOT
HETATM    1  C1  UNL     1     -34.844  16.102  -4.700  1.00 20.00     0.141 C 
HETATM    2  C3  UNL     1     -33.334  16.093  -4.578  1.00 20.00     0.079 C 
HETATM    3  C4  UNL     1     -32.874  15.054  -3.568  1.00 20.00     0.007 C 
HETATM    4  C5  UNL     1     -33.448  13.676  -3.877  1.00 20.00     0.002 C 
HETATM    5  C6  UNL     1     -34.975  13.719  -3.912  1.00 20.00     0.024 C 
HETATM    6  C7  UNL     1     -35.540  14.753  -4.904  1.00 20.00     0.070 C 
HETATM    7  C8  UNL     1     -35.347  14.316  -6.360  1.00 20.00     0.031 C 
HETATM    8  O9  UNL     1     -35.463  17.166  -4.723  1.00 20.00    -0.297 OA
ENDROOT
BRANCH   6   9
HETATM    9  C2  UNL     1     -37.022  14.841  -4.637  1.00 20.00     0.248 C 
HETATM   10  O10 UNL     1     -37.596  14.169  -3.786  1.00 20.00    -0.306 OA
ENDBRANCH   6   9
TORSDOF 1
ENDMDL
MODEL 5
REMARK VINA RESULT:      -4.4      1.819      3.469
REMARK  1 active torsions:
REMARK  status: ('A' for Active; 'I' for Inactive)
REMARK    1  A    between atoms: C2_2  and  C7_7 
ROOT
HETATM    1  C1  UNL     1     -35.500  15.612  -4.182  1.00 20.00     0.141 C 
HETATM    2  C3  UNL     1     -35.785  14.125  -4.177  1.00 20.00     0.079 C 
HETATM    3  C4  UNL     1     -34.547  13.330  -4.560  1.00 20.00     0.007 C 
HETATM    4  C5  UNL     1     -33.349  13.703  -3.694  1.00 20.00     0.002 C 
HETATM    5  C6  UNL     1     -33.052  15.198  -3.792  1.00 20.00     0.024 C 
HETATM    6  C7  UNL     1     -34.253  16.091  -3.431  1.00 20.00     0.070 C 
HETATM    7  C8  UNL     1     -34.550  16.073  -1.928  1.00 20.00     0.031 C 
HETATM    8  O9  UNL     1     -36.295  16.400  -4.696  1.00 20.00    -0.297 OA
ENDROOT
BRANCH   6   9
HETATM    9  C2  UNL     1     -33.874  17.500  -3.814  1.00 20.00     0.248 C 
HETATM   10  O10 UNL     1     -33.325  17.787  -4.873  1.00 20.00    -0.306 OA
ENDBRANCH   6   9
TORSDOF 1
ENDMDL
MODEL 6
REMARK VINA RESULT:      -4.3      1.860      3.040
REMARK  1 active torsions:
REMARK  status: ('A' for Active; 'I' for Inactive)
REMARK    1  A    between atoms: C2_2  and  C7_7 
ROOT
HETATM    1  C1  UNL     1     -33.772  15.958  -5.306  1.00 20.00     0.141 C 
HETATM    2  C3  UNL     1     -34.276  16.504  -6.625  1.00 20.00     0.079 C 
HETATM    3  C4  UNL     1     -34.592  15.379  -7.597  1.00 20.00     0.007 C 
HETATM    4  C5  UNL     1     -35.541  14.356  -6.983  1.00 20.00     0.002 C 
HETATM    5  C6  UNL     1     -34.956  13.775  -5.696  1.00 20.00     0.024 C 
HETATM    6  C7  UNL     1     -34.592  14.843  -4.648  1.00 20.00     0.070 C 
HETATM    7  C8  UNL     1     -35.837  15.463  -4.006  1.00 20.00     0.031 C 
HETATM    8  O9  UNL     1     -32.794  16.462  -4.753  1.00 20.00    -0.297 OA
ENDROOT
BRANCH   6   9
HETATM    9  C2  UNL     1     -33.812  14.137  -3.567  1.00 20.00     0.248 C 
HETATM   10  O10 UNL     1     -33.208  13.085  -3.747  1.00 20.00    -0.306 OA
ENDBRANCH   6   9
TORSDOF 1
ENDMDL
MODEL 7
REMARK VINA RESULT:      -4.2      1.626      2.469
REMARK  1 active torsions:
REMARK  status: ('A' for Active; 'I' for Inactive)
REMARK    1  A    between atoms: C2_2  and  C7_7 
ROOT
HETATM    1  C1  UNL     1     -33.515  15.659  -4.237  1.00 20.00     0.141 C 
HETATM    2  C3  UNL     1     -33.483  17.160  -4.434  1.00 20.00     0.079 C 
HETATM    3  C4  UNL     1     -33.663  17.523  -5.899  1.00 20.00     0.007 C 
HETATM    4  C5  UNL     1     -34.913  16.878  -6.488  1.00 20.00     0.002 C 
HETATM    5  C6  UNL     1     -34.864  15.358  -6.337  1.00 20.00     0.024 C 
HETATM    6  C7  UNL     1     -34.673  14.890  -4.882  1.00 20.00     0.070 C 
HETATM    7  C8  UNL     1     -35.934  15.106  -4.039  1.00 20.00     0.031 C 
HETATM    8  O9  UNL     1     -32.688  15.105  -3.511  1.00 20.00    -0.297 OA
ENDROOT
BRANCH   6   9
HETATM    9  C2  UNL     1     -34.399  13.408  -4.939  1.00 20.00     0.248 C 
HETATM   10  O10 UNL     1     -35.064  12.574  -4.333  1.00 20.00    -0.306 OA
ENDBRANCH   6   9
TORSDOF 1
ENDMDL
MODEL 8
REMARK VINA RESULT:      -4.2      1.500      2.459
REMARK  1 active torsions:
REMARK  status: ('A' for Active; 'I' for Inactive)
REMARK    1  A    between atoms: C2_2  and  C7_7 
ROOT
HETATM    1  C1  UNL     1     -34.030  16.115  -4.770  1.00 20.00     0.141 C 
HETATM    2  C3  UNL     1     -35.281  16.786  -5.297  1.00 20.00     0.079 C 
HETATM    3  C4  UNL     1     -36.335  15.757  -5.674  1.00 20.00     0.007 C 
HETATM    4  C5  UNL     1     -36.621  14.798  -4.523  1.00 20.00     0.002 C 
HETATM    5  C6  UNL     1     -35.344  14.088  -4.077  1.00 20.00     0.024 C 
HETATM    6  C7  UNL     1     -34.208  15.050  -3.684  1.00 20.00     0.070 C 
HETATM    7  C8  UNL     1     -34.488  15.752  -2.351  1.00 20.00     0.031 C 
HETATM    8  O9  UNL     1     -32.917  16.486  -5.145  1.00 20.00    -0.297 OA
ENDROOT
BRANCH   6   9
HETATM    9  C2  UNL     1     -32.968  14.208  -3.515  1.00 20.00     0.248 C 
HETATM   10  O10 UNL     1     -32.930  13.006  -3.758  1.00 20.00    -0.306 OA
ENDBRANCH   6   9
TORSDOF 1
ENDMDL
MODEL 9
REMARK VINA RESULT:      -4.1      2.196      3.450
REMARK  1 active torsions:
REMARK  status: ('A' for Active; 'I' for Inactive)
REMARK    1  A    between atoms: C2_2  and  C7_7 
ROOT
HETATM    1  C1  UNL     1     -33.514  14.836  -3.818  1.00 20.00     0.141 C 
HETATM    2  C3  UNL     1     -34.139  13.884  -4.818  1.00 20.00     0.079 C 
HETATM    3  C4  UNL     1     -35.502  13.410  -4.341  1.00 20.00     0.007 C 
HETATM    4  C5  UNL     1     -36.415  14.580  -3.993  1.00 20.00     0.002 C 
HETATM    5  C6  UNL     1     -35.777  15.468  -2.925  1.00 20.00     0.024 C 
HETATM    6  C7  UNL     1     -34.382  15.993  -3.313  1.00 20.00     0.070 C 
HETATM    7  C8  UNL     1     -34.456  17.064  -4.406  1.00 20.00     0.031 C 
HETATM    8  O9  UNL     1     -32.329  14.724  -3.505  1.00 20.00    -0.297 OA
ENDROOT
BRANCH   6   9
HETATM    9  C2  UNL     1     -33.802  16.630  -2.075  1.00 20.00     0.248 C 
HETATM   10  O10 UNL     1     -34.333  16.566  -0.971  1.00 20.00    -0.306 OA
ENDBRANCH   6   9
TORSDOF 1
ENDMDL
