MODEL 1
REMARK VINA RESULT:      -3.3      0.000      0.000
REMARK  2 active torsions:
REMARK  status: ('A' for Active; 'I' for Inactive)
REMARK    1  A    between atoms: C1_1  and  C4_4 
REMARK    2  A    between atoms: C4_4  and  N5_5 
ROOT
HETATM    1  C4  UNL     1     -33.944   6.702   3.881  1.00 20.00     0.367 C 
ENDROOT
BRANCH   1   2
HETATM    2  C1  UNL     1     -32.608   6.604   3.174  1.00 20.00     0.247 C 
HETATM    3  O6  UNL     1     -31.901   5.602   3.194  1.00 20.00    -0.278 OA
HETATM    4 CL7  UNL     1     -32.225   8.089   2.342  1.00 20.00    -0.042 Cl
ENDBRANCH   1   2
BRANCH   1   5
HETATM    5  N5  UNL     1     -34.024   5.660   4.904  1.00 20.00     0.088 N 
HETATM    6  C2  UNL     1     -35.163   4.780   4.650  1.00 20.00     0.310 C 
HETATM    7  C3  UNL     1     -34.126   6.257   6.236  1.00 20.00     0.310 C 
ENDBRANCH   1   5
TORSDOF 2
ENDMDL
MODEL 2
REMARK VINA RESULT:      -3.2     11.116     11.713
REMARK  2 active torsions:
REMARK  status: ('A' for Active; 'I' for Inactive)
REMARK    1  A    between atoms: C1_1  and  C4_4 
REMARK    2  A    between atoms: C4_4  and  N5_5 
ROOT
HETATM    1  C4  UNL     1     -35.110  14.967  -3.437  1.00 20.00     0.367 C 
ENDROOT
BRANCH   1   2
HETATM    2  C1  UNL     1     -34.468  13.654  -3.834  1.00 20.00     0.247 C 
HETATM    3  O6  UNL     1     -35.088  12.714  -4.321  1.00 20.00    -0.278 OA
HETATM    4 CL7  UNL     1     -32.754  13.668  -3.508  1.00 20.00    -0.042 Cl
ENDBRANCH   1   2
BRANCH   1   5
HETATM    5  N5  UNL     1     -34.090  15.851  -2.874  1.00 20.00     0.088 N 
HETATM    6  C2  UNL     1     -34.503  16.339  -1.560  1.00 20.00     0.310 C 
HETATM    7  C3  UNL     1     -33.830  16.972  -3.777  1.00 20.00     0.310 C 
ENDBRANCH   1   5
TORSDOF 2
ENDMDL
MODEL 3
REMARK VINA RESULT:      -3.2     11.568     12.100
REMARK  2 active torsions:
REMARK  status: ('A' for Active; 'I' for Inactive)
REMARK    1  A    between atoms: C1_1  and  C4_4 
REMARK    2  A    between atoms: C4_4  and  N5_5 
ROOT
HETATM    1  C4  UNL     1     -33.766  14.356  -3.694  1.00 20.00     0.367 C 
ENDROOT
BRANCH   1   2
HETATM    2  C1  UNL     1     -34.954  13.580  -4.223  1.00 20.00     0.247 C 
HETATM    3  O6  UNL     1     -34.861  12.496  -4.789  1.00 20.00    -0.278 OA
HETATM    4 CL7  UNL     1     -36.447  14.431  -3.919  1.00 20.00    -0.042 Cl
ENDBRANCH   1   2
BRANCH   1   5
HETATM    5  N5  UNL     1     -34.075  15.786  -3.720  1.00 20.00     0.088 N 
HETATM    6  C2  UNL     1     -33.290  16.460  -4.753  1.00 20.00     0.310 C 
HETATM    7  C3  UNL     1     -33.821  16.388  -2.411  1.00 20.00     0.310 C 
ENDBRANCH   1   5
TORSDOF 2
ENDMDL
MODEL 4
REMARK VINA RESULT:      -3.1     11.740     11.927
REMARK  2 active torsions:
REMARK  status: ('A' for Active; 'I' for Inactive)
REMARK    1  A    between atoms: C1_1  and  C4_4 
REMARK    2  A    between atoms: C4_4  and  N5_5 
ROOT
HETATM    1  C4  UNL     1     -35.509  14.914  -3.821  1.00 20.00     0.367 C 
ENDROOT
BRANCH   1   2
HETATM    2  C1  UNL     1     -35.203  13.745  -4.734  1.00 20.00     0.247 C 
HETATM    3  O6  UNL     1     -35.014  12.601  -4.333  1.00 20.00    -0.278 OA
HETATM    4 CL7  UNL     1     -35.158  14.246  -6.404  1.00 20.00    -0.042 Cl
ENDBRANCH   1   2
BRANCH   1   5
HETATM    5  N5  UNL     1     -34.378  15.128  -2.918  1.00 20.00     0.088 N 
HETATM    6  C2  UNL     1     -34.715  16.125  -1.903  1.00 20.00     0.310 C 
HETATM    7  C3  UNL     1     -33.194  15.543  -3.670  1.00 20.00     0.310 C 
ENDBRANCH   1   5
TORSDOF 2
ENDMDL
MODEL 5
REMARK VINA RESULT:      -3.0     12.237     13.069
REMARK  2 active torsions:
REMARK  status: ('A' for Active; 'I' for Inactive)
REMARK    1  A    between atoms: C1_1  and  C4_4 
REMARK    2  A    between atoms: C4_4  and  N5_5 
ROOT
HETATM    1  C4  UNL     1     -35.740  14.626  -5.435  1.00 20.00     0.367 C 
ENDROOT
BRANCH   1   2
HETATM    2  C1  UNL     1     -35.099  13.823  -4.322  1.00 20.00     0.247 C 
HETATM    3  O6  UNL     1     -35.019  12.599  -4.327  1.00 20.00    -0.278 OA
HETATM    4 CL7  UNL     1     -34.503  14.865  -3.057  1.00 20.00    -0.042 Cl
ENDBRANCH   1   2
BRANCH   1   5
HETATM    5  N5  UNL     1     -34.845  14.643  -6.592  1.00 20.00     0.088 N 
HETATM    6  C2  UNL     1     -34.091  15.894  -6.637  1.00 20.00     0.310 C 
HETATM    7  C3  UNL     1     -35.605  14.458  -7.828  1.00 20.00     0.310 C 
ENDBRANCH   1   5
TORSDOF 2
ENDMDL
MODEL 6
REMARK VINA RESULT:      -3.0     11.372     11.763
REMARK  2 active torsions:
REMARK  status: ('A' for Active; 'I' for Inactive)
REMARK    1  A    between atoms: C1_1  and  C4_4 
REMARK    2  A    between atoms: C4_4  and  N5_5 
ROOT
HETATM    1  C4  UNL     1     -35.244  14.869  -4.584  1.00 20.00     0.367 C 
ENDROOT
BRANCH   1   2
HETATM    2  C1  UNL     1     -34.473  13.576  -4.420  1.00 20.00     0.247 C 
HETATM    3  O6  UNL     1     -34.885  12.485  -4.804  1.00 20.00    -0.278 OA
HETATM    4 CL7  UNL     1     -32.945  13.850  -3.626  1.00 20.00    -0.042 Cl
ENDBRANCH   1   2
BRANCH   1   5
HETATM    5  N5  UNL     1     -36.114  15.059  -3.423  1.00 20.00     0.088 N 
HETATM    6  C2  UNL     1     -37.516  14.884  -3.800  1.00 20.00     0.310 C 
HETATM    7  C3  UNL     1     -35.903  16.384  -2.839  1.00 20.00     0.310 C 
ENDBRANCH   1   5
TORSDOF 2
ENDMDL
MODEL 7
REMARK VINA RESULT:      -3.0      2.883      3.666
REMARK  2 active torsions:
REMARK  status: ('A' for Active; 'I' for Inactive)
REMARK    1  A    between atoms: C1_1  and  C4_4 
REMARK    2  A    between atoms: C4_4  and  N5_5 
ROOT
HETATM    1  C4  UNL     1     -34.346   6.524   4.393  1.00 20.00     0.367 C 
ENDROOT
BRANCH   1   2
HETATM    2  C1  UNL     1     -34.221   6.102   5.842  1.00 20.00     0.247 C 
HETATM    3  O6  UNL     1     -33.701   6.796   6.710  1.00 20.00    -0.278 OA
HETATM    4 CL7  UNL     1     -34.906   4.518   6.098  1.00 20.00    -0.042 Cl
ENDBRANCH   1   2
BRANCH   1   5
HETATM    5  N5  UNL     1     -33.280   5.893   3.615  1.00 20.00     0.088 N 
HETATM    6  C2  UNL     1     -32.300   6.890   3.188  1.00 20.00     0.310 C 
HETATM    7  C3  UNL     1     -33.837   5.195   2.456  1.00 20.00     0.310 C 
ENDBRANCH   1   5
TORSDOF 2
ENDMDL
MODEL 8
REMARK VINA RESULT:      -3.0      1.384      1.910
REMARK  2 active torsions:
REMARK  status: ('A' for Active; 'I' for Inactive)
REMARK    1  A    between atoms: C1_1  and  C4_4 
REMARK    2  A    between atoms: C4_4  and  N5_5 
ROOT
HETATM    1  C4  UNL     1     -32.609   6.132   3.386  1.00 20.00     0.367 C 
ENDROOT
BRANCH   1   2
HETATM    2  C1  UNL     1     -31.833   7.430   3.305  1.00 20.00     0.247 C 
HETATM    3  O6  UNL     1     -31.062   7.816   4.177  1.00 20.00    -0.278 OA
HETATM    4 CL7  UNL     1     -32.185   8.282   1.825  1.00 20.00    -0.042 Cl
ENDBRANCH   1   2
BRANCH   1   5
HETATM    5  N5  UNL     1     -33.917   6.390   3.987  1.00 20.00     0.088 N 
HETATM    6  C2  UNL     1     -33.829   6.344   5.445  1.00 20.00     0.310 C 
HETATM    7  C3  UNL     1     -34.902   5.423   3.503  1.00 20.00     0.310 C 
ENDBRANCH   1   5
TORSDOF 2
ENDMDL
MODEL 9
REMARK VINA RESULT:      -2.9     11.258     11.915
REMARK  2 active torsions:
REMARK  status: ('A' for Active; 'I' for Inactive)
REMARK    1  A    between atoms: C1_1  and  C4_4 
REMARK    2  A    between atoms: C4_4  and  N5_5 
ROOT
HETATM    1  C4  UNL     1     -35.471  13.536  -4.281  1.00 20.00     0.367 C 
ENDROOT
BRANCH   1   2
HETATM    2  C1  UNL     1     -34.150  13.864  -3.617  1.00 20.00     0.247 C 
HETATM    3  O6  UNL     1     -33.152  13.156  -3.704  1.00 20.00    -0.278 OA
HETATM    4 CL7  UNL     1     -34.246  15.362  -2.728  1.00 20.00    -0.042 Cl
ENDBRANCH   1   2
BRANCH   1   5
HETATM    5  N5  UNL     1     -36.194  14.779  -4.552  1.00 20.00     0.088 N 
HETATM    6  C2  UNL     1     -37.559  14.701  -4.032  1.00 20.00     0.310 C 
HETATM    7  C3  UNL     1     -36.209  15.059  -5.987  1.00 20.00     0.310 C 
ENDBRANCH   1   5
TORSDOF 2
ENDMDL
