MODEL 1
REMARK VINA RESULT:      -3.9      0.000      0.000
REMARK  0 active torsions:
REMARK  status: ('A' for Active; 'I' for Inactive)
ROOT
HETATM    1  C1  UNL     1     -33.231  14.443  -3.646  1.00 20.00     0.092 C 
HETATM    2  C2  UNL     1     -35.659  14.453  -4.986  1.00 20.00     0.023 C 
HETATM    3  C3  UNL     1     -35.466  15.564  -3.967  1.00 20.00     0.016 C 
HETATM    4  C4  UNL     1     -35.078  13.165  -4.432  1.00 20.00     0.148 C 
HETATM    5  C5  UNL     1     -33.976  15.766  -3.663  1.00 20.00    -0.014 C 
HETATM    6  C6  UNL     1     -33.808  16.436  -2.294  1.00 20.00     0.020 C 
HETATM    7  C7  UNL     1     -33.313  16.642  -4.738  1.00 20.00     0.020 C 
HETATM    8  N8  UNL     1     -33.688  13.294  -4.002  1.00 20.00    -0.305 NA
ENDROOT
TORSDOF 0
ENDMDL
MODEL 2
REMARK VINA RESULT:      -3.8      1.286      2.245
REMARK  0 active torsions:
REMARK  status: ('A' for Active; 'I' for Inactive)
ROOT
HETATM    1  C1  UNL     1     -35.901  15.161  -3.617  1.00 20.00     0.092 C 
HETATM    2  C2  UNL     1     -33.487  13.802  -3.739  1.00 20.00     0.023 C 
HETATM    3  C3  UNL     1     -33.397  15.314  -3.862  1.00 20.00     0.016 C 
HETATM    4  C4  UNL     1     -34.699  13.313  -4.511  1.00 20.00     0.148 C 
HETATM    5  C5  UNL     1     -34.661  15.978  -3.300  1.00 20.00    -0.014 C 
HETATM    6  C6  UNL     1     -34.831  17.376  -3.909  1.00 20.00     0.020 C 
HETATM    7  C7  UNL     1     -34.581  16.101  -1.770  1.00 20.00     0.020 C 
HETATM    8  N8  UNL     1     -35.940  13.980  -4.125  1.00 20.00    -0.305 NA
ENDROOT
TORSDOF 0
ENDMDL
MODEL 3
REMARK VINA RESULT:      -3.8      1.383      2.926
REMARK  0 active torsions:
REMARK  status: ('A' for Active; 'I' for Inactive)
ROOT
HETATM    1  C1  UNL     1     -35.009  13.482  -5.469  1.00 20.00     0.092 C 
HETATM    2  C2  UNL     1     -33.699  15.194  -3.725  1.00 20.00     0.023 C 
HETATM    3  C3  UNL     1     -33.784  15.665  -5.167  1.00 20.00     0.016 C 
HETATM    4  C4  UNL     1     -33.427  13.701  -3.704  1.00 20.00     0.148 C 
HETATM    5  C5  UNL     1     -34.910  14.932  -5.909  1.00 20.00    -0.014 C 
HETATM    6  C6  UNL     1     -34.647  14.964  -7.420  1.00 20.00     0.020 C 
HETATM    7  C7  UNL     1     -36.271  15.584  -5.620  1.00 20.00     0.020 C 
HETATM    8  N8  UNL     1     -34.386  12.927  -4.489  1.00 20.00    -0.305 NA
ENDROOT
TORSDOF 0
ENDMDL
MODEL 4
REMARK VINA RESULT:      -3.8      1.283      1.608
REMARK  0 active torsions:
REMARK  status: ('A' for Active; 'I' for Inactive)
ROOT
HETATM    1  C1  UNL     1     -34.451  13.604  -3.838  1.00 20.00     0.092 C 
HETATM    2  C2  UNL     1     -34.288  15.058  -6.195  1.00 20.00     0.023 C 
HETATM    3  C3  UNL     1     -34.342  15.880  -4.918  1.00 20.00     0.016 C 
HETATM    4  C4  UNL     1     -35.237  13.880  -6.067  1.00 20.00     0.148 C 
HETATM    5  C5  UNL     1     -33.937  15.027  -3.708  1.00 20.00    -0.014 C 
HETATM    6  C6  UNL     1     -34.513  15.636  -2.423  1.00 20.00     0.020 C 
HETATM    7  C7  UNL     1     -32.407  14.943  -3.585  1.00 20.00     0.020 C 
HETATM    8  N8  UNL     1     -35.003  13.074  -4.872  1.00 20.00    -0.305 NA
ENDROOT
TORSDOF 0
ENDMDL
MODEL 5
REMARK VINA RESULT:      -3.8     12.196     13.287
REMARK  0 active torsions:
REMARK  status: ('A' for Active; 'I' for Inactive)
ROOT
HETATM    1  C1  UNL     1     -35.038   4.144   4.514  1.00 20.00     0.092 C 
HETATM    2  C2  UNL     1     -34.326   6.228   6.199  1.00 20.00     0.023 C 
HETATM    3  C3  UNL     1     -33.856   6.357   4.760  1.00 20.00     0.016 C 
HETATM    4  C4  UNL     1     -34.182   4.783   6.641  1.00 20.00     0.148 C 
HETATM    5  C5  UNL     1     -34.688   5.458   3.837  1.00 20.00    -0.014 C 
HETATM    6  C6  UNL     1     -33.900   5.150   2.557  1.00 20.00     0.020 C 
HETATM    7  C7  UNL     1     -36.015   6.138   3.461  1.00 20.00     0.020 C 
HETATM    8  N8  UNL     1     -34.847   3.836   5.748  1.00 20.00    -0.305 NA
ENDROOT
TORSDOF 0
ENDMDL
MODEL 6
REMARK VINA RESULT:      -3.7     11.783     12.708
REMARK  0 active torsions:
REMARK  status: ('A' for Active; 'I' for Inactive)
ROOT
HETATM    1  C1  UNL     1     -33.633   6.549   5.457  1.00 20.00     0.092 C 
HETATM    2  C2  UNL     1     -34.966   4.228   4.731  1.00 20.00     0.023 C 
HETATM    3  C3  UNL     1     -34.968   5.338   3.694  1.00 20.00     0.016 C 
HETATM    4  C4  UNL     1     -35.150   4.836   6.110  1.00 20.00     0.148 C 
HETATM    5  C5  UNL     1     -33.833   6.335   3.967  1.00 20.00    -0.014 C 
HETATM    6  C6  UNL     1     -34.160   7.687   3.321  1.00 20.00     0.020 C 
HETATM    7  C7  UNL     1     -32.501   5.816   3.403  1.00 20.00     0.020 C 
HETATM    8  N8  UNL     1     -34.181   5.886   6.413  1.00 20.00    -0.305 NA
ENDROOT
TORSDOF 0
ENDMDL
MODEL 7
REMARK VINA RESULT:      -3.6     11.118     12.105
REMARK  0 active torsions:
REMARK  status: ('A' for Active; 'I' for Inactive)
ROOT
HETATM    1  C1  UNL     1     -42.645   5.474  -2.178  1.00 20.00     0.092 C 
HETATM    2  C2  UNL     1     -40.684   5.903  -0.265  1.00 20.00     0.023 C 
HETATM    3  C3  UNL     1     -40.933   7.057  -1.221  1.00 20.00     0.016 C 
HETATM    4  C4  UNL     1     -40.751   4.597  -1.035  1.00 20.00     0.148 C 
HETATM    5  C5  UNL     1     -42.312   6.926  -1.881  1.00 20.00    -0.014 C 
HETATM    6  C6  UNL     1     -42.337   7.710  -3.199  1.00 20.00     0.020 C 
HETATM    7  C7  UNL     1     -43.415   7.461  -0.954  1.00 20.00     0.020 C 
HETATM    8  N8  UNL     1     -41.988   4.436  -1.796  1.00 20.00    -0.305 NA
ENDROOT
TORSDOF 0
ENDMDL
MODEL 8
REMARK VINA RESULT:      -3.6      1.613      3.167
REMARK  0 active torsions:
REMARK  status: ('A' for Active; 'I' for Inactive)
ROOT
HETATM    1  C1  UNL     1     -33.496  15.904  -4.727  1.00 20.00     0.092 C 
HETATM    2  C2  UNL     1     -34.402  16.228  -2.126  1.00 20.00     0.023 C 
HETATM    3  C3  UNL     1     -35.129  15.178  -2.950  1.00 20.00     0.016 C 
HETATM    4  C4  UNL     1     -34.104  17.429  -3.005  1.00 20.00     0.148 C 
HETATM    5  C5  UNL     1     -34.271  14.737  -4.143  1.00 20.00    -0.014 C 
HETATM    6  C6  UNL     1     -35.167  14.149  -5.241  1.00 20.00     0.020 C 
HETATM    7  C7  UNL     1     -33.240  13.680  -3.714  1.00 20.00     0.020 C 
HETATM    8  N8  UNL     1     -33.389  17.086  -4.232  1.00 20.00    -0.305 NA
ENDROOT
TORSDOF 0
ENDMDL
MODEL 9
REMARK VINA RESULT:      -3.6      1.630      2.866
REMARK  0 active torsions:
REMARK  status: ('A' for Active; 'I' for Inactive)
ROOT
HETATM    1  C1  UNL     1     -33.903  16.149  -5.417  1.00 20.00     0.092 C 
HETATM    2  C2  UNL     1     -33.605  13.832  -3.922  1.00 20.00     0.023 C 
HETATM    3  C3  UNL     1     -35.037  14.235  -4.231  1.00 20.00     0.016 C 
HETATM    4  C4  UNL     1     -32.797  15.077  -3.603  1.00 20.00     0.148 C 
HETATM    5  C5  UNL     1     -35.082  15.192  -5.429  1.00 20.00    -0.014 C 
HETATM    6  C6  UNL     1     -36.376  16.016  -5.391  1.00 20.00     0.020 C 
HETATM    7  C7  UNL     1     -35.018  14.415  -6.754  1.00 20.00     0.020 C 
HETATM    8  N8  UNL     1     -32.878  16.102  -4.641  1.00 20.00    -0.305 NA
ENDROOT
TORSDOF 0
ENDMDL
