MODEL 1
REMARK VINA RESULT:      -3.3      0.000      0.000
REMARK  2 active torsions:
REMARK  status: ('A' for Active; 'I' for Inactive)
REMARK    1  A    between atoms: C4_4  and  O6_6 
REMARK    2  A    between atoms: C4_4  and  O7_7 
ROOT
HETATM    1  C1  UNL     1     -34.818   4.731   4.707  1.00 20.00     0.120 C 
HETATM    2  C4  UNL     1     -34.304   6.024   4.232  1.00 20.00     0.369 C 
HETATM    3  N5  UNL     1     -35.225   3.711   5.081  1.00 20.00    -0.192 NA
ENDROOT
BRANCH   2   4
HETATM    4  O6  UNL     1     -33.587   5.832   3.009  1.00 20.00    -0.354 OA
HETATM    5  C2  UNL     1     -32.318   6.473   3.006  1.00 20.00     0.206 C 
ENDBRANCH   2   4
BRANCH   2   6
HETATM    6  O7  UNL     1     -33.444   6.554   5.248  1.00 20.00    -0.354 OA
HETATM    7  C3  UNL     1     -34.070   6.582   6.525  1.00 20.00     0.206 C 
ENDBRANCH   2   6
TORSDOF 2
ENDMDL
MODEL 2
REMARK VINA RESULT:      -3.2     12.157     12.632
REMARK  2 active torsions:
REMARK  status: ('A' for Active; 'I' for Inactive)
REMARK    1  A    between atoms: C4_4  and  O6_6 
REMARK    2  A    between atoms: C4_4  and  O7_7 
ROOT
HETATM    1  C1  UNL     1     -35.519  13.599  -4.336  1.00 20.00     0.120 C 
HETATM    2  C4  UNL     1     -36.453  14.686  -4.011  1.00 20.00     0.369 C 
HETATM    3  N5  UNL     1     -34.780  12.742  -4.594  1.00 20.00    -0.192 NA
ENDROOT
BRANCH   2   4
HETATM    4  O6  UNL     1     -35.949  15.432  -2.898  1.00 20.00    -0.354 OA
HETATM    5  C2  UNL     1     -34.883  16.303  -3.255  1.00 20.00     0.206 C 
ENDBRANCH   2   4
BRANCH   2   6
HETATM    6  O7  UNL     1     -37.720  14.096  -3.695  1.00 20.00    -0.354 OA
HETATM    7  C3  UNL     1     -38.807  14.972  -3.967  1.00 20.00     0.206 C 
ENDBRANCH   2   6
TORSDOF 2
ENDMDL
MODEL 3
REMARK VINA RESULT:      -3.2     11.969     12.772
REMARK  2 active torsions:
REMARK  status: ('A' for Active; 'I' for Inactive)
REMARK    1  A    between atoms: C4_4  and  O6_6 
REMARK    2  A    between atoms: C4_4  and  O7_7 
ROOT
HETATM    1  C1  UNL     1     -35.984  13.836  -4.301  1.00 20.00     0.120 C 
HETATM    2  C4  UNL     1     -34.755  13.372  -4.960  1.00 20.00     0.369 C 
HETATM    3  N5  UNL     1     -36.955  14.201  -3.781  1.00 20.00    -0.192 NA
ENDROOT
BRANCH   2   4
HETATM    4  O6  UNL     1     -33.714  13.238  -3.988  1.00 20.00    -0.354 OA
HETATM    5  C2  UNL     1     -33.085  14.474  -3.677  1.00 20.00     0.206 C 
ENDBRANCH   2   4
BRANCH   2   6
HETATM    6  O7  UNL     1     -34.399  14.338  -5.956  1.00 20.00    -0.354 OA
HETATM    7  C3  UNL     1     -35.325  14.367  -7.036  1.00 20.00     0.206 C 
ENDBRANCH   2   6
TORSDOF 2
ENDMDL
MODEL 4
REMARK VINA RESULT:      -3.2     11.979     12.613
REMARK  2 active torsions:
REMARK  status: ('A' for Active; 'I' for Inactive)
REMARK    1  A    between atoms: C4_4  and  O6_6 
REMARK    2  A    between atoms: C4_4  and  O7_7 
ROOT
HETATM    1  C1  UNL     1     -34.438  13.750  -3.826  1.00 20.00     0.120 C 
HETATM    2  C4  UNL     1     -33.801  14.890  -3.152  1.00 20.00     0.369 C 
HETATM    3  N5  UNL     1     -34.942  12.849  -4.357  1.00 20.00    -0.192 NA
ENDROOT
BRANCH   2   4
HETATM    4  O6  UNL     1     -34.793  15.870  -2.830  1.00 20.00    -0.354 OA
HETATM    5  C2  UNL     1     -34.689  16.343  -1.494  1.00 20.00     0.206 C 
ENDBRANCH   2   4
BRANCH   2   6
HETATM    6  O7  UNL     1     -32.819  15.434  -4.043  1.00 20.00    -0.354 OA
HETATM    7  C3  UNL     1     -33.387  16.333  -4.988  1.00 20.00     0.206 C 
ENDBRANCH   2   6
TORSDOF 2
ENDMDL
MODEL 5
REMARK VINA RESULT:      -3.2     12.284     13.102
REMARK  2 active torsions:
REMARK  status: ('A' for Active; 'I' for Inactive)
REMARK    1  A    between atoms: C4_4  and  O6_6 
REMARK    2  A    between atoms: C4_4  and  O7_7 
ROOT
HETATM    1  C1  UNL     1     -35.537  13.615  -4.288  1.00 20.00     0.120 C 
HETATM    2  C4  UNL     1     -36.478  14.669  -3.881  1.00 20.00     0.369 C 
HETATM    3  N5  UNL     1     -34.794  12.783  -4.608  1.00 20.00    -0.192 NA
ENDROOT
BRANCH   2   4
HETATM    4  O6  UNL     1     -37.784  14.106  -3.721  1.00 20.00    -0.354 OA
HETATM    5  C2  UNL     1     -38.822  15.064  -3.879  1.00 20.00     0.206 C 
ENDBRANCH   2   4
BRANCH   2   6
HETATM    6  O7  UNL     1     -36.480  15.674  -4.902  1.00 20.00    -0.354 OA
HETATM    7  C3  UNL     1     -35.285  16.445  -4.902  1.00 20.00     0.206 C 
ENDBRANCH   2   6
TORSDOF 2
ENDMDL
MODEL 6
REMARK VINA RESULT:      -3.1      1.773      2.931
REMARK  2 active torsions:
REMARK  status: ('A' for Active; 'I' for Inactive)
REMARK    1  A    between atoms: C4_4  and  O6_6 
REMARK    2  A    between atoms: C4_4  and  O7_7 
ROOT
HETATM    1  C1  UNL     1     -34.020   6.465   5.534  1.00 20.00     0.120 C 
HETATM    2  C4  UNL     1     -34.392   6.025   4.181  1.00 20.00     0.369 C 
HETATM    3  N5  UNL     1     -33.729   6.814   6.602  1.00 20.00    -0.192 NA
ENDROOT
BRANCH   2   4
HETATM    4  O6  UNL     1     -35.299   4.922   4.271  1.00 20.00    -0.354 OA
HETATM    5  C2  UNL     1     -34.957   4.009   5.305  1.00 20.00     0.206 C 
ENDBRANCH   2   4
BRANCH   2   6
HETATM    6  O7  UNL     1     -33.191   5.643   3.500  1.00 20.00    -0.354 OA
HETATM    7  C3  UNL     1     -32.358   6.758   3.206  1.00 20.00     0.206 C 
ENDBRANCH   2   6
TORSDOF 2
ENDMDL
MODEL 7
REMARK VINA RESULT:      -3.1     12.439     12.725
REMARK  2 active torsions:
REMARK  status: ('A' for Active; 'I' for Inactive)
REMARK    1  A    between atoms: C4_4  and  O6_6 
REMARK    2  A    between atoms: C4_4  and  O7_7 
ROOT
HETATM    1  C1  UNL     1     -33.220  15.740  -4.358  1.00 20.00     0.120 C 
HETATM    2  C4  UNL     1     -33.518  14.695  -3.367  1.00 20.00     0.369 C 
HETATM    3  N5  UNL     1     -32.982  16.563  -5.140  1.00 20.00    -0.192 NA
ENDROOT
BRANCH   2   4
HETATM    4  O6  UNL     1     -33.550  13.419  -4.013  1.00 20.00    -0.354 OA
HETATM    5  C2  UNL     1     -34.706  13.238  -4.821  1.00 20.00     0.206 C 
ENDBRANCH   2   4
BRANCH   2   6
HETATM    6  O7  UNL     1     -34.788  14.999  -2.778  1.00 20.00    -0.354 OA
HETATM    7  C3  UNL     1     -34.723  16.115  -1.899  1.00 20.00     0.206 C 
ENDBRANCH   2   6
TORSDOF 2
ENDMDL
MODEL 8
REMARK VINA RESULT:      -3.1     12.149     12.672
REMARK  2 active torsions:
REMARK  status: ('A' for Active; 'I' for Inactive)
REMARK    1  A    between atoms: C4_4  and  O6_6 
REMARK    2  A    between atoms: C4_4  and  O7_7 
ROOT
HETATM    1  C1  UNL     1     -35.675  15.149  -3.202  1.00 20.00     0.120 C 
HETATM    2  C4  UNL     1     -36.422  14.329  -4.168  1.00 20.00     0.369 C 
HETATM    3  N5  UNL     1     -35.087  15.798  -2.441  1.00 20.00    -0.192 NA
ENDROOT
BRANCH   2   4
HETATM    4  O6  UNL     1     -37.759  14.135  -3.696  1.00 20.00    -0.354 OA
HETATM    5  C2  UNL     1     -38.508  15.342  -3.647  1.00 20.00     0.206 C 
ENDBRANCH   2   4
BRANCH   2   6
HETATM    6  O7  UNL     1     -35.741  13.076  -4.298  1.00 20.00    -0.354 OA
HETATM    7  C3  UNL     1     -34.445  13.221  -4.867  1.00 20.00     0.206 C 
ENDBRANCH   2   6
TORSDOF 2
ENDMDL
MODEL 9
REMARK VINA RESULT:      -3.1     11.955     12.589
REMARK  2 active torsions:
REMARK  status: ('A' for Active; 'I' for Inactive)
REMARK    1  A    between atoms: C4_4  and  O6_6 
REMARK    2  A    between atoms: C4_4  and  O7_7 
ROOT
HETATM    1  C1  UNL     1     -34.998  13.901  -4.032  1.00 20.00     0.120 C 
HETATM    2  C4  UNL     1     -35.094  15.303  -3.600  1.00 20.00     0.369 C 
HETATM    3  N5  UNL     1     -34.924  12.794  -4.373  1.00 20.00    -0.192 NA
ENDROOT
BRANCH   2   4
HETATM    4  O6  UNL     1     -34.791  16.163  -4.703  1.00 20.00    -0.354 OA
HETATM    5  C2  UNL     1     -33.398  16.243  -4.975  1.00 20.00     0.206 C 
ENDBRANCH   2   4
BRANCH   2   6
HETATM    6  O7  UNL     1     -34.161  15.498  -2.532  1.00 20.00    -0.354 OA
HETATM    7  C3  UNL     1     -34.683  16.331  -1.503  1.00 20.00     0.206 C 
ENDBRANCH   2   6
TORSDOF 2
ENDMDL
