MODEL 1
REMARK VINA RESULT:      -5.9      0.000      0.000
REMARK  1 active torsions:
REMARK  status: ('A' for Active; 'I' for Inactive)
REMARK    1  A    between atoms: C3_3  and  C6_6 
ROOT
HETATM    1  C1  UNL     1     -32.110   7.967   2.476  1.00 20.00    -0.154 C 
HETATM    2  C5  UNL     1     -32.158   8.673   1.388  1.00 20.00     0.096 C 
HETATM    3  C6  UNL     1     -32.057   7.263   3.566  1.00 20.00     0.058 C 
ENDROOT
BRANCH   3   4
HETATM    4  C3  UNL     1     -33.144   6.427   3.986  1.00 20.00    -0.041 A 
HETATM    5  C2  UNL     1     -33.651   6.344   5.224  1.00 20.00    -0.009 A 
HETATM    6  C4  UNL     1     -34.743   5.354   5.136  1.00 20.00     0.156 A 
HETATM    7  C9  UNL     1     -33.305   7.024   6.495  1.00 20.00     0.052 C 
HETATM    8  C8  UNL     1     -34.895   4.809   3.746  1.00 20.00     0.088 A 
HETATM    9  O10 UNL     1     -35.436   5.024   6.088  1.00 20.00    -0.293 OA
HETATM   10  C7  UNL     1     -33.808   5.541   2.972  1.00 20.00     0.047 A 
ENDBRANCH   3   4
TORSDOF 1
ENDMDL
MODEL 2
REMARK VINA RESULT:      -5.5     10.852     11.579
REMARK  1 active torsions:
REMARK  status: ('A' for Active; 'I' for Inactive)
REMARK    1  A    between atoms: C3_3  and  C6_6 
ROOT
HETATM    1  C1  UNL     1     -34.467  16.810  -0.962  1.00 20.00    -0.154 C 
HETATM    2  C5  UNL     1     -34.900  17.167   0.209  1.00 20.00     0.096 C 
HETATM    3  C6  UNL     1     -34.029  16.458  -2.132  1.00 20.00     0.058 C 
ENDROOT
BRANCH   3   4
HETATM    4  C3  UNL     1     -34.671  15.438  -2.911  1.00 20.00    -0.041 A 
HETATM    5  C2  UNL     1     -34.085  14.360  -3.448  1.00 20.00    -0.009 A 
HETATM    6  C4  UNL     1     -35.164  13.631  -4.145  1.00 20.00     0.156 A 
HETATM    7  C9  UNL     1     -32.685  13.872  -3.436  1.00 20.00     0.052 C 
HETATM    8  C8  UNL     1     -36.486  14.327  -4.011  1.00 20.00     0.088 A 
HETATM    9  O10 UNL     1     -34.991  12.586  -4.754  1.00 20.00    -0.293 OA
HETATM   10  C7  UNL     1     -36.144  15.551  -3.174  1.00 20.00     0.047 A 
ENDBRANCH   3   4
TORSDOF 1
ENDMDL
MODEL 3
REMARK VINA RESULT:      -5.1      0.820      2.108
REMARK  1 active torsions:
REMARK  status: ('A' for Active; 'I' for Inactive)
REMARK    1  A    between atoms: C3_3  and  C6_6 
ROOT
HETATM    1  C1  UNL     1     -32.150   8.166   2.320  1.00 20.00    -0.154 C 
HETATM    2  C5  UNL     1     -32.371   9.182   1.543  1.00 20.00     0.096 C 
HETATM    3  C6  UNL     1     -31.921   7.150   3.095  1.00 20.00     0.058 C 
ENDROOT
BRANCH   3   4
HETATM    4  C3  UNL     1     -32.943   6.582   3.928  1.00 20.00    -0.041 A 
HETATM    5  C2  UNL     1     -33.885   5.709   3.547  1.00 20.00    -0.009 A 
HETATM    6  C4  UNL     1     -34.683   5.437   4.760  1.00 20.00     0.156 A 
HETATM    7  C9  UNL     1     -34.188   5.069   2.245  1.00 20.00     0.052 C 
HETATM    8  C8  UNL     1     -34.178   6.205   5.946  1.00 20.00     0.088 A 
HETATM    9  O10 UNL     1     -35.638   4.675   4.784  1.00 20.00    -0.293 OA
HETATM   10  C7  UNL     1     -32.999   6.979   5.374  1.00 20.00     0.047 A 
ENDBRANCH   3   4
TORSDOF 1
ENDMDL
MODEL 4
REMARK VINA RESULT:      -5.1     10.996     11.754
REMARK  1 active torsions:
REMARK  status: ('A' for Active; 'I' for Inactive)
REMARK    1  A    between atoms: C3_3  and  C6_6 
ROOT
HETATM    1  C1  UNL     1     -34.947  16.983  -1.178  1.00 20.00    -0.154 C 
HETATM    2  C5  UNL     1     -34.772  17.211   0.088  1.00 20.00     0.096 C 
HETATM    3  C6  UNL     1     -35.124  16.762  -2.445  1.00 20.00     0.058 C 
ENDROOT
BRANCH   3   4
HETATM    4  C3  UNL     1     -34.729  15.530  -3.066  1.00 20.00    -0.041 A 
HETATM    5  C2  UNL     1     -35.541  14.637  -3.647  1.00 20.00    -0.009 A 
HETATM    6  C4  UNL     1     -34.656  13.556  -4.128  1.00 20.00     0.156 A 
HETATM    7  C9  UNL     1     -37.010  14.598  -3.843  1.00 20.00     0.052 C 
HETATM    8  C8  UNL     1     -33.216  13.828  -3.808  1.00 20.00     0.088 A 
HETATM    9  O10 UNL     1     -35.059  12.563  -4.715  1.00 20.00    -0.293 OA
HETATM   10  C7  UNL     1     -33.273  15.168  -3.088  1.00 20.00     0.047 A 
ENDBRANCH   3   4
TORSDOF 1
ENDMDL
MODEL 5
REMARK VINA RESULT:      -4.9     11.299     12.630
REMARK  1 active torsions:
REMARK  status: ('A' for Active; 'I' for Inactive)
REMARK    1  A    between atoms: C3_3  and  C6_6 
ROOT
HETATM    1  C1  UNL     1     -34.095  16.408  -1.878  1.00 20.00    -0.154 C 
HETATM    2  C5  UNL     1     -34.718  16.659  -0.768  1.00 20.00     0.096 C 
HETATM    3  C6  UNL     1     -33.467  16.162  -2.987  1.00 20.00     0.058 C 
ENDROOT
BRANCH   3   4
HETATM    4  C3  UNL     1     -33.987  15.258  -3.973  1.00 20.00    -0.041 A 
HETATM    5  C2  UNL     1     -34.252  15.546  -5.254  1.00 20.00    -0.009 A 
HETATM    6  C4  UNL     1     -34.764  14.291  -5.842  1.00 20.00     0.156 A 
HETATM    7  C9  UNL     1     -34.118  16.790  -6.049  1.00 20.00     0.052 C 
HETATM    8  C8  UNL     1     -34.806  13.179  -4.836  1.00 20.00     0.088 A 
HETATM    9  O10 UNL     1     -35.109  14.182  -7.009  1.00 20.00    -0.293 OA
HETATM   10  C7  UNL     1     -34.278  13.842  -3.572  1.00 20.00     0.047 A 
ENDBRANCH   3   4
TORSDOF 1
ENDMDL
MODEL 6
REMARK VINA RESULT:      -4.7     11.540     13.000
REMARK  1 active torsions:
REMARK  status: ('A' for Active; 'I' for Inactive)
REMARK    1  A    between atoms: C3_3  and  C6_6 
ROOT
HETATM    1  C1  UNL     1     -34.038  16.117  -2.223  1.00 20.00    -0.154 C 
HETATM    2  C5  UNL     1     -34.761  16.580  -1.250  1.00 20.00     0.096 C 
HETATM    3  C6  UNL     1     -33.309  15.653  -3.192  1.00 20.00     0.058 C 
ENDROOT
BRANCH   3   4
HETATM    4  C3  UNL     1     -33.815  15.517  -4.528  1.00 20.00    -0.041 A 
HETATM    5  C2  UNL     1     -34.532  14.491  -5.006  1.00 20.00    -0.009 A 
HETATM    6  C4  UNL     1     -34.804  14.826  -6.419  1.00 20.00     0.156 A 
HETATM    7  C9  UNL     1     -35.019  13.236  -4.387  1.00 20.00     0.052 C 
HETATM    8  C8  UNL     1     -34.206  16.146  -6.807  1.00 20.00     0.088 A 
HETATM    9  O10 UNL     1     -35.443  14.107  -7.173  1.00 20.00    -0.293 OA
HETATM   10  C7  UNL     1     -33.537  16.609  -5.520  1.00 20.00     0.047 A 
ENDBRANCH   3   4
TORSDOF 1
ENDMDL
MODEL 7
REMARK VINA RESULT:      -4.5     11.654     12.860
REMARK  1 active torsions:
REMARK  status: ('A' for Active; 'I' for Inactive)
REMARK    1  A    between atoms: C3_3  and  C6_6 
ROOT
HETATM    1  C1  UNL     1     -34.329  16.785  -1.135  1.00 20.00    -0.154 C 
HETATM    2  C5  UNL     1     -33.949  17.710  -0.307  1.00 20.00     0.096 C 
HETATM    3  C6  UNL     1     -34.712  15.857  -1.958  1.00 20.00     0.058 C 
ENDROOT
BRANCH   3   4
HETATM    4  C3  UNL     1     -34.394  15.900  -3.357  1.00 20.00    -0.041 A 
HETATM    5  C2  UNL     1     -34.679  14.959  -4.266  1.00 20.00    -0.009 A 
HETATM    6  C4  UNL     1     -34.147  15.474  -5.545  1.00 20.00     0.156 A 
HETATM    7  C9  UNL     1     -35.365  13.649  -4.170  1.00 20.00     0.052 C 
HETATM    8  C8  UNL     1     -33.498  16.817  -5.381  1.00 20.00     0.088 A 
HETATM    9  O10 UNL     1     -34.230  14.870  -6.604  1.00 20.00    -0.293 OA
HETATM   10  C7  UNL     1     -33.670  17.099  -3.895  1.00 20.00     0.047 A 
ENDBRANCH   3   4
TORSDOF 1
ENDMDL
MODEL 8
REMARK VINA RESULT:      -4.4      9.296     10.916
REMARK  1 active torsions:
REMARK  status: ('A' for Active; 'I' for Inactive)
REMARK    1  A    between atoms: C3_3  and  C6_6 
ROOT
HETATM    1  C1  UNL     1     -41.840   2.754  -3.299  1.00 20.00    -0.154 C 
HETATM    2  C5  UNL     1     -41.170   1.757  -3.792  1.00 20.00     0.096 C 
HETATM    3  C6  UNL     1     -42.515   3.747  -2.808  1.00 20.00     0.058 C 
ENDROOT
BRANCH   3   4
HETATM    4  C3  UNL     1     -41.891   4.790  -2.045  1.00 20.00    -0.041 A 
HETATM    5  C2  UNL     1     -42.116   6.105  -2.162  1.00 20.00    -0.009 A 
HETATM    6  C4  UNL     1     -41.236   6.746  -1.164  1.00 20.00     0.156 A 
HETATM    7  C9  UNL     1     -43.011   6.893  -3.044  1.00 20.00     0.052 C 
HETATM    8  C8  UNL     1     -40.430   5.738  -0.399  1.00 20.00     0.088 A 
HETATM    9  O10 UNL     1     -41.178   7.954  -0.990  1.00 20.00    -0.293 OA
HETATM   10  C7  UNL     1     -40.879   4.414  -1.002  1.00 20.00     0.047 A 
ENDBRANCH   3   4
TORSDOF 1
ENDMDL
MODEL 9
REMARK VINA RESULT:      -4.4     11.641     12.479
REMARK  1 active torsions:
REMARK  status: ('A' for Active; 'I' for Inactive)
REMARK    1  A    between atoms: C3_3  and  C6_6 
ROOT
HETATM    1  C1  UNL     1     -34.753  17.344  -0.182  1.00 20.00    -0.154 C 
HETATM    2  C5  UNL     1     -34.603  16.449  -1.110  1.00 20.00     0.096 C 
HETATM    3  C6  UNL     1     -34.909  18.241   0.743  1.00 20.00     0.058 C 
ENDROOT
BRANCH   3   4
HETATM    4  C3  UNL     1     -34.007  18.356   1.853  1.00 20.00    -0.041 A 
HETATM    5  C2  UNL     1     -32.731  18.760   1.802  1.00 20.00    -0.009 A 
HETATM    6  C4  UNL     1     -32.244  18.703   3.196  1.00 20.00     0.156 A 
HETATM    7  C9  UNL     1     -31.863  19.196   0.682  1.00 20.00     0.052 C 
HETATM    8  C8  UNL     1     -33.309  18.231   4.142  1.00 20.00     0.088 A 
HETATM    9  O10 UNL     1     -31.108  19.007   3.529  1.00 20.00    -0.293 OA
HETATM   10  C7  UNL     1     -34.501  17.997   3.225  1.00 20.00     0.047 A 
ENDBRANCH   3   4
TORSDOF 1
ENDMDL
