MODEL 1
REMARK VINA RESULT:      -3.8      0.000      0.000
REMARK  2 active torsions:
REMARK  status: ('A' for Active; 'I' for Inactive)
REMARK    1  A    between atoms: C6_6  and  C7_7 
REMARK    2  A    between atoms: C7_7  and  N8_8 
ROOT
HETATM    1  C7  UNL     1     -35.093  14.211  -4.803  1.00 20.00     0.443 C 
HETATM    2  F9  UNL     1     -34.570  13.041  -5.281  1.00 20.00    -0.172 F 
HETATM    3  F10 UNL     1     -36.126  13.830  -3.996  1.00 20.00    -0.172 F 
ENDROOT
BRANCH   1   4
HETATM    4  C6  UNL     1     -33.994  14.889  -3.937  1.00 20.00     0.046 C 
HETATM    5  C1  UNL     1     -33.291  16.035  -4.685  1.00 20.00     0.023 C 
HETATM    6  C2  UNL     1     -34.651  15.478  -2.671  1.00 20.00     0.023 C 
HETATM    7  C3  UNL     1     -32.938  13.858  -3.497  1.00 20.00     0.023 C 
ENDBRANCH   1   4
BRANCH   1   8
HETATM    8  N8  UNL     1     -35.584  15.044  -5.916  1.00 20.00     0.152 N 
HETATM    9  C4  UNL     1     -35.465  14.369  -7.208  1.00 20.00     0.317 C 
HETATM   10  C5  UNL     1     -36.969  15.481  -5.721  1.00 20.00     0.317 C 
ENDBRANCH   1   8
TORSDOF 2
ENDMDL
MODEL 2
REMARK VINA RESULT:      -3.8      0.063      1.376
REMARK  2 active torsions:
REMARK  status: ('A' for Active; 'I' for Inactive)
REMARK    1  A    between atoms: C6_6  and  C7_7 
REMARK    2  A    between atoms: C7_7  and  N8_8 
ROOT
HETATM    1  C7  UNL     1     -35.052  14.227  -4.817  1.00 20.00     0.443 C 
HETATM    2  F9  UNL     1     -34.466  13.091  -5.303  1.00 20.00    -0.172 F 
HETATM    3  F10 UNL     1     -36.075  13.786  -4.029  1.00 20.00    -0.172 F 
ENDROOT
BRANCH   1   4
HETATM    4  C6  UNL     1     -34.000  14.947  -3.927  1.00 20.00     0.046 C 
HETATM    5  C1  UNL     1     -34.622  15.525  -2.645  1.00 20.00     0.023 C 
HETATM    6  C2  UNL     1     -32.916  13.929  -3.515  1.00 20.00     0.023 C 
HETATM    7  C3  UNL     1     -33.318  16.087  -4.709  1.00 20.00     0.023 C 
ENDBRANCH   1   4
BRANCH   1   8
HETATM    8  N8  UNL     1     -35.569  15.051  -5.926  1.00 20.00     0.152 N 
HETATM    9  C4  UNL     1     -35.462  14.371  -7.217  1.00 20.00     0.317 C 
HETATM   10  C5  UNL     1     -36.955  15.474  -5.712  1.00 20.00     0.317 C 
ENDBRANCH   1   8
TORSDOF 2
ENDMDL
MODEL 3
REMARK VINA RESULT:      -3.8      2.173      3.569
REMARK  2 active torsions:
REMARK  status: ('A' for Active; 'I' for Inactive)
REMARK    1  A    between atoms: C6_6  and  C7_7 
REMARK    2  A    between atoms: C7_7  and  N8_8 
ROOT
HETATM    1  C7  UNL     1     -33.572  15.725  -4.389  1.00 20.00     0.443 C 
HETATM    2  F9  UNL     1     -32.744  14.919  -3.658  1.00 20.00    -0.172 F 
HETATM    3  F10 UNL     1     -32.762  16.315  -5.315  1.00 20.00    -0.172 F 
ENDROOT
BRANCH   1   4
HETATM    4  C6  UNL     1     -34.591  14.803  -5.118  1.00 20.00     0.046 C 
HETATM    5  C1  UNL     1     -36.047  15.176  -4.791  1.00 20.00     0.023 C 
HETATM    6  C2  UNL     1     -34.390  14.946  -6.641  1.00 20.00     0.023 C 
HETATM    7  C3  UNL     1     -34.355  13.329  -4.736  1.00 20.00     0.023 C 
ENDBRANCH   1   4
BRANCH   1   8
HETATM    8  N8  UNL     1     -34.193  16.742  -3.520  1.00 20.00     0.152 N 
HETATM    9  C4  UNL     1     -33.865  16.540  -2.109  1.00 20.00     0.317 C 
HETATM   10  C5  UNL     1     -33.837  18.108  -3.912  1.00 20.00     0.317 C 
ENDBRANCH   1   8
TORSDOF 2
ENDMDL
MODEL 4
REMARK VINA RESULT:      -3.8      2.106      3.534
REMARK  2 active torsions:
REMARK  status: ('A' for Active; 'I' for Inactive)
REMARK    1  A    between atoms: C6_6  and  C7_7 
REMARK    2  A    between atoms: C7_7  and  N8_8 
ROOT
HETATM    1  C7  UNL     1     -33.647  15.619  -4.333  1.00 20.00     0.443 C 
HETATM    2  F9  UNL     1     -32.906  14.763  -3.567  1.00 20.00    -0.172 F 
HETATM    3  F10 UNL     1     -32.750  16.198  -5.182  1.00 20.00    -0.172 F 
ENDROOT
BRANCH   1   4
HETATM    4  C6  UNL     1     -34.645  14.757  -5.158  1.00 20.00     0.046 C 
HETATM    5  C1  UNL     1     -34.428  14.911  -6.673  1.00 20.00     0.023 C 
HETATM    6  C2  UNL     1     -34.439  13.272  -4.793  1.00 20.00     0.023 C 
HETATM    7  C3  UNL     1     -36.098  15.140  -4.820  1.00 20.00     0.023 C 
ENDBRANCH   1   4
BRANCH   1   8
HETATM    8  N8  UNL     1     -34.291  16.639  -3.483  1.00 20.00     0.152 N 
HETATM    9  C4  UNL     1     -34.048  16.407  -2.060  1.00 20.00     0.317 C 
HETATM   10  C5  UNL     1     -33.879  18.000  -3.832  1.00 20.00     0.317 C 
ENDBRANCH   1   8
TORSDOF 2
ENDMDL
MODEL 5
REMARK VINA RESULT:      -3.7      1.918      2.862
REMARK  2 active torsions:
REMARK  status: ('A' for Active; 'I' for Inactive)
REMARK    1  A    between atoms: C6_6  and  C7_7 
REMARK    2  A    between atoms: C7_7  and  N8_8 
ROOT
HETATM    1  C7  UNL     1     -33.910  15.764  -5.032  1.00 20.00     0.443 C 
HETATM    2  F9  UNL     1     -32.566  15.993  -4.918  1.00 20.00    -0.172 F 
HETATM    3  F10 UNL     1     -34.057  15.129  -6.231  1.00 20.00    -0.172 F 
ENDROOT
BRANCH   1   4
HETATM    4  C6  UNL     1     -34.312  14.791  -3.888  1.00 20.00     0.046 C 
HETATM    5  C1  UNL     1     -35.544  13.945  -4.253  1.00 20.00     0.023 C 
HETATM    6  C2  UNL     1     -33.136  13.830  -3.614  1.00 20.00     0.023 C 
HETATM    7  C3  UNL     1     -34.609  15.571  -2.593  1.00 20.00     0.023 C 
ENDBRANCH   1   4
BRANCH   1   8
HETATM    8  N8  UNL     1     -34.648  17.041  -5.026  1.00 20.00     0.152 N 
HETATM    9  C4  UNL     1     -33.758  18.197  -5.130  1.00 20.00     0.317 C 
HETATM   10  C5  UNL     1     -35.659  17.109  -6.084  1.00 20.00     0.317 C 
ENDBRANCH   1   8
TORSDOF 2
ENDMDL
MODEL 6
REMARK VINA RESULT:      -3.7      2.017      2.858
REMARK  2 active torsions:
REMARK  status: ('A' for Active; 'I' for Inactive)
REMARK    1  A    between atoms: C6_6  and  C7_7 
REMARK    2  A    between atoms: C7_7  and  N8_8 
ROOT
HETATM    1  C7  UNL     1     -33.730  15.565  -4.239  1.00 20.00     0.443 C 
HETATM    2  F9  UNL     1     -32.860  16.291  -5.004  1.00 20.00    -0.172 F 
HETATM    3  F10 UNL     1     -32.937  14.766  -3.468  1.00 20.00    -0.172 F 
ENDROOT
BRANCH   1   4
HETATM    4  C6  UNL     1     -34.487  16.567  -3.321  1.00 20.00     0.046 C 
HETATM    5  C1  UNL     1     -34.426  16.157  -1.840  1.00 20.00     0.023 C 
HETATM    6  C2  UNL     1     -33.835  17.959  -3.459  1.00 20.00     0.023 C 
HETATM    7  C3  UNL     1     -35.963  16.681  -3.748  1.00 20.00     0.023 C 
ENDBRANCH   1   4
BRANCH   1   8
HETATM    8  N8  UNL     1     -34.610  14.750  -5.098  1.00 20.00     0.152 N 
HETATM    9  C4  UNL     1     -34.342  14.959  -6.521  1.00 20.00     0.317 C 
HETATM   10  C5  UNL     1     -34.525  13.321  -4.791  1.00 20.00     0.317 C 
ENDBRANCH   1   8
TORSDOF 2
ENDMDL
MODEL 7
REMARK VINA RESULT:      -3.7      2.296      3.552
REMARK  2 active torsions:
REMARK  status: ('A' for Active; 'I' for Inactive)
REMARK    1  A    between atoms: C6_6  and  C7_7 
REMARK    2  A    between atoms: C7_7  and  N8_8 
ROOT
HETATM    1  C7  UNL     1     -34.949  15.871  -3.304  1.00 20.00     0.443 C 
HETATM    2  F9  UNL     1     -35.563  16.740  -4.164  1.00 20.00    -0.172 F 
HETATM    3  F10 UNL     1     -35.968  15.260  -2.635  1.00 20.00    -0.172 F 
ENDROOT
BRANCH   1   4
HETATM    4  C6  UNL     1     -34.202  14.816  -4.168  1.00 20.00     0.046 C 
HETATM    5  C1  UNL     1     -34.897  13.444  -4.136  1.00 20.00     0.023 C 
HETATM    6  C2  UNL     1     -34.170  15.302  -5.632  1.00 20.00     0.023 C 
HETATM    7  C3  UNL     1     -32.748  14.651  -3.683  1.00 20.00     0.023 C 
ENDBRANCH   1   4
BRANCH   1   8
HETATM    8  N8  UNL     1     -34.080  16.608  -2.367  1.00 20.00     0.152 N 
HETATM    9  C4  UNL     1     -33.870  17.996  -2.780  1.00 20.00     0.317 C 
HETATM   10  C5  UNL     1     -34.587  16.581  -0.993  1.00 20.00     0.317 C 
ENDBRANCH   1   8
TORSDOF 2
ENDMDL
MODEL 8
REMARK VINA RESULT:      -3.7     12.086     12.715
REMARK  2 active torsions:
REMARK  status: ('A' for Active; 'I' for Inactive)
REMARK    1  A    between atoms: C6_6  and  C7_7 
REMARK    2  A    between atoms: C7_7  and  N8_8 
ROOT
HETATM    1  C7  UNL     1     -41.676   4.630  -1.144  1.00 20.00     0.443 C 
HETATM    2  F9  UNL     1     -40.325   4.525  -1.331  1.00 20.00    -0.172 F 
HETATM    3  F10 UNL     1     -41.890   4.183   0.127  1.00 20.00    -0.172 F 
ENDROOT
BRANCH   1   4
HETATM    4  C6  UNL     1     -42.038   6.140  -1.221  1.00 20.00     0.046 C 
HETATM    5  C1  UNL     1     -40.865   7.040  -0.798  1.00 20.00     0.023 C 
HETATM    6  C2  UNL     1     -42.409   6.490  -2.677  1.00 20.00     0.023 C 
HETATM    7  C3  UNL     1     -43.253   6.451  -0.325  1.00 20.00     0.023 C 
ENDBRANCH   1   4
BRANCH   1   8
HETATM    8  N8  UNL     1     -42.394   3.787  -2.119  1.00 20.00     0.152 N 
HETATM    9  C4  UNL     1     -41.486   2.943  -2.896  1.00 20.00     0.317 C 
HETATM   10  C5  UNL     1     -43.417   2.949  -1.489  1.00 20.00     0.317 C 
ENDBRANCH   1   8
TORSDOF 2
ENDMDL
MODEL 9
REMARK VINA RESULT:      -3.6      1.594      2.211
REMARK  2 active torsions:
REMARK  status: ('A' for Active; 'I' for Inactive)
REMARK    1  A    between atoms: C6_6  and  C7_7 
REMARK    2  A    between atoms: C7_7  and  N8_8 
ROOT
HETATM    1  C7  UNL     1     -34.814  15.507  -5.406  1.00 20.00     0.443 C 
HETATM    2  F9  UNL     1     -35.290  16.761  -5.143  1.00 20.00    -0.172 F 
HETATM    3  F10 UNL     1     -33.686  15.707  -6.147  1.00 20.00    -0.172 F 
ENDROOT
BRANCH   1   4
HETATM    4  C6  UNL     1     -34.421  14.866  -4.045  1.00 20.00     0.046 C 
HETATM    5  C1  UNL     1     -32.932  15.068  -3.717  1.00 20.00     0.023 C 
HETATM    6  C2  UNL     1     -35.252  15.526  -2.925  1.00 20.00     0.023 C 
HETATM    7  C3  UNL     1     -34.731  13.356  -4.048  1.00 20.00     0.023 C 
ENDBRANCH   1   4
BRANCH   1   8
HETATM    8  N8  UNL     1     -35.808  14.733  -6.173  1.00 20.00     0.152 N 
HETATM    9  C4  UNL     1     -37.125  15.370  -6.174  1.00 20.00     0.317 C 
HETATM   10  C5  UNL     1     -35.385  14.488  -7.553  1.00 20.00     0.317 C 
ENDBRANCH   1   8
TORSDOF 2
ENDMDL
