MODEL 1
REMARK VINA RESULT:      -3.7      0.000      0.000
REMARK  1 active torsions:
REMARK  status: ('A' for Active; 'I' for Inactive)
REMARK    1  A    between atoms: C1_1  and  C6_6 
ROOT
HETATM    1  C1  UNL     1     -33.963  16.486  -2.561  1.00 20.00     0.149 C 
HETATM    2  C2  UNL     1     -34.059  15.967  -4.685  1.00 20.00     0.209 C 
HETATM    3  C3  UNL     1     -34.499  14.793  -3.819  1.00 20.00     0.070 C 
HETATM    4  C4  UNL     1     -35.859  14.247  -4.238  1.00 20.00     0.042 C 
HETATM    5  C5  UNL     1     -33.454  13.674  -3.799  1.00 20.00     0.042 C 
HETATM    6  N7  UNL     1     -34.594  15.360  -2.458  1.00 20.00    -0.257 NA
HETATM    7  O8  UNL     1     -33.489  16.885  -3.762  1.00 20.00    -0.335 OA
ENDROOT
BRANCH   1   8
HETATM    8  C6  UNL     1     -33.701  17.425  -1.441  1.00 20.00     0.200 C 
HETATM    9 CL9  UNL     1     -34.776  16.975  -0.113  1.00 20.00    -0.122 Cl
ENDBRANCH   1   8
TORSDOF 1
ENDMDL
MODEL 2
REMARK VINA RESULT:      -3.7      1.368      1.522
REMARK  1 active torsions:
REMARK  status: ('A' for Active; 'I' for Inactive)
REMARK    1  A    between atoms: C1_1  and  C6_6 
ROOT
HETATM    1  C1  UNL     1     -34.833  16.196  -2.973  1.00 20.00     0.149 C 
HETATM    2  C2  UNL     1     -33.128  15.220  -3.937  1.00 20.00     0.209 C 
HETATM    3  C3  UNL     1     -34.436  14.811  -4.603  1.00 20.00     0.070 C 
HETATM    4  C4  UNL     1     -34.403  15.023  -6.113  1.00 20.00     0.042 C 
HETATM    5  C5  UNL     1     -34.819  13.365  -4.273  1.00 20.00     0.042 C 
HETATM    6  N7  UNL     1     -35.446  15.705  -4.003  1.00 20.00    -0.257 NA
HETATM    7  O8  UNL     1     -33.537  15.886  -2.750  1.00 20.00    -0.335 OA
ENDROOT
BRANCH   1   8
HETATM    8  C6  UNL     1     -35.440  17.109  -1.971  1.00 20.00     0.200 C 
HETATM    9 CL9  UNL     1     -34.684  16.760  -0.413  1.00 20.00    -0.122 Cl
ENDBRANCH   1   8
TORSDOF 1
ENDMDL
MODEL 3
REMARK VINA RESULT:      -3.6      3.394      4.253
REMARK  1 active torsions:
REMARK  status: ('A' for Active; 'I' for Inactive)
REMARK    1  A    between atoms: C1_1  and  C6_6 
ROOT
HETATM    1  C1  UNL     1     -34.865  14.310  -5.793  1.00 20.00     0.149 C 
HETATM    2  C2  UNL     1     -34.692  13.336  -3.840  1.00 20.00     0.209 C 
HETATM    3  C3  UNL     1     -34.127  14.750  -3.793  1.00 20.00     0.070 C 
HETATM    4  C4  UNL     1     -34.732  15.573  -2.660  1.00 20.00     0.042 C 
HETATM    5  C5  UNL     1     -32.599  14.753  -3.702  1.00 20.00     0.042 C 
HETATM    6  N7  UNL     1     -34.514  15.341  -5.090  1.00 20.00    -0.257 NA
HETATM    7  O8  UNL     1     -34.881  13.084  -5.227  1.00 20.00    -0.335 OA
ENDROOT
BRANCH   1   8
HETATM    8  C6  UNL     1     -35.275  14.347  -7.219  1.00 20.00     0.200 C 
HETATM    9 CL9  UNL     1     -34.956  15.978  -7.818  1.00 20.00    -0.122 Cl
ENDBRANCH   1   8
TORSDOF 1
ENDMDL
MODEL 4
REMARK VINA RESULT:      -3.6      2.563      3.778
REMARK  1 active torsions:
REMARK  status: ('A' for Active; 'I' for Inactive)
REMARK    1  A    between atoms: C1_1  and  C6_6 
ROOT
HETATM    1  C1  UNL     1     -34.413  14.950  -3.196  1.00 20.00     0.149 C 
HETATM    2  C2  UNL     1     -35.908  16.502  -2.812  1.00 20.00     0.209 C 
HETATM    3  C3  UNL     1     -34.566  16.877  -2.195  1.00 20.00     0.070 C 
HETATM    4  C4  UNL     1     -34.105  18.267  -2.622  1.00 20.00     0.042 C 
HETATM    5  C5  UNL     1     -34.586  16.763  -0.669  1.00 20.00     0.042 C 
HETATM    6  N7  UNL     1     -33.628  15.865  -2.722  1.00 20.00    -0.257 NA
HETATM    7  O8  UNL     1     -35.751  15.139  -3.183  1.00 20.00    -0.335 OA
ENDROOT
BRANCH   1   8
HETATM    8  C6  UNL     1     -33.968  13.660  -3.781  1.00 20.00     0.200 C 
HETATM    9 CL9  UNL     1     -34.860  13.428  -5.288  1.00 20.00    -0.122 Cl
ENDBRANCH   1   8
TORSDOF 1
ENDMDL
MODEL 5
REMARK VINA RESULT:      -3.6      1.867      2.479
REMARK  1 active torsions:
REMARK  status: ('A' for Active; 'I' for Inactive)
REMARK    1  A    between atoms: C1_1  and  C6_6 
ROOT
HETATM    1  C1  UNL     1     -34.216  15.492  -3.701  1.00 20.00     0.149 C 
HETATM    2  C2  UNL     1     -34.826  13.619  -4.655  1.00 20.00     0.209 C 
HETATM    3  C3  UNL     1     -35.185  14.815  -5.529  1.00 20.00     0.070 C 
HETATM    4  C4  UNL     1     -34.653  14.669  -6.951  1.00 20.00     0.042 C 
HETATM    5  C5  UNL     1     -36.693  15.080  -5.545  1.00 20.00     0.042 C 
HETATM    6  N7  UNL     1     -34.521  15.958  -4.870  1.00 20.00    -0.257 NA
HETATM    7  O8  UNL     1     -34.463  14.196  -3.408  1.00 20.00    -0.335 OA
ENDROOT
BRANCH   1   8
HETATM    8  C6  UNL     1     -33.589  16.273  -2.606  1.00 20.00     0.200 C 
HETATM    9 CL9  UNL     1     -34.719  16.278  -1.247  1.00 20.00    -0.122 Cl
ENDBRANCH   1   8
TORSDOF 1
ENDMDL
MODEL 6
REMARK VINA RESULT:      -3.5     11.544     12.302
REMARK  1 active torsions:
REMARK  status: ('A' for Active; 'I' for Inactive)
REMARK    1  A    between atoms: C1_1  and  C6_6 
ROOT
HETATM    1  C1  UNL     1     -32.899   6.438   3.974  1.00 20.00     0.149 C 
HETATM    2  C2  UNL     1     -34.258   6.154   5.666  1.00 20.00     0.209 C 
HETATM    3  C3  UNL     1     -34.662   5.270   4.491  1.00 20.00     0.070 C 
HETATM    4  C4  UNL     1     -34.811   3.808   4.896  1.00 20.00     0.042 C 
HETATM    5  C5  UNL     1     -35.938   5.772   3.811  1.00 20.00     0.042 C 
HETATM    6  N7  UNL     1     -33.544   5.404   3.535  1.00 20.00    -0.257 NA
HETATM    7  O8  UNL     1     -33.292   7.041   5.118  1.00 20.00    -0.335 OA
ENDROOT
BRANCH   1   8
HETATM    8  C6  UNL     1     -31.717   7.051   3.318  1.00 20.00     0.200 C 
HETATM    9 CL9  UNL     1     -32.316   8.206   2.123  1.00 20.00    -0.122 Cl
ENDBRANCH   1   8
TORSDOF 1
ENDMDL
MODEL 7
REMARK VINA RESULT:      -3.5     12.917     14.166
REMARK  1 active torsions:
REMARK  status: ('A' for Active; 'I' for Inactive)
REMARK    1  A    between atoms: C1_1  and  C6_6 
ROOT
HETATM    1  C1  UNL     1     -42.167   3.860  -2.459  1.00 20.00     0.149 C 
HETATM    2  C2  UNL     1     -40.714   4.608  -1.003  1.00 20.00     0.209 C 
HETATM    3  C3  UNL     1     -41.915   5.542  -1.100  1.00 20.00     0.070 C 
HETATM    4  C4  UNL     1     -42.532   5.829   0.264  1.00 20.00     0.042 C 
HETATM    5  C5  UNL     1     -41.566   6.848  -1.818  1.00 20.00     0.042 C 
HETATM    6  N7  UNL     1     -42.885   4.802  -1.933  1.00 20.00    -0.257 NA
HETATM    7  O8  UNL     1     -40.870   3.726  -2.107  1.00 20.00    -0.335 OA
ENDROOT
BRANCH   1   8
HETATM    8  C6  UNL     1     -42.653   2.867  -3.450  1.00 20.00     0.200 C 
HETATM    9 CL9  UNL     1     -41.281   1.842  -3.886  1.00 20.00    -0.122 Cl
ENDBRANCH   1   8
TORSDOF 1
ENDMDL
MODEL 8
REMARK VINA RESULT:      -3.4      2.205      3.536
REMARK  1 active torsions:
REMARK  status: ('A' for Active; 'I' for Inactive)
REMARK    1  A    between atoms: C1_1  and  C6_6 
ROOT
HETATM    1  C1  UNL     1     -34.055  15.500  -3.332  1.00 20.00     0.149 C 
HETATM    2  C2  UNL     1     -33.731  17.543  -2.616  1.00 20.00     0.209 C 
HETATM    3  C3  UNL     1     -34.907  16.895  -1.895  1.00 20.00     0.070 C 
HETATM    4  C4  UNL     1     -34.769  16.980  -0.378  1.00 20.00     0.042 C 
HETATM    5  C5  UNL     1     -36.247  17.481  -2.346  1.00 20.00     0.042 C 
HETATM    6  N7  UNL     1     -34.856  15.480  -2.315  1.00 20.00    -0.257 NA
HETATM    7  O8  UNL     1     -33.449  16.654  -3.689  1.00 20.00    -0.335 OA
ENDROOT
BRANCH   1   8
HETATM    8  C6  UNL     1     -33.718  14.328  -4.179  1.00 20.00     0.200 C 
HETATM    9 CL9  UNL     1     -35.135  13.273  -4.208  1.00 20.00    -0.122 Cl
ENDBRANCH   1   8
TORSDOF 1
ENDMDL
MODEL 9
REMARK VINA RESULT:      -3.4     12.217     13.362
REMARK  1 active torsions:
REMARK  status: ('A' for Active; 'I' for Inactive)
REMARK    1  A    between atoms: C1_1  and  C6_6 
ROOT
HETATM    1  C1  UNL     1     -41.951   6.118  -2.259  1.00 20.00     0.149 C 
HETATM    2  C2  UNL     1     -40.892   4.441  -1.332  1.00 20.00     0.209 C 
HETATM    3  C3  UNL     1     -42.128   3.956  -2.080  1.00 20.00     0.070 C 
HETATM    4  C4  UNL     1     -41.801   2.839  -3.065  1.00 20.00     0.042 C 
HETATM    5  C5  UNL     1     -43.241   3.520  -1.123  1.00 20.00     0.042 C 
HETATM    6  N7  UNL     1     -42.595   5.145  -2.821  1.00 20.00    -0.257 NA
HETATM    7  O8  UNL     1     -41.041   5.854  -1.295  1.00 20.00    -0.335 OA
ENDROOT
BRANCH   1   8
HETATM    8  C6  UNL     1     -42.117   7.556  -2.587  1.00 20.00     0.200 C 
HETATM    9 CL9  UNL     1     -42.979   7.650  -4.126  1.00 20.00    -0.122 Cl
ENDBRANCH   1   8
TORSDOF 1
ENDMDL
