MODEL 1
REMARK VINA RESULT:      -4.4      0.000      0.000
REMARK  1 active torsions:
REMARK  status: ('A' for Active; 'I' for Inactive)
REMARK    1  A    between atoms: C4_4  and  C6_6 
ROOT
HETATM    1  C1  UNL     1     -35.213   5.002   5.898  1.00 20.00     0.135 A 
HETATM    2  C2  UNL     1     -34.281   5.911   6.347  1.00 20.00     0.136 A 
HETATM    3  C3  UNL     1     -34.429   5.252   3.765  1.00 20.00     0.149 A 
HETATM    4  C4  UNL     1     -33.497   6.162   4.213  1.00 20.00     0.122 A 
HETATM    5  N7  UNL     1     -35.305   4.657   4.599  1.00 20.00    -0.269 NA
HETATM    6  N8  UNL     1     -33.406   6.506   5.513  1.00 20.00    -0.256 NA
ENDROOT
BRANCH   4   7
HETATM    7  C6  UNL     1     -32.546   6.801   3.263  1.00 20.00     0.285 C 
HETATM    8  C5  UNL     1     -31.457   7.592   3.987  1.00 20.00     0.097 C 
HETATM    9  F9  UNL     1     -33.156   7.667   2.391  1.00 20.00    -0.200 F 
HETATM   10  F10 UNL     1     -31.908   5.897   2.450  1.00 20.00    -0.200 F 
ENDBRANCH   4   7
TORSDOF 1
ENDMDL
MODEL 2
REMARK VINA RESULT:      -4.4      0.856      1.508
REMARK  1 active torsions:
REMARK  status: ('A' for Active; 'I' for Inactive)
REMARK    1  A    between atoms: C4_4  and  C6_6 
ROOT
HETATM    1  C1  UNL     1     -35.192   5.021   5.986  1.00 20.00     0.135 A 
HETATM    2  C2  UNL     1     -35.216   4.660   4.657  1.00 20.00     0.136 A 
HETATM    3  C3  UNL     1     -33.487   6.482   5.558  1.00 20.00     0.149 A 
HETATM    4  C4  UNL     1     -33.509   6.121   4.229  1.00 20.00     0.122 A 
HETATM    5  N7  UNL     1     -34.327   5.938   6.460  1.00 20.00    -0.269 NA
HETATM    6  N8  UNL     1     -34.376   5.204   3.755  1.00 20.00    -0.256 NA
ENDROOT
BRANCH   4   7
HETATM    7  C6  UNL     1     -32.565   6.742   3.260  1.00 20.00     0.285 C 
HETATM    8  C5  UNL     1     -31.488   7.570   3.959  1.00 20.00     0.097 C 
HETATM    9  F9  UNL     1     -33.185   7.571   2.360  1.00 20.00    -0.200 F 
HETATM   10  F10 UNL     1     -31.914   5.820   2.478  1.00 20.00    -0.200 F 
ENDBRANCH   4   7
TORSDOF 1
ENDMDL
MODEL 3
REMARK VINA RESULT:      -4.2     11.405     12.030
REMARK  1 active torsions:
REMARK  status: ('A' for Active; 'I' for Inactive)
REMARK    1  A    between atoms: C4_4  and  C6_6 
ROOT
HETATM    1  C1  UNL     1     -34.911  13.231  -4.562  1.00 20.00     0.135 A 
HETATM    2  C2  UNL     1     -36.000  14.018  -4.260  1.00 20.00     0.136 A 
HETATM    3  C3  UNL     1     -33.609  14.501  -3.178  1.00 20.00     0.149 A 
HETATM    4  C4  UNL     1     -34.697  15.289  -2.875  1.00 20.00     0.122 A 
HETATM    5  N7  UNL     1     -33.696  13.459  -4.027  1.00 20.00    -0.269 NA
HETATM    6  N8  UNL     1     -35.913  15.060  -3.410  1.00 20.00    -0.256 NA
ENDROOT
BRANCH   4   7
HETATM    7  C6  UNL     1     -34.564  16.434  -1.933  1.00 20.00     0.285 C 
HETATM    8  C5  UNL     1     -35.563  17.549  -2.241  1.00 20.00     0.097 C 
HETATM    9  F9  UNL     1     -33.315  17.001  -1.946  1.00 20.00    -0.200 F 
HETATM   10  F10 UNL     1     -34.759  16.077  -0.621  1.00 20.00    -0.200 F 
ENDBRANCH   4   7
TORSDOF 1
ENDMDL
MODEL 4
REMARK VINA RESULT:      -4.0     12.169     13.224
REMARK  1 active torsions:
REMARK  status: ('A' for Active; 'I' for Inactive)
REMARK    1  A    between atoms: C4_4  and  C6_6 
ROOT
HETATM    1  C1  UNL     1     -34.975  15.410  -7.536  1.00 20.00     0.135 A 
HETATM    2  C2  UNL     1     -34.219  16.333  -6.848  1.00 20.00     0.136 A 
HETATM    3  C3  UNL     1     -34.901  14.006  -5.733  1.00 20.00     0.149 A 
HETATM    4  C4  UNL     1     -34.144  14.928  -5.045  1.00 20.00     0.122 A 
HETATM    5  N7  UNL     1     -35.329  14.230  -6.991  1.00 20.00    -0.269 NA
HETATM    6  N8  UNL     1     -33.790  16.109  -5.590  1.00 20.00    -0.256 NA
ENDROOT
BRANCH   4   7
HETATM    7  C6  UNL     1     -33.687  14.647  -3.656  1.00 20.00     0.285 C 
HETATM    8  C5  UNL     1     -34.066  15.768  -2.689  1.00 20.00     0.097 C 
HETATM    9  F9  UNL     1     -32.329  14.479  -3.560  1.00 20.00    -0.200 F 
HETATM   10  F10 UNL     1     -34.208  13.485  -3.143  1.00 20.00    -0.200 F 
ENDBRANCH   4   7
TORSDOF 1
ENDMDL
MODEL 5
REMARK VINA RESULT:      -4.0     12.214     13.334
REMARK  1 active torsions:
REMARK  status: ('A' for Active; 'I' for Inactive)
REMARK    1  A    between atoms: C4_4  and  C6_6 
ROOT
HETATM    1  C1  UNL     1     -34.918  15.576  -7.531  1.00 20.00     0.135 A 
HETATM    2  C2  UNL     1     -35.228  14.361  -6.960  1.00 20.00     0.136 A 
HETATM    3  C3  UNL     1     -33.823  16.194  -5.621  1.00 20.00     0.149 A 
HETATM    4  C4  UNL     1     -34.133  14.979  -5.050  1.00 20.00     0.122 A 
HETATM    5  N7  UNL     1     -34.211  16.514  -6.871  1.00 20.00    -0.269 NA
HETATM    6  N8  UNL     1     -34.840  14.041  -5.710  1.00 20.00    -0.256 NA
ENDROOT
BRANCH   4   7
HETATM    7  C6  UNL     1     -33.690  14.660  -3.665  1.00 20.00     0.285 C 
HETATM    8  C5  UNL     1     -34.107  15.738  -2.666  1.00 20.00     0.097 C 
HETATM    9  F9  UNL     1     -32.330  14.517  -3.554  1.00 20.00    -0.200 F 
HETATM   10  F10 UNL     1     -34.193  13.470  -3.200  1.00 20.00    -0.200 F 
ENDBRANCH   4   7
TORSDOF 1
ENDMDL
MODEL 6
REMARK VINA RESULT:      -3.9     12.427     13.569
REMARK  1 active torsions:
REMARK  status: ('A' for Active; 'I' for Inactive)
REMARK    1  A    between atoms: C4_4  and  C6_6 
ROOT
HETATM    1  C1  UNL     1     -33.953  17.731  -6.404  1.00 20.00     0.135 A 
HETATM    2  C2  UNL     1     -33.534  17.845  -5.098  1.00 20.00     0.136 A 
HETATM    3  C3  UNL     1     -34.311  15.494  -6.094  1.00 20.00     0.149 A 
HETATM    4  C4  UNL     1     -33.891  15.607  -4.787  1.00 20.00     0.122 A 
HETATM    5  N7  UNL     1     -34.348  16.553  -6.927  1.00 20.00    -0.269 NA
HETATM    6  N8  UNL     1     -33.496  16.785  -4.265  1.00 20.00    -0.256 NA
ENDROOT
BRANCH   4   7
HETATM    7  C6  UNL     1     -33.861  14.415  -3.896  1.00 20.00     0.285 C 
HETATM    8  C5  UNL     1     -34.688  13.259  -4.457  1.00 20.00     0.097 C 
HETATM    9  F9  UNL     1     -34.337  14.672  -2.636  1.00 20.00    -0.200 F 
HETATM   10  F10 UNL     1     -32.593  13.932  -3.686  1.00 20.00    -0.200 F 
ENDBRANCH   4   7
TORSDOF 1
ENDMDL
MODEL 7
REMARK VINA RESULT:      -3.9      2.260      3.930
REMARK  1 active torsions:
REMARK  status: ('A' for Active; 'I' for Inactive)
REMARK    1  A    between atoms: C4_4  and  C6_6 
ROOT
HETATM    1  C1  UNL     1     -31.932   7.231   3.331  1.00 20.00     0.135 A 
HETATM    2  C2  UNL     1     -32.562   6.348   2.483  1.00 20.00     0.136 A 
HETATM    3  C3  UNL     1     -33.312   6.580   5.034  1.00 20.00     0.149 A 
HETATM    4  C4  UNL     1     -33.943   5.697   4.186  1.00 20.00     0.122 A 
HETATM    5  N7  UNL     1     -32.296   7.364   4.621  1.00 20.00    -0.269 NA
HETATM    6  N8  UNL     1     -33.578   5.564   2.895  1.00 20.00    -0.256 NA
ENDROOT
BRANCH   4   7
HETATM    7  C6  UNL     1     -35.063   4.847   4.675  1.00 20.00     0.285 C 
HETATM    8  C5  UNL     1     -35.159   4.848   6.200  1.00 20.00     0.097 C 
HETATM    9  F9  UNL     1     -34.957   3.537   4.282  1.00 20.00    -0.200 F 
HETATM   10  F10 UNL     1     -36.288   5.244   4.198  1.00 20.00    -0.200 F 
ENDBRANCH   4   7
TORSDOF 1
ENDMDL
MODEL 8
REMARK VINA RESULT:      -3.9     12.283     13.294
REMARK  1 active torsions:
REMARK  status: ('A' for Active; 'I' for Inactive)
REMARK    1  A    between atoms: C4_4  and  C6_6 
ROOT
HETATM    1  C1  UNL     1     -33.072  14.254  -3.521  1.00 20.00     0.135 A 
HETATM    2  C2  UNL     1     -33.125  15.483  -4.140  1.00 20.00     0.136 A 
HETATM    3  C3  UNL     1     -34.585  13.431  -5.024  1.00 20.00     0.149 A 
HETATM    4  C4  UNL     1     -34.639  14.660  -5.644  1.00 20.00     0.122 A 
HETATM    5  N7  UNL     1     -33.801  13.206  -3.951  1.00 20.00    -0.269 NA
HETATM    6  N8  UNL     1     -33.909  15.708  -5.214  1.00 20.00    -0.256 NA
ENDROOT
BRANCH   4   7
HETATM    7  C6  UNL     1     -35.518  14.873  -6.827  1.00 20.00     0.285 C 
HETATM    8  C5  UNL     1     -35.193  16.176  -7.555  1.00 20.00     0.097 C 
HETATM    9  F9  UNL     1     -36.851  14.915  -6.507  1.00 20.00    -0.200 F 
HETATM   10  F10 UNL     1     -35.425  13.864  -7.754  1.00 20.00    -0.200 F 
ENDBRANCH   4   7
TORSDOF 1
ENDMDL
MODEL 9
REMARK VINA RESULT:      -3.9      9.588     10.715
REMARK  1 active torsions:
REMARK  status: ('A' for Active; 'I' for Inactive)
REMARK    1  A    between atoms: C4_4  and  C6_6 
ROOT
HETATM    1  C1  UNL     1     -42.728   3.317  -3.556  1.00 20.00     0.135 A 
HETATM    2  C2  UNL     1     -41.613   3.030  -2.800  1.00 20.00     0.136 A 
HETATM    3  C3  UNL     1     -42.951   5.315  -2.468  1.00 20.00     0.149 A 
HETATM    4  C4  UNL     1     -41.837   5.029  -1.711  1.00 20.00     0.122 A 
HETATM    5  N7  UNL     1     -43.417   4.464  -3.403  1.00 20.00    -0.269 NA
HETATM    6  N8  UNL     1     -41.147   3.881  -1.865  1.00 20.00    -0.256 NA
ENDROOT
BRANCH   4   7
HETATM    7  C6  UNL     1     -41.351   5.992  -0.685  1.00 20.00     0.285 C 
HETATM    8  C5  UNL     1     -41.439   7.439  -1.169  1.00 20.00     0.097 C 
HETATM    9  F9  UNL     1     -40.048   5.774  -0.315  1.00 20.00    -0.200 F 
HETATM   10  F10 UNL     1     -42.052   5.923   0.493  1.00 20.00    -0.200 F 
ENDBRANCH   4   7
TORSDOF 1
ENDMDL
