MODEL 1
REMARK VINA RESULT:      -5.2      0.000      0.000
REMARK  0 active torsions:
REMARK  status: ('A' for Active; 'I' for Inactive)
ROOT
HETATM    1  C1  UNL     1     -34.621  13.883  -4.258  1.00 20.00     0.097 C 
HETATM    2  C2  UNL     1     -34.393  18.562  -1.763  1.00 20.00     0.008 C 
HETATM    3  C3  UNL     1     -34.016  18.687  -3.045  1.00 20.00     0.029 C 
HETATM    4  C4  UNL     1     -34.938  16.193  -1.924  1.00 20.00    -0.004 C 
HETATM    5  C5  UNL     1     -33.295  15.801  -4.963  1.00 20.00     0.136 C 
HETATM    6  C6  UNL     1     -34.252  15.246  -4.211  1.00 20.00     0.053 C 
HETATM    7  C7  UNL     1     -34.708  17.273  -1.150  1.00 20.00    -0.065 C 
HETATM    8  C8  UNL     1     -33.959  17.420  -3.796  1.00 20.00     0.047 C 
HETATM    9  C9  UNL     1     -34.928  16.309  -3.414  1.00 20.00     0.106 C 
HETATM   10  C10 UNL     1     -34.769  17.232   0.345  1.00 20.00     0.048 C 
HETATM   11  N11 UNL     1     -34.925  12.763  -4.297  1.00 20.00    -0.192 NA
HETATM   12  N12 UNL     1     -33.109  17.140  -4.737  1.00 20.00    -0.263 NA
ENDROOT
TORSDOF 0
ENDMDL
MODEL 2
REMARK VINA RESULT:      -4.9      2.205      4.653
REMARK  0 active torsions:
REMARK  status: ('A' for Active; 'I' for Inactive)
ROOT
HETATM    1  C1  UNL     1     -34.601  15.762  -2.212  1.00 20.00     0.097 C 
HETATM    2  C2  UNL     1     -35.044  15.317  -7.482  1.00 20.00     0.008 C 
HETATM    3  C3  UNL     1     -35.111  14.111  -6.895  1.00 20.00     0.029 C 
HETATM    4  C4  UNL     1     -34.890  16.568  -5.398  1.00 20.00    -0.004 C 
HETATM    5  C5  UNL     1     -34.163  13.743  -3.505  1.00 20.00     0.136 C 
HETATM    6  C6  UNL     1     -34.652  14.984  -3.391  1.00 20.00     0.053 C 
HETATM    7  C7  UNL     1     -34.773  16.546  -6.741  1.00 20.00    -0.065 C 
HETATM    8  C8  UNL     1     -34.905  14.125  -5.436  1.00 20.00     0.047 C 
HETATM    9  C9  UNL     1     -35.348  15.355  -4.654  1.00 20.00     0.106 C 
HETATM   10  C10 UNL     1     -34.382  17.748  -7.544  1.00 20.00     0.048 C 
HETATM   11  N11 UNL     1     -34.559  16.401  -1.244  1.00 20.00    -0.192 NA
HETATM   12  N12 UNL     1     -34.321  13.190  -4.748  1.00 20.00    -0.263 NA
ENDROOT
TORSDOF 0
ENDMDL
MODEL 3
REMARK VINA RESULT:      -4.9      1.964      4.014
REMARK  0 active torsions:
REMARK  status: ('A' for Active; 'I' for Inactive)
ROOT
HETATM    1  C1  UNL     1     -34.778  17.382  -0.233  1.00 20.00     0.097 C 
HETATM    2  C2  UNL     1     -33.817  15.309  -5.023  1.00 20.00     0.008 C 
HETATM    3  C3  UNL     1     -33.351  16.565  -4.945  1.00 20.00     0.029 C 
HETATM    4  C4  UNL     1     -34.576  15.213  -2.710  1.00 20.00    -0.004 C 
HETATM    5  C5  UNL     1     -34.341  18.654  -2.265  1.00 20.00     0.136 C 
HETATM    6  C6  UNL     1     -34.356  17.507  -1.576  1.00 20.00     0.053 C 
HETATM    7  C7  UNL     1     -34.578  14.677  -3.947  1.00 20.00    -0.065 C 
HETATM    8  C8  UNL     1     -33.654  17.257  -3.680  1.00 20.00     0.047 C 
HETATM    9  C9  UNL     1     -33.757  16.426  -2.408  1.00 20.00     0.106 C 
HETATM   10  C10 UNL     1     -35.326  13.427  -4.292  1.00 20.00     0.048 C 
HETATM   11  N11 UNL     1     -35.125  17.280   0.870  1.00 20.00    -0.192 NA
HETATM   12  N12 UNL     1     -33.898  18.527  -3.555  1.00 20.00    -0.263 NA
ENDROOT
TORSDOF 0
ENDMDL
MODEL 4
REMARK VINA RESULT:      -4.9      1.655      1.681
REMARK  0 active torsions:
REMARK  status: ('A' for Active; 'I' for Inactive)
ROOT
HETATM    1  C1  UNL     1     -33.719  14.011  -3.751  1.00 20.00     0.097 C 
HETATM    2  C2  UNL     1     -36.096  18.112  -1.364  1.00 20.00     0.008 C 
HETATM    3  C3  UNL     1     -36.627  17.894  -2.577  1.00 20.00     0.029 C 
HETATM    4  C4  UNL     1     -34.565  16.220  -1.451  1.00 20.00    -0.004 C 
HETATM    5  C5  UNL     1     -34.969  15.774  -4.876  1.00 20.00     0.136 C 
HETATM    6  C6  UNL     1     -34.598  15.118  -3.771  1.00 20.00     0.053 C 
HETATM    7  C7  UNL     1     -34.946  17.368  -0.856  1.00 20.00    -0.065 C 
HETATM    8  C8  UNL     1     -35.968  16.830  -3.356  1.00 20.00     0.047 C 
HETATM    9  C9  UNL     1     -35.341  15.664  -2.602  1.00 20.00     0.106 C 
HETATM   10  C10 UNL     1     -34.247  17.937   0.339  1.00 20.00     0.048 C 
HETATM   11  N11 UNL     1     -32.997  13.102  -3.736  1.00 20.00    -0.192 NA
HETATM   12  N12 UNL     1     -35.824  16.820  -4.646  1.00 20.00    -0.263 NA
ENDROOT
TORSDOF 0
ENDMDL
MODEL 5
REMARK VINA RESULT:      -4.8      2.161      4.145
REMARK  0 active torsions:
REMARK  status: ('A' for Active; 'I' for Inactive)
ROOT
HETATM    1  C1  UNL     1     -34.454  17.623  -7.384  1.00 20.00     0.097 C 
HETATM    2  C2  UNL     1     -34.335  14.017  -3.492  1.00 20.00     0.008 C 
HETATM    3  C3  UNL     1     -34.469  13.423  -4.688  1.00 20.00     0.029 C 
HETATM    4  C4  UNL     1     -34.161  16.276  -4.387  1.00 20.00    -0.004 C 
HETATM    5  C5  UNL     1     -35.318  15.350  -7.533  1.00 20.00     0.136 C 
HETATM    6  C6  UNL     1     -34.602  16.298  -6.917  1.00 20.00     0.053 C 
HETATM    7  C7  UNL     1     -34.339  15.469  -3.322  1.00 20.00    -0.065 C 
HETATM    8  C8  UNL     1     -34.604  14.351  -5.825  1.00 20.00     0.047 C 
HETATM    9  C9  UNL     1     -33.905  15.701  -5.743  1.00 20.00     0.106 C 
HETATM   10  C10 UNL     1     -34.534  15.986  -1.931  1.00 20.00     0.048 C 
HETATM   11  N11 UNL     1     -34.334  18.712  -7.768  1.00 20.00    -0.192 NA
HETATM   12  N12 UNL     1     -35.320  14.141  -6.887  1.00 20.00    -0.263 NA
ENDROOT
TORSDOF 0
ENDMDL
MODEL 6
REMARK VINA RESULT:      -4.8      1.930      2.555
REMARK  0 active torsions:
REMARK  status: ('A' for Active; 'I' for Inactive)
ROOT
HETATM    1  C1  UNL     1     -37.852  14.452  -4.033  1.00 20.00     0.097 C 
HETATM    2  C2  UNL     1     -33.390  16.593  -2.115  1.00 20.00     0.008 C 
HETATM    3  C3  UNL     1     -33.135  15.864  -3.213  1.00 20.00     0.029 C 
HETATM    4  C4  UNL     1     -35.802  16.263  -2.187  1.00 20.00    -0.004 C 
HETATM    5  C5  UNL     1     -35.593  13.652  -4.476  1.00 20.00     0.136 C 
HETATM    6  C6  UNL     1     -36.444  14.577  -4.016  1.00 20.00     0.053 C 
HETATM    7  C7  UNL     1     -34.714  16.666  -1.502  1.00 20.00    -0.065 C 
HETATM    8  C8  UNL     1     -34.302  15.154  -3.766  1.00 20.00     0.047 C 
HETATM    9  C9  UNL     1     -35.678  15.785  -3.598  1.00 20.00     0.106 C 
HETATM   10  C10 UNL     1     -34.785  17.215  -0.111  1.00 20.00     0.048 C 
HETATM   11  N11 UNL     1     -39.008  14.349  -4.046  1.00 20.00    -0.192 NA
HETATM   12  N12 UNL     1     -34.272  13.993  -4.346  1.00 20.00    -0.263 NA
ENDROOT
TORSDOF 0
ENDMDL
MODEL 7
REMARK VINA RESULT:      -4.7      1.803      3.527
REMARK  0 active torsions:
REMARK  status: ('A' for Active; 'I' for Inactive)
ROOT
HETATM    1  C1  UNL     1     -34.631  13.748  -4.236  1.00 20.00     0.097 C 
HETATM    2  C2  UNL     1     -33.622  18.773  -5.614  1.00 20.00     0.008 C 
HETATM    3  C3  UNL     1     -33.463  18.600  -4.293  1.00 20.00     0.029 C 
HETATM    4  C4  UNL     1     -34.135  16.438  -6.081  1.00 20.00    -0.004 C 
HETATM    5  C5  UNL     1     -34.684  15.666  -2.735  1.00 20.00     0.136 C 
HETATM    6  C6  UNL     1     -34.368  15.096  -3.903  1.00 20.00     0.053 C 
HETATM    7  C7  UNL     1     -34.117  17.720  -6.498  1.00 20.00    -0.065 C 
HETATM    8  C8  UNL     1     -33.810  17.255  -3.801  1.00 20.00     0.047 C 
HETATM    9  C9  UNL     1     -33.603  16.069  -4.734  1.00 20.00     0.106 C 
HETATM   10  C10 UNL     1     -34.575  18.140  -7.860  1.00 20.00     0.048 C 
HETATM   11  N11 UNL     1     -34.847  12.641  -4.510  1.00 20.00    -0.192 NA
HETATM   12  N12 UNL     1     -34.336  16.988  -2.644  1.00 20.00    -0.263 NA
ENDROOT
TORSDOF 0
ENDMDL
MODEL 8
REMARK VINA RESULT:      -4.5      1.913      2.879
REMARK  0 active torsions:
REMARK  status: ('A' for Active; 'I' for Inactive)
ROOT
HETATM    1  C1  UNL     1     -35.220  14.428  -6.804  1.00 20.00     0.097 C 
HETATM    2  C2  UNL     1     -35.154  16.699  -2.007  1.00 20.00     0.008 C 
HETATM    3  C3  UNL     1     -34.293  15.670  -2.060  1.00 20.00     0.029 C 
HETATM    4  C4  UNL     1     -35.830  16.538  -4.342  1.00 20.00    -0.004 C 
HETATM    5  C5  UNL     1     -34.445  13.374  -4.749  1.00 20.00     0.136 C 
HETATM    6  C6  UNL     1     -34.822  14.451  -5.448  1.00 20.00     0.053 C 
HETATM    7  C7  UNL     1     -36.049  17.041  -3.111  1.00 20.00    -0.065 C 
HETATM    8  C8  UNL     1     -34.308  14.919  -3.327  1.00 20.00     0.047 C 
HETATM    9  C9  UNL     1     -34.643  15.669  -4.609  1.00 20.00     0.106 C 
HETATM   10  C10 UNL     1     -37.182  17.968  -2.799  1.00 20.00     0.048 C 
HETATM   11  N11 UNL     1     -35.546  14.410  -7.918  1.00 20.00    -0.192 NA
HETATM   12  N12 UNL     1     -34.109  13.641  -3.447  1.00 20.00    -0.263 NA
ENDROOT
TORSDOF 0
ENDMDL
MODEL 9
REMARK VINA RESULT:      -4.5      4.399      6.932
REMARK  0 active torsions:
REMARK  status: ('A' for Active; 'I' for Inactive)
ROOT
HETATM    1  C1  UNL     1     -31.340  19.012   3.317  1.00 20.00     0.097 C 
HETATM    2  C2  UNL     1     -35.459  17.802   0.195  1.00 20.00     0.008 C 
HETATM    3  C3  UNL     1     -35.870  18.067   1.446  1.00 20.00     0.029 C 
HETATM    4  C4  UNL     1     -33.111  18.284   0.630  1.00 20.00    -0.004 C 
HETATM    5  C5  UNL     1     -33.515  18.225   4.083  1.00 20.00     0.136 C 
HETATM    6  C6  UNL     1     -32.707  18.706   3.131  1.00 20.00     0.053 C 
HETATM    7  C7  UNL     1     -34.048  17.756  -0.182  1.00 20.00    -0.065 C 
HETATM    8  C8  UNL     1     -34.785  18.324   2.409  1.00 20.00     0.047 C 
HETATM    9  C9  UNL     1     -33.503  18.970   1.899  1.00 20.00     0.106 C 
HETATM   10  C10 UNL     1     -33.721  17.116  -1.496  1.00 20.00     0.048 C 
HETATM   11  N11 UNL     1     -30.217  19.263   3.469  1.00 20.00    -0.192 NA
HETATM   12  N12 UNL     1     -34.801  17.998   3.666  1.00 20.00    -0.263 NA
ENDROOT
TORSDOF 0
ENDMDL
