MODEL 1
REMARK VINA RESULT:      -4.0      0.000      0.000
REMARK  2 active torsions:
REMARK  status: ('A' for Active; 'I' for Inactive)
REMARK    1  A    between atoms: C1_1  and  C4_4 
REMARK    2  A    between atoms: C2_2  and  C3_3 
ROOT
HETATM    1  C1  UNL     1     -33.163   6.490   4.338  1.00 20.00     0.015 C 
HETATM    2  C3  UNL     1     -34.121   5.845   5.019  1.00 20.00     0.069 C 
HETATM    3 CL6  UNL     1     -34.455   6.084   6.687  1.00 20.00    -0.081 Cl
ENDROOT
BRANCH   2   4
HETATM    4  C2  UNL     1     -34.961   4.862   4.295  1.00 20.00     0.282 C 
HETATM    5  O5  UNL     1     -35.232   3.750   4.734  1.00 20.00    -0.301 OA
ENDBRANCH   2   4
BRANCH   1   6
HETATM    6  C4  UNL     1     -32.832   6.332   2.887  1.00 20.00     0.143 C 
HETATM    7 CL7  UNL     1     -32.107   7.831   2.268  1.00 20.00    -0.126 Cl
ENDBRANCH   1   6
TORSDOF 2
ENDMDL
MODEL 2
REMARK VINA RESULT:      -4.0      1.816      1.994
REMARK  2 active torsions:
REMARK  status: ('A' for Active; 'I' for Inactive)
REMARK    1  A    between atoms: C1_1  and  C4_4 
REMARK    2  A    between atoms: C2_2  and  C3_3 
ROOT
HETATM    1  C1  UNL     1     -33.289   6.106   3.287  1.00 20.00     0.015 C 
HETATM    2  C3  UNL     1     -34.119   5.873   4.314  1.00 20.00     0.069 C 
HETATM    3 CL6  UNL     1     -35.543   4.919   4.214  1.00 20.00    -0.081 Cl
ENDROOT
BRANCH   2   4
HETATM    4  C2  UNL     1     -33.793   6.465   5.633  1.00 20.00     0.282 C 
HETATM    5  O5  UNL     1     -34.380   6.174   6.669  1.00 20.00    -0.301 OA
ENDBRANCH   2   4
BRANCH   1   6
HETATM    6  C4  UNL     1     -32.032   6.918   3.315  1.00 20.00     0.143 C 
HETATM    7 CL7  UNL     1     -32.102   8.177   2.063  1.00 20.00    -0.126 Cl
ENDBRANCH   1   6
TORSDOF 2
ENDMDL
MODEL 3
REMARK VINA RESULT:      -3.4      1.705      2.946
REMARK  2 active torsions:
REMARK  status: ('A' for Active; 'I' for Inactive)
REMARK    1  A    between atoms: C1_1  and  C4_4 
REMARK    2  A    between atoms: C2_2  and  C3_3 
ROOT
HETATM    1  C1  UNL     1     -33.814   6.343   4.986  1.00 20.00     0.015 C 
HETATM    2  C3  UNL     1     -34.360   5.488   4.109  1.00 20.00     0.069 C 
HETATM    3 CL6  UNL     1     -33.956   5.419   2.441  1.00 20.00    -0.081 Cl
ENDROOT
BRANCH   2   4
HETATM    4  C2  UNL     1     -35.374   4.526   4.600  1.00 20.00     0.282 C 
HETATM    5  O5  UNL     1     -35.093   3.442   5.099  1.00 20.00    -0.301 OA
ENDBRANCH   2   4
BRANCH   1   6
HETATM    6  C4  UNL     1     -34.118   6.444   6.448  1.00 20.00     0.143 C 
HETATM    7 CL7  UNL     1     -33.112   7.712   7.184  1.00 20.00    -0.126 Cl
ENDBRANCH   1   6
TORSDOF 2
ENDMDL
MODEL 4
REMARK VINA RESULT:      -3.4      1.546      3.373
REMARK  2 active torsions:
REMARK  status: ('A' for Active; 'I' for Inactive)
REMARK    1  A    between atoms: C1_1  and  C4_4 
REMARK    2  A    between atoms: C2_2  and  C3_3 
ROOT
HETATM    1  C1  UNL     1     -33.638   6.342   5.410  1.00 20.00     0.015 C 
HETATM    2  C3  UNL     1     -33.615   6.241   4.073  1.00 20.00     0.069 C 
HETATM    3 CL6  UNL     1     -32.456   7.005   3.062  1.00 20.00    -0.081 Cl
ENDROOT
BRANCH   2   4
HETATM    4  C2  UNL     1     -34.648   5.409   3.411  1.00 20.00     0.282 C 
HETATM    5  O5  UNL     1     -35.833   5.718   3.356  1.00 20.00    -0.301 OA
ENDBRANCH   2   4
BRANCH   1   6
HETATM    6  C4  UNL     1     -34.614   5.694   6.342  1.00 20.00     0.143 C 
HETATM    7 CL7  UNL     1     -34.589   3.933   6.109  1.00 20.00    -0.126 Cl
ENDBRANCH   1   6
TORSDOF 2
ENDMDL
MODEL 5
REMARK VINA RESULT:      -3.4     11.936     12.267
REMARK  2 active torsions:
REMARK  status: ('A' for Active; 'I' for Inactive)
REMARK    1  A    between atoms: C1_1  and  C4_4 
REMARK    2  A    between atoms: C2_2  and  C3_3 
ROOT
HETATM    1  C1  UNL     1     -34.802  15.245  -3.003  1.00 20.00     0.015 C 
HETATM    2  C3  UNL     1     -35.442  14.457  -3.879  1.00 20.00     0.069 C 
HETATM    3 CL6  UNL     1     -34.736  13.097  -4.655  1.00 20.00    -0.081 Cl
ENDROOT
BRANCH   2   4
HETATM    4  C2  UNL     1     -36.856  14.760  -4.201  1.00 20.00     0.282 C 
HETATM    5  O5  UNL     1     -37.807  14.190  -3.678  1.00 20.00    -0.301 OA
ENDBRANCH   2   4
BRANCH   1   6
HETATM    6  C4  UNL     1     -35.365  16.434  -2.289  1.00 20.00     0.143 C 
HETATM    7 CL7  UNL     1     -34.605  16.591  -0.691  1.00 20.00    -0.126 Cl
ENDBRANCH   1   6
TORSDOF 2
ENDMDL
MODEL 6
REMARK VINA RESULT:      -3.4     12.211     12.654
REMARK  2 active torsions:
REMARK  status: ('A' for Active; 'I' for Inactive)
REMARK    1  A    between atoms: C1_1  and  C4_4 
REMARK    2  A    between atoms: C2_2  and  C3_3 
ROOT
HETATM    1  C1  UNL     1     -34.982  14.123  -3.723  1.00 20.00     0.015 C 
HETATM    2  C3  UNL     1     -34.224  15.095  -3.198  1.00 20.00     0.069 C 
HETATM    3 CL6  UNL     1     -34.645  16.009  -1.806  1.00 20.00    -0.081 Cl
ENDROOT
BRANCH   2   4
HETATM    4  C2  UNL     1     -32.929  15.408  -3.846  1.00 20.00     0.282 C 
HETATM    5  O5  UNL     1     -32.792  16.277  -4.701  1.00 20.00    -0.301 OA
ENDBRANCH   2   4
BRANCH   1   6
HETATM    6  C4  UNL     1     -34.666  13.288  -4.924  1.00 20.00     0.143 C 
HETATM    7 CL7  UNL     1     -35.190  14.132  -6.398  1.00 20.00    -0.126 Cl
ENDBRANCH   1   6
TORSDOF 2
ENDMDL
MODEL 7
REMARK VINA RESULT:      -3.4      1.992      3.609
REMARK  2 active torsions:
REMARK  status: ('A' for Active; 'I' for Inactive)
REMARK    1  A    between atoms: C1_1  and  C4_4 
REMARK    2  A    between atoms: C2_2  and  C3_3 
ROOT
HETATM    1  C1  UNL     1     -34.197   5.496   3.658  1.00 20.00     0.015 C 
HETATM    2  C3  UNL     1     -33.399   6.449   4.160  1.00 20.00     0.069 C 
HETATM    3 CL6  UNL     1     -31.988   7.044   3.382  1.00 20.00    -0.081 Cl
ENDROOT
BRANCH   2   4
HETATM    4  C2  UNL     1     -33.750   7.045   5.471  1.00 20.00     0.282 C 
HETATM    5  O5  UNL     1     -33.312   6.635   6.540  1.00 20.00    -0.301 OA
ENDBRANCH   2   4
BRANCH   1   6
HETATM    6  C4  UNL     1     -35.440   4.945   4.283  1.00 20.00     0.143 C 
HETATM    7 CL7  UNL     1     -35.008   3.807   5.578  1.00 20.00    -0.126 Cl
ENDBRANCH   1   6
TORSDOF 2
ENDMDL
MODEL 8
REMARK VINA RESULT:      -3.4     11.752     12.782
REMARK  2 active torsions:
REMARK  status: ('A' for Active; 'I' for Inactive)
REMARK    1  A    between atoms: C1_1  and  C4_4 
REMARK    2  A    between atoms: C2_2  and  C3_3 
ROOT
HETATM    1  C1  UNL     1     -33.939  15.600  -4.784  1.00 20.00     0.015 C 
HETATM    2  C3  UNL     1     -34.371  14.538  -5.478  1.00 20.00     0.069 C 
HETATM    3 CL6  UNL     1     -35.011  14.613  -7.070  1.00 20.00    -0.081 Cl
ENDROOT
BRANCH   2   4
HETATM    4  C2  UNL     1     -34.288  13.200  -4.846  1.00 20.00     0.282 C 
HETATM    5  O5  UNL     1     -35.221  12.675  -4.248  1.00 20.00    -0.301 OA
ENDBRANCH   2   4
BRANCH   1   6
HETATM    6  C4  UNL     1     -33.364  15.596  -3.402  1.00 20.00     0.143 C 
HETATM    7 CL7  UNL     1     -34.671  15.747  -2.207  1.00 20.00    -0.126 Cl
ENDBRANCH   1   6
TORSDOF 2
ENDMDL
MODEL 9
REMARK VINA RESULT:      -3.3     12.250     12.615
REMARK  2 active torsions:
REMARK  status: ('A' for Active; 'I' for Inactive)
REMARK    1  A    between atoms: C1_1  and  C4_4 
REMARK    2  A    between atoms: C2_2  and  C3_3 
ROOT
HETATM    1  C1  UNL     1     -34.753  15.682  -2.224  1.00 20.00     0.015 C 
HETATM    2  C3  UNL     1     -34.251  14.984  -3.253  1.00 20.00     0.069 C 
HETATM    3 CL6  UNL     1     -35.038  13.651  -3.998  1.00 20.00    -0.081 Cl
ENDROOT
BRANCH   2   4
HETATM    4  C2  UNL     1     -32.933  15.383  -3.800  1.00 20.00     0.282 C 
HETATM    5  O5  UNL     1     -32.795  16.203  -4.700  1.00 20.00    -0.301 OA
ENDBRANCH   2   4
BRANCH   1   6
HETATM    6  C4  UNL     1     -34.121  16.854  -1.541  1.00 20.00     0.143 C 
HETATM    7 CL7  UNL     1     -34.844  17.075   0.067  1.00 20.00    -0.126 Cl
ENDBRANCH   1   6
TORSDOF 2
ENDMDL
