MODEL 1
REMARK VINA RESULT:      -4.8      0.000      0.000
REMARK  3 active torsions:
REMARK  status: ('A' for Active; 'I' for Inactive)
REMARK    1  A    between atoms: C6_6  and  C8_8 
REMARK    2  A    between atoms: C7_7  and  O11_11 
REMARK    3  A    between atoms: C9_9  and  C10_10 
ROOT
HETATM    1  C1  UNL     1     -34.785   3.971   5.758  1.00 20.00    -0.023 C 
HETATM    2  C2  UNL     1     -34.408   4.879   6.687  1.00 20.00     0.001 C 
HETATM    3  C6  UNL     1     -35.186   4.728   4.546  1.00 20.00     0.019 C 
HETATM    4  C7  UNL     1     -34.344   6.289   6.096  1.00 20.00     0.145 C 
HETATM    5  C10 UNL     1     -34.147   5.851   4.663  1.00 20.00     0.030 C 
ENDROOT
BRANCH   4   6
HETATM    6  O11 UNL     1     -33.216   6.989   6.580  1.00 20.00    -0.391 OA
HETATM    7  H25 UNL     1     -32.448   6.694   6.060  1.00 20.00     0.210 HD
ENDBRANCH   4   6
BRANCH   5   8
HETATM    8  C9  UNL     1     -34.291   6.588   3.321  1.00 20.00    -0.007 C 
HETATM    9  C4  UNL     1     -33.192   7.683   3.360  1.00 20.00     0.005 C 
HETATM   10  C3  UNL     1     -31.892   6.840   3.461  1.00 20.00     0.005 C 
HETATM   11  C8  UNL     1     -32.369   5.399   3.182  1.00 20.00    -0.006 C 
HETATM   12  C5  UNL     1     -33.610   5.669   2.288  1.00 20.00     0.010 C 
ENDBRANCH   5   8
TORSDOF 3
ENDMDL
MODEL 2
REMARK VINA RESULT:      -4.7     11.913     13.752
REMARK  3 active torsions:
REMARK  status: ('A' for Active; 'I' for Inactive)
REMARK    1  A    between atoms: C6_6  and  C8_8 
REMARK    2  A    between atoms: C7_7  and  O11_11 
REMARK    3  A    between atoms: C9_9  and  C10_10 
ROOT
HETATM    1  C1  UNL     1     -33.663  15.770  -3.267  1.00 20.00    -0.023 C 
HETATM    2  C2  UNL     1     -33.981  14.472  -3.057  1.00 20.00     0.001 C 
HETATM    3  C6  UNL     1     -33.322  15.910  -4.704  1.00 20.00     0.019 C 
HETATM    4  C7  UNL     1     -34.065  13.699  -4.375  1.00 20.00     0.145 C 
HETATM    5  C10 UNL     1     -34.344  14.902  -5.247  1.00 20.00     0.030 C 
ENDROOT
BRANCH   4   6
HETATM    6  O11 UNL     1     -35.159  12.804  -4.368  1.00 20.00    -0.391 OA
HETATM    7  H25 UNL     1     -34.877  12.001  -4.840  1.00 20.00     0.210 HD
ENDBRANCH   4   6
BRANCH   5   8
HETATM    8  C9  UNL     1     -34.266  15.125  -6.767  1.00 20.00    -0.007 C 
HETATM    9  C4  UNL     1     -35.470  14.330  -7.337  1.00 20.00     0.005 C 
HETATM   10  C3  UNL     1     -36.679  15.042  -6.672  1.00 20.00     0.005 C 
HETATM   11  C8  UNL     1     -36.057  16.308  -6.047  1.00 20.00    -0.006 C 
HETATM   12  C5  UNL     1     -34.845  16.536  -6.990  1.00 20.00     0.010 C 
ENDBRANCH   5   8
TORSDOF 3
ENDMDL
MODEL 3
REMARK VINA RESULT:      -4.5     11.995     12.995
REMARK  3 active torsions:
REMARK  status: ('A' for Active; 'I' for Inactive)
REMARK    1  A    between atoms: C6_6  and  C8_8 
REMARK    2  A    between atoms: C7_7  and  O11_11 
REMARK    3  A    between atoms: C9_9  and  C10_10 
ROOT
HETATM    1  C1  UNL     1     -35.651  14.266  -5.025  1.00 20.00    -0.023 C 
HETATM    2  C2  UNL     1     -34.337  13.947  -5.018  1.00 20.00     0.001 C 
HETATM    3  C6  UNL     1     -36.006  14.682  -3.645  1.00 20.00     0.019 C 
HETATM    4  C7  UNL     1     -33.680  14.314  -3.686  1.00 20.00     0.145 C 
HETATM    5  C10 UNL     1     -34.683  15.379  -3.303  1.00 20.00     0.030 C 
ENDROOT
BRANCH   4   6
HETATM    6  O11 UNL     1     -32.395  14.866  -3.890  1.00 20.00    -0.391 OA
HETATM    7  H25 UNL     1     -32.215  15.461  -3.141  1.00 20.00     0.210 HD
ENDBRANCH   4   6
BRANCH   5   8
HETATM    8  C9  UNL     1     -35.001  16.076  -1.970  1.00 20.00    -0.007 C 
HETATM    9  C4  UNL     1     -33.750  16.947  -1.680  1.00 20.00     0.005 C 
HETATM   10  C3  UNL     1     -33.736  17.917  -2.893  1.00 20.00     0.005 C 
HETATM   11  C8  UNL     1     -35.106  17.683  -3.562  1.00 20.00    -0.006 C 
HETATM   12  C5  UNL     1     -35.954  17.229  -2.344  1.00 20.00     0.010 C 
ENDBRANCH   5   8
TORSDOF 3
ENDMDL
MODEL 4
REMARK VINA RESULT:      -4.5     12.119     13.759
REMARK  3 active torsions:
REMARK  status: ('A' for Active; 'I' for Inactive)
REMARK    1  A    between atoms: C6_6  and  C8_8 
REMARK    2  A    between atoms: C7_7  and  O11_11 
REMARK    3  A    between atoms: C9_9  and  C10_10 
ROOT
HETATM    1  C1  UNL     1     -34.473  13.256  -3.853  1.00 20.00    -0.023 C 
HETATM    2  C2  UNL     1     -33.351  14.005  -3.772  1.00 20.00     0.001 C 
HETATM    3  C6  UNL     1     -35.595  14.180  -4.156  1.00 20.00     0.019 C 
HETATM    4  C7  UNL     1     -33.611  15.449  -4.209  1.00 20.00     0.145 C 
HETATM    5  C10 UNL     1     -34.817  15.140  -5.066  1.00 20.00     0.030 C 
ENDROOT
BRANCH   4   6
HETATM    6  O11 UNL     1     -32.539  15.943  -4.986  1.00 20.00    -0.391 OA
HETATM    7  H25 UNL     1     -32.831  15.937  -5.915  1.00 20.00     0.210 HD
ENDBRANCH   4   6
BRANCH   5   8
HETATM    8  C9  UNL     1     -35.929  16.025  -5.654  1.00 20.00    -0.007 C 
HETATM    9  C4  UNL     1     -35.200  16.928  -6.684  1.00 20.00     0.005 C 
HETATM   10  C3  UNL     1     -34.642  15.890  -7.695  1.00 20.00     0.005 C 
HETATM   11  C8  UNL     1     -35.344  14.576  -7.293  1.00 20.00    -0.006 C 
HETATM   12  C5  UNL     1     -36.657  15.124  -6.671  1.00 20.00     0.010 C 
ENDBRANCH   5   8
TORSDOF 3
ENDMDL
MODEL 5
REMARK VINA RESULT:      -4.4     12.085     13.168
REMARK  3 active torsions:
REMARK  status: ('A' for Active; 'I' for Inactive)
REMARK    1  A    between atoms: C6_6  and  C8_8 
REMARK    2  A    between atoms: C7_7  and  O11_11 
REMARK    3  A    between atoms: C9_9  and  C10_10 
ROOT
HETATM    1  C1  UNL     1     -34.574  16.325  -1.709  1.00 20.00    -0.023 C 
HETATM    2  C2  UNL     1     -33.426  16.579  -2.376  1.00 20.00     0.001 C 
HETATM    3  C6  UNL     1     -35.681  16.423  -2.692  1.00 20.00     0.019 C 
HETATM    4  C7  UNL     1     -33.665  16.670  -3.884  1.00 20.00     0.145 C 
HETATM    5  C10 UNL     1     -34.928  15.839  -3.895  1.00 20.00     0.030 C 
ENDROOT
BRANCH   4   6
HETATM    6  O11 UNL     1     -32.625  16.035  -4.601  1.00 20.00    -0.391 OA
HETATM    7  H25 UNL     1     -32.099  16.735  -5.025  1.00 20.00     0.210 HD
ENDBRANCH   4   6
BRANCH   5   8
HETATM    8  C9  UNL     1     -36.043  15.656  -4.937  1.00 20.00    -0.007 C 
HETATM    9  C4  UNL     1     -35.340  14.974  -6.141  1.00 20.00     0.005 C 
HETATM   10  C3  UNL     1     -34.851  13.636  -5.522  1.00 20.00     0.005 C 
HETATM   11  C8  UNL     1     -35.566  13.585  -4.155  1.00 20.00    -0.006 C 
HETATM   12  C5  UNL     1     -36.837  14.425  -4.457  1.00 20.00     0.010 C 
ENDBRANCH   5   8
TORSDOF 3
ENDMDL
MODEL 6
REMARK VINA RESULT:      -4.3     11.924     13.320
REMARK  3 active torsions:
REMARK  status: ('A' for Active; 'I' for Inactive)
REMARK    1  A    between atoms: C6_6  and  C8_8 
REMARK    2  A    between atoms: C7_7  and  O11_11 
REMARK    3  A    between atoms: C9_9  and  C10_10 
ROOT
HETATM    1  C1  UNL     1     -35.052  13.284  -4.471  1.00 20.00    -0.023 C 
HETATM    2  C2  UNL     1     -34.949  13.993  -5.618  1.00 20.00     0.001 C 
HETATM    3  C6  UNL     1     -34.144  13.917  -3.483  1.00 20.00     0.019 C 
HETATM    4  C7  UNL     1     -34.119  15.262  -5.416  1.00 20.00     0.145 C 
HETATM    5  C10 UNL     1     -34.354  15.371  -3.927  1.00 20.00     0.030 C 
ENDROOT
BRANCH   4   6
HETATM    6  O11 UNL     1     -34.688  16.355  -6.109  1.00 20.00    -0.391 OA
HETATM    7  H25 UNL     1     -34.718  16.114  -7.051  1.00 20.00     0.210 HD
ENDBRANCH   4   6
BRANCH   5   8
HETATM    8  C9  UNL     1     -33.650  16.170  -2.818  1.00 20.00    -0.007 C 
HETATM    9  C4  UNL     1     -33.821  17.653  -3.241  1.00 20.00     0.005 C 
HETATM   10  C3  UNL     1     -35.365  17.821  -3.232  1.00 20.00     0.005 C 
HETATM   11  C8  UNL     1     -35.867  16.534  -2.544  1.00 20.00    -0.006 C 
HETATM   12  C5  UNL     1     -34.650  16.188  -1.645  1.00 20.00     0.010 C 
ENDBRANCH   5   8
TORSDOF 3
ENDMDL
MODEL 7
REMARK VINA RESULT:      -4.3     11.757     13.083
REMARK  3 active torsions:
REMARK  status: ('A' for Active; 'I' for Inactive)
REMARK    1  A    between atoms: C6_6  and  C8_8 
REMARK    2  A    between atoms: C7_7  and  O11_11 
REMARK    3  A    between atoms: C9_9  and  C10_10 
ROOT
HETATM    1  C1  UNL     1     -35.347  14.544  -6.303  1.00 20.00    -0.023 C 
HETATM    2  C2  UNL     1     -34.850  13.484  -5.625  1.00 20.00     0.001 C 
HETATM    3  C6  UNL     1     -36.149  15.340  -5.341  1.00 20.00     0.019 C 
HETATM    4  C7  UNL     1     -35.122  13.604  -4.124  1.00 20.00     0.145 C 
HETATM    5  C10 UNL     1     -35.263  15.110  -4.109  1.00 20.00     0.030 C 
ENDROOT
BRANCH   4   6
HETATM    6  O11 UNL     1     -34.002  13.185  -3.372  1.00 20.00    -0.391 OA
HETATM    7  H25 UNL     1     -33.918  13.793  -2.616  1.00 20.00     0.210 HD
ENDBRANCH   4   6
BRANCH   5   8
HETATM    8  C9  UNL     1     -35.852  16.089  -3.080  1.00 20.00    -0.007 C 
HETATM    9  C4  UNL     1     -34.897  15.989  -1.861  1.00 20.00     0.005 C 
HETATM   10  C3  UNL     1     -33.546  16.467  -2.461  1.00 20.00     0.005 C 
HETATM   11  C8  UNL     1     -33.943  17.043  -3.836  1.00 20.00    -0.006 C 
HETATM   12  C5  UNL     1     -35.406  17.484  -3.559  1.00 20.00     0.010 C 
ENDBRANCH   5   8
TORSDOF 3
ENDMDL
MODEL 8
REMARK VINA RESULT:      -4.3     12.064     14.093
REMARK  3 active torsions:
REMARK  status: ('A' for Active; 'I' for Inactive)
REMARK    1  A    between atoms: C6_6  and  C8_8 
REMARK    2  A    between atoms: C7_7  and  O11_11 
REMARK    3  A    between atoms: C9_9  and  C10_10 
ROOT
HETATM    1  C1  UNL     1     -34.627  18.005  -5.767  1.00 20.00    -0.023 C 
HETATM    2  C2  UNL     1     -34.408  17.172  -6.810  1.00 20.00     0.001 C 
HETATM    3  C6  UNL     1     -35.475  17.272  -4.793  1.00 20.00     0.019 C 
HETATM    4  C7  UNL     1     -34.927  15.763  -6.517  1.00 20.00     0.145 C 
HETATM    5  C10 UNL     1     -34.865  15.880  -5.011  1.00 20.00     0.030 C 
ENDROOT
BRANCH   4   6
HETATM    6  O11 UNL     1     -34.028  14.783  -6.995  1.00 20.00    -0.391 OA
HETATM    7  H25 UNL     1     -33.273  14.762  -6.381  1.00 20.00     0.210 HD
ENDBRANCH   4   6
BRANCH   5   8
HETATM    8  C9  UNL     1     -35.493  15.054  -3.877  1.00 20.00    -0.007 C 
HETATM    9  C4  UNL     1     -34.847  13.650  -4.018  1.00 20.00     0.005 C 
HETATM   10  C3  UNL     1     -33.341  13.956  -3.795  1.00 20.00     0.005 C 
HETATM   11  C8  UNL     1     -33.338  15.410  -3.279  1.00 20.00    -0.006 C 
HETATM   12  C5  UNL     1     -34.735  15.486  -2.606  1.00 20.00     0.010 C 
ENDBRANCH   5   8
TORSDOF 3
ENDMDL
MODEL 9
REMARK VINA RESULT:      -4.3     12.047     13.934
REMARK  3 active torsions:
REMARK  status: ('A' for Active; 'I' for Inactive)
REMARK    1  A    between atoms: C6_6  and  C8_8 
REMARK    2  A    between atoms: C7_7  and  O11_11 
REMARK    3  A    between atoms: C9_9  and  C10_10 
ROOT
HETATM    1  C1  UNL     1     -35.580  15.638  -7.488  1.00 20.00    -0.023 C 
HETATM    2  C2  UNL     1     -34.744  16.659  -7.196  1.00 20.00     0.001 C 
HETATM    3  C6  UNL     1     -35.013  14.417  -6.864  1.00 20.00     0.019 C 
HETATM    4  C7  UNL     1     -33.669  16.232  -6.194  1.00 20.00     0.145 C 
HETATM    5  C10 UNL     1     -34.453  15.084  -5.600  1.00 20.00     0.030 C 
ENDROOT
BRANCH   4   6
HETATM    6  O11 UNL     1     -33.435  17.245  -5.239  1.00 20.00    -0.391 OA
HETATM    7  H25 UNL     1     -32.590  17.670  -5.469  1.00 20.00     0.210 HD
ENDBRANCH   4   6
BRANCH   5   8
HETATM    8  C9  UNL     1     -34.042  13.881  -4.735  1.00 20.00    -0.007 C 
HETATM    9  C4  UNL     1     -33.517  14.513  -3.418  1.00 20.00     0.005 C 
HETATM   10  C3  UNL     1     -34.774  15.254  -2.885  1.00 20.00     0.005 C 
HETATM   11  C8  UNL     1     -35.913  14.731  -3.784  1.00 20.00    -0.006 C 
HETATM   12  C5  UNL     1     -35.366  13.330  -4.168  1.00 20.00     0.010 C 
ENDBRANCH   5   8
TORSDOF 3
ENDMDL
