MODEL 1
REMARK VINA RESULT:      -4.8      0.000      0.000
REMARK  3 active torsions:
REMARK  status: ('A' for Active; 'I' for Inactive)
REMARK    1  A    between atoms: C3_3  and  C7_7 
REMARK    2  A    between atoms: C7_7  and  C8_8 
REMARK    3  A    between atoms: C8_8  and  C9_9 
ROOT
HETATM    1  C1  UNL     1     -32.379   8.921   1.527  1.00 20.00     0.088 C 
HETATM    2  C2  UNL     1     -32.864   7.692   2.050  1.00 20.00     0.096 C 
HETATM    3  C3  UNL     1     -32.392   7.110   3.170  1.00 20.00    -0.074 C 
HETATM    4  C4  UNL     1     -31.282   7.763   3.951  1.00 20.00     0.044 C 
HETATM    5  N10 UNL     1     -31.986   9.923   1.094  1.00 20.00    -0.192 NA
ENDROOT
BRANCH   3   6
HETATM    6  C7  UNL     1     -32.885   5.787   3.721  1.00 20.00     0.034 C 
BRANCH   6   7
HETATM    7  C8  UNL     1     -34.414   5.741   3.830  1.00 20.00     0.008 C 
BRANCH   7   8
HETATM    8  C9  UNL     1     -34.915   5.415   5.250  1.00 20.00    -0.023 C 
HETATM    9  C5  UNL     1     -34.136   6.240   6.278  1.00 20.00     0.009 C 
HETATM   10  C6  UNL     1     -34.792   3.927   5.585  1.00 20.00     0.009 C 
ENDBRANCH   7   8
ENDBRANCH   6   7
ENDBRANCH   3   6
TORSDOF 3
ENDMDL
MODEL 2
REMARK VINA RESULT:      -4.7     10.607     11.486
REMARK  3 active torsions:
REMARK  status: ('A' for Active; 'I' for Inactive)
REMARK    1  A    between atoms: C3_3  and  C7_7 
REMARK    2  A    between atoms: C7_7  and  C8_8 
REMARK    3  A    between atoms: C8_8  and  C9_9 
ROOT
HETATM    1  C1  UNL     1     -34.650  13.606  -3.990  1.00 20.00     0.088 C 
HETATM    2  C2  UNL     1     -34.517  14.635  -3.018  1.00 20.00     0.096 C 
HETATM    3  C3  UNL     1     -33.853  15.788  -3.227  1.00 20.00    -0.074 C 
HETATM    4  C4  UNL     1     -33.195  16.051  -4.556  1.00 20.00     0.044 C 
HETATM    5  N10 UNL     1     -34.761  12.763  -4.779  1.00 20.00    -0.192 NA
ENDROOT
BRANCH   3   6
HETATM    6  C7  UNL     1     -33.683  16.879  -2.189  1.00 20.00     0.034 C 
BRANCH   6   7
HETATM    7  C8  UNL     1     -34.539  16.625  -0.941  1.00 20.00     0.008 C 
BRANCH   7   8
HETATM    8  C9  UNL     1     -34.645  17.853  -0.015  1.00 20.00    -0.023 C 
HETATM    9  C5  UNL     1     -33.253  18.442   0.227  1.00 20.00     0.009 C 
HETATM   10  C6  UNL     1     -35.303  17.518   1.324  1.00 20.00     0.009 C 
ENDBRANCH   7   8
ENDBRANCH   6   7
ENDBRANCH   3   6
TORSDOF 3
ENDMDL
MODEL 3
REMARK VINA RESULT:      -4.6     10.621     11.500
REMARK  3 active torsions:
REMARK  status: ('A' for Active; 'I' for Inactive)
REMARK    1  A    between atoms: C3_3  and  C7_7 
REMARK    2  A    between atoms: C7_7  and  C8_8 
REMARK    3  A    between atoms: C8_8  and  C9_9 
ROOT
HETATM    1  C1  UNL     1     -34.570  13.554  -4.063  1.00 20.00     0.088 C 
HETATM    2  C2  UNL     1     -34.516  14.549  -3.050  1.00 20.00     0.096 C 
HETATM    3  C3  UNL     1     -33.864  15.721  -3.177  1.00 20.00    -0.074 C 
HETATM    4  C4  UNL     1     -33.131  16.043  -4.452  1.00 20.00     0.044 C 
HETATM    5  N10 UNL     1     -34.616  12.738  -4.886  1.00 20.00    -0.192 NA
ENDROOT
BRANCH   3   6
HETATM    6  C7  UNL     1     -33.779  16.776  -2.093  1.00 20.00     0.034 C 
BRANCH   6   7
HETATM    7  C8  UNL     1     -34.861  16.590  -1.021  1.00 20.00     0.008 C 
BRANCH   7   8
HETATM    8  C9  UNL     1     -34.576  17.373   0.275  1.00 20.00    -0.023 C 
HETATM    9  C5  UNL     1     -35.857  18.056   0.762  1.00 20.00     0.009 C 
HETATM   10  C6  UNL     1     -33.471  18.416   0.097  1.00 20.00     0.009 C 
ENDBRANCH   7   8
ENDBRANCH   6   7
ENDBRANCH   3   6
TORSDOF 3
ENDMDL
MODEL 4
REMARK VINA RESULT:      -4.6      0.451      1.196
REMARK  3 active torsions:
REMARK  status: ('A' for Active; 'I' for Inactive)
REMARK    1  A    between atoms: C3_3  and  C7_7 
REMARK    2  A    between atoms: C7_7  and  C8_8 
REMARK    3  A    between atoms: C8_8  and  C9_9 
ROOT
HETATM    1  C1  UNL     1     -32.383   9.164   1.551  1.00 20.00     0.088 C 
HETATM    2  C2  UNL     1     -32.791   7.843   1.882  1.00 20.00     0.096 C 
HETATM    3  C3  UNL     1     -32.340   7.160   2.952  1.00 20.00    -0.074 C 
HETATM    4  C4  UNL     1     -31.342   7.792   3.886  1.00 20.00     0.044 C 
HETATM    5  N10 UNL     1     -32.053  10.241   1.275  1.00 20.00    -0.192 NA
ENDROOT
BRANCH   3   6
HETATM    6  C7  UNL     1     -32.748   5.742   3.298  1.00 20.00     0.034 C 
BRANCH   6   7
HETATM    7  C8  UNL     1     -34.112   5.690   3.997  1.00 20.00     0.008 C 
BRANCH   7   8
HETATM    8  C9  UNL     1     -34.018   5.320   5.490  1.00 20.00    -0.023 C 
HETATM    9  C5  UNL     1     -35.160   4.371   5.863  1.00 20.00     0.009 C 
HETATM   10  C6  UNL     1     -34.053   6.550   6.399  1.00 20.00     0.009 C 
ENDBRANCH   7   8
ENDBRANCH   6   7
ENDBRANCH   3   6
TORSDOF 3
ENDMDL
MODEL 5
REMARK VINA RESULT:      -4.5      2.698      5.224
REMARK  3 active torsions:
REMARK  status: ('A' for Active; 'I' for Inactive)
REMARK    1  A    between atoms: C3_3  and  C7_7 
REMARK    2  A    between atoms: C7_7  and  C8_8 
REMARK    3  A    between atoms: C8_8  and  C9_9 
ROOT
HETATM    1  C1  UNL     1     -34.476   5.435   5.692  1.00 20.00     0.088 C 
HETATM    2  C2  UNL     1     -33.538   6.380   5.193  1.00 20.00     0.096 C 
HETATM    3  C3  UNL     1     -33.165   6.461   3.901  1.00 20.00    -0.074 C 
HETATM    4  C4  UNL     1     -33.748   5.516   2.884  1.00 20.00     0.044 C 
HETATM    5  N10 UNL     1     -35.239   4.666   6.105  1.00 20.00    -0.192 NA
ENDROOT
BRANCH   3   6
HETATM    6  C7  UNL     1     -32.146   7.447   3.365  1.00 20.00     0.034 C 
BRANCH   6   7
HETATM    7  C8  UNL     1     -32.106   7.457   1.831  1.00 20.00     0.008 C 
BRANCH   7   8
HETATM    8  C9  UNL     1     -31.950   8.869   1.235  1.00 20.00    -0.023 C 
HETATM    9  C5  UNL     1     -32.719   9.881   2.088  1.00 20.00     0.009 C 
HETATM   10  C6  UNL     1     -32.431   8.947  -0.215  1.00 20.00     0.009 C 
ENDBRANCH   7   8
ENDBRANCH   6   7
ENDBRANCH   3   6
TORSDOF 3
ENDMDL
MODEL 6
REMARK VINA RESULT:      -4.5     10.709     11.845
REMARK  3 active torsions:
REMARK  status: ('A' for Active; 'I' for Inactive)
REMARK    1  A    between atoms: C3_3  and  C7_7 
REMARK    2  A    between atoms: C7_7  and  C8_8 
REMARK    3  A    between atoms: C8_8  and  C9_9 
ROOT
HETATM    1  C1  UNL     1     -37.239  14.845  -3.617  1.00 20.00     0.088 C 
HETATM    2  C2  UNL     1     -36.082  15.590  -3.261  1.00 20.00     0.096 C 
HETATM    3  C3  UNL     1     -34.826  15.106  -3.319  1.00 20.00    -0.074 C 
HETATM    4  C4  UNL     1     -34.580  13.695  -3.784  1.00 20.00     0.044 C 
HETATM    5  N10 UNL     1     -38.187  14.241  -3.904  1.00 20.00    -0.192 NA
ENDROOT
BRANCH   3   6
HETATM    6  C7  UNL     1     -33.589  15.883  -2.917  1.00 20.00     0.034 C 
BRANCH   6   7
HETATM    7  C8  UNL     1     -33.937  17.255  -2.324  1.00 20.00     0.008 C 
BRANCH   7   8
HETATM    8  C9  UNL     1     -33.636  17.361  -0.817  1.00 20.00    -0.023 C 
HETATM    9  C5  UNL     1     -34.938  17.254  -0.019  1.00 20.00     0.009 C 
HETATM   10  C6  UNL     1     -32.915  18.661  -0.455  1.00 20.00     0.009 C 
ENDBRANCH   7   8
ENDBRANCH   6   7
ENDBRANCH   3   6
TORSDOF 3
ENDMDL
MODEL 7
REMARK VINA RESULT:      -4.3     10.934     12.082
REMARK  3 active torsions:
REMARK  status: ('A' for Active; 'I' for Inactive)
REMARK    1  A    between atoms: C3_3  and  C7_7 
REMARK    2  A    between atoms: C7_7  and  C8_8 
REMARK    3  A    between atoms: C8_8  and  C9_9 
ROOT
HETATM    1  C1  UNL     1     -34.051  16.854  -1.554  1.00 20.00     0.088 C 
HETATM    2  C2  UNL     1     -34.838  15.863  -2.200  1.00 20.00     0.096 C 
HETATM    3  C3  UNL     1     -34.371  15.028  -3.148  1.00 20.00    -0.074 C 
HETATM    4  C4  UNL     1     -32.932  15.111  -3.586  1.00 20.00     0.044 C 
HETATM    5  N10 UNL     1     -33.413  17.666  -1.025  1.00 20.00    -0.192 NA
ENDROOT
BRANCH   3   6
HETATM    6  C7  UNL     1     -35.209  13.986  -3.861  1.00 20.00     0.034 C 
BRANCH   6   7
HETATM    7  C8  UNL     1     -34.607  13.591  -5.216  1.00 20.00     0.008 C 
BRANCH   7   8
HETATM    8  C9  UNL     1     -35.284  14.290  -6.411  1.00 20.00    -0.023 C 
HETATM    9  C5  UNL     1     -34.293  15.243  -7.084  1.00 20.00     0.009 C 
HETATM   10  C6  UNL     1     -36.542  15.058  -6.003  1.00 20.00     0.009 C 
ENDBRANCH   7   8
ENDBRANCH   6   7
ENDBRANCH   3   6
TORSDOF 3
ENDMDL
MODEL 8
REMARK VINA RESULT:      -4.3     11.063     12.022
REMARK  3 active torsions:
REMARK  status: ('A' for Active; 'I' for Inactive)
REMARK    1  A    between atoms: C3_3  and  C7_7 
REMARK    2  A    between atoms: C7_7  and  C8_8 
REMARK    3  A    between atoms: C8_8  and  C9_9 
ROOT
HETATM    1  C1  UNL     1     -35.034  14.713  -6.981  1.00 20.00     0.088 C 
HETATM    2  C2  UNL     1     -34.184  15.103  -5.910  1.00 20.00     0.096 C 
HETATM    3  C3  UNL     1     -34.126  14.469  -4.723  1.00 20.00    -0.074 C 
HETATM    4  C4  UNL     1     -34.996  13.267  -4.465  1.00 20.00     0.044 C 
HETATM    5  N10 UNL     1     -35.726  14.400  -7.857  1.00 20.00    -0.192 NA
ENDROOT
BRANCH   3   6
HETATM    6  C7  UNL     1     -33.243  14.893  -3.567  1.00 20.00     0.034 C 
BRANCH   6   7
HETATM    7  C8  UNL     1     -33.662  16.251  -2.990  1.00 20.00     0.008 C 
BRANCH   7   8
HETATM    8  C9  UNL     1     -34.891  16.167  -2.063  1.00 20.00    -0.023 C 
HETATM    9  C5  UNL     1     -36.066  16.922  -2.688  1.00 20.00     0.009 C 
HETATM   10  C6  UNL     1     -34.607  16.721  -0.666  1.00 20.00     0.009 C 
ENDBRANCH   7   8
ENDBRANCH   6   7
ENDBRANCH   3   6
TORSDOF 3
ENDMDL
MODEL 9
REMARK VINA RESULT:      -4.1     10.741     11.687
REMARK  3 active torsions:
REMARK  status: ('A' for Active; 'I' for Inactive)
REMARK    1  A    between atoms: C3_3  and  C7_7 
REMARK    2  A    between atoms: C7_7  and  C8_8 
REMARK    3  A    between atoms: C8_8  and  C9_9 
ROOT
HETATM    1  C1  UNL     1     -34.763  18.337   1.722  1.00 20.00     0.088 C 
HETATM    2  C2  UNL     1     -35.119  17.387   0.726  1.00 20.00     0.096 C 
HETATM    3  C3  UNL     1     -34.439  17.207  -0.421  1.00 20.00    -0.074 C 
HETATM    4  C4  UNL     1     -33.218  18.039  -0.715  1.00 20.00     0.044 C 
HETATM    5  N10 UNL     1     -34.478  19.111   2.537  1.00 20.00    -0.192 NA
ENDROOT
BRANCH   3   6
HETATM    6  C7  UNL     1     -34.825  16.216  -1.501  1.00 20.00     0.034 C 
BRANCH   6   7
HETATM    7  C8  UNL     1     -33.800  16.175  -2.640  1.00 20.00     0.008 C 
BRANCH   7   8
HETATM    8  C9  UNL     1     -34.151  15.155  -3.741  1.00 20.00    -0.023 C 
HETATM    9  C5  UNL     1     -35.626  14.760  -3.631  1.00 20.00     0.009 C 
HETATM   10  C6  UNL     1     -33.276  13.903  -3.678  1.00 20.00     0.009 C 
ENDBRANCH   7   8
ENDBRANCH   6   7
ENDBRANCH   3   6
TORSDOF 3
ENDMDL
