MODEL 1
REMARK VINA RESULT:      -5.0      0.000      0.000
REMARK  4 active torsions:
REMARK  status: ('A' for Active; 'I' for Inactive)
REMARK    1  A    between atoms: C7_7  and  C9_9 
REMARK    2  A    between atoms: C9_9  and  C11_11 
REMARK    3  A    between atoms: C10_10  and  C12_12 
REMARK    4  A    between atoms: C11_11  and  C12_12 
ROOT
HETATM    1  C1  UNL     1     -35.171  13.370  -4.505  1.00 20.00     0.004 C 
HETATM    2  C2  UNL     1     -33.767  13.618  -3.968  1.00 20.00     0.008 C 
HETATM    3  C3  UNL     1     -36.036  14.358  -3.736  1.00 20.00     0.038 C 
HETATM    4  C4  UNL     1     -32.950  15.995  -4.460  1.00 20.00     0.034 C 
HETATM    5  C5  UNL     1     -33.957  16.327  -5.536  1.00 20.00     0.169 C 
HETATM    6  C6  UNL     1     -33.724  15.092  -3.525  1.00 20.00     0.022 C 
HETATM    7  C7  UNL     1     -35.162  15.608  -3.659  1.00 20.00     0.064 C 
HETATM    8  O13 UNL     1     -35.242  16.330  -4.905  1.00 20.00    -0.380 OA
ENDROOT
BRANCH   7   9
HETATM    9  C9  UNL     1     -35.586  16.553  -2.544  1.00 20.00     0.038 C 
BRANCH   9  10
HETATM   10  C11 UNL     1     -34.711  16.381  -1.303  1.00 20.00     0.003 C 
BRANCH  10  11
HETATM   11  C12 UNL     1     -33.877  17.634  -1.034  1.00 20.00    -0.000 C 
BRANCH  11  12
HETATM   12  C10 UNL     1     -33.982  18.070   0.427  1.00 20.00    -0.005 C 
HETATM   13  C8  UNL     1     -35.265  17.566   1.067  1.00 20.00     0.005 C 
ENDBRANCH  11  12
ENDBRANCH  10  11
ENDBRANCH   9  10
ENDBRANCH   7   9
TORSDOF 4
ENDMDL
MODEL 2
REMARK VINA RESULT:      -5.0      1.767      3.100
REMARK  4 active torsions:
REMARK  status: ('A' for Active; 'I' for Inactive)
REMARK    1  A    between atoms: C7_7  and  C9_9 
REMARK    2  A    between atoms: C9_9  and  C11_11 
REMARK    3  A    between atoms: C10_10  and  C12_12 
REMARK    4  A    between atoms: C11_11  and  C12_12 
ROOT
HETATM    1  C1  UNL     1     -35.632  14.694  -7.399  1.00 20.00     0.004 C 
HETATM    2  C2  UNL     1     -36.608  15.281  -6.387  1.00 20.00     0.008 C 
HETATM    3  C3  UNL     1     -34.282  15.252  -6.971  1.00 20.00     0.038 C 
HETATM    4  C4  UNL     1     -36.108  14.503  -3.999  1.00 20.00     0.034 C 
HETATM    5  C5  UNL     1     -35.233  13.326  -4.357  1.00 20.00     0.169 C 
HETATM    6  C6  UNL     1     -35.808  15.506  -5.090  1.00 20.00     0.022 C 
HETATM    7  C7  UNL     1     -34.348  15.204  -5.445  1.00 20.00     0.064 C 
HETATM    8  O13 UNL     1     -34.067  13.864  -4.993  1.00 20.00    -0.380 OA
ENDROOT
BRANCH   7   9
HETATM    9  C9  UNL     1     -33.345  16.138  -4.785  1.00 20.00     0.038 C 
BRANCH   9  10
HETATM   10  C11 UNL     1     -33.964  17.502  -4.485  1.00 20.00     0.003 C 
BRANCH  10  11
HETATM   11  C12 UNL     1     -33.831  17.859  -3.004  1.00 20.00    -0.000 C 
BRANCH  11  12
HETATM   12  C10 UNL     1     -33.673  16.606  -2.142  1.00 20.00    -0.005 C 
HETATM   13  C8  UNL     1     -34.712  16.558  -1.033  1.00 20.00     0.005 C 
ENDBRANCH  11  12
ENDBRANCH  10  11
ENDBRANCH   9  10
ENDBRANCH   7   9
TORSDOF 4
ENDMDL
MODEL 3
REMARK VINA RESULT:      -4.9      1.311      2.466
REMARK  4 active torsions:
REMARK  status: ('A' for Active; 'I' for Inactive)
REMARK    1  A    between atoms: C7_7  and  C9_9 
REMARK    2  A    between atoms: C9_9  and  C11_11 
REMARK    3  A    between atoms: C10_10  and  C12_12 
REMARK    4  A    between atoms: C11_11  and  C12_12 
ROOT
HETATM    1  C1  UNL     1     -34.056  15.481  -6.771  1.00 20.00     0.004 C 
HETATM    2  C2  UNL     1     -35.314  14.703  -6.402  1.00 20.00     0.008 C 
HETATM    3  C3  UNL     1     -33.951  16.541  -5.684  1.00 20.00     0.038 C 
HETATM    4  C4  UNL     1     -35.101  13.544  -4.129  1.00 20.00     0.034 C 
HETATM    5  C5  UNL     1     -33.597  13.623  -4.010  1.00 20.00     0.169 C 
HETATM    6  C6  UNL     1     -35.459  14.811  -4.873  1.00 20.00     0.022 C 
HETATM    7  C7  UNL     1     -34.375  15.795  -4.420  1.00 20.00     0.064 C 
HETATM    8  O13 UNL     1     -33.268  15.014  -3.927  1.00 20.00    -0.380 OA
ENDROOT
BRANCH   7   9
HETATM    9  C9  UNL     1     -34.817  16.733  -3.306  1.00 20.00     0.038 C 
BRANCH   9  10
HETATM   10  C11 UNL     1     -33.875  16.659  -2.106  1.00 20.00     0.003 C 
BRANCH  10  11
HETATM   11  C12 UNL     1     -34.653  16.617  -0.790  1.00 20.00    -0.000 C 
BRANCH  11  12
HETATM   12  C10 UNL     1     -34.246  17.764   0.134  1.00 20.00    -0.005 C 
HETATM   13  C8  UNL     1     -32.975  18.443  -0.348  1.00 20.00     0.005 C 
ENDBRANCH  11  12
ENDBRANCH  10  11
ENDBRANCH   9  10
ENDBRANCH   7   9
TORSDOF 4
ENDMDL
MODEL 4
REMARK VINA RESULT:      -4.8      1.432      2.065
REMARK  4 active torsions:
REMARK  status: ('A' for Active; 'I' for Inactive)
REMARK    1  A    between atoms: C7_7  and  C9_9 
REMARK    2  A    between atoms: C9_9  and  C11_11 
REMARK    3  A    between atoms: C10_10  and  C12_12 
REMARK    4  A    between atoms: C11_11  and  C12_12 
ROOT
HETATM    1  C1  UNL     1     -34.636  13.459  -5.193  1.00 20.00     0.004 C 
HETATM    2  C2  UNL     1     -34.612  14.857  -5.799  1.00 20.00     0.008 C 
HETATM    3  C3  UNL     1     -34.518  13.709  -3.696  1.00 20.00     0.038 C 
HETATM    4  C4  UNL     1     -36.602  16.276  -5.035  1.00 20.00     0.034 C 
HETATM    5  C5  UNL     1     -37.465  15.144  -4.530  1.00 20.00     0.169 C 
HETATM    6  C6  UNL     1     -35.197  15.803  -4.735  1.00 20.00     0.022 C 
HETATM    7  C7  UNL     1     -35.382  14.949  -3.475  1.00 20.00     0.064 C 
HETATM    8  O13 UNL     1     -36.771  14.566  -3.419  1.00 20.00    -0.380 OA
ENDROOT
BRANCH   7   9
HETATM    9  C9  UNL     1     -35.046  15.675  -2.181  1.00 20.00     0.038 C 
BRANCH   9  10
HETATM   10  C11 UNL     1     -33.829  16.583  -2.349  1.00 20.00     0.003 C 
BRANCH  10  11
HETATM   11  C12 UNL     1     -33.623  17.469  -1.119  1.00 20.00    -0.000 C 
BRANCH  11  12
HETATM   12  C10 UNL     1     -34.734  17.258  -0.090  1.00 20.00    -0.005 C 
HETATM   13  C8  UNL     1     -34.491  18.076   1.168  1.00 20.00     0.005 C 
ENDBRANCH  11  12
ENDBRANCH  10  11
ENDBRANCH   9  10
ENDBRANCH   7   9
TORSDOF 4
ENDMDL
MODEL 5
REMARK VINA RESULT:      -4.8     11.092     12.331
REMARK  4 active torsions:
REMARK  status: ('A' for Active; 'I' for Inactive)
REMARK    1  A    between atoms: C7_7  and  C9_9 
REMARK    2  A    between atoms: C9_9  and  C11_11 
REMARK    3  A    between atoms: C10_10  and  C12_12 
REMARK    4  A    between atoms: C11_11  and  C12_12 
ROOT
HETATM    1  C1  UNL     1     -34.370   6.433   6.740  1.00 20.00     0.004 C 
HETATM    2  C2  UNL     1     -34.410   4.926   6.521  1.00 20.00     0.008 C 
HETATM    3  C3  UNL     1     -33.347   6.923   5.725  1.00 20.00     0.038 C 
HETATM    4  C4  UNL     1     -35.216   4.313   4.169  1.00 20.00     0.034 C 
HETATM    5  C5  UNL     1     -35.836   5.646   3.822  1.00 20.00     0.169 C 
HETATM    6  C6  UNL     1     -34.042   4.691   5.045  1.00 20.00     0.022 C 
HETATM    7  C7  UNL     1     -33.629   6.062   4.496  1.00 20.00     0.064 C 
HETATM    8  O13 UNL     1     -34.764   6.595   3.783  1.00 20.00    -0.380 OA
ENDROOT
BRANCH   7   9
HETATM    9  C9  UNL     1     -32.454   6.013   3.531  1.00 20.00     0.038 C 
BRANCH   9  10
HETATM   10  C11 UNL     1     -31.794   7.383   3.384  1.00 20.00     0.003 C 
BRANCH  10  11
HETATM   11  C12 UNL     1     -31.820   7.859   1.930  1.00 20.00    -0.000 C 
BRANCH  11  12
HETATM   12  C10 UNL     1     -32.469   9.239   1.809  1.00 20.00    -0.005 C 
HETATM   13  C8  UNL     1     -32.539   9.695   0.361  1.00 20.00     0.005 C 
ENDBRANCH  11  12
ENDBRANCH  10  11
ENDBRANCH   9  10
ENDBRANCH   7   9
TORSDOF 4
ENDMDL
MODEL 6
REMARK VINA RESULT:      -4.7      0.932      1.513
REMARK  4 active torsions:
REMARK  status: ('A' for Active; 'I' for Inactive)
REMARK    1  A    between atoms: C7_7  and  C9_9 
REMARK    2  A    between atoms: C9_9  and  C11_11 
REMARK    3  A    between atoms: C10_10  and  C12_12 
REMARK    4  A    between atoms: C11_11  and  C12_12 
ROOT
HETATM    1  C1  UNL     1     -36.362  15.194  -4.540  1.00 20.00     0.004 C 
HETATM    2  C2  UNL     1     -35.453  14.009  -4.241  1.00 20.00     0.008 C 
HETATM    3  C3  UNL     1     -36.307  16.027  -3.268  1.00 20.00     0.038 C 
HETATM    4  C4  UNL     1     -33.031  14.728  -3.826  1.00 20.00     0.034 C 
HETATM    5  C5  UNL     1     -33.132  16.108  -4.433  1.00 20.00     0.169 C 
HETATM    6  C6  UNL     1     -34.404  14.508  -3.231  1.00 20.00     0.022 C 
HETATM    7  C7  UNL     1     -34.844  15.925  -2.842  1.00 20.00     0.064 C 
HETATM    8  O13 UNL     1     -34.050  16.846  -3.617  1.00 20.00    -0.380 OA
ENDROOT
BRANCH   7   9
HETATM    9  C9  UNL     1     -34.636  16.254  -1.371  1.00 20.00     0.038 C 
BRANCH   9  10
HETATM   10  C11 UNL     1     -33.742  17.480  -1.194  1.00 20.00     0.003 C 
BRANCH  10  11
HETATM   11  C12 UNL     1     -34.069  18.224   0.102  1.00 20.00    -0.000 C 
BRANCH  11  12
HETATM   12  C10 UNL     1     -35.322  17.654   0.768  1.00 20.00    -0.005 C 
HETATM   13  C8  UNL     1     -35.199  17.660   2.283  1.00 20.00     0.005 C 
ENDBRANCH  11  12
ENDBRANCH  10  11
ENDBRANCH   9  10
ENDBRANCH   7   9
TORSDOF 4
ENDMDL
MODEL 7
REMARK VINA RESULT:      -4.7      1.615      2.188
REMARK  4 active torsions:
REMARK  status: ('A' for Active; 'I' for Inactive)
REMARK    1  A    between atoms: C7_7  and  C9_9 
REMARK    2  A    between atoms: C9_9  and  C11_11 
REMARK    3  A    between atoms: C10_10  and  C12_12 
REMARK    4  A    between atoms: C11_11  and  C12_12 
ROOT
HETATM    1  C1  UNL     1     -35.473  13.350  -4.154  1.00 20.00     0.004 C 
HETATM    2  C2  UNL     1     -34.116  13.673  -4.765  1.00 20.00     0.008 C 
HETATM    3  C3  UNL     1     -36.063  14.716  -3.833  1.00 20.00     0.038 C 
HETATM    4  C4  UNL     1     -34.326  15.015  -6.934  1.00 20.00     0.034 C 
HETATM    5  C5  UNL     1     -35.784  14.722  -7.204  1.00 20.00     0.169 C 
HETATM    6  C6  UNL     1     -34.252  15.057  -5.424  1.00 20.00     0.022 C 
HETATM    7  C7  UNL     1     -35.640  15.572  -5.025  1.00 20.00     0.064 C 
HETATM    8  O13 UNL     1     -36.524  15.323  -6.136  1.00 20.00    -0.380 OA
ENDROOT
BRANCH   7   9
HETATM    9  C9  UNL     1     -35.682  17.063  -4.721  1.00 20.00     0.038 C 
BRANCH   9  10
HETATM   10  C11 UNL     1     -34.290  17.608  -4.404  1.00 20.00     0.003 C 
BRANCH  10  11
HETATM   11  C12 UNL     1     -34.167  17.995  -2.930  1.00 20.00    -0.000 C 
BRANCH  11  12
HETATM   12  C10 UNL     1     -33.724  16.806  -2.078  1.00 20.00    -0.005 C 
HETATM   13  C8  UNL     1     -34.664  16.579  -0.905  1.00 20.00     0.005 C 
ENDBRANCH  11  12
ENDBRANCH  10  11
ENDBRANCH   9  10
ENDBRANCH   7   9
TORSDOF 4
ENDMDL
MODEL 8
REMARK VINA RESULT:      -4.7      1.262      2.327
REMARK  4 active torsions:
REMARK  status: ('A' for Active; 'I' for Inactive)
REMARK    1  A    between atoms: C7_7  and  C9_9 
REMARK    2  A    between atoms: C9_9  and  C11_11 
REMARK    3  A    between atoms: C10_10  and  C12_12 
REMARK    4  A    between atoms: C11_11  and  C12_12 
ROOT
HETATM    1  C1  UNL     1     -37.343  15.798  -4.740  1.00 20.00     0.004 C 
HETATM    2  C2  UNL     1     -36.929  14.641  -3.839  1.00 20.00     0.008 C 
HETATM    3  C3  UNL     1     -36.138  16.727  -4.718  1.00 20.00     0.038 C 
HETATM    4  C4  UNL     1     -34.896  13.383  -4.755  1.00 20.00     0.034 C 
HETATM    5  C5  UNL     1     -34.965  13.906  -6.171  1.00 20.00     0.169 C 
HETATM    6  C6  UNL     1     -35.395  14.547  -3.928  1.00 20.00     0.022 C 
HETATM    7  C7  UNL     1     -34.951  15.766  -4.745  1.00 20.00     0.064 C 
HETATM    8  O13 UNL     1     -34.725  15.316  -6.096  1.00 20.00    -0.380 OA
ENDROOT
BRANCH   7   9
HETATM    9  C9  UNL     1     -33.664  16.409  -4.246  1.00 20.00     0.038 C 
BRANCH   9  10
HETATM   10  C11 UNL     1     -33.346  15.985  -2.813  1.00 20.00     0.003 C 
BRANCH  10  11
HETATM   11  C12 UNL     1     -33.737  17.073  -1.812  1.00 20.00    -0.000 C 
BRANCH  11  12
HETATM   12  C10 UNL     1     -34.767  16.559  -0.806  1.00 20.00    -0.005 C 
HETATM   13  C8  UNL     1     -34.862  17.469   0.408  1.00 20.00     0.005 C 
ENDBRANCH  11  12
ENDBRANCH  10  11
ENDBRANCH   9  10
ENDBRANCH   7   9
TORSDOF 4
ENDMDL
MODEL 9
REMARK VINA RESULT:      -4.6      1.451      4.643
REMARK  4 active torsions:
REMARK  status: ('A' for Active; 'I' for Inactive)
REMARK    1  A    between atoms: C7_7  and  C9_9 
REMARK    2  A    between atoms: C9_9  and  C11_11 
REMARK    3  A    between atoms: C10_10  and  C12_12 
REMARK    4  A    between atoms: C11_11  and  C12_12 
ROOT
HETATM    1  C1  UNL     1     -34.285  17.876  -1.269  1.00 20.00     0.004 C 
HETATM    2  C2  UNL     1     -35.362  18.442  -2.186  1.00 20.00     0.008 C 
HETATM    3  C3  UNL     1     -34.407  16.370  -1.450  1.00 20.00     0.038 C 
HETATM    4  C4  UNL     1     -34.940  17.865  -4.645  1.00 20.00     0.034 C 
HETATM    5  C5  UNL     1     -33.485  17.483  -4.508  1.00 20.00     0.169 C 
HETATM    6  C6  UNL     1     -35.541  17.426  -3.328  1.00 20.00     0.022 C 
HETATM    7  C7  UNL     1     -34.683  16.214  -2.944  1.00 20.00     0.064 C 
HETATM    8  O13 UNL     1     -33.446  16.318  -3.676  1.00 20.00    -0.380 OA
ENDROOT
BRANCH   7   9
HETATM    9  C9  UNL     1     -35.317  14.874  -3.287  1.00 20.00     0.038 C 
BRANCH   9  10
HETATM   10  C11 UNL     1     -34.270  13.863  -3.752  1.00 20.00     0.003 C 
BRANCH  10  11
HETATM   11  C12 UNL     1     -34.633  13.274  -5.116  1.00 20.00    -0.000 C 
BRANCH  11  12
HETATM   12  C10 UNL     1     -35.380  14.292  -5.979  1.00 20.00    -0.005 C 
HETATM   13  C8  UNL     1     -34.475  14.891  -7.043  1.00 20.00     0.005 C 
ENDBRANCH  11  12
ENDBRANCH  10  11
ENDBRANCH   9  10
ENDBRANCH   7   9
TORSDOF 4
ENDMDL
