MODEL 1
REMARK VINA RESULT:      -4.5      0.000      0.000
REMARK  2 active torsions:
REMARK  status: ('A' for Active; 'I' for Inactive)
REMARK    1  A    between atoms: C1_1  and  C5_5 
REMARK    2  A    between atoms: C1_1  and  C6_6 
ROOT
HETATM    1  C2  UNL     1     -33.994   4.849   6.351  1.00 20.00     0.029 C 
HETATM    2  C3  UNL     1     -34.040   6.277   5.862  1.00 20.00     0.042 C 
HETATM    3  C4  UNL     1     -35.253   4.270   5.748  1.00 20.00     0.168 C 
HETATM    4  C5  UNL     1     -34.663   6.132   4.485  1.00 20.00     0.192 C 
HETATM    5  O8  UNL     1     -35.447   4.936   4.494  1.00 20.00    -0.378 OA
ENDROOT
BRANCH   4   6
HETATM    6  C1  UNL     1     -33.637   5.958   3.408  1.00 20.00     0.169 C 
HETATM    7  O7  UNL     1     -33.858   5.224   2.447  1.00 20.00    -0.294 OA
BRANCH   6   8
HETATM    8  C6  UNL     1     -32.352   6.731   3.595  1.00 20.00     0.195 C 
HETATM    9 CL9  UNL     1     -32.129   7.900   2.286  1.00 20.00    -0.122 Cl
ENDBRANCH   6   8
ENDBRANCH   4   6
TORSDOF 2
ENDMDL
MODEL 2
REMARK VINA RESULT:      -3.9     12.130     13.457
REMARK  2 active torsions:
REMARK  status: ('A' for Active; 'I' for Inactive)
REMARK    1  A    between atoms: C1_1  and  C5_5 
REMARK    2  A    between atoms: C1_1  and  C6_6 
ROOT
HETATM    1  C2  UNL     1     -34.261  15.322  -7.077  1.00 20.00     0.029 C 
HETATM    2  C3  UNL     1     -35.362  14.318  -6.830  1.00 20.00     0.042 C 
HETATM    3  C4  UNL     1     -34.763  16.531  -6.321  1.00 20.00     0.168 C 
HETATM    4  C5  UNL     1     -35.803  14.657  -5.418  1.00 20.00     0.192 C 
HETATM    5  O8  UNL     1     -35.483  16.031  -5.186  1.00 20.00    -0.378 OA
ENDROOT
BRANCH   4   6
HETATM    6  C1  UNL     1     -35.063  13.869  -4.381  1.00 20.00     0.169 C 
HETATM    7  O7  UNL     1     -35.014  12.643  -4.445  1.00 20.00    -0.294 OA
BRANCH   6   8
HETATM    8  C6  UNL     1     -34.404  14.679  -3.288  1.00 20.00     0.195 C 
HETATM    9 CL9  UNL     1     -32.670  14.853  -3.596  1.00 20.00    -0.122 Cl
ENDBRANCH   6   8
ENDBRANCH   4   6
TORSDOF 2
ENDMDL
MODEL 3
REMARK VINA RESULT:      -3.8     11.813     12.597
REMARK  2 active torsions:
REMARK  status: ('A' for Active; 'I' for Inactive)
REMARK    1  A    between atoms: C1_1  and  C5_5 
REMARK    2  A    between atoms: C1_1  and  C6_6 
ROOT
HETATM    1  C2  UNL     1     -34.576  13.524  -4.959  1.00 20.00     0.029 C 
HETATM    2  C3  UNL     1     -33.541  13.699  -3.873  1.00 20.00     0.042 C 
HETATM    3  C4  UNL     1     -35.846  13.938  -4.252  1.00 20.00     0.168 C 
HETATM    4  C5  UNL     1     -34.063  14.906  -3.114  1.00 20.00     0.192 C 
HETATM    5  O8  UNL     1     -35.477  14.961  -3.319  1.00 20.00    -0.378 OA
ENDROOT
BRANCH   4   6
HETATM    6  C1  UNL     1     -33.509  16.195  -3.638  1.00 20.00     0.169 C 
HETATM    7  O7  UNL     1     -32.804  16.210  -4.644  1.00 20.00    -0.294 OA
BRANCH   6   8
HETATM    8  C6  UNL     1     -33.873  17.433  -2.851  1.00 20.00     0.195 C 
HETATM    9 CL9  UNL     1     -33.934  17.079  -1.118  1.00 20.00    -0.122 Cl
ENDBRANCH   6   8
ENDBRANCH   4   6
TORSDOF 2
ENDMDL
MODEL 4
REMARK VINA RESULT:      -3.7     12.057     13.216
REMARK  2 active torsions:
REMARK  status: ('A' for Active; 'I' for Inactive)
REMARK    1  A    between atoms: C1_1  and  C5_5 
REMARK    2  A    between atoms: C1_1  and  C6_6 
ROOT
HETATM    1  C2  UNL     1     -34.468  17.202  -3.332  1.00 20.00     0.029 C 
HETATM    2  C3  UNL     1     -33.715  16.123  -2.591  1.00 20.00     0.042 C 
HETATM    3  C4  UNL     1     -33.550  17.478  -4.501  1.00 20.00     0.168 C 
HETATM    4  C5  UNL     1     -33.065  15.342  -3.718  1.00 20.00     0.192 C 
HETATM    5  O8  UNL     1     -32.921  16.232  -4.828  1.00 20.00    -0.378 OA
ENDROOT
BRANCH   4   6
HETATM    6  C1  UNL     1     -33.917  14.206  -4.194  1.00 20.00     0.169 C 
HETATM    7  O7  UNL     1     -34.160  13.255  -3.455  1.00 20.00    -0.294 OA
BRANCH   6   8
HETATM    8  C6  UNL     1     -34.434  14.322  -5.609  1.00 20.00     0.195 C 
HETATM    9 CL9  UNL     1     -36.120  14.859  -5.618  1.00 20.00    -0.122 Cl
ENDBRANCH   6   8
ENDBRANCH   4   6
TORSDOF 2
ENDMDL
MODEL 5
REMARK VINA RESULT:      -3.7     11.646     12.428
REMARK  2 active torsions:
REMARK  status: ('A' for Active; 'I' for Inactive)
REMARK    1  A    between atoms: C1_1  and  C5_5 
REMARK    2  A    between atoms: C1_1  and  C6_6 
ROOT
HETATM    1  C2  UNL     1     -33.622  16.187  -3.762  1.00 20.00     0.029 C 
HETATM    2  C3  UNL     1     -34.550  15.471  -2.811  1.00 20.00     0.042 C 
HETATM    3  C4  UNL     1     -32.458  15.225  -3.849  1.00 20.00     0.168 C 
HETATM    4  C5  UNL     1     -34.322  14.013  -3.166  1.00 20.00     0.192 C 
HETATM    5  O8  UNL     1     -33.010  13.908  -3.725  1.00 20.00    -0.378 OA
ENDROOT
BRANCH   4   6
HETATM    6  C1  UNL     1     -35.270  13.524  -4.216  1.00 20.00     0.169 C 
HETATM    7  O7  UNL     1     -34.963  12.586  -4.949  1.00 20.00    -0.294 OA
BRANCH   6   8
HETATM    8  C6  UNL     1     -36.590  14.255  -4.301  1.00 20.00     0.195 C 
HETATM    9 CL9  UNL     1     -36.705  15.167  -5.813  1.00 20.00    -0.122 Cl
ENDBRANCH   6   8
ENDBRANCH   4   6
TORSDOF 2
ENDMDL
MODEL 6
REMARK VINA RESULT:      -3.6     12.048     12.928
REMARK  2 active torsions:
REMARK  status: ('A' for Active; 'I' for Inactive)
REMARK    1  A    between atoms: C1_1  and  C5_5 
REMARK    2  A    between atoms: C1_1  and  C6_6 
ROOT
HETATM    1  C2  UNL     1     -33.684  15.970  -2.805  1.00 20.00     0.029 C 
HETATM    2  C3  UNL     1     -33.116  14.810  -3.588  1.00 20.00     0.042 C 
HETATM    3  C4  UNL     1     -34.072  16.932  -3.905  1.00 20.00     0.168 C 
HETATM    4  C5  UNL     1     -33.983  14.801  -4.834  1.00 20.00     0.192 C 
HETATM    5  O8  UNL     1     -34.478  16.130  -5.022  1.00 20.00    -0.378 OA
ENDROOT
BRANCH   4   6
HETATM    6  C1  UNL     1     -35.183  13.918  -4.691  1.00 20.00     0.169 C 
HETATM    7  O7  UNL     1     -35.060  12.747  -4.337  1.00 20.00    -0.294 OA
BRANCH   6   8
HETATM    8  C6  UNL     1     -36.513  14.562  -5.008  1.00 20.00     0.195 C 
HETATM    9 CL9  UNL     1     -37.376  14.982  -3.521  1.00 20.00    -0.122 Cl
ENDBRANCH   6   8
ENDBRANCH   4   6
TORSDOF 2
ENDMDL
MODEL 7
REMARK VINA RESULT:      -3.6     11.805     12.739
REMARK  2 active torsions:
REMARK  status: ('A' for Active; 'I' for Inactive)
REMARK    1  A    between atoms: C1_1  and  C5_5 
REMARK    2  A    between atoms: C1_1  and  C6_6 
ROOT
HETATM    1  C2  UNL     1     -33.651  17.559  -1.558  1.00 20.00     0.029 C 
HETATM    2  C3  UNL     1     -34.148  17.726  -2.975  1.00 20.00     0.042 C 
HETATM    3  C4  UNL     1     -34.601  16.516  -1.014  1.00 20.00     0.168 C 
HETATM    4  C5  UNL     1     -34.599  16.321  -3.332  1.00 20.00     0.192 C 
HETATM    5  O8  UNL     1     -34.932  15.655  -2.111  1.00 20.00    -0.378 OA
ENDROOT
BRANCH   4   6
HETATM    6  C1  UNL     1     -33.511  15.515  -3.971  1.00 20.00     0.169 C 
HETATM    7  O7  UNL     1     -32.645  16.061  -4.651  1.00 20.00    -0.294 OA
BRANCH   6   8
HETATM    8  C6  UNL     1     -33.566  14.025  -3.722  1.00 20.00     0.195 C 
HETATM    9 CL9  UNL     1     -34.944  13.300  -4.563  1.00 20.00    -0.122 Cl
ENDBRANCH   6   8
ENDBRANCH   4   6
TORSDOF 2
ENDMDL
MODEL 8
REMARK VINA RESULT:      -3.6     11.737     12.967
REMARK  2 active torsions:
REMARK  status: ('A' for Active; 'I' for Inactive)
REMARK    1  A    between atoms: C1_1  and  C5_5 
REMARK    2  A    between atoms: C1_1  and  C6_6 
ROOT
HETATM    1  C2  UNL     1     -34.691  13.551  -4.326  1.00 20.00     0.029 C 
HETATM    2  C3  UNL     1     -34.623  14.661  -5.349  1.00 20.00     0.042 C 
HETATM    3  C4  UNL     1     -33.307  13.598  -3.720  1.00 20.00     0.168 C 
HETATM    4  C5  UNL     1     -33.729  15.680  -4.667  1.00 20.00     0.192 C 
HETATM    5  O8  UNL     1     -32.900  14.972  -3.742  1.00 20.00    -0.378 OA
ENDROOT
BRANCH   4   6
HETATM    6  C1  UNL     1     -34.506  16.677  -3.864  1.00 20.00     0.169 C 
HETATM    7  O7  UNL     1     -35.594  17.089  -4.260  1.00 20.00    -0.294 OA
BRANCH   6   8
HETATM    8  C6  UNL     1     -33.862  17.121  -2.570  1.00 20.00     0.195 C 
HETATM    9 CL9  UNL     1     -34.655  16.359  -1.183  1.00 20.00    -0.122 Cl
ENDBRANCH   6   8
ENDBRANCH   4   6
TORSDOF 2
ENDMDL
MODEL 9
REMARK VINA RESULT:      -3.6     12.150     13.454
REMARK  2 active torsions:
REMARK  status: ('A' for Active; 'I' for Inactive)
REMARK    1  A    between atoms: C1_1  and  C5_5 
REMARK    2  A    between atoms: C1_1  and  C6_6 
ROOT
HETATM    1  C2  UNL     1     -35.383  16.566  -5.864  1.00 20.00     0.029 C 
HETATM    2  C3  UNL     1     -34.099  15.822  -6.147  1.00 20.00     0.042 C 
HETATM    3  C4  UNL     1     -36.410  15.689  -6.543  1.00 20.00     0.168 C 
HETATM    4  C5  UNL     1     -34.545  14.372  -6.102  1.00 20.00     0.192 C 
HETATM    5  O8  UNL     1     -35.938  14.341  -6.422  1.00 20.00    -0.378 OA
ENDROOT
BRANCH   4   6
HETATM    6  C1  UNL     1     -34.411  13.772  -4.736  1.00 20.00     0.169 C 
HETATM    7  O7  UNL     1     -35.037  12.759  -4.433  1.00 20.00    -0.294 OA
BRANCH   6   8
HETATM    8  C6  UNL     1     -33.475  14.493  -3.793  1.00 20.00     0.195 C 
HETATM    9 CL9  UNL     1     -34.387  15.399  -2.577  1.00 20.00    -0.122 Cl
ENDBRANCH   6   8
ENDBRANCH   4   6
TORSDOF 2
ENDMDL
