MODEL 1
REMARK VINA RESULT:      -5.0      0.000      0.000
REMARK  0 active torsions:
REMARK  status: ('A' for Active; 'I' for Inactive)
ROOT
HETATM    1  C1  UNL     1     -35.332   4.615   5.652  1.00 20.00     0.002 C 
HETATM    2  C2  UNL     1     -35.232   4.704   4.316  1.00 20.00     0.030 C 
HETATM    3  C3  UNL     1     -34.433   5.318   6.553  1.00 20.00    -0.001 C 
HETATM    4  C4  UNL     1     -33.657   6.326   6.117  1.00 20.00     0.006 C 
HETATM    5  C5  UNL     1     -32.446   6.418   2.971  1.00 20.00     0.228 C 
HETATM    6  C6  UNL     1     -34.158   5.593   3.850  1.00 20.00     0.064 C 
HETATM    7  C7  UNL     1     -33.745   6.768   4.695  1.00 20.00     0.184 C 
HETATM    8  N8  UNL     1     -32.470   7.135   4.056  1.00 20.00    -0.268 NA
HETATM    9  N9  UNL     1     -33.440   5.487   2.787  1.00 20.00    -0.244 NA
ENDROOT
TORSDOF 0
ENDMDL
MODEL 2
REMARK VINA RESULT:      -4.5      1.745      3.555
REMARK  0 active torsions:
REMARK  status: ('A' for Active; 'I' for Inactive)
ROOT
HETATM    1  C1  UNL     1     -32.624   6.986   3.749  1.00 20.00     0.002 C 
HETATM    2  C2  UNL     1     -33.159   6.975   4.980  1.00 20.00     0.030 C 
HETATM    3  C3  UNL     1     -32.932   5.973   2.752  1.00 20.00    -0.001 C 
HETATM    4  C4  UNL     1     -33.988   5.153   2.896  1.00 20.00     0.006 C 
HETATM    5  C5  UNL     1     -35.086   4.165   5.928  1.00 20.00     0.228 C 
HETATM    6  C6  UNL     1     -34.098   5.870   5.220  1.00 20.00     0.064 C 
HETATM    7  C7  UNL     1     -34.892   5.306   4.072  1.00 20.00     0.184 C 
HETATM    8  N8  UNL     1     -35.390   4.055   4.668  1.00 20.00    -0.268 NA
HETATM    9  N9  UNL     1     -34.325   5.240   6.319  1.00 20.00    -0.244 NA
ENDROOT
TORSDOF 0
ENDMDL
MODEL 3
REMARK VINA RESULT:      -4.2     11.922     13.128
REMARK  0 active torsions:
REMARK  status: ('A' for Active; 'I' for Inactive)
ROOT
HETATM    1  C1  UNL     1     -33.672  17.371  -4.218  1.00 20.00     0.002 C 
HETATM    2  C2  UNL     1     -33.619  16.561  -5.287  1.00 20.00     0.030 C 
HETATM    3  C3  UNL     1     -34.033  16.896  -2.892  1.00 20.00    -0.001 C 
HETATM    4  C4  UNL     1     -34.035  15.583  -2.599  1.00 20.00     0.006 C 
HETATM    5  C5  UNL     1     -34.767  13.236  -4.907  1.00 20.00     0.228 C 
HETATM    6  C6  UNL     1     -33.930  15.154  -4.993  1.00 20.00     0.064 C 
HETATM    7  C7  UNL     1     -33.618  14.592  -3.632  1.00 20.00     0.184 C 
HETATM    8  N8  UNL     1     -34.389  13.337  -3.667  1.00 20.00    -0.268 NA
HETATM    9  N9  UNL     1     -34.507  14.289  -5.752  1.00 20.00    -0.244 NA
ENDROOT
TORSDOF 0
ENDMDL
MODEL 4
REMARK VINA RESULT:      -4.1      9.535     10.724
REMARK  0 active torsions:
REMARK  status: ('A' for Active; 'I' for Inactive)
ROOT
HETATM    1  C1  UNL     1     -41.171   7.117  -1.046  1.00 20.00     0.002 C 
HETATM    2  C2  UNL     1     -41.778   7.023  -2.240  1.00 20.00     0.030 C 
HETATM    3  C3  UNL     1     -41.005   5.977  -0.159  1.00 20.00    -0.001 C 
HETATM    4  C4  UNL     1     -41.170   4.718  -0.605  1.00 20.00     0.006 C 
HETATM    5  C5  UNL     1     -43.347   3.962  -3.066  1.00 20.00     0.228 C 
HETATM    6  C6  UNL     1     -42.232   5.667  -2.580  1.00 20.00     0.064 C 
HETATM    7  C7  UNL     1     -41.485   4.475  -2.042  1.00 20.00     0.184 C 
HETATM    8  N8  UNL     1     -42.449   3.396  -2.316  1.00 20.00    -0.268 NA
HETATM    9  N9  UNL     1     -43.260   5.319  -3.271  1.00 20.00    -0.244 NA
ENDROOT
TORSDOF 0
ENDMDL
MODEL 5
REMARK VINA RESULT:      -4.1     12.152     13.807
REMARK  0 active torsions:
REMARK  status: ('A' for Active; 'I' for Inactive)
ROOT
HETATM    1  C1  UNL     1     -34.262  16.382  -6.843  1.00 20.00     0.002 C 
HETATM    2  C2  UNL     1     -33.893  16.418  -5.553  1.00 20.00     0.030 C 
HETATM    3  C3  UNL     1     -34.755  15.173  -7.483  1.00 20.00    -0.001 C 
HETATM    4  C4  UNL     1     -35.155  14.114  -6.758  1.00 20.00     0.006 C 
HETATM    5  C5  UNL     1     -33.770  13.363  -3.776  1.00 20.00     0.228 C 
HETATM    6  C6  UNL     1     -34.056  15.142  -4.843  1.00 20.00     0.064 C 
HETATM    7  C7  UNL     1     -35.140  14.187  -5.268  1.00 20.00     0.184 C 
HETATM    8  N8  UNL     1     -34.720  12.961  -4.568  1.00 20.00    -0.268 NA
HETATM    9  N9  UNL     1     -33.340  14.664  -3.887  1.00 20.00    -0.244 NA
ENDROOT
TORSDOF 0
ENDMDL
MODEL 6
REMARK VINA RESULT:      -4.1     11.906     13.404
REMARK  0 active torsions:
REMARK  status: ('A' for Active; 'I' for Inactive)
ROOT
HETATM    1  C1  UNL     1     -34.438  13.406  -4.818  1.00 20.00     0.002 C 
HETATM    2  C2  UNL     1     -33.972  13.869  -3.648  1.00 20.00     0.030 C 
HETATM    3  C3  UNL     1     -34.715  14.275  -5.950  1.00 20.00    -0.001 C 
HETATM    4  C4  UNL     1     -34.237  15.531  -5.997  1.00 20.00     0.006 C 
HETATM    5  C5  UNL     1     -33.773  17.373  -3.210  1.00 20.00     0.228 C 
HETATM    6  C6  UNL     1     -33.741  15.320  -3.622  1.00 20.00     0.064 C 
HETATM    7  C7  UNL     1     -33.370  16.036  -4.893  1.00 20.00     0.184 C 
HETATM    8  N8  UNL     1     -33.587  17.438  -4.495  1.00 20.00    -0.268 NA
HETATM    9  N9  UNL     1     -33.861  16.130  -2.629  1.00 20.00    -0.244 NA
ENDROOT
TORSDOF 0
ENDMDL
MODEL 7
REMARK VINA RESULT:      -4.1     11.796     12.823
REMARK  0 active torsions:
REMARK  status: ('A' for Active; 'I' for Inactive)
ROOT
HETATM    1  C1  UNL     1     -33.039  15.123  -3.756  1.00 20.00     0.002 C 
HETATM    2  C2  UNL     1     -33.934  16.122  -3.794  1.00 20.00     0.030 C 
HETATM    3  C3  UNL     1     -33.429  13.722  -3.722  1.00 20.00    -0.001 C 
HETATM    4  C4  UNL     1     -34.680  13.340  -4.032  1.00 20.00     0.006 C 
HETATM    5  C5  UNL     1     -37.354  15.300  -3.418  1.00 20.00     0.228 C 
HETATM    6  C6  UNL     1     -35.335  15.676  -3.825  1.00 20.00     0.064 C 
HETATM    7  C7  UNL     1     -35.681  14.357  -4.464  1.00 20.00     0.184 C 
HETATM    8  N8  UNL     1     -37.054  14.160  -3.967  1.00 20.00    -0.268 NA
HETATM    9  N9  UNL     1     -36.367  16.252  -3.318  1.00 20.00    -0.244 NA
ENDROOT
TORSDOF 0
ENDMDL
MODEL 8
REMARK VINA RESULT:      -4.0     12.311     13.630
REMARK  0 active torsions:
REMARK  status: ('A' for Active; 'I' for Inactive)
ROOT
HETATM    1  C1  UNL     1     -33.588  13.710  -3.723  1.00 20.00     0.002 C 
HETATM    2  C2  UNL     1     -34.478  13.424  -4.686  1.00 20.00     0.030 C 
HETATM    3  C3  UNL     1     -32.836  14.954  -3.696  1.00 20.00    -0.001 C 
HETATM    4  C4  UNL     1     -33.204  16.007  -4.447  1.00 20.00     0.006 C 
HETATM    5  C5  UNL     1     -34.709  15.630  -7.441  1.00 20.00     0.228 C 
HETATM    6  C6  UNL     1     -34.645  14.486  -5.688  1.00 20.00     0.064 C 
HETATM    7  C7  UNL     1     -34.430  15.923  -5.292  1.00 20.00     0.184 C 
HETATM    8  N8  UNL     1     -34.345  16.566  -6.615  1.00 20.00    -0.268 NA
HETATM    9  N9  UNL     1     -34.916  14.367  -6.940  1.00 20.00    -0.244 NA
ENDROOT
TORSDOF 0
ENDMDL
MODEL 9
REMARK VINA RESULT:      -4.0     11.910     13.157
REMARK  0 active torsions:
REMARK  status: ('A' for Active; 'I' for Inactive)
ROOT
HETATM    1  C1  UNL     1     -33.825  16.849  -2.928  1.00 20.00     0.002 C 
HETATM    2  C2  UNL     1     -34.284  15.653  -2.525  1.00 20.00     0.030 C 
HETATM    3  C3  UNL     1     -33.596  17.168  -4.328  1.00 20.00    -0.001 C 
HETATM    4  C4  UNL     1     -34.112  16.407  -5.309  1.00 20.00     0.006 C 
HETATM    5  C5  UNL     1     -34.580  13.088  -4.942  1.00 20.00     0.228 C 
HETATM    6  C6  UNL     1     -34.558  14.712  -3.620  1.00 20.00     0.064 C 
HETATM    7  C7  UNL     1     -34.974  15.239  -4.967  1.00 20.00     0.184 C 
HETATM    8  N8  UNL     1     -34.792  14.040  -5.803  1.00 20.00    -0.268 NA
HETATM    9  N9  UNL     1     -34.445  13.430  -3.618  1.00 20.00    -0.244 NA
ENDROOT
TORSDOF 0
ENDMDL
