MODEL 1
REMARK VINA RESULT:      -4.1      0.000      0.000
REMARK  2 active torsions:
REMARK  status: ('A' for Active; 'I' for Inactive)
REMARK    1  A    between atoms: C5_5  and  C6_6 
REMARK    2  A    between atoms: C6_6  and  N7_7 
ROOT
HETATM    1  C1  UNL     1     -32.011   8.529   1.782  1.00 20.00     0.012 C 
HETATM    2  C2  UNL     1     -32.200   7.600   2.520  1.00 20.00    -0.116 C 
HETATM    3  C5  UNL     1     -32.428   6.463   3.424  1.00 20.00     0.123 C 
ENDROOT
BRANCH   3   4
HETATM    4  C6  UNL     1     -33.884   6.369   3.870  1.00 20.00     0.283 C 
BRANCH   4   5
HETATM    5  N7  UNL     1     -34.018   5.489   5.030  1.00 20.00     0.080 N 
HETATM    6  C3  UNL     1     -35.163   4.594   4.863  1.00 20.00     0.309 C 
HETATM    7  C4  UNL     1     -34.160   6.276   6.254  1.00 20.00     0.309 C 
ENDBRANCH   4   5
ENDBRANCH   3   4
TORSDOF 2
ENDMDL
MODEL 2
REMARK VINA RESULT:      -4.0      0.697      1.437
REMARK  2 active torsions:
REMARK  status: ('A' for Active; 'I' for Inactive)
REMARK    1  A    between atoms: C5_5  and  C6_6 
REMARK    2  A    between atoms: C6_6  and  N7_7 
ROOT
HETATM    1  C1  UNL     1     -32.123   7.989   2.209  1.00 20.00     0.012 C 
HETATM    2  C2  UNL     1     -32.469   7.113   2.956  1.00 20.00    -0.116 C 
HETATM    3  C5  UNL     1     -32.890   6.042   3.871  1.00 20.00     0.123 C 
ENDROOT
BRANCH   3   4
HETATM    4  C6  UNL     1     -34.403   5.853   3.874  1.00 20.00     0.283 C 
BRANCH   4   5
HETATM    5  N7  UNL     1     -34.887   5.540   5.218  1.00 20.00     0.080 N 
HETATM    6  C3  UNL     1     -34.113   6.270   6.223  1.00 20.00     0.309 C 
HETATM    7  C4  UNL     1     -34.815   4.101   5.465  1.00 20.00     0.309 C 
ENDBRANCH   4   5
ENDBRANCH   3   4
TORSDOF 2
ENDMDL
MODEL 3
REMARK VINA RESULT:      -3.5      1.395      4.132
REMARK  2 active torsions:
REMARK  status: ('A' for Active; 'I' for Inactive)
REMARK    1  A    between atoms: C5_5  and  C6_6 
REMARK    2  A    between atoms: C6_6  and  N7_7 
ROOT
HETATM    1  C1  UNL     1     -35.139   4.257   5.988  1.00 20.00     0.012 C 
HETATM    2  C2  UNL     1     -34.863   4.838   4.973  1.00 20.00    -0.116 C 
HETATM    3  C5  UNL     1     -34.527   5.547   3.729  1.00 20.00     0.123 C 
ENDROOT
BRANCH   3   4
HETATM    4  C6  UNL     1     -33.798   6.860   3.997  1.00 20.00     0.283 C 
BRANCH   4   5
HETATM    5  N7  UNL     1     -32.429   6.811   3.486  1.00 20.00     0.080 N 
HETATM    6  C3  UNL     1     -32.218   7.861   2.490  1.00 20.00     0.309 C 
HETATM    7  C4  UNL     1     -32.145   5.497   2.910  1.00 20.00     0.309 C 
ENDBRANCH   4   5
ENDBRANCH   3   4
TORSDOF 2
ENDMDL
MODEL 4
REMARK VINA RESULT:      -3.5     10.942     11.494
REMARK  2 active torsions:
REMARK  status: ('A' for Active; 'I' for Inactive)
REMARK    1  A    between atoms: C5_5  and  C6_6 
REMARK    2  A    between atoms: C6_6  and  N7_7 
ROOT
HETATM    1  C1  UNL     1     -34.809  17.105  -0.060  1.00 20.00     0.012 C 
HETATM    2  C2  UNL     1     -34.461  16.699  -1.136  1.00 20.00    -0.116 C 
HETATM    3  C5  UNL     1     -34.032  16.204  -2.452  1.00 20.00     0.123 C 
ENDROOT
BRANCH   3   4
HETATM    4  C6  UNL     1     -35.045  15.237  -3.058  1.00 20.00     0.283 C 
BRANCH   4   5
HETATM    5  N7  UNL     1     -34.414  13.960  -3.389  1.00 20.00     0.080 N 
HETATM    6  C3  UNL     1     -32.995  14.154  -3.690  1.00 20.00     0.309 C 
HETATM    7  C4  UNL     1     -35.095  13.331  -4.519  1.00 20.00     0.309 C 
ENDBRANCH   4   5
ENDBRANCH   3   4
TORSDOF 2
ENDMDL
MODEL 5
REMARK VINA RESULT:      -3.3     11.308     11.982
REMARK  2 active torsions:
REMARK  status: ('A' for Active; 'I' for Inactive)
REMARK    1  A    between atoms: C5_5  and  C6_6 
REMARK    2  A    between atoms: C6_6  and  N7_7 
ROOT
HETATM    1  C1  UNL     1     -34.786  17.066  -0.164  1.00 20.00     0.012 C 
HETATM    2  C2  UNL     1     -34.350  16.689  -1.218  1.00 20.00    -0.116 C 
HETATM    3  C5  UNL     1     -33.813  16.230  -2.508  1.00 20.00     0.123 C 
ENDROOT
BRANCH   3   4
HETATM    4  C6  UNL     1     -34.576  15.026  -3.051  1.00 20.00     0.283 C 
BRANCH   4   5
HETATM    5  N7  UNL     1     -33.973  14.541  -4.291  1.00 20.00     0.080 N 
HETATM    6  C3  UNL     1     -34.096  15.546  -5.346  1.00 20.00     0.309 C 
HETATM    7  C4  UNL     1     -34.596  13.286  -4.706  1.00 20.00     0.309 C 
ENDBRANCH   4   5
ENDBRANCH   3   4
TORSDOF 2
ENDMDL
MODEL 6
REMARK VINA RESULT:      -3.3     10.970     11.534
REMARK  2 active torsions:
REMARK  status: ('A' for Active; 'I' for Inactive)
REMARK    1  A    between atoms: C5_5  and  C6_6 
REMARK    2  A    between atoms: C6_6  and  N7_7 
ROOT
HETATM    1  C1  UNL     1     -34.807  17.079  -0.044  1.00 20.00     0.012 C 
HETATM    2  C2  UNL     1     -34.444  16.705  -1.126  1.00 20.00    -0.116 C 
HETATM    3  C5  UNL     1     -33.996  16.248  -2.450  1.00 20.00     0.123 C 
ENDROOT
BRANCH   3   4
HETATM    4  C6  UNL     1     -34.988  15.280  -3.087  1.00 20.00     0.283 C 
BRANCH   4   5
HETATM    5  N7  UNL     1     -34.331  14.446  -4.093  1.00 20.00     0.080 N 
HETATM    6  C3  UNL     1     -35.181  13.309  -4.447  1.00 20.00     0.309 C 
HETATM    7  C4  UNL     1     -33.035  13.981  -3.603  1.00 20.00     0.309 C 
ENDBRANCH   4   5
ENDBRANCH   3   4
TORSDOF 2
ENDMDL
MODEL 7
REMARK VINA RESULT:      -3.3     11.201     11.732
REMARK  2 active torsions:
REMARK  status: ('A' for Active; 'I' for Inactive)
REMARK    1  A    between atoms: C5_5  and  C6_6 
REMARK    2  A    between atoms: C6_6  and  N7_7 
ROOT
HETATM    1  C1  UNL     1     -34.721  16.868  -0.427  1.00 20.00     0.012 C 
HETATM    2  C2  UNL     1     -34.349  16.522  -1.516  1.00 20.00    -0.116 C 
HETATM    3  C5  UNL     1     -33.891  16.102  -2.848  1.00 20.00     0.123 C 
ENDROOT
BRANCH   3   4
HETATM    4  C6  UNL     1     -34.248  14.649  -3.145  1.00 20.00     0.283 C 
BRANCH   4   5
HETATM    5  N7  UNL     1     -35.097  14.552  -4.331  1.00 20.00     0.080 N 
HETATM    6  C3  UNL     1     -36.510  14.599  -3.954  1.00 20.00     0.309 C 
HETATM    7  C4  UNL     1     -34.807  13.324  -5.069  1.00 20.00     0.309 C 
ENDBRANCH   4   5
ENDBRANCH   3   4
TORSDOF 2
ENDMDL
MODEL 8
REMARK VINA RESULT:      -3.2      2.061      3.643
REMARK  2 active torsions:
REMARK  status: ('A' for Active; 'I' for Inactive)
REMARK    1  A    between atoms: C5_5  and  C6_6 
REMARK    2  A    between atoms: C6_6  and  N7_7 
ROOT
HETATM    1  C1  UNL     1     -33.663   7.079   6.647  1.00 20.00     0.012 C 
HETATM    2  C2  UNL     1     -34.238   6.043   6.451  1.00 20.00    -0.116 C 
HETATM    3  C5  UNL     1     -34.944   4.775   6.214  1.00 20.00     0.123 C 
ENDROOT
BRANCH   3   4
HETATM    4  C6  UNL     1     -34.960   4.396   4.736  1.00 20.00     0.283 C 
BRANCH   4   5
HETATM    5  N7  UNL     1     -34.863   5.585   3.891  1.00 20.00     0.080 N 
HETATM    6  C3  UNL     1     -36.161   5.890   3.289  1.00 20.00     0.309 C 
HETATM    7  C4  UNL     1     -33.851   5.395   2.854  1.00 20.00     0.309 C 
ENDBRANCH   4   5
ENDBRANCH   3   4
TORSDOF 2
ENDMDL
MODEL 9
REMARK VINA RESULT:      -3.1      9.300     10.362
REMARK  2 active torsions:
REMARK  status: ('A' for Active; 'I' for Inactive)
REMARK    1  A    between atoms: C5_5  and  C6_6 
REMARK    2  A    between atoms: C6_6  and  N7_7 
ROOT
HETATM    1  C1  UNL     1     -41.777   2.037  -3.298  1.00 20.00     0.012 C 
HETATM    2  C2  UNL     1     -41.810   3.119  -2.778  1.00 20.00    -0.116 C 
HETATM    3  C5  UNL     1     -41.854   4.445  -2.142  1.00 20.00     0.123 C 
ENDROOT
BRANCH   3   4
HETATM    4  C6  UNL     1     -40.766   4.610  -1.086  1.00 20.00     0.283 C 
BRANCH   4   5
HETATM    5  N7  UNL     1     -41.085   5.708  -0.175  1.00 20.00     0.080 N 
HETATM    6  C3  UNL     1     -42.388   5.489   0.453  1.00 20.00     0.309 C 
HETATM    7  C4  UNL     1     -41.070   6.984  -0.888  1.00 20.00     0.309 C 
ENDBRANCH   4   5
ENDBRANCH   3   4
TORSDOF 2
ENDMDL
