MODEL 1
REMARK VINA RESULT:      -4.6      0.000      0.000
REMARK  1 active torsions:
REMARK  status: ('A' for Active; 'I' for Inactive)
REMARK    1  A    between atoms: C6_6  and  N12_12 
ROOT
HETATM    1  C1  UNL     1     -33.668  18.082  -4.553  1.00 20.00     0.026 A 
HETATM    2  C2  UNL     1     -34.088  16.857  -5.026  1.00 20.00     0.097 A 
HETATM    3  C3  UNL     1     -33.738  18.033  -3.140  1.00 20.00    -0.034 A 
HETATM    4  C4  UNL     1     -34.205  16.780  -2.799  1.00 20.00     0.022 A 
HETATM    5  C7  UNL     1     -33.422  19.073  -2.121  1.00 20.00     0.040 C 
HETATM    6  C8  UNL     1     -34.418  16.263  -1.422  1.00 20.00     0.058 C 
HETATM    7  C9  UNL     1     -33.292  18.450  -0.717  1.00 20.00     0.005 C 
HETATM    8  C10 UNL     1     -34.415  17.436  -0.423  1.00 20.00     0.006 C 
HETATM    9  N12 UNL     1     -34.412  16.070  -3.949  1.00 20.00    -0.330 N 
ENDROOT
BRANCH   9  10
HETATM   10  C6  UNL     1     -34.867  14.766  -4.039  1.00 20.00     0.003 C 
HETATM   11  C5  UNL     1     -36.163  14.419  -4.168  1.00 20.00     0.038 C 
HETATM   12  C11 UNL     1     -33.861  13.634  -3.990  1.00 20.00     0.068 C 
ENDBRANCH   9  10
TORSDOF 1
ENDMDL
MODEL 2
REMARK VINA RESULT:      -4.5     12.289     14.165
REMARK  1 active torsions:
REMARK  status: ('A' for Active; 'I' for Inactive)
REMARK    1  A    between atoms: C6_6  and  N12_12 
ROOT
HETATM    1  C1  UNL     1     -40.649   5.578  -0.600  1.00 20.00     0.026 A 
HETATM    2  C2  UNL     1     -40.739   4.257  -0.986  1.00 20.00     0.097 A 
HETATM    3  C3  UNL     1     -41.558   6.312  -1.399  1.00 20.00    -0.034 A 
HETATM    4  C4  UNL     1     -42.168   5.413  -2.251  1.00 20.00     0.022 A 
HETATM    5  C7  UNL     1     -41.862   7.770  -1.424  1.00 20.00     0.040 C 
HETATM    6  C8  UNL     1     -43.216   5.725  -3.258  1.00 20.00     0.058 C 
HETATM    7  C9  UNL     1     -43.172   8.049  -2.187  1.00 20.00     0.005 C 
HETATM    8  C10 UNL     1     -43.264   7.247  -3.500  1.00 20.00     0.006 C 
HETATM    9  N12 UNL     1     -41.669   4.167  -1.992  1.00 20.00    -0.330 N 
ENDROOT
BRANCH   9  10
HETATM   10  C6  UNL     1     -42.031   2.989  -2.623  1.00 20.00     0.003 C 
HETATM   11  C5  UNL     1     -41.312   2.396  -3.597  1.00 20.00     0.038 C 
HETATM   12  C11 UNL     1     -43.316   2.303  -2.211  1.00 20.00     0.068 C 
ENDBRANCH   9  10
TORSDOF 1
ENDMDL
MODEL 3
REMARK VINA RESULT:      -4.4      1.134      3.925
REMARK  1 active torsions:
REMARK  status: ('A' for Active; 'I' for Inactive)
REMARK    1  A    between atoms: C6_6  and  N12_12 
ROOT
HETATM    1  C1  UNL     1     -33.696  17.948  -5.000  1.00 20.00     0.026 A 
HETATM    2  C2  UNL     1     -33.674  18.383  -3.691  1.00 20.00     0.097 A 
HETATM    3  C3  UNL     1     -33.893  16.547  -4.973  1.00 20.00    -0.034 A 
HETATM    4  C4  UNL     1     -33.978  16.174  -3.646  1.00 20.00     0.022 A 
HETATM    5  C7  UNL     1     -33.980  15.562  -6.087  1.00 20.00     0.040 C 
HETATM    6  C8  UNL     1     -34.207  14.799  -3.131  1.00 20.00     0.058 C 
HETATM    7  C9  UNL     1     -34.565  14.223  -5.598  1.00 20.00     0.005 C 
HETATM    8  C10 UNL     1     -33.955  13.775  -4.255  1.00 20.00     0.006 C 
HETATM    9  N12 UNL     1     -33.848  17.294  -2.874  1.00 20.00    -0.330 N 
ENDROOT
BRANCH   9  10
HETATM   10  C6  UNL     1     -33.889  17.349  -1.492  1.00 20.00     0.003 C 
HETATM   11  C5  UNL     1     -34.750  16.648  -0.727  1.00 20.00     0.038 C 
HETATM   12  C11 UNL     1     -32.911  18.250  -0.766  1.00 20.00     0.068 C 
ENDBRANCH   9  10
TORSDOF 1
ENDMDL
MODEL 4
REMARK VINA RESULT:      -4.3      1.970      4.325
REMARK  1 active torsions:
REMARK  status: ('A' for Active; 'I' for Inactive)
REMARK    1  A    between atoms: C6_6  and  N12_12 
ROOT
HETATM    1  C1  UNL     1     -37.116  14.733  -3.921  1.00 20.00     0.026 A 
HETATM    2  C2  UNL     1     -37.421  15.974  -3.403  1.00 20.00     0.097 A 
HETATM    3  C3  UNL     1     -35.710  14.581  -3.846  1.00 20.00    -0.034 A 
HETATM    4  C4  UNL     1     -35.206  15.739  -3.290  1.00 20.00     0.022 A 
HETATM    5  C7  UNL     1     -34.837  13.453  -4.276  1.00 20.00     0.040 C 
HETATM    6  C8  UNL     1     -33.777  16.026  -2.996  1.00 20.00     0.058 C 
HETATM    7  C9  UNL     1     -33.429  13.580  -3.660  1.00 20.00     0.005 C 
HETATM    8  C10 UNL     1     -32.882  15.018  -3.744  1.00 20.00     0.006 C 
HETATM    9  N12 UNL     1     -36.250  16.579  -3.020  1.00 20.00    -0.330 N 
ENDROOT
BRANCH   9  10
HETATM   10  C6  UNL     1     -36.167  17.836  -2.448  1.00 20.00     0.003 C 
HETATM   11  C5  UNL     1     -36.235  18.076  -1.123  1.00 20.00     0.038 C 
HETATM   12  C11 UNL     1     -35.989  19.040  -3.349  1.00 20.00     0.068 C 
ENDBRANCH   9  10
TORSDOF 1
ENDMDL
MODEL 5
REMARK VINA RESULT:      -4.3      1.862      3.381
REMARK  1 active torsions:
REMARK  status: ('A' for Active; 'I' for Inactive)
REMARK    1  A    between atoms: C6_6  and  N12_12 
ROOT
HETATM    1  C1  UNL     1     -34.494  13.937  -3.579  1.00 20.00     0.026 A 
HETATM    2  C2  UNL     1     -35.072  13.641  -4.796  1.00 20.00     0.097 A 
HETATM    3  C3  UNL     1     -34.286  15.337  -3.543  1.00 20.00    -0.034 A 
HETATM    4  C4  UNL     1     -34.739  15.846  -4.743  1.00 20.00     0.022 A 
HETATM    5  C7  UNL     1     -33.683  16.196  -2.486  1.00 20.00     0.040 C 
HETATM    6  C8  UNL     1     -34.745  17.277  -5.147  1.00 20.00     0.058 C 
HETATM    7  C9  UNL     1     -34.007  17.683  -2.731  1.00 20.00     0.005 C 
HETATM    8  C10 UNL     1     -33.827  18.084  -4.209  1.00 20.00     0.006 C 
HETATM    9  N12 UNL     1     -35.218  14.812  -5.497  1.00 20.00    -0.330 N 
ENDROOT
BRANCH   9  10
HETATM   10  C6  UNL     1     -35.772  14.905  -6.763  1.00 20.00     0.003 C 
HETATM   11  C5  UNL     1     -35.083  14.741  -7.909  1.00 20.00     0.038 C 
HETATM   12  C11 UNL     1     -37.250  15.211  -6.894  1.00 20.00     0.068 C 
ENDBRANCH   9  10
TORSDOF 1
ENDMDL
MODEL 6
REMARK VINA RESULT:      -4.3      2.802      4.623
REMARK  1 active torsions:
REMARK  status: ('A' for Active; 'I' for Inactive)
REMARK    1  A    between atoms: C6_6  and  N12_12 
ROOT
HETATM    1  C1  UNL     1     -32.168  19.143   0.624  1.00 20.00     0.026 A 
HETATM    2  C2  UNL     1     -32.776  18.710  -0.536  1.00 20.00     0.097 A 
HETATM    3  C3  UNL     1     -33.012  18.778   1.701  1.00 20.00    -0.034 A 
HETATM    4  C4  UNL     1     -34.109  18.140   1.159  1.00 20.00     0.022 A 
HETATM    5  C7  UNL     1     -32.862  19.008   3.165  1.00 20.00     0.040 C 
HETATM    6  C8  UNL     1     -35.251  17.559   1.913  1.00 20.00     0.058 C 
HETATM    7  C9  UNL     1     -33.831  18.116   3.967  1.00 20.00     0.005 C 
HETATM    8  C10 UNL     1     -35.247  18.097   3.357  1.00 20.00     0.006 C 
HETATM    9  N12 UNL     1     -33.958  18.099  -0.199  1.00 20.00    -0.330 N 
ENDROOT
BRANCH   9  10
HETATM   10  C6  UNL     1     -34.835  17.533  -1.107  1.00 20.00     0.003 C 
HETATM   11  C5  UNL     1     -34.722  16.283  -1.597  1.00 20.00     0.038 C 
HETATM   12  C11 UNL     1     -36.010  18.353  -1.598  1.00 20.00     0.068 C 
ENDBRANCH   9  10
TORSDOF 1
ENDMDL
MODEL 7
REMARK VINA RESULT:      -4.3     12.247     14.298
REMARK  1 active torsions:
REMARK  status: ('A' for Active; 'I' for Inactive)
REMARK    1  A    between atoms: C6_6  and  N12_12 
ROOT
HETATM    1  C1  UNL     1     -43.328   6.145  -3.072  1.00 20.00     0.026 A 
HETATM    2  C2  UNL     1     -43.417   4.824  -3.459  1.00 20.00     0.097 A 
HETATM    3  C3  UNL     1     -42.337   6.221  -2.063  1.00 20.00    -0.034 A 
HETATM    4  C4  UNL     1     -41.860   4.940  -1.865  1.00 20.00     0.022 A 
HETATM    5  C7  UNL     1     -41.842   7.388  -1.281  1.00 20.00     0.040 C 
HETATM    6  C8  UNL     1     -40.790   4.536  -0.916  1.00 20.00     0.058 C 
HETATM    7  C9  UNL     1     -40.514   7.056  -0.572  1.00 20.00     0.005 C 
HETATM    8  C10 UNL     1     -40.542   5.669   0.099  1.00 20.00     0.006 C 
HETATM    9  N12 UNL     1     -42.518   4.099  -2.718  1.00 20.00    -0.330 N 
ENDROOT
BRANCH   9  10
HETATM   10  C6  UNL     1     -42.322   2.734  -2.839  1.00 20.00     0.003 C 
HETATM   11  C5  UNL     1     -41.319   2.168  -3.539  1.00 20.00     0.038 C 
HETATM   12  C11 UNL     1     -43.287   1.792  -2.149  1.00 20.00     0.068 C 
ENDBRANCH   9  10
TORSDOF 1
ENDMDL
MODEL 8
REMARK VINA RESULT:      -4.2      1.539      4.384
REMARK  1 active torsions:
REMARK  status: ('A' for Active; 'I' for Inactive)
REMARK    1  A    between atoms: C6_6  and  N12_12 
ROOT
HETATM    1  C1  UNL     1     -37.228  16.470  -3.474  1.00 20.00     0.026 A 
HETATM    2  C2  UNL     1     -36.699  17.349  -2.552  1.00 20.00     0.097 A 
HETATM    3  C3  UNL     1     -36.243  15.485  -3.728  1.00 20.00    -0.034 A 
HETATM    4  C4  UNL     1     -35.144  15.801  -2.954  1.00 20.00     0.022 A 
HETATM    5  C7  UNL     1     -36.266  14.311  -4.644  1.00 20.00     0.040 C 
HETATM    6  C8  UNL     1     -33.874  15.033  -2.874  1.00 20.00     0.058 C 
HETATM    7  C9  UNL     1     -35.128  13.326  -4.309  1.00 20.00     0.005 C 
HETATM    8  C10 UNL     1     -33.789  14.046  -4.054  1.00 20.00     0.006 C 
HETATM    9  N12 UNL     1     -35.430  16.931  -2.241  1.00 20.00    -0.330 N 
ENDROOT
BRANCH   9  10
HETATM   10  C6  UNL     1     -34.593  17.567  -1.339  1.00 20.00     0.003 C 
HETATM   11  C5  UNL     1     -34.592  17.339  -0.011  1.00 20.00     0.038 C 
HETATM   12  C11 UNL     1     -33.605  18.592  -1.855  1.00 20.00     0.068 C 
ENDBRANCH   9  10
TORSDOF 1
ENDMDL
MODEL 9
REMARK VINA RESULT:      -4.1      1.496      4.505
REMARK  1 active torsions:
REMARK  status: ('A' for Active; 'I' for Inactive)
REMARK    1  A    between atoms: C6_6  and  N12_12 
ROOT
HETATM    1  C1  UNL     1     -33.903  16.292  -2.428  1.00 20.00     0.026 A 
HETATM    2  C2  UNL     1     -33.997  17.556  -2.973  1.00 20.00     0.097 A 
HETATM    3  C3  UNL     1     -34.217  15.368  -3.453  1.00 20.00    -0.034 A 
HETATM    4  C4  UNL     1     -34.498  16.102  -4.588  1.00 20.00     0.022 A 
HETATM    5  C7  UNL     1     -34.289  13.881  -3.424  1.00 20.00     0.040 C 
HETATM    6  C8  UNL     1     -34.858  15.555  -5.923  1.00 20.00     0.058 C 
HETATM    7  C9  UNL     1     -34.303  13.299  -4.851  1.00 20.00     0.005 C 
HETATM    8  C10 UNL     1     -35.254  14.072  -5.786  1.00 20.00     0.006 C 
HETATM    9  N12 UNL     1     -34.359  17.428  -4.290  1.00 20.00    -0.330 N 
ENDROOT
BRANCH   9  10
HETATM   10  C6  UNL     1     -34.541  18.490  -5.160  1.00 20.00     0.003 C 
HETATM   11  C5  UNL     1     -33.577  19.000  -5.952  1.00 20.00     0.038 C 
HETATM   12  C11 UNL     1     -35.907  19.139  -5.246  1.00 20.00     0.068 C 
ENDBRANCH   9  10
TORSDOF 1
ENDMDL
