MODEL 1
REMARK VINA RESULT:      -4.8      0.000      0.000
REMARK  1 active torsions:
REMARK  status: ('A' for Active; 'I' for Inactive)
REMARK    1  A    between atoms: C3_3  and  C7_7 
ROOT
HETATM    1  C1  UNL     1     -34.043  16.386  -5.408  1.00 20.00    -0.025 C 
HETATM    2  C2  UNL     1     -35.330  16.107  -5.149  1.00 20.00    -0.024 C 
HETATM    3  C4  UNL     1     -33.243  14.783  -3.755  1.00 20.00     0.021 C 
HETATM    4  C5  UNL     1     -33.298  16.299  -4.091  1.00 20.00     0.017 C 
HETATM    5  C6  UNL     1     -35.434  15.822  -3.660  1.00 20.00     0.027 C 
HETATM    6  C7  UNL     1     -34.729  14.457  -3.415  1.00 20.00     0.056 C 
HETATM    7  C8  UNL     1     -34.387  16.839  -3.123  1.00 20.00    -0.033 C 
HETATM    8  C9  UNL     1     -34.765  18.324  -3.344  1.00 20.00     0.016 C 
HETATM    9  C10 UNL     1     -34.046  16.703  -1.627  1.00 20.00     0.016 C 
ENDROOT
BRANCH   6  10
HETATM   10  C3  UNL     1     -35.286  13.337  -4.242  1.00 20.00     0.236 C 
HETATM   11  O11 UNL     1     -34.587  12.560  -4.884  1.00 20.00    -0.306 OA
ENDBRANCH   6  10
TORSDOF 1
ENDMDL
MODEL 2
REMARK VINA RESULT:      -4.6      1.622      2.650
REMARK  1 active torsions:
REMARK  status: ('A' for Active; 'I' for Inactive)
REMARK    1  A    between atoms: C3_3  and  C7_7 
ROOT
HETATM    1  C1  UNL     1     -32.829  14.697  -3.630  1.00 20.00    -0.025 C 
HETATM    2  C2  UNL     1     -33.028  15.878  -4.236  1.00 20.00    -0.024 C 
HETATM    3  C4  UNL     1     -34.666  13.639  -4.833  1.00 20.00     0.021 C 
HETATM    4  C5  UNL     1     -34.194  14.073  -3.419  1.00 20.00     0.017 C 
HETATM    5  C6  UNL     1     -34.527  16.029  -4.437  1.00 20.00     0.027 C 
HETATM    6  C7  UNL     1     -34.937  15.006  -5.533  1.00 20.00     0.056 C 
HETATM    7  C8  UNL     1     -35.038  15.347  -3.136  1.00 20.00    -0.033 C 
HETATM    8  C9  UNL     1     -34.661  16.092  -1.832  1.00 20.00     0.016 C 
HETATM    9  C10 UNL     1     -36.559  15.112  -3.070  1.00 20.00     0.016 C 
ENDROOT
BRANCH   6  10
HETATM   10  C3  UNL     1     -34.179  15.165  -6.818  1.00 20.00     0.236 C 
HETATM   11  O11 UNL     1     -34.638  14.865  -7.915  1.00 20.00    -0.306 OA
ENDBRANCH   6  10
TORSDOF 1
ENDMDL
MODEL 3
REMARK VINA RESULT:      -4.6      2.175      3.599
REMARK  1 active torsions:
REMARK  status: ('A' for Active; 'I' for Inactive)
REMARK    1  A    between atoms: C3_3  and  C7_7 
ROOT
HETATM    1  C1  UNL     1     -33.376  16.103  -4.616  1.00 20.00    -0.025 C 
HETATM    2  C2  UNL     1     -33.106  15.307  -3.570  1.00 20.00    -0.024 C 
HETATM    3  C4  UNL     1     -35.369  17.020  -3.552  1.00 20.00     0.021 C 
HETATM    4  C5  UNL     1     -34.885  16.159  -4.751  1.00 20.00     0.017 C 
HETATM    5  C6  UNL     1     -34.439  14.846  -3.004  1.00 20.00     0.027 C 
HETATM    6  C7  UNL     1     -35.094  16.087  -2.333  1.00 20.00     0.056 C 
HETATM    7  C8  UNL     1     -35.253  14.712  -4.322  1.00 20.00    -0.033 C 
HETATM    8  C9  UNL     1     -34.742  13.607  -5.280  1.00 20.00     0.016 C 
HETATM    9  C10 UNL     1     -36.762  14.456  -4.141  1.00 20.00     0.016 C 
ENDROOT
BRANCH   6  10
HETATM   10  C3  UNL     1     -34.233  16.729  -1.288  1.00 20.00     0.236 C 
HETATM   11  O11 UNL     1     -34.598  16.915  -0.132  1.00 20.00    -0.306 OA
ENDBRANCH   6  10
TORSDOF 1
ENDMDL
MODEL 4
REMARK VINA RESULT:      -4.5      1.111      2.290
REMARK  1 active torsions:
REMARK  status: ('A' for Active; 'I' for Inactive)
REMARK    1  A    between atoms: C3_3  and  C7_7 
ROOT
HETATM    1  C1  UNL     1     -35.600  16.161  -2.759  1.00 20.00    -0.025 C 
HETATM    2  C2  UNL     1     -34.379  15.682  -2.472  1.00 20.00    -0.024 C 
HETATM    3  C4  UNL     1     -35.473  15.418  -5.077  1.00 20.00     0.021 C 
HETATM    4  C5  UNL     1     -35.546  16.684  -4.181  1.00 20.00     0.017 C 
HETATM    5  C6  UNL     1     -33.521  15.877  -3.711  1.00 20.00     0.027 C 
HETATM    6  C7  UNL     1     -34.042  14.874  -4.779  1.00 20.00     0.056 C 
HETATM    7  C8  UNL     1     -34.092  17.231  -4.218  1.00 20.00    -0.033 C 
HETATM    8  C9  UNL     1     -33.832  18.430  -3.273  1.00 20.00     0.016 C 
HETATM    9  C10 UNL     1     -33.604  17.672  -5.611  1.00 20.00     0.016 C 
ENDROOT
BRANCH   6  10
HETATM   10  C3  UNL     1     -34.043  13.449  -4.315  1.00 20.00     0.236 C 
HETATM   11  O11 UNL     1     -35.040  12.734  -4.329  1.00 20.00    -0.306 OA
ENDBRANCH   6  10
TORSDOF 1
ENDMDL
MODEL 5
REMARK VINA RESULT:      -4.5      2.023      3.434
REMARK  1 active torsions:
REMARK  status: ('A' for Active; 'I' for Inactive)
REMARK    1  A    between atoms: C3_3  and  C7_7 
ROOT
HETATM    1  C1  UNL     1     -35.598  16.976  -5.003  1.00 20.00    -0.025 C 
HETATM    2  C2  UNL     1     -34.293  17.054  -4.697  1.00 20.00    -0.024 C 
HETATM    3  C4  UNL     1     -36.036  15.361  -3.231  1.00 20.00     0.021 C 
HETATM    4  C5  UNL     1     -36.020  15.539  -4.774  1.00 20.00     0.017 C 
HETATM    5  C6  UNL     1     -33.856  15.668  -4.252  1.00 20.00     0.027 C 
HETATM    6  C7  UNL     1     -34.519  15.412  -2.870  1.00 20.00     0.056 C 
HETATM    7  C8  UNL     1     -34.724  14.799  -5.205  1.00 20.00    -0.033 C 
HETATM    8  C9  UNL     1     -34.369  14.944  -6.706  1.00 20.00     0.016 C 
HETATM    9  C10 UNL     1     -34.715  13.287  -4.909  1.00 20.00     0.016 C 
ENDROOT
BRANCH   6  10
HETATM   10  C3  UNL     1     -34.198  16.458  -1.845  1.00 20.00     0.236 C 
HETATM   11  O11 UNL     1     -34.648  16.448  -0.704  1.00 20.00    -0.306 OA
ENDBRANCH   6  10
TORSDOF 1
ENDMDL
MODEL 6
REMARK VINA RESULT:      -4.4      1.966      3.379
REMARK  1 active torsions:
REMARK  status: ('A' for Active; 'I' for Inactive)
REMARK    1  A    between atoms: C3_3  and  C7_7 
ROOT
HETATM    1  C1  UNL     1     -34.895  13.598  -3.857  1.00 20.00    -0.025 C 
HETATM    2  C2  UNL     1     -35.981  14.387  -3.833  1.00 20.00    -0.024 C 
HETATM    3  C4  UNL     1     -33.388  15.463  -3.417  1.00 20.00     0.021 C 
HETATM    4  C5  UNL     1     -33.777  14.406  -4.486  1.00 20.00     0.017 C 
HETATM    5  C6  UNL     1     -35.576  15.723  -4.434  1.00 20.00     0.027 C 
HETATM    6  C7  UNL     1     -34.629  16.408  -3.408  1.00 20.00     0.056 C 
HETATM    7  C8  UNL     1     -34.584  15.231  -5.526  1.00 20.00    -0.033 C 
HETATM    8  C9  UNL     1     -35.236  14.388  -6.650  1.00 20.00     0.016 C 
HETATM    9  C10 UNL     1     -33.782  16.339  -6.235  1.00 20.00     0.016 C 
ENDROOT
BRANCH   6  10
HETATM   10  C3  UNL     1     -35.233  16.566  -2.045  1.00 20.00     0.236 C 
HETATM   11  O11 UNL     1     -34.646  16.275  -1.008  1.00 20.00    -0.306 OA
ENDBRANCH   6  10
TORSDOF 1
ENDMDL
MODEL 7
REMARK VINA RESULT:      -4.4      1.975      2.474
REMARK  1 active torsions:
REMARK  status: ('A' for Active; 'I' for Inactive)
REMARK    1  A    between atoms: C3_3  and  C7_7 
ROOT
HETATM    1  C1  UNL     1     -34.947  14.619  -6.386  1.00 20.00    -0.025 C 
HETATM    2  C2  UNL     1     -35.758  15.666  -6.161  1.00 20.00    -0.024 C 
HETATM    3  C4  UNL     1     -35.425  13.633  -4.208  1.00 20.00     0.021 C 
HETATM    4  C5  UNL     1     -34.296  14.272  -5.062  1.00 20.00     0.017 C 
HETATM    5  C6  UNL     1     -35.651  16.002  -4.683  1.00 20.00     0.027 C 
HETATM    6  C7  UNL     1     -36.353  14.850  -3.909  1.00 20.00     0.056 C 
HETATM    7  C8  UNL     1     -34.146  15.692  -4.449  1.00 20.00    -0.033 C 
HETATM    8  C9  UNL     1     -33.174  16.624  -5.214  1.00 20.00     0.016 C 
HETATM    9  C10 UNL     1     -33.690  15.715  -2.977  1.00 20.00     0.016 C 
ENDROOT
BRANCH   6  10
HETATM   10  C3  UNL     1     -37.773  14.620  -4.332  1.00 20.00     0.236 C 
HETATM   11  O11 UNL     1     -38.676  14.349  -3.548  1.00 20.00    -0.306 OA
ENDBRANCH   6  10
TORSDOF 1
ENDMDL
MODEL 8
REMARK VINA RESULT:      -4.4      1.872      2.970
REMARK  1 active torsions:
REMARK  status: ('A' for Active; 'I' for Inactive)
REMARK    1  A    between atoms: C3_3  and  C7_7 
ROOT
HETATM    1  C1  UNL     1     -34.752  13.492  -5.305  1.00 20.00    -0.025 C 
HETATM    2  C2  UNL     1     -34.518  14.651  -5.941  1.00 20.00    -0.024 C 
HETATM    3  C4  UNL     1     -36.595  14.436  -4.019  1.00 20.00     0.021 C 
HETATM    4  C5  UNL     1     -35.166  13.840  -3.890  1.00 20.00     0.017 C 
HETATM    5  C6  UNL     1     -34.790  15.768  -4.946  1.00 20.00     0.027 C 
HETATM    6  C7  UNL     1     -36.329  15.802  -4.723  1.00 20.00     0.056 C 
HETATM    7  C8  UNL     1     -34.279  15.091  -3.643  1.00 20.00    -0.033 C 
HETATM    8  C9  UNL     1     -32.757  14.807  -3.624  1.00 20.00     0.016 C 
HETATM    9  C10 UNL     1     -34.587  15.855  -2.341  1.00 20.00     0.016 C 
ENDROOT
BRANCH   6  10
HETATM   10  C3  UNL     1     -37.117  15.971  -5.987  1.00 20.00     0.236 C 
HETATM   11  O11 UNL     1     -38.016  15.211  -6.330  1.00 20.00    -0.306 OA
ENDBRANCH   6  10
TORSDOF 1
ENDMDL
MODEL 9
REMARK VINA RESULT:      -4.3      2.031      3.538
REMARK  1 active torsions:
REMARK  status: ('A' for Active; 'I' for Inactive)
REMARK    1  A    between atoms: C3_3  and  C7_7 
ROOT
HETATM    1  C1  UNL     1     -36.120  15.912  -3.420  1.00 20.00    -0.025 C 
HETATM    2  C2  UNL     1     -35.785  16.101  -4.706  1.00 20.00    -0.024 C 
HETATM    3  C4  UNL     1     -33.889  16.501  -2.633  1.00 20.00     0.021 C 
HETATM    4  C5  UNL     1     -34.904  15.328  -2.729  1.00 20.00     0.017 C 
HETATM    5  C6  UNL     1     -34.340  15.655  -4.862  1.00 20.00     0.027 C 
HETATM    6  C7  UNL     1     -33.465  16.704  -4.119  1.00 20.00     0.056 C 
HETATM    7  C8  UNL     1     -34.328  14.453  -3.876  1.00 20.00    -0.033 C 
HETATM    8  C9  UNL     1     -35.234  13.269  -4.298  1.00 20.00     0.016 C 
HETATM    9  C10 UNL     1     -32.940  13.848  -3.592  1.00 20.00     0.016 C 
ENDROOT
BRANCH   6  10
HETATM   10  C3  UNL     1     -33.673  18.109  -4.600  1.00 20.00     0.236 C 
HETATM   11  O11 UNL     1     -33.386  18.486  -5.731  1.00 20.00    -0.306 OA
ENDBRANCH   6  10
TORSDOF 1
ENDMDL
