MODEL 1
REMARK VINA RESULT:      -3.9      0.000      0.000
REMARK  1 active torsions:
REMARK  status: ('A' for Active; 'I' for Inactive)
REMARK    1  A    between atoms: C7_7  and  N8_8 
ROOT
HETATM    1  C1  UNL     1     -34.948  17.278   0.362  1.00 20.00     0.013 C 
HETATM    2  C2  UNL     1     -34.482  17.111  -0.732  1.00 20.00    -0.087 C 
HETATM    3  C7  UNL     1     -33.910  16.913  -2.066  1.00 20.00     0.364 C 
ENDROOT
BRANCH   3   4
HETATM    4  N8  UNL     1     -34.314  15.605  -2.617  1.00 20.00     0.100 N 
HETATM    5  C3  UNL     1     -35.550  15.777  -3.393  1.00 20.00     0.283 C 
HETATM    6  C5  UNL     1     -36.115  14.449  -3.891  1.00 20.00     0.104 C 
HETATM    7  S9  UNL     1     -34.963  13.612  -5.016  1.00 20.00    -0.166 SA
HETATM    8  C6  UNL     1     -33.497  13.666  -3.949  1.00 20.00     0.104 C 
HETATM    9  C4  UNL     1     -33.218  15.079  -3.444  1.00 20.00     0.283 C 
ENDBRANCH   3   4
TORSDOF 1
ENDMDL
MODEL 2
REMARK VINA RESULT:      -3.8     10.959     11.644
REMARK  1 active torsions:
REMARK  status: ('A' for Active; 'I' for Inactive)
REMARK    1  A    between atoms: C7_7  and  N8_8 
ROOT
HETATM    1  C1  UNL     1     -32.357   9.194   1.648  1.00 20.00     0.013 C 
HETATM    2  C2  UNL     1     -32.277   8.133   2.205  1.00 20.00    -0.087 C 
HETATM    3  C7  UNL     1     -32.175   6.838   2.882  1.00 20.00     0.364 C 
ENDROOT
BRANCH   3   4
HETATM    4  N8  UNL     1     -33.361   6.596   3.725  1.00 20.00     0.100 N 
HETATM    5  C3  UNL     1     -33.987   5.331   3.313  1.00 20.00     0.283 C 
HETATM    6  C5  UNL     1     -35.301   5.065   4.044  1.00 20.00     0.104 C 
HETATM    7  S9  UNL     1     -35.049   4.907   5.834  1.00 20.00    -0.166 SA
HETATM    8  C6  UNL     1     -34.130   6.450   6.090  1.00 20.00     0.104 C 
HETATM    9  C4  UNL     1     -32.944   6.565   5.134  1.00 20.00     0.283 C 
ENDBRANCH   3   4
TORSDOF 1
ENDMDL
MODEL 3
REMARK VINA RESULT:      -3.6      2.074      2.432
REMARK  1 active torsions:
REMARK  status: ('A' for Active; 'I' for Inactive)
REMARK    1  A    between atoms: C7_7  and  N8_8 
ROOT
HETATM    1  C1  UNL     1     -34.783  16.593  -1.048  1.00 20.00     0.013 C 
HETATM    2  C2  UNL     1     -34.127  16.262  -1.998  1.00 20.00    -0.087 C 
HETATM    3  C7  UNL     1     -33.322  15.859  -3.154  1.00 20.00     0.364 C 
ENDROOT
BRANCH   3   4
HETATM    4  N8  UNL     1     -34.160  15.765  -4.364  1.00 20.00     0.100 N 
HETATM    5  C3  UNL     1     -33.578  16.615  -5.412  1.00 20.00     0.283 C 
HETATM    6  C5  UNL     1     -34.454  16.683  -6.661  1.00 20.00     0.104 C 
HETATM    7  S9  UNL     1     -34.649  15.052  -7.431  1.00 20.00    -0.166 SA
HETATM    8  C6  UNL     1     -35.190  14.148  -5.955  1.00 20.00     0.104 C 
HETATM    9  C4  UNL     1     -34.234  14.357  -4.783  1.00 20.00     0.283 C 
ENDBRANCH   3   4
TORSDOF 1
ENDMDL
MODEL 4
REMARK VINA RESULT:      -3.6      1.548      1.916
REMARK  1 active torsions:
REMARK  status: ('A' for Active; 'I' for Inactive)
REMARK    1  A    between atoms: C7_7  and  N8_8 
ROOT
HETATM    1  C1  UNL     1     -33.220  18.175  -0.438  1.00 20.00     0.013 C 
HETATM    2  C2  UNL     1     -33.874  17.318  -0.966  1.00 20.00    -0.087 C 
HETATM    3  C7  UNL     1     -34.676  16.271  -1.605  1.00 20.00     0.364 C 
ENDROOT
BRANCH   3   4
HETATM    4  N8  UNL     1     -34.090  15.885  -2.902  1.00 20.00     0.100 N 
HETATM    5  C3  UNL     1     -34.868  14.772  -3.463  1.00 20.00     0.283 C 
HETATM    6  C5  UNL     1     -34.252  14.218  -4.746  1.00 20.00     0.104 C 
HETATM    7  S9  UNL     1     -34.204  15.470  -6.059  1.00 20.00    -0.166 SA
HETATM    8  C6  UNL     1     -33.380  16.782  -5.115  1.00 20.00     0.104 C 
HETATM    9  C4  UNL     1     -34.091  17.056  -3.792  1.00 20.00     0.283 C 
ENDBRANCH   3   4
TORSDOF 1
ENDMDL
MODEL 5
REMARK VINA RESULT:      -3.5     11.941     13.705
REMARK  1 active torsions:
REMARK  status: ('A' for Active; 'I' for Inactive)
REMARK    1  A    between atoms: C7_7  and  N8_8 
ROOT
HETATM    1  C1  UNL     1     -41.409   1.638  -4.122  1.00 20.00     0.013 C 
HETATM    2  C2  UNL     1     -41.939   2.331  -3.298  1.00 20.00    -0.087 C 
HETATM    3  C7  UNL     1     -42.591   3.173  -2.292  1.00 20.00     0.364 C 
ENDROOT
BRANCH   3   4
HETATM    4  N8  UNL     1     -41.886   4.462  -2.155  1.00 20.00     0.100 N 
HETATM    5  C3  UNL     1     -42.746   5.532  -2.678  1.00 20.00     0.283 C 
HETATM    6  C5  UNL     1     -42.043   6.888  -2.699  1.00 20.00     0.104 C 
HETATM    7  S9  UNL     1     -41.580   7.427  -1.029  1.00 20.00    -0.166 SA
HETATM    8  C6  UNL     1     -40.701   5.923  -0.522  1.00 20.00     0.104 C 
HETATM    9  C4  UNL     1     -41.551   4.673  -0.739  1.00 20.00     0.283 C 
ENDBRANCH   3   4
TORSDOF 1
ENDMDL
MODEL 6
REMARK VINA RESULT:      -3.5      1.371      2.218
REMARK  1 active torsions:
REMARK  status: ('A' for Active; 'I' for Inactive)
REMARK    1  A    between atoms: C7_7  and  N8_8 
ROOT
HETATM    1  C1  UNL     1     -33.194  18.260  -0.496  1.00 20.00     0.013 C 
HETATM    2  C2  UNL     1     -33.874  17.372  -0.932  1.00 20.00    -0.087 C 
HETATM    3  C7  UNL     1     -34.704  16.286  -1.459  1.00 20.00     0.364 C 
ENDROOT
BRANCH   3   4
HETATM    4  N8  UNL     1     -34.774  16.351  -2.932  1.00 20.00     0.100 N 
HETATM    5  C3  UNL     1     -33.448  16.042  -3.485  1.00 20.00     0.283 C 
HETATM    6  C5  UNL     1     -33.394  16.216  -5.001  1.00 20.00     0.104 C 
HETATM    7  S9  UNL     1     -34.533  15.085  -5.845  1.00 20.00    -0.166 SA
HETATM    8  C6  UNL     1     -36.030  15.500  -4.908  1.00 20.00     0.104 C 
HETATM    9  C4  UNL     1     -35.796  15.405  -3.402  1.00 20.00     0.283 C 
ENDBRANCH   3   4
TORSDOF 1
ENDMDL
MODEL 7
REMARK VINA RESULT:      -3.5      2.335      4.063
REMARK  1 active torsions:
REMARK  status: ('A' for Active; 'I' for Inactive)
REMARK    1  A    between atoms: C7_7  and  N8_8 
ROOT
HETATM    1  C1  UNL     1     -35.146  13.201  -4.373  1.00 20.00     0.013 C 
HETATM    2  C2  UNL     1     -34.121  13.739  -4.056  1.00 20.00    -0.087 C 
HETATM    3  C7  UNL     1     -32.867  14.392  -3.668  1.00 20.00     0.364 C 
ENDROOT
BRANCH   3   4
HETATM    4  N8  UNL     1     -33.015  15.859  -3.693  1.00 20.00     0.100 N 
HETATM    5  C3  UNL     1     -33.465  16.269  -5.030  1.00 20.00     0.283 C 
HETATM    6  C5  UNL     1     -33.517  17.787  -5.188  1.00 20.00     0.104 C 
HETATM    7  S9  UNL     1     -34.704  18.538  -4.040  1.00 20.00    -0.166 SA
HETATM    8  C6  UNL     1     -34.085  17.776  -2.515  1.00 20.00     0.104 C 
HETATM    9  C4  UNL     1     -33.971  16.259  -2.649  1.00 20.00     0.283 C 
ENDBRANCH   3   4
TORSDOF 1
ENDMDL
MODEL 8
REMARK VINA RESULT:      -3.3     10.772     11.988
REMARK  1 active torsions:
REMARK  status: ('A' for Active; 'I' for Inactive)
REMARK    1  A    between atoms: C7_7  and  N8_8 
ROOT
HETATM    1  C1  UNL     1     -41.817   9.195  -5.371  1.00 20.00     0.013 C 
HETATM    2  C2  UNL     1     -42.403   8.454  -4.630  1.00 20.00    -0.087 C 
HETATM    3  C7  UNL     1     -43.124   7.552  -3.729  1.00 20.00     0.364 C 
ENDROOT
BRANCH   3   4
HETATM    4  N8  UNL     1     -42.180   6.803  -2.877  1.00 20.00     0.100 N 
HETATM    5  C3  UNL     1     -42.081   7.473  -1.573  1.00 20.00     0.283 C 
HETATM    6  C5  UNL     1     -41.023   6.841  -0.672  1.00 20.00     0.104 C 
HETATM    7  S9  UNL     1     -41.420   5.113  -0.286  1.00 20.00    -0.166 SA
HETATM    8  C6  UNL     1     -41.668   4.533  -1.987  1.00 20.00     0.104 C 
HETATM    9  C4  UNL     1     -42.656   5.418  -2.745  1.00 20.00     0.283 C 
ENDBRANCH   3   4
TORSDOF 1
ENDMDL
MODEL 9
REMARK VINA RESULT:      -3.3      3.338      4.763
REMARK  1 active torsions:
REMARK  status: ('A' for Active; 'I' for Inactive)
REMARK    1  A    between atoms: C7_7  and  N8_8 
ROOT
HETATM    1  C1  UNL     1     -37.773  15.474  -6.827  1.00 20.00     0.013 C 
HETATM    2  C2  UNL     1     -36.700  15.041  -7.146  1.00 20.00    -0.087 C 
HETATM    3  C7  UNL     1     -35.393  14.509  -7.539  1.00 20.00     0.364 C 
ENDROOT
BRANCH   3   4
HETATM    4  N8  UNL     1     -34.423  14.642  -6.435  1.00 20.00     0.100 N 
HETATM    5  C3  UNL     1     -34.313  16.061  -6.067  1.00 20.00     0.283 C 
HETATM    6  C5  UNL     1     -33.230  16.309  -5.019  1.00 20.00     0.104 C 
HETATM    7  S9  UNL     1     -33.593  15.444  -3.466  1.00 20.00    -0.166 SA
HETATM    8  C6  UNL     1     -33.860  13.791  -4.163  1.00 20.00     0.104 C 
HETATM    9  C4  UNL     1     -34.874  13.818  -5.304  1.00 20.00     0.283 C 
ENDBRANCH   3   4
TORSDOF 1
ENDMDL
