MODEL 1
REMARK VINA RESULT:      -4.6      0.000      0.000
REMARK  1 active torsions:
REMARK  status: ('A' for Active; 'I' for Inactive)
REMARK    1  A    between atoms: C4_4  and  C10_10 
ROOT
HETATM    1  C1  UNL     1     -35.788  15.026  -3.963  1.00 20.00     0.092 C 
HETATM    2  C2  UNL     1     -33.404  16.058  -2.995  1.00 20.00     0.029 C 
HETATM    3  C3  UNL     1     -33.289  14.747  -3.756  1.00 20.00     0.016 C 
HETATM    4  C4  UNL     1     -34.648  16.009  -2.115  1.00 20.00     0.110 C 
HETATM    5  C5  UNL     1     -34.524  14.522  -4.637  1.00 20.00    -0.014 C 
HETATM    6  C6  UNL     1     -34.391  15.283  -5.966  1.00 20.00     0.020 C 
HETATM    7  C7  UNL     1     -34.694  13.026  -4.930  1.00 20.00     0.020 C 
HETATM    8  N11 UNL     1     -35.863  15.706  -2.873  1.00 20.00    -0.299 NA
ENDROOT
BRANCH   4   9
HETATM    9  C10 UNL     1     -34.860  17.342  -1.404  1.00 20.00     0.002 C 
HETATM   10  C8  UNL     1     -34.854  17.151   0.112  1.00 20.00     0.011 C 
HETATM   11  C9  UNL     1     -33.789  18.350  -1.820  1.00 20.00     0.011 C 
ENDBRANCH   4   9
TORSDOF 1
ENDMDL
MODEL 2
REMARK VINA RESULT:      -4.5      1.169      2.149
REMARK  1 active torsions:
REMARK  status: ('A' for Active; 'I' for Inactive)
REMARK    1  A    between atoms: C4_4  and  C10_10 
ROOT
HETATM    1  C1  UNL     1     -33.475  15.657  -4.628  1.00 20.00     0.092 C 
HETATM    2  C2  UNL     1     -35.328  15.595  -2.566  1.00 20.00     0.029 C 
HETATM    3  C3  UNL     1     -35.843  15.145  -3.923  1.00 20.00     0.016 C 
HETATM    4  C4  UNL     1     -34.416  16.802  -2.761  1.00 20.00     0.110 C 
HETATM    5  C5  UNL     1     -34.679  14.757  -4.844  1.00 20.00    -0.014 C 
HETATM    6  C6  UNL     1     -34.219  13.318  -4.563  1.00 20.00     0.020 C 
HETATM    7  C7  UNL     1     -35.111  14.869  -6.311  1.00 20.00     0.020 C 
HETATM    8  N11 UNL     1     -33.326  16.539  -3.703  1.00 20.00    -0.299 NA
ENDROOT
BRANCH   4   9
HETATM    9  C10 UNL     1     -33.796  17.230  -1.435  1.00 20.00     0.002 C 
HETATM   10  C8  UNL     1     -33.386  18.701  -1.482  1.00 20.00     0.011 C 
HETATM   11  C9  UNL     1     -34.767  16.982  -0.281  1.00 20.00     0.011 C 
ENDBRANCH   4   9
TORSDOF 1
ENDMDL
MODEL 3
REMARK VINA RESULT:      -4.4      1.337      4.335
REMARK  1 active torsions:
REMARK  status: ('A' for Active; 'I' for Inactive)
REMARK    1  A    between atoms: C4_4  and  C10_10 
ROOT
HETATM    1  C1  UNL     1     -33.655  17.681  -3.573  1.00 20.00     0.092 C 
HETATM    2  C2  UNL     1     -34.817  15.372  -2.569  1.00 20.00     0.029 C 
HETATM    3  C3  UNL     1     -34.468  16.432  -1.536  1.00 20.00     0.016 C 
HETATM    4  C4  UNL     1     -33.693  15.298  -3.597  1.00 20.00     0.110 C 
HETATM    5  C5  UNL     1     -34.299  17.803  -2.203  1.00 20.00    -0.014 C 
HETATM    6  C6  UNL     1     -35.663  18.480  -2.408  1.00 20.00     0.020 C 
HETATM    7  C7  UNL     1     -33.417  18.705  -1.331  1.00 20.00     0.020 C 
HETATM    8  N11 UNL     1     -33.408  16.594  -4.215  1.00 20.00    -0.299 NA
ENDROOT
BRANCH   4   9
HETATM    9  C10 UNL     1     -34.044  14.315  -4.710  1.00 20.00     0.002 C 
HETATM   10  C8  UNL     1     -35.145  13.357  -4.255  1.00 20.00     0.011 C 
HETATM   11  C9  UNL     1     -34.472  15.061  -5.973  1.00 20.00     0.011 C 
ENDBRANCH   4   9
TORSDOF 1
ENDMDL
MODEL 4
REMARK VINA RESULT:      -4.3      1.126      1.626
REMARK  1 active torsions:
REMARK  status: ('A' for Active; 'I' for Inactive)
REMARK    1  A    between atoms: C4_4  and  C10_10 
ROOT
HETATM    1  C1  UNL     1     -35.481  14.977  -3.609  1.00 20.00     0.092 C 
HETATM    2  C2  UNL     1     -33.606  16.987  -3.977  1.00 20.00     0.029 C 
HETATM    3  C3  UNL     1     -33.747  16.003  -5.128  1.00 20.00     0.016 C 
HETATM    4  C4  UNL     1     -33.681  16.218  -2.661  1.00 20.00     0.110 C 
HETATM    5  C5  UNL     1     -35.088  15.264  -5.048  1.00 20.00    -0.014 C 
HETATM    6  C6  UNL     1     -36.215  16.111  -5.660  1.00 20.00     0.020 C 
HETATM    7  C7  UNL     1     -34.998  13.930  -5.800  1.00 20.00     0.020 C 
HETATM    8  N11 UNL     1     -34.896  15.411  -2.548  1.00 20.00    -0.299 NA
ENDROOT
BRANCH   4   9
HETATM    9  C10 UNL     1     -33.642  17.176  -1.474  1.00 20.00     0.002 C 
HETATM   10  C8  UNL     1     -33.761  18.625  -1.947  1.00 20.00     0.011 C 
HETATM   11  C9  UNL     1     -34.753  16.846  -0.479  1.00 20.00     0.011 C 
ENDBRANCH   4   9
TORSDOF 1
ENDMDL
MODEL 5
REMARK VINA RESULT:      -4.1      1.641      4.441
REMARK  1 active torsions:
REMARK  status: ('A' for Active; 'I' for Inactive)
REMARK    1  A    between atoms: C4_4  and  C10_10 
ROOT
HETATM    1  C1  UNL     1     -33.892  17.764  -3.516  1.00 20.00     0.092 C 
HETATM    2  C2  UNL     1     -34.865  15.239  -4.123  1.00 20.00     0.029 C 
HETATM    3  C3  UNL     1     -34.607  15.505  -2.648  1.00 20.00     0.016 C 
HETATM    4  C4  UNL     1     -33.735  15.858  -4.939  1.00 20.00     0.110 C 
HETATM    5  C5  UNL     1     -34.549  17.012  -2.371  1.00 20.00    -0.014 C 
HETATM    6  C6  UNL     1     -35.963  17.591  -2.208  1.00 20.00     0.020 C 
HETATM    7  C7  UNL     1     -33.746  17.280  -1.092  1.00 20.00     0.020 C 
HETATM    8  N11 UNL     1     -33.555  17.284  -4.661  1.00 20.00    -0.299 NA
ENDROOT
BRANCH   4   9
HETATM    9  C10 UNL     1     -34.001  15.702  -6.434  1.00 20.00     0.002 C 
HETATM   10  C8  UNL     1     -34.969  14.548  -6.691  1.00 20.00     0.011 C 
HETATM   11  C9  UNL     1     -34.548  17.001  -7.022  1.00 20.00     0.011 C 
ENDBRANCH   4   9
TORSDOF 1
ENDMDL
MODEL 6
REMARK VINA RESULT:      -4.1      1.815      4.548
REMARK  1 active torsions:
REMARK  status: ('A' for Active; 'I' for Inactive)
REMARK    1  A    between atoms: C4_4  and  C10_10 
ROOT
HETATM    1  C1  UNL     1     -35.434  15.209  -3.883  1.00 20.00     0.092 C 
HETATM    2  C2  UNL     1     -34.068  15.921  -6.188  1.00 20.00     0.029 C 
HETATM    3  C3  UNL     1     -33.407  16.331  -4.881  1.00 20.00     0.016 C 
HETATM    4  C4  UNL     1     -35.572  16.146  -6.070  1.00 20.00     0.110 C 
HETATM    5  C5  UNL     1     -33.953  15.500  -3.714  1.00 20.00    -0.014 C 
HETATM    6  C6  UNL     1     -33.237  14.143  -3.628  1.00 20.00     0.020 C 
HETATM    7  C7  UNL     1     -33.756  16.256  -2.394  1.00 20.00     0.020 C 
HETATM    8  N11 UNL     1     -36.156  15.456  -4.919  1.00 20.00    -0.299 NA
ENDROOT
BRANCH   4   9
HETATM    9  C10 UNL     1     -36.290  15.657  -7.324  1.00 20.00     0.002 C 
HETATM   10  C8  UNL     1     -35.574  14.444  -7.916  1.00 20.00     0.011 C 
HETATM   11  C9  UNL     1     -37.747  15.319  -7.013  1.00 20.00     0.011 C 
ENDBRANCH   4   9
TORSDOF 1
ENDMDL
MODEL 7
REMARK VINA RESULT:      -4.1      2.036      3.591
REMARK  1 active torsions:
REMARK  status: ('A' for Active; 'I' for Inactive)
REMARK    1  A    between atoms: C4_4  and  C10_10 
ROOT
HETATM    1  C1  UNL     1     -37.137  15.501  -5.491  1.00 20.00     0.092 C 
HETATM    2  C2  UNL     1     -34.610  14.432  -5.895  1.00 20.00     0.029 C 
HETATM    3  C3  UNL     1     -35.520  14.442  -7.113  1.00 20.00     0.016 C 
HETATM    4  C4  UNL     1     -35.433  14.051  -4.669  1.00 20.00     0.110 C 
HETATM    5  C5  UNL     1     -36.659  15.453  -6.932  1.00 20.00    -0.014 C 
HETATM    6  C6  UNL     1     -36.190  16.871  -7.296  1.00 20.00     0.020 C 
HETATM    7  C7  UNL     1     -37.846  15.073  -7.825  1.00 20.00     0.020 C 
HETATM    8  N11 UNL     1     -36.597  14.919  -4.479  1.00 20.00    -0.299 NA
ENDROOT
BRANCH   4   9
HETATM    9  C10 UNL     1     -34.582  14.124  -3.405  1.00 20.00     0.002 C 
HETATM   10  C8  UNL     1     -33.124  13.794  -3.718  1.00 20.00     0.011 C 
HETATM   11  C9  UNL     1     -34.693  15.504  -2.760  1.00 20.00     0.011 C 
ENDBRANCH   4   9
TORSDOF 1
ENDMDL
MODEL 8
REMARK VINA RESULT:      -4.1      1.131      4.438
REMARK  1 active torsions:
REMARK  status: ('A' for Active; 'I' for Inactive)
REMARK    1  A    between atoms: C4_4  and  C10_10 
ROOT
HETATM    1  C1  UNL     1     -36.157  16.873  -2.709  1.00 20.00     0.092 C 
HETATM    2  C2  UNL     1     -33.885  15.672  -3.750  1.00 20.00     0.029 C 
HETATM    3  C3  UNL     1     -33.660  17.002  -3.048  1.00 20.00     0.016 C 
HETATM    4  C4  UNL     1     -35.168  15.760  -4.570  1.00 20.00     0.110 C 
HETATM    5  C5  UNL     1     -34.834  17.329  -2.118  1.00 20.00    -0.014 C 
HETATM    6  C6  UNL     1     -34.676  16.612  -0.768  1.00 20.00     0.020 C 
HETATM    7  C7  UNL     1     -34.907  18.842  -1.877  1.00 20.00     0.020 C 
HETATM    8  N11 UNL     1     -36.325  16.159  -3.766  1.00 20.00    -0.299 NA
ENDROOT
BRANCH   4   9
HETATM    9  C10 UNL     1     -35.489  14.415  -5.216  1.00 20.00     0.002 C 
HETATM   10  C8  UNL     1     -35.030  14.395  -6.673  1.00 20.00     0.011 C 
HETATM   11  C9  UNL     1     -34.839  13.274  -4.435  1.00 20.00     0.011 C 
ENDBRANCH   4   9
TORSDOF 1
ENDMDL
MODEL 9
REMARK VINA RESULT:      -4.1      2.226      4.673
REMARK  1 active torsions:
REMARK  status: ('A' for Active; 'I' for Inactive)
REMARK    1  A    between atoms: C4_4  and  C10_10 
ROOT
HETATM    1  C1  UNL     1     -33.353  16.033  -4.894  1.00 20.00     0.092 C 
HETATM    2  C2  UNL     1     -35.135  14.174  -5.922  1.00 20.00     0.029 C 
HETATM    3  C3  UNL     1     -34.221  13.665  -4.817  1.00 20.00     0.016 C 
HETATM    4  C4  UNL     1     -34.330  15.079  -6.848  1.00 20.00     0.110 C 
HETATM    5  C5  UNL     1     -33.646  14.835  -4.009  1.00 20.00    -0.014 C 
HETATM    6  C6  UNL     1     -34.646  15.301  -2.939  1.00 20.00     0.020 C 
HETATM    7  C7  UNL     1     -32.342  14.408  -3.324  1.00 20.00     0.020 C 
HETATM    8  N11 UNL     1     -33.672  16.174  -6.133  1.00 20.00    -0.299 NA
ENDROOT
BRANCH   4   9
HETATM    9  C10 UNL     1     -35.230  15.693  -7.917  1.00 20.00     0.002 C 
HETATM   10  C8  UNL     1     -36.647  15.131  -7.815  1.00 20.00     0.011 C 
HETATM   11  C9  UNL     1     -35.248  17.216  -7.798  1.00 20.00     0.011 C 
ENDBRANCH   4   9
TORSDOF 1
ENDMDL
