MODEL 1
REMARK VINA RESULT:      -4.1      0.000      0.000
REMARK  0 active torsions:
REMARK  status: ('A' for Active; 'I' for Inactive)
ROOT
HETATM    1  C1  UNL     1     -34.018   6.343   5.971  1.00 20.00     0.131 C 
HETATM    2  C2  UNL     1     -34.659   4.070   4.651  1.00 20.00     0.059 C 
HETATM    3  C3  UNL     1     -35.237   4.272   6.036  1.00 20.00     0.179 C 
HETATM    4  C4  UNL     1     -34.635   5.396   3.887  1.00 20.00     0.051 C 
HETATM    5  C5  UNL     1     -33.383   7.375   6.847  1.00 20.00     0.099 C 
HETATM    6  C6  UNL     1     -33.815   5.231   2.600  1.00 20.00     0.040 C 
HETATM    7  C7  UNL     1     -36.043   5.887   3.523  1.00 20.00     0.040 C 
HETATM    8  N8  UNL     1     -33.981   6.435   4.689  1.00 20.00    -0.261 NA
HETATM    9  O9  UNL     1     -34.589   5.359   6.713  1.00 20.00    -0.338 OA
ENDROOT
TORSDOF 0
ENDMDL
MODEL 2
REMARK VINA RESULT:      -4.0     12.784     13.886
REMARK  0 active torsions:
REMARK  status: ('A' for Active; 'I' for Inactive)
ROOT
HETATM    1  C1  UNL     1     -34.382  15.436  -5.957  1.00 20.00     0.131 C 
HETATM    2  C2  UNL     1     -34.861  14.009  -3.708  1.00 20.00     0.059 C 
HETATM    3  C3  UNL     1     -34.742  13.253  -5.015  1.00 20.00     0.179 C 
HETATM    4  C4  UNL     1     -33.847  15.156  -3.664  1.00 20.00     0.051 C 
HETATM    5  C5  UNL     1     -34.504  16.216  -7.226  1.00 20.00     0.099 C 
HETATM    6  C6  UNL     1     -34.152  16.063  -2.464  1.00 20.00     0.040 C 
HETATM    7  C7  UNL     1     -32.401  14.653  -3.555  1.00 20.00     0.040 C 
HETATM    8  N8  UNL     1     -33.956  15.980  -4.872  1.00 20.00    -0.261 NA
HETATM    9  O9  UNL     1     -34.780  14.150  -6.136  1.00 20.00    -0.338 OA
ENDROOT
TORSDOF 0
ENDMDL
MODEL 3
REMARK VINA RESULT:      -4.0      9.018     10.336
REMARK  0 active torsions:
REMARK  status: ('A' for Active; 'I' for Inactive)
ROOT
HETATM    1  C1  UNL     1     -42.005   6.518  -2.411  1.00 20.00     0.131 C 
HETATM    2  C2  UNL     1     -40.692   4.519  -1.143  1.00 20.00     0.059 C 
HETATM    3  C3  UNL     1     -40.796   5.857  -0.441  1.00 20.00     0.179 C 
HETATM    4  C4  UNL     1     -41.996   4.206  -1.883  1.00 20.00     0.051 C 
HETATM    5  C5  UNL     1     -42.373   7.710  -3.235  1.00 20.00     0.099 C 
HETATM    6  C6  UNL     1     -41.787   2.989  -2.795  1.00 20.00     0.040 C 
HETATM    7  C7  UNL     1     -43.158   3.918  -0.924  1.00 20.00     0.040 C 
HETATM    8  N8  UNL     1     -42.379   5.332  -2.741  1.00 20.00    -0.261 NA
HETATM    9  O9  UNL     1     -41.253   6.879  -1.340  1.00 20.00    -0.338 OA
ENDROOT
TORSDOF 0
ENDMDL
MODEL 4
REMARK VINA RESULT:      -3.9     12.422     13.222
REMARK  0 active torsions:
REMARK  status: ('A' for Active; 'I' for Inactive)
ROOT
HETATM    1  C1  UNL     1     -34.298  16.315  -2.313  1.00 20.00     0.131 C 
HETATM    2  C2  UNL     1     -34.337  15.682  -4.944  1.00 20.00     0.059 C 
HETATM    3  C3  UNL     1     -33.314  16.696  -4.473  1.00 20.00     0.179 C 
HETATM    4  C4  UNL     1     -34.498  14.569  -3.905  1.00 20.00     0.051 C 
HETATM    5  C5  UNL     1     -34.511  16.951  -0.976  1.00 20.00     0.099 C 
HETATM    6  C6  UNL     1     -35.712  13.702  -4.268  1.00 20.00     0.040 C 
HETATM    7  C7  UNL     1     -33.255  13.675  -3.810  1.00 20.00     0.040 C 
HETATM    8  N8  UNL     1     -34.753  15.142  -2.579  1.00 20.00    -0.261 NA
HETATM    9  O9  UNL     1     -33.601  17.138  -3.138  1.00 20.00    -0.338 OA
ENDROOT
TORSDOF 0
ENDMDL
MODEL 5
REMARK VINA RESULT:      -3.9     12.323     13.161
REMARK  0 active torsions:
REMARK  status: ('A' for Active; 'I' for Inactive)
ROOT
HETATM    1  C1  UNL     1     -36.621  14.760  -3.838  1.00 20.00     0.131 C 
HETATM    2  C2  UNL     1     -34.026  14.108  -3.429  1.00 20.00     0.059 C 
HETATM    3  C3  UNL     1     -34.815  13.287  -4.428  1.00 20.00     0.179 C 
HETATM    4  C4  UNL     1     -34.419  15.585  -3.529  1.00 20.00     0.051 C 
HETATM    5  C5  UNL     1     -38.112  14.851  -3.792  1.00 20.00     0.099 C 
HETATM    6  C6  UNL     1     -33.814  16.356  -2.348  1.00 20.00     0.040 C 
HETATM    7  C7  UNL     1     -33.948  16.227  -4.840  1.00 20.00     0.040 C 
HETATM    8  N8  UNL     1     -35.876  15.732  -3.444  1.00 20.00    -0.261 NA
HETATM    9  O9  UNL     1     -36.221  13.557  -4.324  1.00 20.00    -0.338 OA
ENDROOT
TORSDOF 0
ENDMDL
MODEL 6
REMARK VINA RESULT:      -3.9     13.016     13.960
REMARK  0 active torsions:
REMARK  status: ('A' for Active; 'I' for Inactive)
ROOT
HETATM    1  C1  UNL     1     -33.787  16.896  -4.741  1.00 20.00     0.131 C 
HETATM    2  C2  UNL     1     -34.127  14.474  -3.584  1.00 20.00     0.059 C 
HETATM    3  C3  UNL     1     -32.712  14.990  -3.747  1.00 20.00     0.179 C 
HETATM    4  C4  UNL     1     -35.070  15.620  -3.209  1.00 20.00     0.051 C 
HETATM    5  C5  UNL     1     -33.561  18.020  -5.701  1.00 20.00     0.099 C 
HETATM    6  C6  UNL     1     -36.524  15.139  -3.305  1.00 20.00     0.040 C 
HETATM    7  C7  UNL     1     -34.811  16.150  -1.793  1.00 20.00     0.040 C 
HETATM    8  N8  UNL     1     -34.917  16.735  -4.150  1.00 20.00    -0.261 NA
HETATM    9  O9  UNL     1     -32.674  16.128  -4.621  1.00 20.00    -0.338 OA
ENDROOT
TORSDOF 0
ENDMDL
MODEL 7
REMARK VINA RESULT:      -3.8     13.349     14.518
REMARK  0 active torsions:
REMARK  status: ('A' for Active; 'I' for Inactive)
ROOT
HETATM    1  C1  UNL     1     -34.601  15.176  -6.524  1.00 20.00     0.131 C 
HETATM    2  C2  UNL     1     -33.139  16.077  -4.432  1.00 20.00     0.059 C 
HETATM    3  C3  UNL     1     -33.881  17.097  -5.270  1.00 20.00     0.179 C 
HETATM    4  C4  UNL     1     -33.986  14.812  -4.263  1.00 20.00     0.051 C 
HETATM    5  C5  UNL     1     -35.080  14.751  -7.875  1.00 20.00     0.099 C 
HETATM    6  C6  UNL     1     -33.128  13.701  -3.642  1.00 20.00     0.040 C 
HETATM    7  C7  UNL     1     -35.216  15.047  -3.377  1.00 20.00     0.040 C 
HETATM    8  N8  UNL     1     -34.447  14.329  -5.568  1.00 20.00    -0.261 NA
HETATM    9  O9  UNL     1     -34.363  16.512  -6.490  1.00 20.00    -0.338 OA
ENDROOT
TORSDOF 0
ENDMDL
MODEL 8
REMARK VINA RESULT:      -3.7     12.395     13.099
REMARK  0 active torsions:
REMARK  status: ('A' for Active; 'I' for Inactive)
ROOT
HETATM    1  C1  UNL     1     -35.036  16.008  -2.356  1.00 20.00     0.131 C 
HETATM    2  C2  UNL     1     -36.347  14.677  -4.315  1.00 20.00     0.059 C 
HETATM    3  C3  UNL     1     -36.886  16.029  -3.892  1.00 20.00     0.179 C 
HETATM    4  C4  UNL     1     -34.816  14.694  -4.319  1.00 20.00     0.051 C 
HETATM    5  C5  UNL     1     -34.572  16.564  -1.049  1.00 20.00     0.099 C 
HETATM    6  C6  UNL     1     -34.289  13.263  -4.490  1.00 20.00     0.040 C 
HETATM    7  C7  UNL     1     -34.243  15.575  -5.436  1.00 20.00     0.040 C 
HETATM    8  N8  UNL     1     -34.309  15.194  -3.036  1.00 20.00    -0.261 NA
HETATM    9  O9  UNL     1     -36.273  16.470  -2.671  1.00 20.00    -0.338 OA
ENDROOT
TORSDOF 0
ENDMDL
MODEL 9
REMARK VINA RESULT:      -3.7     12.625     13.730
REMARK  0 active torsions:
REMARK  status: ('A' for Active; 'I' for Inactive)
ROOT
HETATM    1  C1  UNL     1     -35.855  15.162  -5.441  1.00 20.00     0.131 C 
HETATM    2  C2  UNL     1     -34.461  13.831  -3.542  1.00 20.00     0.059 C 
HETATM    3  C3  UNL     1     -34.476  13.256  -4.944  1.00 20.00     0.179 C 
HETATM    4  C4  UNL     1     -34.379  15.359  -3.595  1.00 20.00     0.051 C 
HETATM    5  C5  UNL     1     -36.907  15.653  -6.384  1.00 20.00     0.099 C 
HETATM    6  C6  UNL     1     -34.628  15.934  -2.194  1.00 20.00     0.040 C 
HETATM    7  C7  UNL     1     -33.020  15.854  -4.105  1.00 20.00     0.040 C 
HETATM    8  N8  UNL     1     -35.422  15.895  -4.477  1.00 20.00    -0.261 NA
HETATM    9  O9  UNL     1     -35.474  13.897  -5.754  1.00 20.00    -0.338 OA
ENDROOT
TORSDOF 0
ENDMDL
