MODEL 1
REMARK VINA RESULT:      -4.7      0.000      0.000
REMARK  0 active torsions:
REMARK  status: ('A' for Active; 'I' for Inactive)
ROOT
HETATM    1  C1  UNL     1     -33.554  17.128  -4.542  1.00 20.00     0.011 A 
HETATM    2  C2  UNL     1     -33.740  15.854  -5.078  1.00 20.00     0.024 A 
HETATM    3  C3  UNL     1     -34.462  15.047  -2.918  1.00 20.00     0.031 A 
HETATM    4  C4  UNL     1     -33.828  17.373  -3.190  1.00 20.00    -0.028 A 
HETATM    5  C5  UNL     1     -34.267  16.320  -2.369  1.00 20.00    -0.046 A 
HETATM    6  C6  UNL     1     -34.195  14.816  -4.267  1.00 20.00     0.034 A 
HETATM    7  C7  UNL     1     -34.588  16.583  -0.922  1.00 20.00     0.065 C 
HETATM    8  C8  UNL     1     -33.597  18.744  -2.608  1.00 20.00     0.206 C 
HETATM    9  C9  UNL     1     -33.916  17.862  -0.437  1.00 20.00     0.172 C 
HETATM   10  O10 UNL     1     -34.230  18.925  -1.336  1.00 20.00    -0.386 OA
HETATM   11 CL11 UNL     1     -34.430  13.246  -4.933  1.00 20.00    -0.084 Cl
ENDROOT
TORSDOF 0
ENDMDL
MODEL 2
REMARK VINA RESULT:      -4.6      3.096      4.360
REMARK  0 active torsions:
REMARK  status: ('A' for Active; 'I' for Inactive)
ROOT
HETATM    1  C1  UNL     1     -33.705  16.463  -2.402  1.00 20.00     0.011 A 
HETATM    2  C2  UNL     1     -34.695  17.370  -2.029  1.00 20.00     0.024 A 
HETATM    3  C3  UNL     1     -36.366  15.991  -3.098  1.00 20.00     0.031 A 
HETATM    4  C4  UNL     1     -34.039  15.308  -3.121  1.00 20.00    -0.028 A 
HETATM    5  C5  UNL     1     -35.377  15.081  -3.487  1.00 20.00    -0.046 A 
HETATM    6  C6  UNL     1     -36.025  17.134  -2.374  1.00 20.00     0.034 A 
HETATM    7  C7  UNL     1     -35.745  13.829  -4.237  1.00 20.00     0.065 C 
HETATM    8  C8  UNL     1     -32.961  14.345  -3.549  1.00 20.00     0.206 C 
HETATM    9  C9  UNL     1     -34.526  13.222  -4.921  1.00 20.00     0.172 C 
HETATM   10  O10 UNL     1     -33.477  13.076  -3.963  1.00 20.00    -0.386 OA
HETATM   11 CL11 UNL     1     -37.246  18.252  -1.906  1.00 20.00    -0.084 Cl
ENDROOT
TORSDOF 0
ENDMDL
MODEL 3
REMARK VINA RESULT:      -4.5      2.718      4.005
REMARK  0 active torsions:
REMARK  status: ('A' for Active; 'I' for Inactive)
ROOT
HETATM    1  C1  UNL     1     -33.950  18.854  -2.297  1.00 20.00     0.011 A 
HETATM    2  C2  UNL     1     -34.385  18.786  -0.973  1.00 20.00     0.024 A 
HETATM    3  C3  UNL     1     -34.557  16.382  -1.150  1.00 20.00     0.031 A 
HETATM    4  C4  UNL     1     -33.809  17.685  -3.055  1.00 20.00    -0.028 A 
HETATM    5  C5  UNL     1     -34.133  16.442  -2.483  1.00 20.00    -0.046 A 
HETATM    6  C6  UNL     1     -34.686  17.551  -0.400  1.00 20.00     0.034 A 
HETATM    7  C7  UNL     1     -33.958  15.180  -3.284  1.00 20.00     0.065 C 
HETATM    8  C8  UNL     1     -33.368  17.765  -4.494  1.00 20.00     0.206 C 
HETATM    9  C9  UNL     1     -33.918  15.483  -4.778  1.00 20.00     0.172 C 
HETATM   10  O10 UNL     1     -32.949  16.503  -5.022  1.00 20.00    -0.386 OA
HETATM   11 CL11 UNL     1     -35.216  17.470   1.235  1.00 20.00    -0.084 Cl
ENDROOT
TORSDOF 0
ENDMDL
MODEL 4
REMARK VINA RESULT:      -4.5      2.878      4.260
REMARK  0 active torsions:
REMARK  status: ('A' for Active; 'I' for Inactive)
ROOT
HETATM    1  C1  UNL     1     -33.807  17.565  -4.327  1.00 20.00     0.011 A 
HETATM    2  C2  UNL     1     -33.938  17.640  -2.941  1.00 20.00     0.024 A 
HETATM    3  C3  UNL     1     -34.787  15.378  -2.895  1.00 20.00     0.031 A 
HETATM    4  C4  UNL     1     -34.158  16.392  -5.007  1.00 20.00    -0.028 A 
HETATM    5  C5  UNL     1     -34.669  15.298  -4.288  1.00 20.00    -0.046 A 
HETATM    6  C6  UNL     1     -34.426  16.548  -2.226  1.00 20.00     0.034 A 
HETATM    7  C7  UNL     1     -35.024  14.026  -5.010  1.00 20.00     0.065 C 
HETATM    8  C8  UNL     1     -34.043  16.325  -6.509  1.00 20.00     0.206 C 
HETATM    9  C9  UNL     1     -35.236  14.284  -6.498  1.00 20.00     0.172 C 
HETATM   10  O10 UNL     1     -34.108  14.988  -7.016  1.00 20.00    -0.386 OA
HETATM   11 CL11 UNL     1     -34.580  16.641  -0.514  1.00 20.00    -0.084 Cl
ENDROOT
TORSDOF 0
ENDMDL
MODEL 5
REMARK VINA RESULT:      -4.5      3.563      4.545
REMARK  0 active torsions:
REMARK  status: ('A' for Active; 'I' for Inactive)
ROOT
HETATM    1  C1  UNL     1     -35.363  14.835  -7.056  1.00 20.00     0.011 A 
HETATM    2  C2  UNL     1     -35.265  16.073  -7.690  1.00 20.00     0.024 A 
HETATM    3  C3  UNL     1     -33.820  16.867  -5.924  1.00 20.00     0.031 A 
HETATM    4  C4  UNL     1     -34.683  14.602  -5.853  1.00 20.00    -0.028 A 
HETATM    5  C5  UNL     1     -33.922  15.632  -5.275  1.00 20.00    -0.046 A 
HETATM    6  C6  UNL     1     -34.493  17.087  -7.126  1.00 20.00     0.034 A 
HETATM    7  C7  UNL     1     -33.169  15.378  -3.996  1.00 20.00     0.065 C 
HETATM    8  C8  UNL     1     -34.816  13.272  -5.156  1.00 20.00     0.206 C 
HETATM    9  C9  UNL     1     -33.742  14.177  -3.253  1.00 20.00     0.172 C 
HETATM   10  O10 UNL     1     -33.820  13.067  -4.148  1.00 20.00    -0.386 OA
HETATM   11 CL11 UNL     1     -34.369  18.612  -7.914  1.00 20.00    -0.084 Cl
ENDROOT
TORSDOF 0
ENDMDL
MODEL 6
REMARK VINA RESULT:      -4.4      3.260      4.523
REMARK  0 active torsions:
REMARK  status: ('A' for Active; 'I' for Inactive)
ROOT
HETATM    1  C1  UNL     1     -33.344  15.549  -4.322  1.00 20.00     0.011 A 
HETATM    2  C2  UNL     1     -33.407  15.929  -2.982  1.00 20.00     0.024 A 
HETATM    3  C3  UNL     1     -35.819  15.800  -3.055  1.00 20.00     0.031 A 
HETATM    4  C4  UNL     1     -34.519  15.285  -5.037  1.00 20.00    -0.028 A 
HETATM    5  C5  UNL     1     -35.765  15.429  -4.404  1.00 20.00    -0.046 A 
HETATM    6  C6  UNL     1     -34.643  16.052  -2.349  1.00 20.00     0.034 A 
HETATM    7  C7  UNL     1     -37.030  15.122  -5.161  1.00 20.00     0.065 C 
HETATM    8  C8  UNL     1     -34.447  14.903  -6.494  1.00 20.00     0.206 C 
HETATM    9  C9  UNL     1     -36.791  15.168  -6.666  1.00 20.00     0.172 C 
HETATM   10  O10 UNL     1     -35.670  14.344  -6.987  1.00 20.00    -0.386 OA
HETATM   11 CL11 UNL     1     -34.718  16.515  -0.693  1.00 20.00    -0.084 Cl
ENDROOT
TORSDOF 0
ENDMDL
MODEL 7
REMARK VINA RESULT:      -4.4      3.093      4.872
REMARK  0 active torsions:
REMARK  status: ('A' for Active; 'I' for Inactive)
ROOT
HETATM    1  C1  UNL     1     -34.361  15.029  -3.140  1.00 20.00     0.011 A 
HETATM    2  C2  UNL     1     -34.018  16.182  -2.434  1.00 20.00     0.024 A 
HETATM    3  C3  UNL     1     -33.947  17.432  -4.500  1.00 20.00     0.031 A 
HETATM    4  C4  UNL     1     -34.506  15.071  -4.532  1.00 20.00    -0.028 A 
HETATM    5  C5  UNL     1     -34.279  16.277  -5.219  1.00 20.00    -0.046 A 
HETATM    6  C6  UNL     1     -33.813  17.382  -3.113  1.00 20.00     0.034 A 
HETATM    7  C7  UNL     1     -34.460  16.334  -6.712  1.00 20.00     0.065 C 
HETATM    8  C8  UNL     1     -34.848  13.817  -5.295  1.00 20.00     0.206 C 
HETATM    9  C9  UNL     1     -34.388  14.940  -7.324  1.00 20.00     0.172 C 
HETATM   10  O10 UNL     1     -35.290  14.077  -6.631  1.00 20.00    -0.386 OA
HETATM   11 CL11 UNL     1     -33.397  18.804  -2.238  1.00 20.00    -0.084 Cl
ENDROOT
TORSDOF 0
ENDMDL
MODEL 8
REMARK VINA RESULT:      -4.4      3.226      4.472
REMARK  0 active torsions:
REMARK  status: ('A' for Active; 'I' for Inactive)
ROOT
HETATM    1  C1  UNL     1     -36.472  16.772  -3.522  1.00 20.00     0.011 A 
HETATM    2  C2  UNL     1     -36.092  17.378  -2.326  1.00 20.00     0.024 A 
HETATM    3  C3  UNL     1     -34.307  15.770  -2.074  1.00 20.00     0.031 A 
HETATM    4  C4  UNL     1     -35.768  15.663  -4.007  1.00 20.00    -0.028 A 
HETATM    5  C5  UNL     1     -34.689  15.147  -3.268  1.00 20.00    -0.046 A 
HETATM    6  C6  UNL     1     -35.009  16.879  -1.603  1.00 20.00     0.034 A 
HETATM    7  C7  UNL     1     -33.912  13.972  -3.797  1.00 20.00     0.065 C 
HETATM    8  C8  UNL     1     -36.201  14.991  -5.285  1.00 20.00     0.206 C 
HETATM    9  C9  UNL     1     -34.725  13.201  -4.831  1.00 20.00     0.172 C 
HETATM   10  O10 UNL     1     -35.207  14.111  -5.820  1.00 20.00    -0.386 OA
HETATM   11 CL11 UNL     1     -34.537  17.635  -0.131  1.00 20.00    -0.084 Cl
ENDROOT
TORSDOF 0
ENDMDL
MODEL 9
REMARK VINA RESULT:      -4.3     12.739     13.891
REMARK  0 active torsions:
REMARK  status: ('A' for Active; 'I' for Inactive)
ROOT
HETATM    1  C1  UNL     1     -40.983   4.233  -1.601  1.00 20.00     0.011 A 
HETATM    2  C2  UNL     1     -41.565   3.305  -2.464  1.00 20.00     0.024 A 
HETATM    3  C3  UNL     1     -43.194   4.955  -3.145  1.00 20.00     0.031 A 
HETATM    4  C4  UNL     1     -41.499   5.531  -1.507  1.00 20.00    -0.028 A 
HETATM    5  C5  UNL     1     -42.624   5.889  -2.271  1.00 20.00    -0.046 A 
HETATM    6  C6  UNL     1     -42.667   3.666  -3.237  1.00 20.00     0.034 A 
HETATM    7  C7  UNL     1     -43.166   7.291  -2.195  1.00 20.00     0.065 C 
HETATM    8  C8  UNL     1     -40.886   6.522  -0.550  1.00 20.00     0.206 C 
HETATM    9  C9  UNL     1     -42.707   7.986  -0.918  1.00 20.00     0.172 C 
HETATM   10  O10 UNL     1     -41.288   7.871  -0.808  1.00 20.00    -0.386 OA
HETATM   11 CL11 UNL     1     -43.378   2.522  -4.308  1.00 20.00    -0.084 Cl
ENDROOT
TORSDOF 0
ENDMDL
