MODEL 1
REMARK VINA RESULT:      -5.1      0.000      0.000
REMARK  2 active torsions:
REMARK  status: ('A' for Active; 'I' for Inactive)
REMARK    1  A    between atoms: C3_3  and  C10_10 
REMARK    2  A    between atoms: C7_7  and  O11_11 
ROOT
HETATM    1  C1  UNL     1     -34.748  16.649  -0.731  1.00 20.00     0.012 C 
HETATM    2  C2  UNL     1     -34.269  16.657  -1.832  1.00 20.00    -0.113 C 
HETATM    3  C10 UNL     1     -33.680  16.676  -3.173  1.00 20.00     0.127 C 
ENDROOT
BRANCH   3   4
HETATM    4  C3  UNL     1     -34.216  15.544  -3.982  1.00 20.00    -0.060 C 
HETATM    5  C4  UNL     1     -33.767  14.280  -4.042  1.00 20.00    -0.052 C 
HETATM    6  C7  UNL     1     -34.632  13.430  -4.925  1.00 20.00     0.147 C 
HETATM    7  C8  UNL     1     -32.597  13.664  -3.353  1.00 20.00     0.046 C 
HETATM    8  C5  UNL     1     -35.471  14.455  -5.681  1.00 20.00     0.045 C 
HETATM    9  C6  UNL     1     -35.467  15.720  -4.807  1.00 20.00     0.014 C 
HETATM   10  C9  UNL     1     -35.506  16.983  -5.659  1.00 20.00     0.015 C 
BRANCH   6  11
HETATM   11  O11 UNL     1     -35.447  12.592  -4.120  1.00 20.00    -0.391 OA
HETATM   12  H25 UNL     1     -35.148  11.679  -4.269  1.00 20.00     0.210 HD
ENDBRANCH   6  11
ENDBRANCH   3   4
TORSDOF 2
ENDMDL
MODEL 2
REMARK VINA RESULT:      -5.0     10.940     12.552
REMARK  2 active torsions:
REMARK  status: ('A' for Active; 'I' for Inactive)
REMARK    1  A    between atoms: C3_3  and  C10_10 
REMARK    2  A    between atoms: C7_7  and  O11_11 
ROOT
HETATM    1  C1  UNL     1     -32.535   8.503   1.988  1.00 20.00     0.012 C 
HETATM    2  C2  UNL     1     -32.304   7.641   2.791  1.00 20.00    -0.113 C 
HETATM    3  C10 UNL     1     -32.010   6.590   3.768  1.00 20.00     0.127 C 
ENDROOT
BRANCH   3   4
HETATM    4  C3  UNL     1     -33.280   6.037   4.319  1.00 20.00    -0.060 C 
HETATM    5  C4  UNL     1     -34.285   5.440   3.656  1.00 20.00    -0.052 C 
HETATM    6  C7  UNL     1     -35.354   4.960   4.592  1.00 20.00     0.147 C 
HETATM    7  C8  UNL     1     -34.430   5.196   2.193  1.00 20.00     0.046 C 
HETATM    8  C5  UNL     1     -35.020   5.675   5.898  1.00 20.00     0.045 C 
HETATM    9  C6  UNL     1     -33.526   6.025   5.808  1.00 20.00     0.014 C 
HETATM   10  C9  UNL     1     -33.220   7.336   6.523  1.00 20.00     0.015 C 
BRANCH   6  11
HETATM   11  O11 UNL     1     -35.256   3.552   4.737  1.00 20.00    -0.391 OA
HETATM   12  H25 UNL     1     -35.865   3.158   4.091  1.00 20.00     0.210 HD
ENDBRANCH   6  11
ENDBRANCH   3   4
TORSDOF 2
ENDMDL
MODEL 3
REMARK VINA RESULT:      -4.8      1.366      1.655
REMARK  2 active torsions:
REMARK  status: ('A' for Active; 'I' for Inactive)
REMARK    1  A    between atoms: C3_3  and  C10_10 
REMARK    2  A    between atoms: C7_7  and  O11_11 
ROOT
HETATM    1  C1  UNL     1     -33.642  18.618  -2.526  1.00 20.00     0.012 C 
HETATM    2  C2  UNL     1     -34.058  17.558  -2.146  1.00 20.00    -0.113 C 
HETATM    3  C10 UNL     1     -34.562  16.267  -1.671  1.00 20.00     0.127 C 
ENDROOT
BRANCH   3   4
HETATM    4  C3  UNL     1     -34.962  15.419  -2.830  1.00 20.00    -0.060 C 
HETATM    5  C4  UNL     1     -34.185  14.636  -3.596  1.00 20.00    -0.052 C 
HETATM    6  C7  UNL     1     -34.991  13.888  -4.616  1.00 20.00     0.147 C 
HETATM    7  C8  UNL     1     -32.711  14.422  -3.529  1.00 20.00     0.046 C 
HETATM    8  C5  UNL     1     -36.336  14.608  -4.593  1.00 20.00     0.045 C 
HETATM    9  C6  UNL     1     -36.415  15.292  -3.218  1.00 20.00     0.014 C 
HETATM   10  C9  UNL     1     -37.178  16.610  -3.298  1.00 20.00     0.015 C 
BRANCH   6  11
HETATM   11  O11 UNL     1     -35.125  12.535  -4.212  1.00 20.00    -0.391 OA
HETATM   12  H25 UNL     1     -34.985  11.988  -5.003  1.00 20.00     0.210 HD
ENDBRANCH   6  11
ENDBRANCH   3   4
TORSDOF 2
ENDMDL
MODEL 4
REMARK VINA RESULT:      -4.6      1.566      1.887
REMARK  2 active torsions:
REMARK  status: ('A' for Active; 'I' for Inactive)
REMARK    1  A    between atoms: C3_3  and  C10_10 
REMARK    2  A    between atoms: C7_7  and  O11_11 
ROOT
HETATM    1  C1  UNL     1     -34.791  17.018  -0.041  1.00 20.00     0.012 C 
HETATM    2  C2  UNL     1     -34.429  16.711  -1.144  1.00 20.00    -0.113 C 
HETATM    3  C10 UNL     1     -33.977  16.340  -2.486  1.00 20.00     0.127 C 
ENDROOT
BRANCH   3   4
HETATM    4  C3  UNL     1     -35.144  15.953  -3.329  1.00 20.00    -0.060 C 
HETATM    5  C4  UNL     1     -35.416  14.756  -3.875  1.00 20.00    -0.052 C 
HETATM    6  C7  UNL     1     -36.732  14.764  -4.594  1.00 20.00     0.147 C 
HETATM    7  C8  UNL     1     -34.619  13.497  -3.823  1.00 20.00     0.046 C 
HETATM    8  C5  UNL     1     -37.055  16.251  -4.713  1.00 20.00     0.045 C 
HETATM    9  C6  UNL     1     -36.257  16.938  -3.592  1.00 20.00     0.014 C 
HETATM   10  C9  UNL     1     -35.800  18.331  -4.011  1.00 20.00     0.015 C 
BRANCH   6  11
HETATM   11  O11 UNL     1     -37.703  14.088  -3.811  1.00 20.00    -0.391 OA
HETATM   12  H25 UNL     1     -37.567  14.367  -2.890  1.00 20.00     0.210 HD
ENDBRANCH   6  11
ENDBRANCH   3   4
TORSDOF 2
ENDMDL
MODEL 5
REMARK VINA RESULT:      -4.5      2.139      3.786
REMARK  2 active torsions:
REMARK  status: ('A' for Active; 'I' for Inactive)
REMARK    1  A    between atoms: C3_3  and  C10_10 
REMARK    2  A    between atoms: C7_7  and  O11_11 
ROOT
HETATM    1  C1  UNL     1     -37.734  15.372  -6.930  1.00 20.00     0.012 C 
HETATM    2  C2  UNL     1     -36.576  15.066  -7.023  1.00 20.00    -0.113 C 
HETATM    3  C10 UNL     1     -35.167  14.687  -7.145  1.00 20.00     0.127 C 
ENDROOT
BRANCH   3   4
HETATM    4  C3  UNL     1     -34.410  15.144  -5.944  1.00 20.00    -0.060 C 
HETATM    5  C4  UNL     1     -34.269  14.521  -4.763  1.00 20.00    -0.052 C 
HETATM    6  C7  UNL     1     -33.365  15.284  -3.841  1.00 20.00     0.147 C 
HETATM    7  C8  UNL     1     -34.853  13.227  -4.308  1.00 20.00     0.046 C 
HETATM    8  C5  UNL     1     -33.262  16.652  -4.510  1.00 20.00     0.045 C 
HETATM    9  C6  UNL     1     -33.598  16.415  -5.991  1.00 20.00     0.014 C 
HETATM   10  C9  UNL     1     -34.316  17.617  -6.595  1.00 20.00     0.015 C 
BRANCH   6  11
HETATM   11  O11 UNL     1     -32.101  14.644  -3.783  1.00 20.00    -0.391 OA
HETATM   12  H25 UNL     1     -31.915  14.470  -2.845  1.00 20.00     0.210 HD
ENDBRANCH   6  11
ENDBRANCH   3   4
TORSDOF 2
ENDMDL
MODEL 6
REMARK VINA RESULT:      -4.4      2.469      3.648
REMARK  2 active torsions:
REMARK  status: ('A' for Active; 'I' for Inactive)
REMARK    1  A    between atoms: C3_3  and  C10_10 
REMARK    2  A    between atoms: C7_7  and  O11_11 
ROOT
HETATM    1  C1  UNL     1     -34.032  17.774  -0.002  1.00 20.00     0.012 C 
HETATM    2  C2  UNL     1     -34.412  17.003  -0.842  1.00 20.00    -0.113 C 
HETATM    3  C10 UNL     1     -34.879  16.056  -1.857  1.00 20.00     0.127 C 
ENDROOT
BRANCH   3   4
HETATM    4  C3  UNL     1     -34.397  16.475  -3.205  1.00 20.00    -0.060 C 
HETATM    5  C4  UNL     1     -34.838  17.488  -3.968  1.00 20.00    -0.052 C 
HETATM    6  C7  UNL     1     -34.035  17.618  -5.228  1.00 20.00     0.147 C 
HETATM    7  C8  UNL     1     -35.945  18.451  -3.704  1.00 20.00     0.046 C 
HETATM    8  C5  UNL     1     -33.266  16.301  -5.289  1.00 20.00     0.045 C 
HETATM    9  C6  UNL     1     -33.214  15.786  -3.841  1.00 20.00     0.014 C 
HETATM   10  C9  UNL     1     -33.253  14.263  -3.793  1.00 20.00     0.015 C 
BRANCH   6  11
HETATM   11  O11 UNL     1     -33.154  18.724  -5.115  1.00 20.00    -0.391 OA
HETATM   12  H25 UNL     1     -32.301  18.445  -5.487  1.00 20.00     0.210 HD
ENDBRANCH   6  11
ENDBRANCH   3   4
TORSDOF 2
ENDMDL
MODEL 7
REMARK VINA RESULT:      -4.3      2.151      3.237
REMARK  2 active torsions:
REMARK  status: ('A' for Active; 'I' for Inactive)
REMARK    1  A    between atoms: C3_3  and  C10_10 
REMARK    2  A    between atoms: C7_7  and  O11_11 
ROOT
HETATM    1  C1  UNL     1     -38.534  15.556  -3.648  1.00 20.00     0.012 C 
HETATM    2  C2  UNL     1     -37.565  14.872  -3.840  1.00 20.00    -0.113 C 
HETATM    3  C10 UNL     1     -36.389  14.030  -4.069  1.00 20.00     0.127 C 
ENDROOT
BRANCH   3   4
HETATM    4  C3  UNL     1     -35.260  14.859  -4.579  1.00 20.00    -0.060 C 
HETATM    5  C4  UNL     1     -34.437  15.662  -3.885  1.00 20.00    -0.052 C 
HETATM    6  C7  UNL     1     -33.382  16.264  -4.765  1.00 20.00     0.147 C 
HETATM    7  C8  UNL     1     -34.441  15.977  -2.428  1.00 20.00     0.046 C 
HETATM    8  C5  UNL     1     -33.905  15.989  -6.172  1.00 20.00     0.045 C 
HETATM    9  C6  UNL     1     -34.859  14.792  -6.033  1.00 20.00     0.014 C 
HETATM   10  C9  UNL     1     -36.014  14.886  -7.024  1.00 20.00     0.015 C 
BRANCH   6  11
HETATM   11  O11 UNL     1     -32.146  15.605  -4.538  1.00 20.00    -0.391 OA
HETATM   12  H25 UNL     1     -31.703  15.530  -5.399  1.00 20.00     0.210 HD
ENDBRANCH   6  11
ENDBRANCH   3   4
TORSDOF 2
ENDMDL
MODEL 8
REMARK VINA RESULT:      -4.3      1.361      3.035
REMARK  2 active torsions:
REMARK  status: ('A' for Active; 'I' for Inactive)
REMARK    1  A    between atoms: C3_3  and  C10_10 
REMARK    2  A    between atoms: C7_7  and  O11_11 
ROOT
HETATM    1  C1  UNL     1     -34.996  18.925  -5.571  1.00 20.00     0.012 C 
HETATM    2  C2  UNL     1     -34.211  18.020  -5.483  1.00 20.00    -0.113 C 
HETATM    3  C10 UNL     1     -33.247  16.923  -5.381  1.00 20.00     0.127 C 
ENDROOT
BRANCH   3   4
HETATM    4  C3  UNL     1     -33.918  15.701  -4.854  1.00 20.00    -0.060 C 
HETATM    5  C4  UNL     1     -34.674  14.813  -5.521  1.00 20.00    -0.052 C 
HETATM    6  C7  UNL     1     -35.104  13.681  -4.636  1.00 20.00     0.147 C 
HETATM    7  C8  UNL     1     -35.082  14.816  -6.954  1.00 20.00     0.046 C 
HETATM    8  C5  UNL     1     -34.795  14.198  -3.234  1.00 20.00     0.045 C 
HETATM    9  C6  UNL     1     -33.716  15.277  -3.419  1.00 20.00     0.014 C 
HETATM   10  C9  UNL     1     -33.865  16.392  -2.391  1.00 20.00     0.015 C 
BRANCH   6  11
HETATM   11  O11 UNL     1     -34.336  12.527  -4.940  1.00 20.00    -0.391 OA
HETATM   12  H25 UNL     1     -34.461  12.345  -5.886  1.00 20.00     0.210 HD
ENDBRANCH   6  11
ENDBRANCH   3   4
TORSDOF 2
ENDMDL
MODEL 9
REMARK VINA RESULT:      -4.3      1.935      2.935
REMARK  2 active torsions:
REMARK  status: ('A' for Active; 'I' for Inactive)
REMARK    1  A    between atoms: C3_3  and  C10_10 
REMARK    2  A    between atoms: C7_7  and  O11_11 
ROOT
HETATM    1  C1  UNL     1     -34.662  16.407  -1.338  1.00 20.00     0.012 C 
HETATM    2  C2  UNL     1     -34.035  16.011  -2.283  1.00 20.00    -0.113 C 
HETATM    3  C10 UNL     1     -33.261  15.527  -3.429  1.00 20.00     0.127 C 
ENDROOT
BRANCH   3   4
HETATM    4  C3  UNL     1     -34.102  15.553  -4.660  1.00 20.00    -0.060 C 
HETATM    5  C4  UNL     1     -34.491  16.619  -5.379  1.00 20.00    -0.052 C 
HETATM    6  C7  UNL     1     -35.272  16.209  -6.592  1.00 20.00     0.147 C 
HETATM    7  C8  UNL     1     -34.225  18.065  -5.135  1.00 20.00     0.046 C 
HETATM    8  C5  UNL     1     -35.611  14.748  -6.312  1.00 20.00     0.045 C 
HETATM    9  C6  UNL     1     -34.555  14.265  -5.303  1.00 20.00     0.014 C 
HETATM   10  C9  UNL     1     -35.138  13.235  -4.343  1.00 20.00     0.015 C 
BRANCH   6  11
HETATM   11  O11 UNL     1     -34.454  16.335  -7.745  1.00 20.00    -0.391 OA
HETATM   12  H25 UNL     1     -34.594  15.537  -8.280  1.00 20.00     0.210 HD
ENDBRANCH   6  11
ENDBRANCH   3   4
TORSDOF 2
ENDMDL
