MODEL 1
REMARK VINA RESULT:      -4.5      0.000      0.000
REMARK  2 active torsions:
REMARK  status: ('A' for Active; 'I' for Inactive)
REMARK    1  A    between atoms: C2_2  and  C7_7 
REMARK    2  A    between atoms: C3_3  and  C6_6 
ROOT
HETATM    1  C4  UNL     1     -33.895  13.685  -3.707  1.00 20.00     0.014 C 
HETATM    2  C5  UNL     1     -32.819  14.783  -3.625  1.00 20.00     0.015 C 
HETATM    3  C6  UNL     1     -34.630  14.552  -4.759  1.00 20.00     0.067 C 
HETATM    4  C7  UNL     1     -33.877  15.796  -4.163  1.00 20.00    -0.011 C 
HETATM    5  C10 UNL     1     -33.336  16.765  -5.208  1.00 20.00     0.021 C 
ENDROOT
BRANCH   4   6
HETATM    6  C2  UNL     1     -34.612  16.521  -3.085  1.00 20.00    -0.084 C 
HETATM    7  C1  UNL     1     -34.557  16.130  -1.804  1.00 20.00     0.015 C 
HETATM    8  C8  UNL     1     -35.414  17.712  -3.517  1.00 20.00     0.043 C 
ENDBRANCH   4   6
BRANCH   3   9
HETATM    9  C3  UNL     1     -36.162  14.536  -4.762  1.00 20.00     0.128 C 
HETATM   10  C9  UNL     1     -36.843  15.215  -5.920  1.00 20.00     0.091 C 
HETATM   11  O11 UNL     1     -36.804  13.994  -3.864  1.00 20.00    -0.298 OA
ENDBRANCH   3   9
TORSDOF 2
ENDMDL
MODEL 2
REMARK VINA RESULT:      -4.4      1.883      3.509
REMARK  2 active torsions:
REMARK  status: ('A' for Active; 'I' for Inactive)
REMARK    1  A    between atoms: C2_2  and  C7_7 
REMARK    2  A    between atoms: C3_3  and  C6_6 
ROOT
HETATM    1  C4  UNL     1     -33.665  13.732  -4.014  1.00 20.00     0.014 C 
HETATM    2  C5  UNL     1     -35.087  13.188  -4.246  1.00 20.00     0.015 C 
HETATM    3  C6  UNL     1     -34.304  15.064  -3.549  1.00 20.00     0.067 C 
HETATM    4  C7  UNL     1     -35.581  14.662  -4.371  1.00 20.00    -0.011 C 
HETATM    5  C10 UNL     1     -36.901  14.939  -3.660  1.00 20.00     0.021 C 
ENDROOT
BRANCH   4   6
HETATM    6  C2  UNL     1     -35.611  15.166  -5.776  1.00 20.00    -0.084 C 
HETATM    7  C1  UNL     1     -35.003  14.512  -6.776  1.00 20.00     0.015 C 
HETATM    8  C8  UNL     1     -36.360  16.445  -6.004  1.00 20.00     0.043 C 
ENDBRANCH   4   6
BRANCH   3   9
HETATM    9  C3  UNL     1     -33.576  16.369  -3.887  1.00 20.00     0.128 C 
HETATM   10  C9  UNL     1     -33.912  17.569  -3.043  1.00 20.00     0.091 C 
HETATM   11  O11 UNL     1     -32.757  16.433  -4.802  1.00 20.00    -0.298 OA
ENDBRANCH   3   9
TORSDOF 2
ENDMDL
MODEL 3
REMARK VINA RESULT:      -4.3      1.576      3.433
REMARK  2 active torsions:
REMARK  status: ('A' for Active; 'I' for Inactive)
REMARK    1  A    between atoms: C2_2  and  C7_7 
REMARK    2  A    between atoms: C3_3  and  C6_6 
ROOT
HETATM    1  C4  UNL     1     -37.042  14.745  -3.779  1.00 20.00     0.014 C 
HETATM    2  C5  UNL     1     -37.114  16.164  -4.373  1.00 20.00     0.015 C 
HETATM    3  C6  UNL     1     -35.503  14.904  -3.714  1.00 20.00     0.067 C 
HETATM    4  C7  UNL     1     -35.634  15.996  -4.836  1.00 20.00    -0.011 C 
HETATM    5  C10 UNL     1     -34.769  17.232  -4.617  1.00 20.00     0.021 C 
ENDROOT
BRANCH   4   6
HETATM    6  C2  UNL     1     -35.499  15.485  -6.232  1.00 20.00    -0.084 C 
HETATM    7  C1  UNL     1     -36.538  14.961  -6.898  1.00 20.00     0.015 C 
HETATM    8  C8  UNL     1     -34.135  15.592  -6.846  1.00 20.00     0.043 C 
ENDBRANCH   4   6
BRANCH   3   9
HETATM    9  C3  UNL     1     -34.638  13.666  -3.973  1.00 20.00     0.128 C 
HETATM   10  C9  UNL     1     -33.169  13.792  -3.674  1.00 20.00     0.091 C 
HETATM   11  O11 UNL     1     -35.122  12.619  -4.402  1.00 20.00    -0.298 OA
ENDBRANCH   3   9
TORSDOF 2
ENDMDL
MODEL 4
REMARK VINA RESULT:      -4.3      1.578      2.817
REMARK  2 active torsions:
REMARK  status: ('A' for Active; 'I' for Inactive)
REMARK    1  A    between atoms: C2_2  and  C7_7 
REMARK    2  A    between atoms: C3_3  and  C6_6 
ROOT
HETATM    1  C4  UNL     1     -33.888  15.981  -2.775  1.00 20.00     0.014 C 
HETATM    2  C5  UNL     1     -32.967  15.024  -3.554  1.00 20.00     0.015 C 
HETATM    3  C6  UNL     1     -35.088  15.111  -3.225  1.00 20.00     0.067 C 
HETATM    4  C7  UNL     1     -34.198  14.617  -4.421  1.00 20.00    -0.011 C 
HETATM    5  C10 UNL     1     -34.295  13.122  -4.704  1.00 20.00     0.021 C 
ENDROOT
BRANCH   4   6
HETATM    6  C2  UNL     1     -34.332  15.412  -5.678  1.00 20.00    -0.084 C 
HETATM    7  C1  UNL     1     -33.764  16.619  -5.817  1.00 20.00     0.015 C 
HETATM    8  C8  UNL     1     -35.138  14.784  -6.775  1.00 20.00     0.043 C 
ENDBRANCH   4   6
BRANCH   3   9
HETATM    9  C3  UNL     1     -36.417  15.815  -3.522  1.00 20.00     0.128 C 
HETATM   10  C9  UNL     1     -37.605  14.932  -3.793  1.00 20.00     0.091 C 
HETATM   11  O11 UNL     1     -36.508  17.042  -3.537  1.00 20.00    -0.298 OA
ENDBRANCH   3   9
TORSDOF 2
ENDMDL
MODEL 5
REMARK VINA RESULT:      -4.3      1.743      2.742
REMARK  2 active torsions:
REMARK  status: ('A' for Active; 'I' for Inactive)
REMARK    1  A    between atoms: C2_2  and  C7_7 
REMARK    2  A    between atoms: C3_3  and  C6_6 
ROOT
HETATM    1  C4  UNL     1     -35.080  14.258  -6.098  1.00 20.00     0.014 C 
HETATM    2  C5  UNL     1     -34.544  13.385  -4.948  1.00 20.00     0.015 C 
HETATM    3  C6  UNL     1     -34.107  15.372  -5.638  1.00 20.00     0.067 C 
HETATM    4  C7  UNL     1     -34.101  14.693  -4.222  1.00 20.00    -0.011 C 
HETATM    5  C10 UNL     1     -32.726  14.608  -3.569  1.00 20.00     0.021 C 
ENDROOT
BRANCH   4   6
HETATM    6  C2  UNL     1     -35.119  15.220  -3.266  1.00 20.00    -0.084 C 
HETATM    7  C1  UNL     1     -36.427  14.962  -3.411  1.00 20.00     0.015 C 
HETATM    8  C8  UNL     1     -34.595  16.052  -2.134  1.00 20.00     0.043 C 
ENDBRANCH   4   6
BRANCH   3   9
HETATM    9  C3  UNL     1     -34.566  16.828  -5.768  1.00 20.00     0.128 C 
HETATM   10  C9  UNL     1     -33.555  17.889  -5.427  1.00 20.00     0.091 C 
HETATM   11  O11 UNL     1     -35.705  17.116  -6.134  1.00 20.00    -0.298 OA
ENDBRANCH   3   9
TORSDOF 2
ENDMDL
MODEL 6
REMARK VINA RESULT:      -4.2      1.061      2.053
REMARK  2 active torsions:
REMARK  status: ('A' for Active; 'I' for Inactive)
REMARK    1  A    between atoms: C2_2  and  C7_7 
REMARK    2  A    between atoms: C3_3  and  C6_6 
ROOT
HETATM    1  C4  UNL     1     -34.439  14.943  -6.224  1.00 20.00     0.014 C 
HETATM    2  C5  UNL     1     -33.739  16.278  -5.906  1.00 20.00     0.015 C 
HETATM    3  C6  UNL     1     -35.585  15.377  -5.277  1.00 20.00     0.067 C 
HETATM    4  C7  UNL     1     -34.558  16.340  -4.581  1.00 20.00    -0.011 C 
HETATM    5  C10 UNL     1     -35.111  17.723  -4.255  1.00 20.00     0.021 C 
ENDROOT
BRANCH   4   6
HETATM    6  C2  UNL     1     -33.843  15.756  -3.408  1.00 20.00    -0.084 C 
HETATM    7  C1  UNL     1     -32.769  14.965  -3.554  1.00 20.00     0.015 C 
HETATM    8  C8  UNL     1     -34.392  16.106  -2.057  1.00 20.00     0.043 C 
ENDBRANCH   4   6
BRANCH   3   9
HETATM    9  C3  UNL     1     -36.281  14.295  -4.444  1.00 20.00     0.128 C 
HETATM   10  C9  UNL     1     -37.578  14.679  -3.784  1.00 20.00     0.091 C 
HETATM   11  O11 UNL     1     -35.803  13.168  -4.322  1.00 20.00    -0.298 OA
ENDBRANCH   3   9
TORSDOF 2
ENDMDL
MODEL 7
REMARK VINA RESULT:      -4.2      1.933      3.358
REMARK  2 active torsions:
REMARK  status: ('A' for Active; 'I' for Inactive)
REMARK    1  A    between atoms: C2_2  and  C7_7 
REMARK    2  A    between atoms: C3_3  and  C6_6 
ROOT
HETATM    1  C4  UNL     1     -33.901  16.886  -2.671  1.00 20.00     0.014 C 
HETATM    2  C5  UNL     1     -34.747  15.797  -1.984  1.00 20.00     0.015 C 
HETATM    3  C6  UNL     1     -34.790  16.713  -3.928  1.00 20.00     0.067 C 
HETATM    4  C7  UNL     1     -35.143  15.276  -3.400  1.00 20.00    -0.011 C 
HETATM    5  C10 UNL     1     -36.614  14.899  -3.535  1.00 20.00     0.021 C 
ENDROOT
BRANCH   4   6
HETATM    6  C2  UNL     1     -34.259  14.184  -3.904  1.00 20.00    -0.084 C 
HETATM    7  C1  UNL     1     -33.006  14.023  -3.454  1.00 20.00     0.015 C 
HETATM    8  C8  UNL     1     -34.853  13.278  -4.941  1.00 20.00     0.043 C 
ENDBRANCH   4   6
BRANCH   3   9
HETATM    9  C3  UNL     1     -34.131  16.864  -5.303  1.00 20.00     0.128 C 
HETATM   10  C9  UNL     1     -35.049  16.874  -6.495  1.00 20.00     0.091 C 
HETATM   11  O11 UNL     1     -32.912  16.973  -5.427  1.00 20.00    -0.298 OA
ENDBRANCH   3   9
TORSDOF 2
ENDMDL
MODEL 8
REMARK VINA RESULT:      -4.2      1.284      2.659
REMARK  2 active torsions:
REMARK  status: ('A' for Active; 'I' for Inactive)
REMARK    1  A    between atoms: C2_2  and  C7_7 
REMARK    2  A    between atoms: C3_3  and  C6_6 
ROOT
HETATM    1  C4  UNL     1     -34.872  16.548  -2.467  1.00 20.00     0.014 C 
HETATM    2  C5  UNL     1     -33.474  16.048  -2.875  1.00 20.00     0.015 C 
HETATM    3  C6  UNL     1     -35.438  15.178  -2.917  1.00 20.00     0.067 C 
HETATM    4  C7  UNL     1     -34.166  15.026  -3.827  1.00 20.00    -0.011 C 
HETATM    5  C10 UNL     1     -33.542  13.635  -3.809  1.00 20.00     0.021 C 
ENDROOT
BRANCH   4   6
HETATM    6  C2  UNL     1     -34.328  15.525  -5.224  1.00 20.00    -0.084 C 
HETATM    7  C1  UNL     1     -34.103  16.807  -5.549  1.00 20.00     0.015 C 
HETATM    8  C8  UNL     1     -34.756  14.512  -6.244  1.00 20.00     0.043 C 
ENDBRANCH   4   6
BRANCH   3   9
HETATM    9  C3  UNL     1     -36.828  15.149  -3.562  1.00 20.00     0.128 C 
HETATM   10  C9  UNL     1     -37.484  16.479  -3.813  1.00 20.00     0.091 C 
HETATM   11  O11 UNL     1     -37.379  14.090  -3.860  1.00 20.00    -0.298 OA
ENDBRANCH   3   9
TORSDOF 2
ENDMDL
MODEL 9
REMARK VINA RESULT:      -4.1      1.916      3.661
REMARK  2 active torsions:
REMARK  status: ('A' for Active; 'I' for Inactive)
REMARK    1  A    between atoms: C2_2  and  C7_7 
REMARK    2  A    between atoms: C3_3  and  C6_6 
ROOT
HETATM    1  C4  UNL     1     -35.031  15.624  -2.947  1.00 20.00     0.014 C 
HETATM    2  C5  UNL     1     -36.337  14.971  -3.436  1.00 20.00     0.015 C 
HETATM    3  C6  UNL     1     -35.036  16.482  -4.237  1.00 20.00     0.067 C 
HETATM    4  C7  UNL     1     -35.944  15.379  -4.889  1.00 20.00    -0.011 C 
HETATM    5  C10 UNL     1     -37.101  15.923  -5.719  1.00 20.00     0.021 C 
ENDROOT
BRANCH   4   6
HETATM    6  C2  UNL     1     -35.206  14.313  -5.630  1.00 20.00    -0.084 C 
HETATM    7  C1  UNL     1     -34.686  13.246  -5.005  1.00 20.00     0.015 C 
HETATM    8  C8  UNL     1     -35.080  14.503  -7.112  1.00 20.00     0.043 C 
ENDBRANCH   4   6
BRANCH   3   9
HETATM    9  C3  UNL     1     -33.689  16.822  -4.882  1.00 20.00     0.128 C 
HETATM   10  C9  UNL     1     -33.673  17.973  -5.850  1.00 20.00     0.091 C 
HETATM   11  O11 UNL     1     -32.669  16.185  -4.620  1.00 20.00    -0.298 OA
ENDBRANCH   3   9
TORSDOF 2
ENDMDL
