MODEL 1
REMARK VINA RESULT:      -4.9      0.000      0.000
REMARK  1 active torsions:
REMARK  status: ('A' for Active; 'I' for Inactive)
REMARK    1  A    between atoms: C3_3  and  C9_9 
ROOT
HETATM    1  C1  UNL     1     -33.794  16.805  -3.607  1.00 20.00    -0.067 A 
HETATM    2  C2  UNL     1     -33.589  17.539  -4.680  1.00 20.00     0.016 C 
HETATM    3  C4  UNL     1     -35.500  13.289  -4.472  1.00 20.00     0.000 C 
HETATM    4  C5  UNL     1     -36.278  14.592  -4.292  1.00 20.00     0.001 C 
HETATM    5  C6  UNL     1     -33.995  13.545  -4.534  1.00 20.00     0.001 C 
HETATM    6  C7  UNL     1     -35.800  15.368  -3.063  1.00 20.00     0.015 C 
HETATM    7  C8  UNL     1     -33.507  14.311  -3.306  1.00 20.00     0.015 C 
HETATM    8  C9  UNL     1     -33.644  16.713  -2.206  1.00 20.00     0.096 A 
HETATM    9  C10 UNL     1     -34.302  15.582  -3.107  1.00 20.00    -0.003 A 
ENDROOT
BRANCH   8  10
HETATM   10  C3  UNL     1     -34.482  17.614  -1.413  1.00 20.00     0.132 C 
HETATM   11  C11 UNL     1     -34.783  17.191  -0.001  1.00 20.00     0.091 C 
HETATM   12  O12 UNL     1     -34.918  18.666  -1.878  1.00 20.00    -0.298 OA
ENDBRANCH   8  10
TORSDOF 1
ENDMDL
MODEL 2
REMARK VINA RESULT:      -4.7      2.079      4.216
REMARK  1 active torsions:
REMARK  status: ('A' for Active; 'I' for Inactive)
REMARK    1  A    between atoms: C3_3  and  C9_9 
ROOT
HETATM    1  C1  UNL     1     -33.530  15.276  -3.707  1.00 20.00    -0.067 A 
HETATM    2  C2  UNL     1     -32.335  14.744  -3.556  1.00 20.00     0.016 C 
HETATM    3  C4  UNL     1     -34.210  18.245  -1.111  1.00 20.00     0.000 C 
HETATM    4  C5  UNL     1     -34.405  16.765  -0.783  1.00 20.00     0.001 C 
HETATM    5  C6  UNL     1     -33.489  18.427  -2.445  1.00 20.00     0.001 C 
HETATM    6  C7  UNL     1     -35.135  16.030  -1.908  1.00 20.00     0.015 C 
HETATM    7  C8  UNL     1     -34.217  17.705  -3.577  1.00 20.00     0.015 C 
HETATM    8  C9  UNL     1     -34.734  15.260  -4.445  1.00 20.00     0.096 A 
HETATM    9  C10 UNL     1     -34.444  16.249  -3.236  1.00 20.00    -0.003 A 
ENDROOT
BRANCH   8  10
HETATM   10  C3  UNL     1     -35.584  14.084  -4.256  1.00 20.00     0.132 C 
HETATM   11  C11 UNL     1     -37.067  14.325  -4.194  1.00 20.00     0.091 C 
HETATM   12  O12 UNL     1     -35.109  12.953  -4.154  1.00 20.00    -0.298 OA
ENDBRANCH   8  10
TORSDOF 1
ENDMDL
MODEL 3
REMARK VINA RESULT:      -4.5      2.119      4.363
REMARK  1 active torsions:
REMARK  status: ('A' for Active; 'I' for Inactive)
REMARK    1  A    between atoms: C3_3  and  C9_9 
ROOT
HETATM    1  C1  UNL     1     -35.303  15.637  -3.600  1.00 20.00    -0.067 A 
HETATM    2  C2  UNL     1     -36.579  15.699  -3.914  1.00 20.00     0.016 C 
HETATM    3  C4  UNL     1     -33.353  19.017  -4.490  1.00 20.00     0.000 C 
HETATM    4  C5  UNL     1     -33.631  17.903  -5.499  1.00 20.00     0.001 C 
HETATM    5  C6  UNL     1     -34.125  18.795  -3.191  1.00 20.00     0.001 C 
HETATM    6  C7  UNL     1     -33.333  16.523  -4.910  1.00 20.00     0.015 C 
HETATM    7  C8  UNL     1     -33.825  17.422  -2.590  1.00 20.00     0.015 C 
HETATM    8  C9  UNL     1     -34.273  14.854  -3.034  1.00 20.00     0.096 A 
HETATM    9  C10 UNL     1     -34.064  16.323  -3.601  1.00 20.00    -0.003 A 
ENDROOT
BRANCH   8  10
HETATM   10  C3  UNL     1     -33.854  13.689  -3.815  1.00 20.00     0.132 C 
HETATM   11  C11 UNL     1     -34.844  13.151  -4.811  1.00 20.00     0.091 C 
HETATM   12  O12 UNL     1     -32.745  13.176  -3.665  1.00 20.00    -0.298 OA
ENDBRANCH   8  10
TORSDOF 1
ENDMDL
MODEL 4
REMARK VINA RESULT:      -4.5      2.417      3.862
REMARK  1 active torsions:
REMARK  status: ('A' for Active; 'I' for Inactive)
REMARK    1  A    between atoms: C3_3  and  C9_9 
ROOT
HETATM    1  C1  UNL     1     -36.065  16.058  -4.972  1.00 20.00    -0.067 A 
HETATM    2  C2  UNL     1     -35.741  16.679  -6.086  1.00 20.00     0.016 C 
HETATM    3  C4  UNL     1     -33.089  13.767  -3.589  1.00 20.00     0.000 C 
HETATM    4  C5  UNL     1     -34.077  13.321  -4.666  1.00 20.00     0.001 C 
HETATM    5  C6  UNL     1     -33.220  15.261  -3.299  1.00 20.00     0.001 C 
HETATM    6  C7  UNL     1     -35.515  13.686  -4.297  1.00 20.00     0.015 C 
HETATM    7  C8  UNL     1     -34.653  15.633  -2.919  1.00 20.00     0.015 C 
HETATM    8  C9  UNL     1     -37.060  15.856  -3.991  1.00 20.00     0.096 A 
HETATM    9  C10 UNL     1     -35.633  15.158  -3.967  1.00 20.00    -0.003 A 
ENDROOT
BRANCH   8  10
HETATM   10  C3  UNL     1     -38.244  15.114  -4.425  1.00 20.00     0.132 C 
HETATM   11  C11 UNL     1     -38.819  15.481  -5.766  1.00 20.00     0.091 C 
HETATM   12  O12 UNL     1     -38.745  14.231  -3.728  1.00 20.00    -0.298 OA
ENDBRANCH   8  10
TORSDOF 1
ENDMDL
MODEL 5
REMARK VINA RESULT:      -4.4      1.862      4.402
REMARK  1 active torsions:
REMARK  status: ('A' for Active; 'I' for Inactive)
REMARK    1  A    between atoms: C3_3  and  C9_9 
ROOT
HETATM    1  C1  UNL     1     -36.116  16.393  -2.870  1.00 20.00    -0.067 A 
HETATM    2  C2  UNL     1     -37.233  17.046  -3.117  1.00 20.00     0.016 C 
HETATM    3  C4  UNL     1     -33.358  18.709  -1.124  1.00 20.00     0.000 C 
HETATM    4  C5  UNL     1     -33.595  18.657  -2.633  1.00 20.00     0.001 C 
HETATM    5  C6  UNL     1     -34.460  17.974  -0.363  1.00 20.00     0.001 C 
HETATM    6  C7  UNL     1     -33.743  17.218  -3.131  1.00 20.00     0.015 C 
HETATM    7  C8  UNL     1     -34.607  16.532  -0.847  1.00 20.00     0.015 C 
HETATM    8  C9  UNL     1     -35.444  15.154  -2.943  1.00 20.00     0.096 A 
HETATM    9  C10 UNL     1     -34.804  16.479  -2.345  1.00 20.00    -0.003 A 
ENDROOT
BRANCH   8  10
HETATM   10  C3  UNL     1     -35.089  14.698  -4.288  1.00 20.00     0.132 C 
HETATM   11  C11 UNL     1     -34.080  13.587  -4.381  1.00 20.00     0.091 C 
HETATM   12  O12 UNL     1     -35.592  15.199  -5.293  1.00 20.00    -0.298 OA
ENDBRANCH   8  10
TORSDOF 1
ENDMDL
MODEL 6
REMARK VINA RESULT:      -4.4      2.041      4.259
REMARK  1 active torsions:
REMARK  status: ('A' for Active; 'I' for Inactive)
REMARK    1  A    between atoms: C3_3  and  C9_9 
ROOT
HETATM    1  C1  UNL     1     -34.470  16.164  -4.327  1.00 20.00    -0.067 A 
HETATM    2  C2  UNL     1     -33.286  16.032  -4.886  1.00 20.00     0.016 C 
HETATM    3  C4  UNL     1     -34.368  18.505  -1.082  1.00 20.00     0.000 C 
HETATM    4  C5  UNL     1     -34.018  17.018  -1.070  1.00 20.00     0.001 C 
HETATM    5  C6  UNL     1     -34.508  19.032  -2.510  1.00 20.00     0.001 C 
HETATM    6  C7  UNL     1     -35.034  16.194  -1.864  1.00 20.00     0.015 C 
HETATM    7  C8  UNL     1     -35.528  18.221  -3.307  1.00 20.00     0.015 C 
HETATM    8  C9  UNL     1     -35.840  15.830  -4.395  1.00 20.00     0.096 A 
HETATM    9  C10 UNL     1     -35.203  16.745  -3.263  1.00 20.00    -0.003 A 
ENDROOT
BRANCH   8  10
HETATM   10  C3  UNL     1     -36.172  14.431  -4.122  1.00 20.00     0.132 C 
HETATM   11  C11 UNL     1     -35.083  13.420  -4.353  1.00 20.00     0.091 C 
HETATM   12  O12 UNL     1     -37.287  14.098  -3.722  1.00 20.00    -0.298 OA
ENDBRANCH   8  10
TORSDOF 1
ENDMDL
MODEL 7
REMARK VINA RESULT:      -4.4      2.778      4.437
REMARK  1 active torsions:
REMARK  status: ('A' for Active; 'I' for Inactive)
REMARK    1  A    between atoms: C3_3  and  C9_9 
ROOT
HETATM    1  C1  UNL     1     -36.143  15.271  -4.688  1.00 20.00    -0.067 A 
HETATM    2  C2  UNL     1     -37.420  15.022  -4.889  1.00 20.00     0.016 C 
HETATM    3  C4  UNL     1     -34.658  17.852  -7.362  1.00 20.00     0.000 C 
HETATM    4  C5  UNL     1     -34.799  16.351  -7.614  1.00 20.00     0.001 C 
HETATM    5  C6  UNL     1     -35.382  18.271  -6.083  1.00 20.00     0.001 C 
HETATM    6  C7  UNL     1     -34.318  15.531  -6.415  1.00 20.00     0.015 C 
HETATM    7  C8  UNL     1     -34.901  17.464  -4.879  1.00 20.00     0.015 C 
HETATM    8  C9  UNL     1     -35.015  15.018  -3.877  1.00 20.00     0.096 A 
HETATM    9  C10 UNL     1     -35.005  15.978  -5.143  1.00 20.00    -0.003 A 
ENDROOT
BRANCH   8  10
HETATM   10  C3  UNL     1     -34.455  13.669  -3.963  1.00 20.00     0.132 C 
HETATM   11  C11 UNL     1     -33.010  13.510  -3.578  1.00 20.00     0.091 C 
HETATM   12  O12 UNL     1     -35.134  12.710  -4.331  1.00 20.00    -0.298 OA
ENDBRANCH   8  10
TORSDOF 1
ENDMDL
MODEL 8
REMARK VINA RESULT:      -4.4      1.484      2.278
REMARK  1 active torsions:
REMARK  status: ('A' for Active; 'I' for Inactive)
REMARK    1  A    between atoms: C3_3  and  C9_9 
ROOT
HETATM    1  C1  UNL     1     -34.088  15.641  -3.014  1.00 20.00    -0.067 A 
HETATM    2  C2  UNL     1     -32.982  15.299  -3.640  1.00 20.00     0.016 C 
HETATM    3  C4  UNL     1     -37.098  16.388  -5.544  1.00 20.00     0.000 C 
HETATM    4  C5  UNL     1     -36.026  17.411  -5.171  1.00 20.00     0.001 C 
HETATM    5  C6  UNL     1     -36.735  14.993  -5.040  1.00 20.00     0.001 C 
HETATM    6  C7  UNL     1     -35.758  17.422  -3.665  1.00 20.00     0.015 C 
HETATM    7  C8  UNL     1     -36.476  14.993  -3.534  1.00 20.00     0.015 C 
HETATM    8  C9  UNL     1     -34.709  15.850  -1.763  1.00 20.00     0.096 A 
HETATM    9  C10 UNL     1     -35.442  16.031  -3.161  1.00 20.00    -0.003 A 
ENDROOT
BRANCH   8  10
HETATM   10  C3  UNL     1     -34.248  17.017  -1.008  1.00 20.00     0.132 C 
HETATM   11  C11 UNL     1     -35.007  17.353   0.246  1.00 20.00     0.091 C 
HETATM   12  O12 UNL     1     -33.287  17.689  -1.381  1.00 20.00    -0.298 OA
ENDBRANCH   8  10
TORSDOF 1
ENDMDL
MODEL 9
REMARK VINA RESULT:      -4.3      1.821      4.051
REMARK  1 active torsions:
REMARK  status: ('A' for Active; 'I' for Inactive)
REMARK    1  A    between atoms: C3_3  and  C9_9 
ROOT
HETATM    1  C1  UNL     1     -34.333  15.567  -3.476  1.00 20.00    -0.067 A 
HETATM    2  C2  UNL     1     -34.917  14.387  -3.485  1.00 20.00     0.016 C 
HETATM    3  C4  UNL     1     -35.820  17.978  -0.649  1.00 20.00     0.000 C 
HETATM    4  C5  UNL     1     -36.453  17.790  -2.027  1.00 20.00     0.001 C 
HETATM    5  C6  UNL     1     -34.715  16.952  -0.400  1.00 20.00     0.001 C 
HETATM    6  C7  UNL     1     -35.404  17.830  -3.139  1.00 20.00     0.015 C 
HETATM    7  C8  UNL     1     -33.657  16.993  -1.502  1.00 20.00     0.015 C 
HETATM    8  C9  UNL     1     -33.339  16.385  -4.056  1.00 20.00     0.096 A 
HETATM    9  C10 UNL     1     -34.288  16.845  -2.867  1.00 20.00    -0.003 A 
ENDROOT
BRANCH   8  10
HETATM   10  C3  UNL     1     -33.597  16.829  -5.427  1.00 20.00     0.132 C 
HETATM   11  C11 UNL     1     -34.122  15.795  -6.385  1.00 20.00     0.091 C 
HETATM   12  O12 UNL     1     -33.395  17.991  -5.778  1.00 20.00    -0.298 OA
ENDBRANCH   8  10
TORSDOF 1
ENDMDL
