MODEL 1
REMARK VINA RESULT:      -4.0      0.000      0.000
REMARK  2 active torsions:
REMARK  status: ('A' for Active; 'I' for Inactive)
REMARK    1  A    between atoms: C1_1  and  C6_6 
REMARK    2  A    between atoms: C1_1  and  O10_10 
ROOT
HETATM    1  C2  UNL     1     -35.549  16.554  -2.301  1.00 20.00     0.006 C 
HETATM    2  C3  UNL     1     -34.068  16.247  -2.040  1.00 20.00     0.036 C 
HETATM    3  C4  UNL     1     -36.015  15.461  -3.276  1.00 20.00     0.052 C 
HETATM    4  C5  UNL     1     -33.597  15.559  -3.284  1.00 20.00     0.168 A 
HETATM    5  C6  UNL     1     -34.782  15.064  -4.036  1.00 20.00     0.174 A 
HETATM    6  O9  UNL     1     -33.986  16.161  -4.520  1.00 20.00    -0.358 OA
ENDROOT
BRANCH   5   7
HETATM    7  C1  UNL     1     -34.713  13.876  -4.879  1.00 20.00     0.296 C 
HETATM    8  O8  UNL     1     -34.912  12.737  -4.477  1.00 20.00    -0.262 OA
BRANCH   7   9
HETATM    9  O10 UNL     1     -34.399  14.239  -6.155  1.00 20.00    -0.324 OA
HETATM   10  C7  UNL     1     -35.508  14.364  -7.051  1.00 20.00     0.213 C 
ENDBRANCH   7   9
ENDBRANCH   5   7
TORSDOF 2
ENDMDL
MODEL 2
REMARK VINA RESULT:      -4.0     11.609     12.335
REMARK  2 active torsions:
REMARK  status: ('A' for Active; 'I' for Inactive)
REMARK    1  A    between atoms: C1_1  and  C6_6 
REMARK    2  A    between atoms: C1_1  and  O10_10 
ROOT
HETATM    1  C2  UNL     1     -35.485   4.662   4.911  1.00 20.00     0.006 C 
HETATM    2  C3  UNL     1     -34.570   5.009   6.094  1.00 20.00     0.036 C 
HETATM    3  C4  UNL     1     -34.668   5.020   3.659  1.00 20.00     0.052 C 
HETATM    4  C5  UNL     1     -33.696   6.114   5.587  1.00 20.00     0.168 A 
HETATM    5  C6  UNL     1     -33.741   6.117   4.099  1.00 20.00     0.174 A 
HETATM    6  O9  UNL     1     -34.358   7.162   4.874  1.00 20.00    -0.358 OA
ENDROOT
BRANCH   5   7
HETATM    7  C1  UNL     1     -32.609   6.574   3.300  1.00 20.00     0.296 C 
HETATM    8  O8  UNL     1     -31.620   5.895   3.061  1.00 20.00    -0.262 OA
BRANCH   7   9
HETATM    9  O10 UNL     1     -32.836   7.850   2.877  1.00 20.00    -0.324 OA
HETATM   10  C7  UNL     1     -31.983   8.310   1.824  1.00 20.00     0.213 C 
ENDBRANCH   7   9
ENDBRANCH   5   7
TORSDOF 2
ENDMDL
MODEL 3
REMARK VINA RESULT:      -3.9     11.823     12.863
REMARK  2 active torsions:
REMARK  status: ('A' for Active; 'I' for Inactive)
REMARK    1  A    between atoms: C1_1  and  C6_6 
REMARK    2  A    between atoms: C1_1  and  O10_10 
ROOT
HETATM    1  C2  UNL     1     -40.751   6.021  -0.218  1.00 20.00     0.006 C 
HETATM    2  C3  UNL     1     -41.153   7.030  -1.303  1.00 20.00     0.036 C 
HETATM    3  C4  UNL     1     -40.924   4.643  -0.875  1.00 20.00     0.052 C 
HETATM    4  C5  UNL     1     -42.139   6.296  -2.158  1.00 20.00     0.168 A 
HETATM    5  C6  UNL     1     -41.994   4.836  -1.912  1.00 20.00     0.174 A 
HETATM    6  O9  UNL     1     -43.151   5.565  -1.463  1.00 20.00    -0.358 OA
ENDROOT
BRANCH   5   7
HETATM    7  C1  UNL     1     -42.288   3.850  -2.946  1.00 20.00     0.296 C 
HETATM    8  O8  UNL     1     -43.269   3.897  -3.677  1.00 20.00    -0.262 OA
BRANCH   7   9
HETATM    9  O10 UNL     1     -41.314   2.897  -2.960  1.00 20.00    -0.324 OA
HETATM   10  C7  UNL     1     -41.566   1.771  -3.805  1.00 20.00     0.213 C 
ENDBRANCH   7   9
ENDBRANCH   5   7
TORSDOF 2
ENDMDL
MODEL 4
REMARK VINA RESULT:      -3.9      2.152      3.153
REMARK  2 active torsions:
REMARK  status: ('A' for Active; 'I' for Inactive)
REMARK    1  A    between atoms: C1_1  and  C6_6 
REMARK    2  A    between atoms: C1_1  and  O10_10 
ROOT
HETATM    1  C2  UNL     1     -33.443  13.738  -3.737  1.00 20.00     0.006 C 
HETATM    2  C3  UNL     1     -33.361  15.254  -3.961  1.00 20.00     0.036 C 
HETATM    3  C4  UNL     1     -34.848  13.342  -4.219  1.00 20.00     0.052 C 
HETATM    4  C5  UNL     1     -34.775  15.733  -3.850  1.00 20.00     0.168 A 
HETATM    5  C6  UNL     1     -35.689  14.570  -4.021  1.00 20.00     0.174 A 
HETATM    6  O9  UNL     1     -35.527  15.221  -2.747  1.00 20.00    -0.358 OA
ENDROOT
BRANCH   5   7
HETATM    7  C1  UNL     1     -37.025  14.722  -4.588  1.00 20.00     0.296 C 
HETATM    8  O8  UNL     1     -37.249  15.174  -5.703  1.00 20.00    -0.262 OA
BRANCH   7   9
HETATM    9  O10 UNL     1     -37.954  14.287  -3.691  1.00 20.00    -0.324 OA
HETATM   10  C7  UNL     1     -39.050  15.177  -3.459  1.00 20.00     0.213 C 
ENDBRANCH   7   9
ENDBRANCH   5   7
TORSDOF 2
ENDMDL
MODEL 5
REMARK VINA RESULT:      -3.8      1.604      2.225
REMARK  2 active torsions:
REMARK  status: ('A' for Active; 'I' for Inactive)
REMARK    1  A    between atoms: C1_1  and  C6_6 
REMARK    2  A    between atoms: C1_1  and  O10_10 
ROOT
HETATM    1  C2  UNL     1     -33.394  17.086  -5.089  1.00 20.00     0.006 C 
HETATM    2  C3  UNL     1     -33.648  17.067  -3.576  1.00 20.00     0.036 C 
HETATM    3  C4  UNL     1     -34.260  15.947  -5.651  1.00 20.00     0.052 C 
HETATM    4  C5  UNL     1     -33.990  15.643  -3.265  1.00 20.00     0.168 A 
HETATM    5  C6  UNL     1     -34.379  14.957  -4.527  1.00 20.00     0.174 A 
HETATM    6  O9  UNL     1     -33.144  14.651  -3.852  1.00 20.00    -0.358 OA
ENDROOT
BRANCH   5   7
HETATM    7  C1  UNL     1     -35.328  13.850  -4.537  1.00 20.00     0.296 C 
HETATM    8  O8  UNL     1     -35.043  12.699  -4.235  1.00 20.00    -0.262 OA
BRANCH   7   9
HETATM    9  O10 UNL     1     -36.553  14.303  -4.928  1.00 20.00    -0.324 OA
HETATM   10  C7  UNL     1     -37.427  14.707  -3.870  1.00 20.00     0.213 C 
ENDBRANCH   7   9
ENDBRANCH   5   7
TORSDOF 2
ENDMDL
MODEL 6
REMARK VINA RESULT:      -3.8      1.671      4.002
REMARK  2 active torsions:
REMARK  status: ('A' for Active; 'I' for Inactive)
REMARK    1  A    between atoms: C1_1  and  C6_6 
REMARK    2  A    between atoms: C1_1  and  O10_10 
ROOT
HETATM    1  C2  UNL     1     -34.492  13.297  -4.892  1.00 20.00     0.006 C 
HETATM    2  C3  UNL     1     -35.352  14.338  -5.621  1.00 20.00     0.036 C 
HETATM    3  C4  UNL     1     -34.113  13.959  -3.558  1.00 20.00     0.052 C 
HETATM    4  C5  UNL     1     -34.869  15.658  -5.107  1.00 20.00     0.168 A 
HETATM    5  C6  UNL     1     -34.123  15.435  -3.838  1.00 20.00     0.174 A 
HETATM    6  O9  UNL     1     -33.451  15.829  -5.049  1.00 20.00    -0.358 OA
ENDROOT
BRANCH   5   7
HETATM    7  C1  UNL     1     -34.076  16.446  -2.788  1.00 20.00     0.296 C 
HETATM    8  O8  UNL     1     -33.591  17.560  -2.931  1.00 20.00    -0.262 OA
BRANCH   7   9
HETATM    9  O10 UNL     1     -34.648  15.953  -1.653  1.00 20.00    -0.324 OA
HETATM   10  C7  UNL     1     -34.664  16.844  -0.534  1.00 20.00     0.213 C 
ENDBRANCH   7   9
ENDBRANCH   5   7
TORSDOF 2
ENDMDL
MODEL 7
REMARK VINA RESULT:      -3.8      1.978      2.701
REMARK  2 active torsions:
REMARK  status: ('A' for Active; 'I' for Inactive)
REMARK    1  A    between atoms: C1_1  and  C6_6 
REMARK    2  A    between atoms: C1_1  and  O10_10 
ROOT
HETATM    1  C2  UNL     1     -33.323  15.062  -3.531  1.00 20.00     0.006 C 
HETATM    2  C3  UNL     1     -33.455  13.556  -3.794  1.00 20.00     0.036 C 
HETATM    3  C4  UNL     1     -34.765  15.594  -3.540  1.00 20.00     0.052 C 
HETATM    4  C5  UNL     1     -34.709  13.419  -4.600  1.00 20.00     0.168 A 
HETATM    5  C6  UNL     1     -35.521  14.656  -4.437  1.00 20.00     0.174 A 
HETATM    6  O9  UNL     1     -34.866  14.342  -5.680  1.00 20.00    -0.358 OA
ENDROOT
BRANCH   5   7
HETATM    7  C1  UNL     1     -36.977  14.634  -4.522  1.00 20.00     0.296 C 
HETATM    8  O8  UNL     1     -37.709  14.204  -3.641  1.00 20.00    -0.262 OA
BRANCH   7   9
HETATM    9  O10 UNL     1     -37.372  15.159  -5.716  1.00 20.00    -0.324 OA
HETATM   10  C7  UNL     1     -37.762  16.536  -5.685  1.00 20.00     0.213 C 
ENDBRANCH   7   9
ENDBRANCH   5   7
TORSDOF 2
ENDMDL
MODEL 8
REMARK VINA RESULT:      -3.7      1.000      1.583
REMARK  2 active torsions:
REMARK  status: ('A' for Active; 'I' for Inactive)
REMARK    1  A    between atoms: C1_1  and  C6_6 
REMARK    2  A    between atoms: C1_1  and  O10_10 
ROOT
HETATM    1  C2  UNL     1     -33.925  16.550  -2.432  1.00 20.00     0.006 C 
HETATM    2  C3  UNL     1     -35.073  17.144  -3.260  1.00 20.00     0.036 C 
HETATM    3  C4  UNL     1     -33.474  15.306  -3.214  1.00 20.00     0.052 C 
HETATM    4  C5  UNL     1     -35.674  15.973  -3.973  1.00 20.00     0.168 A 
HETATM    5  C6  UNL     1     -34.696  14.851  -3.961  1.00 20.00     0.174 A 
HETATM    6  O9  UNL     1     -35.905  14.806  -3.180  1.00 20.00    -0.358 OA
ENDROOT
BRANCH   5   7
HETATM    7  C1  UNL     1     -34.654  13.859  -5.029  1.00 20.00     0.296 C 
HETATM    8  O8  UNL     1     -34.852  12.663  -4.863  1.00 20.00    -0.262 OA
BRANCH   7   9
HETATM    9  O10 UNL     1     -34.364  14.474  -6.211  1.00 20.00    -0.324 OA
HETATM   10  C7  UNL     1     -35.369  14.366  -7.224  1.00 20.00     0.213 C 
ENDBRANCH   7   9
ENDBRANCH   5   7
TORSDOF 2
ENDMDL
MODEL 9
REMARK VINA RESULT:      -3.7      1.624      3.658
REMARK  2 active torsions:
REMARK  status: ('A' for Active; 'I' for Inactive)
REMARK    1  A    between atoms: C1_1  and  C6_6 
REMARK    2  A    between atoms: C1_1  and  O10_10 
ROOT
HETATM    1  C2  UNL     1     -34.380  16.205  -7.171  1.00 20.00     0.006 C 
HETATM    2  C3  UNL     1     -34.843  14.792  -7.551  1.00 20.00     0.036 C 
HETATM    3  C4  UNL     1     -33.821  16.070  -5.746  1.00 20.00     0.052 C 
HETATM    4  C5  UNL     1     -35.200  14.146  -6.249  1.00 20.00     0.168 A 
HETATM    5  C6  UNL     1     -34.566  14.914  -5.142  1.00 20.00     0.174 A 
HETATM    6  O9  UNL     1     -35.991  14.931  -5.353  1.00 20.00    -0.358 OA
ENDROOT
BRANCH   5   7
HETATM    7  C1  UNL     1     -34.169  14.273  -3.894  1.00 20.00     0.296 C 
HETATM    8  O8  UNL     1     -33.293  13.423  -3.808  1.00 20.00    -0.262 OA
BRANCH   7   9
HETATM    9  O10 UNL     1     -34.918  14.768  -2.868  1.00 20.00    -0.324 OA
HETATM   10  C7  UNL     1     -34.385  15.927  -2.219  1.00 20.00     0.213 C 
ENDBRANCH   7   9
ENDBRANCH   5   7
TORSDOF 2
ENDMDL
