MODEL 1
REMARK VINA RESULT:      -3.8      0.000      0.000
REMARK  3 active torsions:
REMARK  status: ('A' for Active; 'I' for Inactive)
REMARK    1  A    between atoms: C2_2  and  N9_9 
REMARK    2  A    between atoms: C6_6  and  N9_9 
REMARK    3  A    between atoms: C7_7  and  N9_9 
ROOT
HETATM    1  C1  UNL     1     -34.490  16.448  -1.463  1.00 20.00     0.036 C 
HETATM    2  C2  UNL     1     -34.223  15.982  -2.537  1.00 20.00     0.024 C 
HETATM    3  C3  UNL     1     -34.797  16.981  -0.237  1.00 20.00     0.154 C 
HETATM    4  N8  UNL     1     -35.055  17.430   0.801  1.00 20.00    -0.182 NA
ENDROOT
BRANCH   2   5
HETATM    5  N9  UNL     1     -33.899  15.417  -3.838  1.00 20.00    -0.342 N 
BRANCH   5   6
HETATM    6  C6  UNL     1     -33.696  13.985  -3.910  1.00 20.00     0.128 C 
HETATM    7  C4  UNL     1     -34.968  13.277  -4.233  1.00 20.00     0.027 C 
ENDBRANCH   5   6
BRANCH   5   8
HETATM    8  C7  UNL     1     -33.197  16.265  -4.778  1.00 20.00     0.128 C 
HETATM    9  C5  UNL     1     -33.919  16.337  -6.080  1.00 20.00     0.027 C 
ENDBRANCH   5   8
ENDBRANCH   2   5
TORSDOF 3
ENDMDL
MODEL 2
REMARK VINA RESULT:      -3.7     11.267     12.448
REMARK  3 active torsions:
REMARK  status: ('A' for Active; 'I' for Inactive)
REMARK    1  A    between atoms: C2_2  and  N9_9 
REMARK    2  A    between atoms: C6_6  and  N9_9 
REMARK    3  A    between atoms: C7_7  and  N9_9 
ROOT
HETATM    1  C1  UNL     1     -32.702   7.252   3.017  1.00 20.00     0.036 C 
HETATM    2  C2  UNL     1     -33.242   6.606   3.872  1.00 20.00     0.024 C 
HETATM    3  C3  UNL     1     -32.085   7.991   2.040  1.00 20.00     0.154 C 
HETATM    4  N8  UNL     1     -31.562   8.616   1.214  1.00 20.00    -0.182 NA
ENDROOT
BRANCH   2   5
HETATM    5  N9  UNL     1     -33.896   5.823   4.909  1.00 20.00    -0.342 N 
BRANCH   5   6
HETATM    6  C6  UNL     1     -34.661   4.668   4.488  1.00 20.00     0.128 C 
HETATM    7  C4  UNL     1     -35.119   3.869   5.661  1.00 20.00     0.027 C 
ENDBRANCH   5   6
BRANCH   5   8
HETATM    8  C7  UNL     1     -34.292   6.514   6.118  1.00 20.00     0.128 C 
HETATM    9  C5  UNL     1     -33.159   7.300   6.683  1.00 20.00     0.027 C 
ENDBRANCH   5   8
ENDBRANCH   2   5
TORSDOF 3
ENDMDL
MODEL 3
REMARK VINA RESULT:      -3.7     11.241     12.537
REMARK  3 active torsions:
REMARK  status: ('A' for Active; 'I' for Inactive)
REMARK    1  A    between atoms: C2_2  and  N9_9 
REMARK    2  A    between atoms: C6_6  and  N9_9 
REMARK    3  A    between atoms: C7_7  and  N9_9 
ROOT
HETATM    1  C1  UNL     1     -32.837   7.298   2.990  1.00 20.00     0.036 C 
HETATM    2  C2  UNL     1     -33.466   6.720   3.833  1.00 20.00     0.024 C 
HETATM    3  C3  UNL     1     -32.117   7.958   2.026  1.00 20.00     0.154 C 
HETATM    4  N8  UNL     1     -31.510   8.516   1.211  1.00 20.00    -0.182 NA
ENDROOT
BRANCH   2   5
HETATM    5  N9  UNL     1     -34.230   6.020   4.855  1.00 20.00    -0.342 N 
BRANCH   5   6
HETATM    6  C6  UNL     1     -33.673   5.979   6.191  1.00 20.00     0.128 C 
HETATM    7  C4  UNL     1     -33.584   7.346   6.779  1.00 20.00     0.027 C 
ENDBRANCH   5   6
BRANCH   5   8
HETATM    8  C7  UNL     1     -35.080   4.931   4.424  1.00 20.00     0.128 C 
HETATM    9  C5  UNL     1     -35.117   3.843   5.441  1.00 20.00     0.027 C 
ENDBRANCH   5   8
ENDBRANCH   2   5
TORSDOF 3
ENDMDL
MODEL 4
REMARK VINA RESULT:      -3.7      0.541      2.225
REMARK  3 active torsions:
REMARK  status: ('A' for Active; 'I' for Inactive)
REMARK    1  A    between atoms: C2_2  and  N9_9 
REMARK    2  A    between atoms: C6_6  and  N9_9 
REMARK    3  A    between atoms: C7_7  and  N9_9 
ROOT
HETATM    1  C1  UNL     1     -34.405  16.378  -1.558  1.00 20.00     0.036 C 
HETATM    2  C2  UNL     1     -34.096  15.875  -2.603  1.00 20.00     0.024 C 
HETATM    3  C3  UNL     1     -34.757  16.952  -0.363  1.00 20.00     0.154 C 
HETATM    4  N8  UNL     1     -35.055  17.439   0.647  1.00 20.00    -0.182 NA
ENDROOT
BRANCH   2   5
HETATM    5  N9  UNL     1     -33.722  15.265  -3.871  1.00 20.00    -0.342 N 
BRANCH   5   6
HETATM    6  C6  UNL     1     -34.075  15.977  -5.081  1.00 20.00     0.128 C 
HETATM    7  C4  UNL     1     -33.459  17.334  -5.106  1.00 20.00     0.027 C 
ENDBRANCH   5   6
BRANCH   5   8
HETATM    8  C7  UNL     1     -33.631  13.821  -3.916  1.00 20.00     0.128 C 
HETATM    9  C5  UNL     1     -34.798  13.231  -4.629  1.00 20.00     0.027 C 
ENDBRANCH   5   8
ENDBRANCH   2   5
TORSDOF 3
ENDMDL
MODEL 5
REMARK VINA RESULT:      -3.6      1.879      4.062
REMARK  3 active torsions:
REMARK  status: ('A' for Active; 'I' for Inactive)
REMARK    1  A    between atoms: C2_2  and  N9_9 
REMARK    2  A    between atoms: C6_6  and  N9_9 
REMARK    3  A    between atoms: C7_7  and  N9_9 
ROOT
HETATM    1  C1  UNL     1     -34.316  14.989  -3.420  1.00 20.00     0.036 C 
HETATM    2  C2  UNL     1     -34.024  16.069  -2.987  1.00 20.00     0.024 C 
HETATM    3  C3  UNL     1     -34.649  13.753  -3.916  1.00 20.00     0.154 C 
HETATM    4  N8  UNL     1     -34.930  12.709  -4.334  1.00 20.00    -0.182 NA
ENDROOT
BRANCH   2   5
HETATM    5  N9  UNL     1     -33.671  17.379  -2.461  1.00 20.00    -0.342 N 
BRANCH   5   6
HETATM    6  C6  UNL     1     -33.583  17.517  -1.023  1.00 20.00     0.128 C 
HETATM    7  C4  UNL     1     -34.784  16.943  -0.352  1.00 20.00     0.027 C 
ENDBRANCH   5   6
BRANCH   5   8
HETATM    8  C7  UNL     1     -34.041  18.536  -3.249  1.00 20.00     0.128 C 
HETATM    9  C5  UNL     1     -33.614  18.380  -4.668  1.00 20.00     0.027 C 
ENDBRANCH   5   8
ENDBRANCH   2   5
TORSDOF 3
ENDMDL
MODEL 6
REMARK VINA RESULT:      -3.6      2.399      4.025
REMARK  3 active torsions:
REMARK  status: ('A' for Active; 'I' for Inactive)
REMARK    1  A    between atoms: C2_2  and  N9_9 
REMARK    2  A    between atoms: C6_6  and  N9_9 
REMARK    3  A    between atoms: C7_7  and  N9_9 
ROOT
HETATM    1  C1  UNL     1     -36.659  15.024  -3.518  1.00 20.00     0.036 C 
HETATM    2  C2  UNL     1     -35.540  15.298  -3.181  1.00 20.00     0.024 C 
HETATM    3  C3  UNL     1     -37.938  14.711  -3.902  1.00 20.00     0.154 C 
HETATM    4  N8  UNL     1     -39.020  14.447  -4.227  1.00 20.00    -0.182 NA
ENDROOT
BRANCH   2   5
HETATM    5  N9  UNL     1     -34.183  15.631  -2.774  1.00 20.00    -0.342 N 
BRANCH   5   6
HETATM    6  C6  UNL     1     -33.993  16.862  -2.037  1.00 20.00     0.128 C 
HETATM    7  C4  UNL     1     -34.593  16.772  -0.675  1.00 20.00     0.027 C 
ENDBRANCH   5   6
BRANCH   5   8
HETATM    8  C7  UNL     1     -33.100  15.141  -3.600  1.00 20.00     0.128 C 
HETATM    9  C5  UNL     1     -33.170  13.661  -3.757  1.00 20.00     0.027 C 
ENDBRANCH   5   8
ENDBRANCH   2   5
TORSDOF 3
ENDMDL
MODEL 7
REMARK VINA RESULT:      -3.6      1.966      4.771
REMARK  3 active torsions:
REMARK  status: ('A' for Active; 'I' for Inactive)
REMARK    1  A    between atoms: C2_2  and  N9_9 
REMARK    2  A    between atoms: C6_6  and  N9_9 
REMARK    3  A    between atoms: C7_7  and  N9_9 
ROOT
HETATM    1  C1  UNL     1     -34.682  14.849  -3.149  1.00 20.00     0.036 C 
HETATM    2  C2  UNL     1     -34.611  15.855  -2.498  1.00 20.00     0.024 C 
HETATM    3  C3  UNL     1     -34.764  13.698  -3.892  1.00 20.00     0.154 C 
HETATM    4  N8  UNL     1     -34.834  12.726  -4.520  1.00 20.00    -0.182 NA
ENDROOT
BRANCH   2   5
HETATM    5  N9  UNL     1     -34.524  17.075  -1.711  1.00 20.00    -0.342 N 
BRANCH   5   6
HETATM    6  C6  UNL     1     -33.653  18.123  -2.199  1.00 20.00     0.128 C 
HETATM    7  C4  UNL     1     -33.954  18.453  -3.622  1.00 20.00     0.027 C 
ENDBRANCH   5   6
BRANCH   5   8
HETATM    8  C7  UNL     1     -34.745  16.965  -0.284  1.00 20.00     0.128 C 
HETATM    9  C5  UNL     1     -34.071  18.072   0.451  1.00 20.00     0.027 C 
ENDBRANCH   5   8
ENDBRANCH   2   5
TORSDOF 3
ENDMDL
MODEL 8
REMARK VINA RESULT:      -3.3     12.457     14.580
REMARK  3 active torsions:
REMARK  status: ('A' for Active; 'I' for Inactive)
REMARK    1  A    between atoms: C2_2  and  N9_9 
REMARK    2  A    between atoms: C6_6  and  N9_9 
REMARK    3  A    between atoms: C7_7  and  N9_9 
ROOT
HETATM    1  C1  UNL     1     -41.584   2.872  -2.891  1.00 20.00     0.036 C 
HETATM    2  C2  UNL     1     -41.473   3.830  -2.176  1.00 20.00     0.024 C 
HETATM    3  C3  UNL     1     -41.712   1.777  -3.708  1.00 20.00     0.154 C 
HETATM    4  N8  UNL     1     -41.820   0.852  -4.399  1.00 20.00    -0.182 NA
ENDROOT
BRANCH   2   5
HETATM    5  N9  UNL     1     -41.338   4.991  -1.310  1.00 20.00    -0.342 N 
BRANCH   5   6
HETATM    6  C6  UNL     1     -41.546   4.792   0.108  1.00 20.00     0.128 C 
HETATM    7  C4  UNL     1     -42.913   4.265   0.383  1.00 20.00     0.027 C 
ENDBRANCH   5   6
BRANCH   5   8
HETATM    8  C7  UNL     1     -41.639   6.287  -1.880  1.00 20.00     0.128 C 
HETATM    9  C5  UNL     1     -41.235   7.387  -0.959  1.00 20.00     0.027 C 
ENDBRANCH   5   8
ENDBRANCH   2   5
TORSDOF 3
ENDMDL
MODEL 9
REMARK VINA RESULT:      -3.3      1.261      2.087
REMARK  3 active torsions:
REMARK  status: ('A' for Active; 'I' for Inactive)
REMARK    1  A    between atoms: C2_2  and  N9_9 
REMARK    2  A    between atoms: C6_6  and  N9_9 
REMARK    3  A    between atoms: C7_7  and  N9_9 
ROOT
HETATM    1  C1  UNL     1     -34.823  16.486  -1.372  1.00 20.00     0.036 C 
HETATM    2  C2  UNL     1     -34.848  15.958  -2.450  1.00 20.00     0.024 C 
HETATM    3  C3  UNL     1     -34.795  17.088  -0.140  1.00 20.00     0.154 C 
HETATM    4  N8  UNL     1     -34.770  17.597   0.902  1.00 20.00    -0.182 NA
ENDROOT
BRANCH   2   5
HETATM    5  N9  UNL     1     -34.878  15.319  -3.757  1.00 20.00    -0.342 N 
BRANCH   5   6
HETATM    6  C6  UNL     1     -35.710  15.924  -4.775  1.00 20.00     0.128 C 
HETATM    7  C4  UNL     1     -36.137  14.918  -5.789  1.00 20.00     0.027 C 
ENDBRANCH   5   6
BRANCH   5   8
HETATM    8  C7  UNL     1     -34.648  13.891  -3.807  1.00 20.00     0.128 C 
HETATM    9  C5  UNL     1     -33.196  13.575  -3.692  1.00 20.00     0.027 C 
ENDBRANCH   5   8
ENDBRANCH   2   5
TORSDOF 3
ENDMDL
