MODEL 1
REMARK VINA RESULT:      -4.3      0.000      0.000
REMARK  2 active torsions:
REMARK  status: ('A' for Active; 'I' for Inactive)
REMARK    1  A    between atoms: C4_4  and  C6_6 
REMARK    2  A    between atoms: C7_7  and  O10_10 
ROOT
HETATM    1  C1  UNL     1     -32.163   7.695   2.504  1.00 20.00     0.218 C 
HETATM    2  C4  UNL     1     -32.163   6.940   3.563  1.00 20.00     0.043 C 
HETATM    3  O9  UNL     1     -32.162   8.378   1.546  1.00 20.00    -0.284 OA
ENDROOT
BRANCH   2   4
HETATM    4  C6  UNL     1     -33.065   5.770   3.776  1.00 20.00     0.064 C 
HETATM    5  C3  UNL     1     -34.243   5.745   2.847  1.00 20.00    -0.020 C 
HETATM    6  C2  UNL     1     -35.350   5.327   3.469  1.00 20.00    -0.027 C 
HETATM    7  C5  UNL     1     -35.096   5.025   4.912  1.00 20.00     0.059 C 
HETATM    8  C7  UNL     1     -33.747   5.712   5.158  1.00 20.00     0.135 C 
BRANCH   8   9
HETATM    9  O10 UNL     1     -34.013   7.014   5.681  1.00 20.00    -0.389 OA
HETATM   10  C8  UNL     1     -33.380   7.203   6.937  1.00 20.00     0.202 C 
ENDBRANCH   8   9
ENDBRANCH   2   4
TORSDOF 2
ENDMDL
MODEL 2
REMARK VINA RESULT:      -4.2     10.895     12.505
REMARK  2 active torsions:
REMARK  status: ('A' for Active; 'I' for Inactive)
REMARK    1  A    between atoms: C4_4  and  C6_6 
REMARK    2  A    between atoms: C7_7  and  O10_10 
ROOT
HETATM    1  C1  UNL     1     -34.479  16.483  -1.179  1.00 20.00     0.218 C 
HETATM    2  C4  UNL     1     -34.011  16.106  -2.332  1.00 20.00     0.043 C 
HETATM    3  O9  UNL     1     -34.902  16.825  -0.135  1.00 20.00    -0.284 OA
ENDROOT
BRANCH   2   4
HETATM    4  C6  UNL     1     -34.766  15.302  -3.337  1.00 20.00     0.064 C 
HETATM    5  C3  UNL     1     -34.267  13.893  -3.474  1.00 20.00    -0.020 C 
HETATM    6  C2  UNL     1     -34.286  13.488  -4.748  1.00 20.00    -0.027 C 
HETATM    7  C5  UNL     1     -34.779  14.561  -5.665  1.00 20.00     0.059 C 
HETATM    8  C7  UNL     1     -34.677  15.815  -4.788  1.00 20.00     0.135 C 
BRANCH   8   9
HETATM    9  O10 UNL     1     -33.419  16.434  -5.062  1.00 20.00    -0.389 OA
HETATM   10  C8  UNL     1     -33.591  17.727  -5.620  1.00 20.00     0.202 C 
ENDBRANCH   8   9
ENDBRANCH   2   4
TORSDOF 2
ENDMDL
MODEL 3
REMARK VINA RESULT:      -4.2     10.980     11.985
REMARK  2 active torsions:
REMARK  status: ('A' for Active; 'I' for Inactive)
REMARK    1  A    between atoms: C4_4  and  C6_6 
REMARK    2  A    between atoms: C7_7  and  O10_10 
ROOT
HETATM    1  C1  UNL     1     -37.516  14.902  -3.784  1.00 20.00     0.218 C 
HETATM    2  C4  UNL     1     -36.498  15.711  -3.782  1.00 20.00     0.043 C 
HETATM    3  O9  UNL     1     -38.437  14.170  -3.785  1.00 20.00    -0.284 OA
ENDROOT
BRANCH   2   4
HETATM    4  C6  UNL     1     -35.130  15.362  -4.265  1.00 20.00     0.064 C 
HETATM    5  C3  UNL     1     -34.849  13.887  -4.253  1.00 20.00    -0.020 C 
HETATM    6  C2  UNL     1     -33.594  13.631  -3.869  1.00 20.00    -0.027 C 
HETATM    7  C5  UNL     1     -32.845  14.884  -3.545  1.00 20.00     0.059 C 
HETATM    8  C7  UNL     1     -33.973  15.915  -3.411  1.00 20.00     0.135 C 
BRANCH   8   9
HETATM    9  O10 UNL     1     -34.318  16.000  -2.027  1.00 20.00    -0.389 OA
HETATM   10  C8  UNL     1     -33.790  17.177  -1.436  1.00 20.00     0.202 C 
ENDBRANCH   8   9
ENDBRANCH   2   4
TORSDOF 2
ENDMDL
MODEL 4
REMARK VINA RESULT:      -4.1     11.119     12.587
REMARK  2 active torsions:
REMARK  status: ('A' for Active; 'I' for Inactive)
REMARK    1  A    between atoms: C4_4  and  C6_6 
REMARK    2  A    between atoms: C7_7  and  O10_10 
ROOT
HETATM    1  C1  UNL     1     -35.330  13.547  -4.257  1.00 20.00     0.218 C 
HETATM    2  C4  UNL     1     -35.810  14.682  -3.843  1.00 20.00     0.043 C 
HETATM    3  O9  UNL     1     -34.895  12.520  -4.630  1.00 20.00    -0.284 OA
ENDROOT
BRANCH   2   4
HETATM    4  C6  UNL     1     -35.374  16.022  -4.334  1.00 20.00     0.064 C 
HETATM    5  C3  UNL     1     -34.249  15.960  -5.326  1.00 20.00    -0.020 C 
HETATM    6  C2  UNL     1     -33.375  16.954  -5.137  1.00 20.00    -0.027 C 
HETATM    7  C5  UNL     1     -33.761  17.824  -3.983  1.00 20.00     0.059 C 
HETATM    8  C7  UNL     1     -34.798  16.960  -3.254  1.00 20.00     0.135 C 
BRANCH   8   9
HETATM    9  O10 UNL     1     -34.115  16.240  -2.227  1.00 20.00    -0.389 OA
HETATM   10  C8  UNL     1     -34.568  16.627  -0.939  1.00 20.00     0.202 C 
ENDBRANCH   8   9
ENDBRANCH   2   4
TORSDOF 2
ENDMDL
MODEL 5
REMARK VINA RESULT:      -4.1     11.106     12.719
REMARK  2 active torsions:
REMARK  status: ('A' for Active; 'I' for Inactive)
REMARK    1  A    between atoms: C4_4  and  C6_6 
REMARK    2  A    between atoms: C7_7  and  O10_10 
ROOT
HETATM    1  C1  UNL     1     -34.168  13.390  -4.344  1.00 20.00     0.218 C 
HETATM    2  C4  UNL     1     -33.455  14.305  -3.758  1.00 20.00     0.043 C 
HETATM    3  O9  UNL     1     -34.813  12.561  -4.874  1.00 20.00    -0.284 OA
ENDROOT
BRANCH   2   4
HETATM    4  C6  UNL     1     -34.010  15.461  -2.994  1.00 20.00     0.064 C 
HETATM    5  C3  UNL     1     -35.510  15.518  -3.001  1.00 20.00    -0.020 C 
HETATM    6  C2  UNL     1     -35.952  16.776  -3.103  1.00 20.00    -0.027 C 
HETATM    7  C5  UNL     1     -34.825  17.755  -3.200  1.00 20.00     0.059 C 
HETATM    8  C7  UNL     1     -33.634  16.851  -3.543  1.00 20.00     0.135 C 
BRANCH   8   9
HETATM    9  O10 UNL     1     -33.490  16.847  -4.964  1.00 20.00    -0.389 OA
HETATM   10  C8  UNL     1     -33.581  18.159  -5.495  1.00 20.00     0.202 C 
ENDBRANCH   8   9
ENDBRANCH   2   4
TORSDOF 2
ENDMDL
MODEL 6
REMARK VINA RESULT:      -4.0     11.111     12.579
REMARK  2 active torsions:
REMARK  status: ('A' for Active; 'I' for Inactive)
REMARK    1  A    between atoms: C4_4  and  C6_6 
REMARK    2  A    between atoms: C7_7  and  O10_10 
ROOT
HETATM    1  C1  UNL     1     -34.758  16.982  -0.328  1.00 20.00     0.218 C 
HETATM    2  C4  UNL     1     -34.657  16.256  -1.403  1.00 20.00     0.043 C 
HETATM    3  O9  UNL     1     -34.849  17.638   0.644  1.00 20.00    -0.284 OA
ENDROOT
BRANCH   2   4
HETATM    4  C6  UNL     1     -33.669  16.485  -2.497  1.00 20.00     0.064 C 
HETATM    5  C3  UNL     1     -33.901  17.758  -3.257  1.00 20.00    -0.020 C 
HETATM    6  C2  UNL     1     -33.671  17.598  -4.564  1.00 20.00    -0.027 C 
HETATM    7  C5  UNL     1     -33.270  16.194  -4.890  1.00 20.00     0.059 C 
HETATM    8  C7  UNL     1     -33.683  15.433  -3.624  1.00 20.00     0.135 C 
BRANCH   8   9
HETATM    9  O10 UNL     1     -34.990  14.901  -3.845  1.00 20.00    -0.389 OA
HETATM   10  C8  UNL     1     -34.935  13.524  -4.186  1.00 20.00     0.202 C 
ENDBRANCH   8   9
ENDBRANCH   2   4
TORSDOF 2
ENDMDL
MODEL 7
REMARK VINA RESULT:      -3.9     10.844     12.767
REMARK  2 active torsions:
REMARK  status: ('A' for Active; 'I' for Inactive)
REMARK    1  A    between atoms: C4_4  and  C6_6 
REMARK    2  A    between atoms: C7_7  and  O10_10 
ROOT
HETATM    1  C1  UNL     1     -34.448  14.244  -3.352  1.00 20.00     0.218 C 
HETATM    2  C4  UNL     1     -34.736  15.487  -3.098  1.00 20.00     0.043 C 
HETATM    3  O9  UNL     1     -34.189  13.120  -3.581  1.00 20.00    -0.284 OA
ENDROOT
BRANCH   2   4
HETATM    4  C6  UNL     1     -33.957  16.374  -2.185  1.00 20.00     0.064 C 
HETATM    5  C3  UNL     1     -34.600  16.565  -0.843  1.00 20.00    -0.020 C 
HETATM    6  C2  UNL     1     -34.460  17.822  -0.407  1.00 20.00    -0.027 C 
HETATM    7  C5  UNL     1     -33.722  18.673  -1.391  1.00 20.00     0.059 C 
HETATM    8  C7  UNL     1     -33.788  17.827  -2.670  1.00 20.00     0.135 C 
BRANCH   8   9
HETATM    9  O10 UNL     1     -34.914  18.275  -3.427  1.00 20.00    -0.389 OA
HETATM   10  C8  UNL     1     -34.505  18.965  -4.598  1.00 20.00     0.202 C 
ENDBRANCH   8   9
ENDBRANCH   2   4
TORSDOF 2
ENDMDL
MODEL 8
REMARK VINA RESULT:      -3.9      9.644     10.927
REMARK  2 active torsions:
REMARK  status: ('A' for Active; 'I' for Inactive)
REMARK    1  A    between atoms: C4_4  and  C6_6 
REMARK    2  A    between atoms: C7_7  and  O10_10 
ROOT
HETATM    1  C1  UNL     1     -41.609   2.666  -3.119  1.00 20.00     0.218 C 
HETATM    2  C4  UNL     1     -42.091   3.572  -2.319  1.00 20.00     0.043 C 
HETATM    3  O9  UNL     1     -41.174   1.847  -3.842  1.00 20.00    -0.284 OA
ENDROOT
BRANCH   2   4
HETATM    4  C6  UNL     1     -41.284   4.628  -1.642  1.00 20.00     0.064 C 
HETATM    5  C3  UNL     1     -41.502   4.690  -0.158  1.00 20.00    -0.020 C 
HETATM    6  C2  UNL     1     -41.516   5.952   0.283  1.00 20.00    -0.027 C 
HETATM    7  C5  UNL     1     -41.330   6.933  -0.832  1.00 20.00     0.059 C 
HETATM    8  C7  UNL     1     -41.603   6.074  -2.073  1.00 20.00     0.135 C 
BRANCH   8   9
HETATM    9  O10 UNL     1     -42.978   6.239  -2.421  1.00 20.00    -0.389 OA
HETATM   10  C8  UNL     1     -43.127   7.115  -3.527  1.00 20.00     0.202 C 
ENDBRANCH   8   9
ENDBRANCH   2   4
TORSDOF 2
ENDMDL
MODEL 9
REMARK VINA RESULT:      -3.9     11.803     12.672
REMARK  2 active torsions:
REMARK  status: ('A' for Active; 'I' for Inactive)
REMARK    1  A    between atoms: C4_4  and  C6_6 
REMARK    2  A    between atoms: C7_7  and  O10_10 
ROOT
HETATM    1  C1  UNL     1     -37.857  14.876  -3.774  1.00 20.00     0.218 C 
HETATM    2  C4  UNL     1     -36.850  15.663  -3.533  1.00 20.00     0.043 C 
HETATM    3  O9  UNL     1     -38.768  14.165  -3.991  1.00 20.00    -0.284 OA
ENDROOT
BRANCH   2   4
HETATM    4  C6  UNL     1     -35.510  15.211  -3.054  1.00 20.00     0.064 C 
HETATM    5  C3  UNL     1     -34.763  16.262  -2.286  1.00 20.00    -0.020 C 
HETATM    6  C2  UNL     1     -33.458  16.243  -2.572  1.00 20.00    -0.027 C 
HETATM    7  C5  UNL     1     -33.126  15.196  -3.588  1.00 20.00     0.059 C 
HETATM    8  C7  UNL     1     -34.504  14.852  -4.166  1.00 20.00     0.135 C 
BRANCH   8   9
HETATM    9  O10 UNL     1     -34.692  15.647  -5.338  1.00 20.00    -0.389 OA
HETATM   10  C8  UNL     1     -34.592  14.861  -6.515  1.00 20.00     0.202 C 
ENDBRANCH   8   9
ENDBRANCH   2   4
TORSDOF 2
ENDMDL
