MODEL 1
REMARK VINA RESULT:      -4.5      0.000      0.000
REMARK  1 active torsions:
REMARK  status: ('A' for Active; 'I' for Inactive)
REMARK    1  A    between atoms: C1_1  and  C3_3 
ROOT
HETATM    1  C1  UNL     1     -32.739   6.717   3.576  1.00 20.00    -0.054 C 
HETATM    2  C2  UNL     1     -32.380   7.412   2.666  1.00 20.00     0.007 C 
HETATM    3 CL8  UNL     1     -31.857   8.428   1.336  1.00 20.00    -0.023 Cl
ENDROOT
BRANCH   1   4
HETATM    4  C3  UNL     1     -33.165   5.888   4.661  1.00 20.00     0.236 A 
HETATM    5  C4  UNL     1     -34.574   5.329   4.729  1.00 20.00     0.092 A 
HETATM    6  C5  UNL     1     -34.830   4.131   5.588  1.00 20.00     0.049 C 
HETATM    7  C6  UNL     1     -35.580   5.601   3.652  1.00 20.00     0.049 C 
HETATM    8  O7  UNL     1     -34.189   6.497   5.466  1.00 20.00    -0.357 OA
ENDBRANCH   1   4
TORSDOF 1
ENDMDL
MODEL 2
REMARK VINA RESULT:      -3.7     11.564     11.789
REMARK  1 active torsions:
REMARK  status: ('A' for Active; 'I' for Inactive)
REMARK    1  A    between atoms: C1_1  and  C3_3 
ROOT
HETATM    1  C1  UNL     1     -34.349  15.634  -2.423  1.00 20.00    -0.054 C 
HETATM    2  C2  UNL     1     -34.571  16.263  -1.425  1.00 20.00     0.007 C 
HETATM    3 CL8  UNL     1     -34.897  17.182   0.033  1.00 20.00    -0.023 Cl
ENDROOT
BRANCH   1   4
HETATM    4  C3  UNL     1     -34.083  14.884  -3.611  1.00 20.00     0.236 A 
HETATM    5  C4  UNL     1     -35.201  14.248  -4.417  1.00 20.00     0.092 A 
HETATM    6  C5  UNL     1     -34.942  13.896  -5.849  1.00 20.00     0.049 C 
HETATM    7  C6  UNL     1     -36.637  14.393  -4.018  1.00 20.00     0.049 C 
HETATM    8  O7  UNL     1     -34.417  13.492  -3.485  1.00 20.00    -0.357 OA
ENDBRANCH   1   4
TORSDOF 1
ENDMDL
MODEL 3
REMARK VINA RESULT:      -3.7     11.739     11.968
REMARK  1 active torsions:
REMARK  status: ('A' for Active; 'I' for Inactive)
REMARK    1  A    between atoms: C1_1  and  C3_3 
ROOT
HETATM    1  C1  UNL     1     -34.810  16.006  -1.967  1.00 20.00    -0.054 C 
HETATM    2  C2  UNL     1     -34.535  16.721  -1.043  1.00 20.00     0.007 C 
HETATM    3 CL8  UNL     1     -34.131  17.765   0.307  1.00 20.00    -0.023 Cl
ENDROOT
BRANCH   1   4
HETATM    4  C3  UNL     1     -35.139  15.156  -3.068  1.00 20.00     0.236 A 
HETATM    5  C4  UNL     1     -34.065  14.511  -3.924  1.00 20.00     0.092 A 
HETATM    6  C5  UNL     1     -34.419  13.300  -4.730  1.00 20.00     0.049 C 
HETATM    7  C6  UNL     1     -32.608  14.718  -3.644  1.00 20.00     0.049 C 
HETATM    8  O7  UNL     1     -34.747  15.701  -4.339  1.00 20.00    -0.357 OA
ENDBRANCH   1   4
TORSDOF 1
ENDMDL
MODEL 4
REMARK VINA RESULT:      -3.4     10.109     10.780
REMARK  1 active torsions:
REMARK  status: ('A' for Active; 'I' for Inactive)
REMARK    1  A    between atoms: C1_1  and  C3_3 
ROOT
HETATM    1  C1  UNL     1     -41.628   4.259  -2.003  1.00 20.00    -0.054 C 
HETATM    2  C2  UNL     1     -41.563   3.256  -2.659  1.00 20.00     0.007 C 
HETATM    3 CL8  UNL     1     -41.468   1.791  -3.617  1.00 20.00    -0.023 Cl
ENDROOT
BRANCH   1   4
HETATM    4  C3  UNL     1     -41.706   5.455  -1.222  1.00 20.00     0.236 A 
HETATM    5  C4  UNL     1     -42.210   6.759  -1.812  1.00 20.00     0.092 A 
HETATM    6  C5  UNL     1     -42.708   7.821  -0.882  1.00 20.00     0.049 C 
HETATM    7  C6  UNL     1     -42.670   6.852  -3.234  1.00 20.00     0.049 C 
HETATM    8  O7  UNL     1     -40.810   6.483  -1.676  1.00 20.00    -0.357 OA
ENDBRANCH   1   4
TORSDOF 1
ENDMDL
MODEL 5
REMARK VINA RESULT:      -3.4      1.238      1.629
REMARK  1 active torsions:
REMARK  status: ('A' for Active; 'I' for Inactive)
REMARK    1  A    between atoms: C1_1  and  C3_3 
ROOT
HETATM    1  C1  UNL     1     -33.360   6.445   3.412  1.00 20.00    -0.054 C 
HETATM    2  C2  UNL     1     -32.768   7.257   2.756  1.00 20.00     0.007 C 
HETATM    3 CL8  UNL     1     -31.902   8.443   1.797  1.00 20.00    -0.023 Cl
ENDROOT
BRANCH   1   4
HETATM    4  C3  UNL     1     -34.067   5.478   4.193  1.00 20.00     0.236 A 
HETATM    5  C4  UNL     1     -34.252   5.647   5.690  1.00 20.00     0.092 A 
HETATM    6  C5  UNL     1     -35.358   4.896   6.365  1.00 20.00     0.049 C 
HETATM    7  C6  UNL     1     -33.723   6.845   6.417  1.00 20.00     0.049 C 
HETATM    8  O7  UNL     1     -33.229   4.803   5.147  1.00 20.00    -0.357 OA
ENDBRANCH   1   4
TORSDOF 1
ENDMDL
MODEL 6
REMARK VINA RESULT:      -3.3     12.005     12.984
REMARK  1 active torsions:
REMARK  status: ('A' for Active; 'I' for Inactive)
REMARK    1  A    between atoms: C1_1  and  C3_3 
ROOT
HETATM    1  C1  UNL     1     -34.553  16.524  -1.290  1.00 20.00    -0.054 C 
HETATM    2  C2  UNL     1     -34.801  16.960  -0.199  1.00 20.00     0.007 C 
HETATM    3 CL8  UNL     1     -35.161  17.596   1.394  1.00 20.00    -0.023 Cl
ENDROOT
BRANCH   1   4
HETATM    4  C3  UNL     1     -34.260  16.006  -2.590  1.00 20.00     0.236 A 
HETATM    5  C4  UNL     1     -33.929  16.921  -3.756  1.00 20.00     0.092 A 
HETATM    6  C5  UNL     1     -33.190  16.352  -4.927  1.00 20.00     0.049 C 
HETATM    7  C6  UNL     1     -33.874  18.409  -3.594  1.00 20.00     0.049 C 
HETATM    8  O7  UNL     1     -35.240  16.370  -3.577  1.00 20.00    -0.357 OA
ENDBRANCH   1   4
TORSDOF 1
ENDMDL
MODEL 7
REMARK VINA RESULT:      -3.3     12.119     13.219
REMARK  1 active torsions:
REMARK  status: ('A' for Active; 'I' for Inactive)
REMARK    1  A    between atoms: C1_1  and  C3_3 
ROOT
HETATM    1  C1  UNL     1     -34.970  15.718  -3.028  1.00 20.00    -0.054 C 
HETATM    2  C2  UNL     1     -34.823  16.164  -1.924  1.00 20.00     0.007 C 
HETATM    3 CL8  UNL     1     -34.608  16.815  -0.310  1.00 20.00    -0.023 Cl
ENDROOT
BRANCH   1   4
HETATM    4  C3  UNL     1     -35.144  15.188  -4.345  1.00 20.00     0.236 A 
HETATM    5  C4  UNL     1     -34.476  15.819  -5.552  1.00 20.00     0.092 A 
HETATM    6  C5  UNL     1     -34.299  14.993  -6.788  1.00 20.00     0.049 C 
HETATM    7  C6  UNL     1     -33.583  17.015  -5.420  1.00 20.00     0.049 C 
HETATM    8  O7  UNL     1     -35.846  16.083  -5.224  1.00 20.00    -0.357 OA
ENDBRANCH   1   4
TORSDOF 1
ENDMDL
MODEL 8
REMARK VINA RESULT:      -3.2      9.814     11.147
REMARK  1 active torsions:
REMARK  status: ('A' for Active; 'I' for Inactive)
REMARK    1  A    between atoms: C1_1  and  C3_3 
ROOT
HETATM    1  C1  UNL     1     -42.163   3.326  -3.047  1.00 20.00    -0.054 C 
HETATM    2  C2  UNL     1     -41.937   2.181  -3.324  1.00 20.00     0.007 C 
HETATM    3 CL8  UNL     1     -41.606   0.507  -3.728  1.00 20.00    -0.023 Cl
ENDROOT
BRANCH   1   4
HETATM    4  C3  UNL     1     -42.434   4.691  -2.717  1.00 20.00     0.236 A 
HETATM    5  C4  UNL     1     -41.678   5.408  -1.613  1.00 20.00     0.092 A 
HETATM    6  C5  UNL     1     -41.651   6.905  -1.617  1.00 20.00     0.049 C 
HETATM    7  C6  UNL     1     -40.598   4.726  -0.830  1.00 20.00     0.049 C 
HETATM    8  O7  UNL     1     -42.983   4.854  -1.399  1.00 20.00    -0.357 OA
ENDBRANCH   1   4
TORSDOF 1
ENDMDL
MODEL 9
REMARK VINA RESULT:      -3.2      9.245     10.394
REMARK  1 active torsions:
REMARK  status: ('A' for Active; 'I' for Inactive)
REMARK    1  A    between atoms: C1_1  and  C3_3 
ROOT
HETATM    1  C1  UNL     1     -42.400   6.743  -2.924  1.00 20.00    -0.054 C 
HETATM    2  C2  UNL     1     -42.380   7.704  -3.644  1.00 20.00     0.007 C 
HETATM    3 CL8  UNL     1     -42.351   9.107  -4.695  1.00 20.00    -0.023 Cl
ENDROOT
BRANCH   1   4
HETATM    4  C3  UNL     1     -42.424   5.600  -2.067  1.00 20.00     0.236 A 
HETATM    5  C4  UNL     1     -41.612   5.548  -0.785  1.00 20.00     0.092 A 
HETATM    6  C5  UNL     1     -42.015   4.578   0.281  1.00 20.00     0.049 C 
HETATM    7  C6  UNL     1     -40.764   6.702  -0.347  1.00 20.00     0.049 C 
HETATM    8  O7  UNL     1     -41.157   4.924  -1.993  1.00 20.00    -0.357 OA
ENDBRANCH   1   4
TORSDOF 1
ENDMDL
