MODEL 1
REMARK VINA RESULT:      -4.9      0.000      0.000
REMARK  2 active torsions:
REMARK  status: ('A' for Active; 'I' for Inactive)
REMARK    1  A    between atoms: C1_1  and  C8_8 
REMARK    2  A    between atoms: C3_3  and  C9_9 
ROOT
HETATM    1  C4  UNL     1     -32.936   6.581   4.937  1.00 20.00     0.009 C 
HETATM    2  C5  UNL     1     -32.974   5.417   2.676  1.00 20.00     0.009 C 
HETATM    3  C6  UNL     1     -34.465   6.543   4.983  1.00 20.00     0.012 C 
HETATM    4  C7  UNL     1     -34.504   5.363   2.731  1.00 20.00     0.012 C 
HETATM    5  C8  UNL     1     -32.366   6.526   3.525  1.00 20.00     0.008 C 
HETATM    6  C9  UNL     1     -35.073   5.426   4.143  1.00 20.00     0.047 C 
ENDROOT
BRANCH   5   7
HETATM    7  C1  UNL     1     -32.583   7.870   2.848  1.00 20.00    -0.026 C 
HETATM    8  C2  UNL     1     -32.000   8.227   1.694  1.00 20.00    -0.035 C 
HETATM    9  C10 UNL     1     -32.214   9.546   1.029  1.00 20.00     0.036 C 
ENDBRANCH   5   7
BRANCH   6  10
HETATM   10  C3  UNL     1     -34.855   4.101   4.854  1.00 20.00     0.235 C 
HETATM   11  O11 UNL     1     -35.036   3.942   6.057  1.00 20.00    -0.306 OA
ENDBRANCH   6  10
TORSDOF 2
ENDMDL
MODEL 2
REMARK VINA RESULT:      -4.8     11.267     12.508
REMARK  2 active torsions:
REMARK  status: ('A' for Active; 'I' for Inactive)
REMARK    1  A    between atoms: C1_1  and  C8_8 
REMARK    2  A    between atoms: C3_3  and  C9_9 
ROOT
HETATM    1  C4  UNL     1     -34.229  13.976  -3.569  1.00 20.00     0.009 C 
HETATM    2  C5  UNL     1     -33.935  16.364  -4.392  1.00 20.00     0.009 C 
HETATM    3  C6  UNL     1     -35.594  13.906  -4.255  1.00 20.00     0.012 C 
HETATM    4  C7  UNL     1     -35.295  16.288  -5.093  1.00 20.00     0.012 C 
HETATM    5  C8  UNL     1     -33.788  15.393  -3.227  1.00 20.00     0.008 C 
HETATM    6  C9  UNL     1     -35.737  14.869  -5.427  1.00 20.00     0.047 C 
ENDROOT
BRANCH   5   7
HETATM    7  C1  UNL     1     -34.594  15.891  -2.037  1.00 20.00    -0.026 C 
HETATM    8  C2  UNL     1     -34.154  16.818  -1.173  1.00 20.00    -0.035 C 
HETATM    9  C10 UNL     1     -34.945  17.307  -0.006  1.00 20.00     0.036 C 
ENDBRANCH   5   7
BRANCH   6  10
HETATM   10  C3  UNL     1     -34.936  14.335  -6.603  1.00 20.00     0.235 C 
HETATM   11  O11 UNL     1     -34.603  15.023  -7.563  1.00 20.00    -0.306 OA
ENDBRANCH   6  10
TORSDOF 2
ENDMDL
MODEL 3
REMARK VINA RESULT:      -4.7     10.935     12.007
REMARK  2 active torsions:
REMARK  status: ('A' for Active; 'I' for Inactive)
REMARK    1  A    between atoms: C1_1  and  C8_8 
REMARK    2  A    between atoms: C3_3  and  C9_9 
ROOT
HETATM    1  C4  UNL     1     -33.268  15.237  -3.490  1.00 20.00     0.009 C 
HETATM    2  C5  UNL     1     -35.584  16.223  -3.850  1.00 20.00     0.009 C 
HETATM    3  C6  UNL     1     -33.867  13.829  -3.478  1.00 20.00     0.012 C 
HETATM    4  C7  UNL     1     -36.182  14.813  -3.856  1.00 20.00     0.012 C 
HETATM    5  C8  UNL     1     -34.260  16.327  -3.105  1.00 20.00     0.008 C 
HETATM    6  C9  UNL     1     -35.187  13.723  -4.233  1.00 20.00     0.047 C 
ENDROOT
BRANCH   5   7
HETATM    7  C1  UNL     1     -34.507  16.268  -1.605  1.00 20.00    -0.026 C 
HETATM    8  C2  UNL     1     -34.743  17.347  -0.845  1.00 20.00    -0.035 C 
HETATM    9  C10 UNL     1     -34.986  17.289   0.627  1.00 20.00     0.036 C 
ENDBRANCH   5   7
BRANCH   6  10
HETATM   10  C3  UNL     1     -34.904  13.767  -5.726  1.00 20.00     0.235 C 
HETATM   11  O11 UNL     1     -35.662  14.280  -6.543  1.00 20.00    -0.306 OA
ENDBRANCH   6  10
TORSDOF 2
ENDMDL
MODEL 4
REMARK VINA RESULT:      -4.7     11.651     12.752
REMARK  2 active torsions:
REMARK  status: ('A' for Active; 'I' for Inactive)
REMARK    1  A    between atoms: C1_1  and  C8_8 
REMARK    2  A    between atoms: C3_3  and  C9_9 
ROOT
HETATM    1  C4  UNL     1     -35.463  15.090  -3.400  1.00 20.00     0.009 C 
HETATM    2  C5  UNL     1     -32.966  15.333  -3.814  1.00 20.00     0.009 C 
HETATM    3  C6  UNL     1     -35.749  16.066  -4.543  1.00 20.00     0.012 C 
HETATM    4  C7  UNL     1     -33.252  16.298  -4.968  1.00 20.00     0.012 C 
HETATM    5  C8  UNL     1     -34.082  15.261  -2.780  1.00 20.00     0.008 C 
HETATM    6  C9  UNL     1     -34.636  16.130  -5.582  1.00 20.00     0.047 C 
ENDROOT
BRANCH   5   7
HETATM    7  C1  UNL     1     -34.074  16.518  -1.924  1.00 20.00    -0.026 C 
HETATM    8  C2  UNL     1     -34.672  16.611  -0.728  1.00 20.00    -0.035 C 
HETATM    9  C10 UNL     1     -34.663  17.845   0.112  1.00 20.00     0.036 C 
ENDBRANCH   5   7
BRANCH   6  10
HETATM   10  C3  UNL     1     -34.683  14.869  -6.430  1.00 20.00     0.235 C 
HETATM   11  O11 UNL     1     -34.363  14.839  -7.614  1.00 20.00    -0.306 OA
ENDBRANCH   6  10
TORSDOF 2
ENDMDL
MODEL 5
REMARK VINA RESULT:      -4.4     11.541     12.894
REMARK  2 active torsions:
REMARK  status: ('A' for Active; 'I' for Inactive)
REMARK    1  A    between atoms: C1_1  and  C8_8 
REMARK    2  A    between atoms: C3_3  and  C9_9 
ROOT
HETATM    1  C4  UNL     1     -35.380  17.314  -3.357  1.00 20.00     0.009 C 
HETATM    2  C5  UNL     1     -34.434  14.970  -3.077  1.00 20.00     0.009 C 
HETATM    3  C6  UNL     1     -34.107  17.741  -4.089  1.00 20.00     0.012 C 
HETATM    4  C7  UNL     1     -33.167  15.394  -3.824  1.00 20.00     0.012 C 
HETATM    5  C8  UNL     1     -35.180  16.127  -2.424  1.00 20.00     0.008 C 
HETATM    6  C9  UNL     1     -33.367  16.585  -4.752  1.00 20.00     0.047 C 
ENDROOT
BRANCH   5   7
HETATM    7  C1  UNL     1     -34.428  16.590  -1.185  1.00 20.00    -0.026 C 
HETATM    8  C2  UNL     1     -34.831  17.601  -0.403  1.00 20.00    -0.035 C 
HETATM    9  C10 UNL     1     -34.094  18.055   0.814  1.00 20.00     0.036 C 
ENDBRANCH   5   7
BRANCH   6  10
HETATM   10  C3  UNL     1     -34.133  16.159  -5.993  1.00 20.00     0.235 C 
HETATM   11  O11 UNL     1     -34.050  15.039  -6.487  1.00 20.00    -0.306 OA
ENDBRANCH   6  10
TORSDOF 2
ENDMDL
MODEL 6
REMARK VINA RESULT:      -4.4     11.282     12.645
REMARK  2 active torsions:
REMARK  status: ('A' for Active; 'I' for Inactive)
REMARK    1  A    between atoms: C1_1  and  C8_8 
REMARK    2  A    between atoms: C3_3  and  C9_9 
ROOT
HETATM    1  C4  UNL     1     -33.750  17.607  -4.116  1.00 20.00     0.009 C 
HETATM    2  C5  UNL     1     -33.354  15.107  -3.874  1.00 20.00     0.009 C 
HETATM    3  C6  UNL     1     -35.082  17.469  -3.375  1.00 20.00     0.012 C 
HETATM    4  C7  UNL     1     -34.678  14.972  -3.117  1.00 20.00     0.012 C 
HETATM    5  C8  UNL     1     -33.290  16.322  -4.791  1.00 20.00     0.008 C 
HETATM    6  C9  UNL     1     -35.141  16.261  -2.449  1.00 20.00     0.047 C 
ENDROOT
BRANCH   5   7
HETATM    7  C1  UNL     1     -34.140  16.077  -6.029  1.00 20.00    -0.026 C 
HETATM    8  C2  UNL     1     -34.422  14.858  -6.511  1.00 20.00    -0.035 C 
HETATM    9  C10 UNL     1     -35.257  14.618  -7.725  1.00 20.00     0.036 C 
ENDBRANCH   5   7
BRANCH   6  10
HETATM   10  C3  UNL     1     -34.297  16.544  -1.217  1.00 20.00     0.235 C 
HETATM   11  O11 UNL     1     -34.772  16.859  -0.131  1.00 20.00    -0.306 OA
ENDBRANCH   6  10
TORSDOF 2
ENDMDL
MODEL 7
REMARK VINA RESULT:      -4.2     10.913     12.208
REMARK  2 active torsions:
REMARK  status: ('A' for Active; 'I' for Inactive)
REMARK    1  A    between atoms: C1_1  and  C8_8 
REMARK    2  A    between atoms: C3_3  and  C9_9 
ROOT
HETATM    1  C4  UNL     1     -33.481  14.083  -3.548  1.00 20.00     0.009 C 
HETATM    2  C5  UNL     1     -35.899  14.866  -3.623  1.00 20.00     0.009 C 
HETATM    3  C6  UNL     1     -33.007  15.538  -3.587  1.00 20.00     0.012 C 
HETATM    4  C7  UNL     1     -35.425  16.322  -3.644  1.00 20.00     0.012 C 
HETATM    5  C8  UNL     1     -34.866  13.875  -4.145  1.00 20.00     0.008 C 
HETATM    6  C9  UNL     1     -34.036  16.528  -3.054  1.00 20.00     0.047 C 
ENDROOT
BRANCH   5   7
HETATM    7  C1  UNL     1     -34.776  13.977  -5.660  1.00 20.00    -0.026 C 
HETATM    8  C2  UNL     1     -35.737  14.506  -6.431  1.00 20.00    -0.035 C 
HETATM    9  C10 UNL     1     -35.648  14.606  -7.918  1.00 20.00     0.036 C 
ENDBRANCH   5   7
BRANCH   6  10
HETATM   10  C3  UNL     1     -34.089  16.414  -1.539  1.00 20.00     0.235 C 
HETATM   11  O11 UNL     1     -34.990  16.890  -0.857  1.00 20.00    -0.306 OA
ENDBRANCH   6  10
TORSDOF 2
ENDMDL
MODEL 8
REMARK VINA RESULT:      -4.2      9.558     10.578
REMARK  2 active torsions:
REMARK  status: ('A' for Active; 'I' for Inactive)
REMARK    1  A    between atoms: C1_1  and  C8_8 
REMARK    2  A    between atoms: C3_3  and  C9_9 
ROOT
HETATM    1  C4  UNL     1     -43.182   5.775  -2.491  1.00 20.00     0.009 C 
HETATM    2  C5  UNL     1     -42.291   7.772  -1.194  1.00 20.00     0.009 C 
HETATM    3  C6  UNL     1     -41.907   4.994  -2.166  1.00 20.00     0.012 C 
HETATM    4  C7  UNL     1     -41.023   6.984  -0.855  1.00 20.00     0.012 C 
HETATM    5  C8  UNL     1     -43.000   7.286  -2.452  1.00 20.00     0.008 C 
HETATM    6  C9  UNL     1     -41.204   5.473  -0.902  1.00 20.00     0.047 C 
ENDROOT
BRANCH   5   7
HETATM    7  C1  UNL     1     -42.223   7.726  -3.683  1.00 20.00    -0.026 C 
HETATM    8  C2  UNL     1     -42.527   8.811  -4.409  1.00 20.00    -0.035 C 
HETATM    9  C10 UNL     1     -41.763   9.243  -5.617  1.00 20.00     0.036 C 
ENDBRANCH   5   7
BRANCH   6  10
HETATM   10  C3  UNL     1     -41.996   5.003   0.308  1.00 20.00     0.235 C 
HETATM   11  O11 UNL     1     -42.677   3.983   0.316  1.00 20.00    -0.306 OA
ENDBRANCH   6  10
TORSDOF 2
ENDMDL
MODEL 9
REMARK VINA RESULT:      -4.0     11.675     12.743
REMARK  2 active torsions:
REMARK  status: ('A' for Active; 'I' for Inactive)
REMARK    1  A    between atoms: C1_1  and  C8_8 
REMARK    2  A    between atoms: C3_3  and  C9_9 
ROOT
HETATM    1  C4  UNL     1     -33.673  15.729  -2.793  1.00 20.00     0.009 C 
HETATM    2  C5  UNL     1     -34.826  17.994  -2.863  1.00 20.00     0.009 C 
HETATM    3  C6  UNL     1     -34.957  15.059  -3.287  1.00 20.00     0.012 C 
HETATM    4  C7  UNL     1     -36.106  17.326  -3.373  1.00 20.00     0.012 C 
HETATM    5  C8  UNL     1     -33.909  17.057  -2.086  1.00 20.00     0.008 C 
HETATM    6  C9  UNL     1     -35.869  15.994  -4.073  1.00 20.00     0.047 C 
ENDROOT
BRANCH   5   7
HETATM    7  C1  UNL     1     -34.494  16.791  -0.708  1.00 20.00    -0.026 C 
HETATM    8  C2  UNL     1     -34.761  17.752   0.188  1.00 20.00    -0.035 C 
HETATM    9  C10 UNL     1     -35.335  17.490   1.541  1.00 20.00     0.036 C 
ENDBRANCH   5   7
BRANCH   6  10
HETATM   10  C3  UNL     1     -35.267  16.226  -5.449  1.00 20.00     0.235 C 
HETATM   11  O11 UNL     1     -34.780  15.331  -6.133  1.00 20.00    -0.306 OA
ENDBRANCH   6  10
TORSDOF 2
ENDMDL
