MODEL 1
REMARK VINA RESULT:      -4.6      0.000      0.000
REMARK  2 active torsions:
REMARK  status: ('A' for Active; 'I' for Inactive)
REMARK    1  A    between atoms: C1_1  and  C4_4 
REMARK    2  A    between atoms: C1_1  and  C5_5 
ROOT
HETATM    1  C1  UNL     1     -34.246   5.615   3.742  1.00 20.00     0.144 C 
HETATM    2  O6  UNL     1     -34.378   5.200   2.592  1.00 20.00    -0.296 OA
ENDROOT
BRANCH   1   3
HETATM    3  C4  UNL     1     -35.161   5.180   4.804  1.00 20.00     0.056 A 
HETATM    4  C2  UNL     1     -34.839   3.941   5.595  1.00 20.00     0.013 A 
HETATM    5  C3  UNL     1     -34.726   5.290   6.241  1.00 20.00     0.013 A 
ENDBRANCH   1   3
BRANCH   1   6
HETATM    6  C5  UNL     1     -33.163   6.581   4.165  1.00 20.00     0.193 C 
HETATM    7 CL7  UNL     1     -32.241   7.140   2.762  1.00 20.00    -0.123 Cl
ENDBRANCH   1   6
TORSDOF 2
ENDMDL
MODEL 2
REMARK VINA RESULT:      -4.3      1.991      3.004
REMARK  2 active torsions:
REMARK  status: ('A' for Active; 'I' for Inactive)
REMARK    1  A    between atoms: C1_1  and  C4_4 
REMARK    2  A    between atoms: C1_1  and  C5_5 
ROOT
HETATM    1  C1  UNL     1     -34.828   4.817   5.071  1.00 20.00     0.144 C 
HETATM    2  O6  UNL     1     -35.120   3.664   4.759  1.00 20.00    -0.296 OA
ENDROOT
BRANCH   1   3
HETATM    3  C4  UNL     1     -34.564   5.827   4.041  1.00 20.00     0.056 A 
HETATM    4  C2  UNL     1     -33.180   5.950   3.462  1.00 20.00     0.013 A 
HETATM    5  C3  UNL     1     -34.291   5.385   2.628  1.00 20.00     0.013 A 
ENDBRANCH   1   3
BRANCH   1   6
HETATM    6  C5  UNL     1     -34.716   5.294   6.502  1.00 20.00     0.193 C 
HETATM    7 CL7  UNL     1     -33.882   6.853   6.579  1.00 20.00    -0.123 Cl
ENDBRANCH   1   6
TORSDOF 2
ENDMDL
MODEL 3
REMARK VINA RESULT:      -4.1      1.502      1.507
REMARK  2 active torsions:
REMARK  status: ('A' for Active; 'I' for Inactive)
REMARK    1  A    between atoms: C1_1  and  C4_4 
REMARK    2  A    between atoms: C1_1  and  C5_5 
ROOT
HETATM    1  C1  UNL     1     -33.843   6.098   4.686  1.00 20.00     0.144 C 
HETATM    2  O6  UNL     1     -33.355   6.782   5.584  1.00 20.00    -0.296 OA
ENDROOT
BRANCH   1   3
HETATM    3  C4  UNL     1     -34.986   5.218   4.954  1.00 20.00     0.056 A 
HETATM    4  C2  UNL     1     -34.749   3.751   5.195  1.00 20.00     0.013 A 
HETATM    5  C3  UNL     1     -35.162   4.638   6.331  1.00 20.00     0.013 A 
ENDBRANCH   1   3
BRANCH   1   6
HETATM    6  C5  UNL     1     -33.333   6.097   3.263  1.00 20.00     0.193 C 
HETATM    7 CL7  UNL     1     -32.039   7.287   3.060  1.00 20.00    -0.123 Cl
ENDBRANCH   1   6
TORSDOF 2
ENDMDL
MODEL 4
REMARK VINA RESULT:      -4.1      2.265      3.499
REMARK  2 active torsions:
REMARK  status: ('A' for Active; 'I' for Inactive)
REMARK    1  A    between atoms: C1_1  and  C4_4 
REMARK    2  A    between atoms: C1_1  and  C5_5 
ROOT
HETATM    1  C1  UNL     1     -33.709   5.913   3.791  1.00 20.00     0.144 C 
HETATM    2  O6  UNL     1     -34.562   5.344   3.111  1.00 20.00    -0.296 OA
ENDROOT
BRANCH   1   3
HETATM    3  C4  UNL     1     -32.413   6.281   3.210  1.00 20.00     0.056 A 
HETATM    4  C2  UNL     1     -32.284   7.571   2.447  1.00 20.00     0.013 A 
HETATM    5  C3  UNL     1     -31.644   7.434   3.796  1.00 20.00     0.013 A 
ENDBRANCH   1   3
BRANCH   1   6
HETATM    6  C5  UNL     1     -33.905   6.280   5.244  1.00 20.00     0.193 C 
HETATM    7 CL7  UNL     1     -34.827   5.028   6.087  1.00 20.00    -0.123 Cl
ENDBRANCH   1   6
TORSDOF 2
ENDMDL
MODEL 5
REMARK VINA RESULT:      -3.9      2.630      3.691
REMARK  2 active torsions:
REMARK  status: ('A' for Active; 'I' for Inactive)
REMARK    1  A    between atoms: C1_1  and  C4_4 
REMARK    2  A    between atoms: C1_1  and  C5_5 
ROOT
HETATM    1  C1  UNL     1     -34.042   6.166   4.761  1.00 20.00     0.144 C 
HETATM    2  O6  UNL     1     -33.786   6.645   5.865  1.00 20.00    -0.296 OA
ENDROOT
BRANCH   1   3
HETATM    3  C4  UNL     1     -33.394   6.688   3.553  1.00 20.00     0.056 A 
HETATM    4  C2  UNL     1     -31.964   7.152   3.622  1.00 20.00     0.013 A 
HETATM    5  C3  UNL     1     -32.303   5.885   2.896  1.00 20.00     0.013 A 
ENDBRANCH   1   3
BRANCH   1   6
HETATM    6  C5  UNL     1     -35.015   5.030   4.546  1.00 20.00     0.193 C 
HETATM    7 CL7  UNL     1     -35.001   3.924   5.927  1.00 20.00    -0.123 Cl
ENDBRANCH   1   6
TORSDOF 2
ENDMDL
MODEL 6
REMARK VINA RESULT:      -3.9      2.583      3.769
REMARK  2 active torsions:
REMARK  status: ('A' for Active; 'I' for Inactive)
REMARK    1  A    between atoms: C1_1  and  C4_4 
REMARK    2  A    between atoms: C1_1  and  C5_5 
ROOT
HETATM    1  C1  UNL     1     -33.660   6.160   4.296  1.00 20.00     0.144 C 
HETATM    2  O6  UNL     1     -33.636   6.688   5.407  1.00 20.00    -0.296 OA
ENDROOT
BRANCH   1   3
HETATM    3  C4  UNL     1     -32.543   6.333   3.362  1.00 20.00     0.056 A 
HETATM    4  C2  UNL     1     -32.474   7.574   2.512  1.00 20.00     0.013 A 
HETATM    5  C3  UNL     1     -31.505   7.386   3.641  1.00 20.00     0.013 A 
ENDBRANCH   1   3
BRANCH   1   6
HETATM    6  C5  UNL     1     -34.805   5.308   3.800  1.00 20.00     0.193 C 
HETATM    7 CL7  UNL     1     -35.201   4.045   4.975  1.00 20.00    -0.123 Cl
ENDBRANCH   1   6
TORSDOF 2
ENDMDL
MODEL 7
REMARK VINA RESULT:      -3.7      1.624      1.932
REMARK  2 active torsions:
REMARK  status: ('A' for Active; 'I' for Inactive)
REMARK    1  A    between atoms: C1_1  and  C4_4 
REMARK    2  A    between atoms: C1_1  and  C5_5 
ROOT
HETATM    1  C1  UNL     1     -35.086   4.609   4.718  1.00 20.00     0.144 C 
HETATM    2  O6  UNL     1     -35.185   3.393   4.560  1.00 20.00    -0.296 OA
ENDROOT
BRANCH   1   3
HETATM    3  C4  UNL     1     -34.965   5.181   6.063  1.00 20.00     0.056 A 
HETATM    4  C2  UNL     1     -33.646   5.103   6.784  1.00 20.00     0.013 A 
HETATM    5  C3  UNL     1     -34.136   6.421   6.264  1.00 20.00     0.013 A 
ENDBRANCH   1   3
BRANCH   1   6
HETATM    6  C5  UNL     1     -35.077   5.603   3.578  1.00 20.00     0.193 C 
HETATM    7 CL7  UNL     1     -33.442   5.800   2.932  1.00 20.00    -0.123 Cl
ENDBRANCH   1   6
TORSDOF 2
ENDMDL
MODEL 8
REMARK VINA RESULT:      -3.6      1.489      2.004
REMARK  2 active torsions:
REMARK  status: ('A' for Active; 'I' for Inactive)
REMARK    1  A    between atoms: C1_1  and  C4_4 
REMARK    2  A    between atoms: C1_1  and  C5_5 
ROOT
HETATM    1  C1  UNL     1     -32.584   6.471   3.348  1.00 20.00     0.144 C 
HETATM    2  O6  UNL     1     -32.098   5.409   2.961  1.00 20.00    -0.296 OA
ENDROOT
BRANCH   1   3
HETATM    3  C4  UNL     1     -33.897   6.497   4.002  1.00 20.00     0.056 A 
HETATM    4  C2  UNL     1     -34.924   5.457   3.642  1.00 20.00     0.013 A 
HETATM    5  C3  UNL     1     -34.254   5.413   4.983  1.00 20.00     0.013 A 
ENDBRANCH   1   3
BRANCH   1   6
HETATM    6  C5  UNL     1     -31.900   7.810   3.196  1.00 20.00     0.193 C 
HETATM    7 CL7  UNL     1     -31.991   8.373   1.521  1.00 20.00    -0.123 Cl
ENDBRANCH   1   6
TORSDOF 2
ENDMDL
MODEL 9
REMARK VINA RESULT:      -3.5     12.142     12.709
REMARK  2 active torsions:
REMARK  status: ('A' for Active; 'I' for Inactive)
REMARK    1  A    between atoms: C1_1  and  C4_4 
REMARK    2  A    between atoms: C1_1  and  C5_5 
ROOT
HETATM    1  C1  UNL     1     -34.781  13.727  -4.619  1.00 20.00     0.144 C 
HETATM    2  O6  UNL     1     -34.866  12.509  -4.771  1.00 20.00    -0.296 OA
ENDROOT
BRANCH   1   3
HETATM    3  C4  UNL     1     -34.069  14.289  -3.466  1.00 20.00     0.056 A 
HETATM    4  C2  UNL     1     -32.595  14.577  -3.575  1.00 20.00     0.013 A 
HETATM    5  C3  UNL     1     -33.576  15.710  -3.526  1.00 20.00     0.013 A 
ENDBRANCH   1   3
BRANCH   1   6
HETATM    6  C5  UNL     1     -35.380  14.733  -5.575  1.00 20.00     0.193 C 
HETATM    7 CL7  UNL     1     -34.379  14.892  -7.026  1.00 20.00    -0.123 Cl
ENDBRANCH   1   6
TORSDOF 2
ENDMDL
