MODEL 1
REMARK VINA RESULT:      -3.7      0.000      0.000
REMARK  1 active torsions:
REMARK  status: ('A' for Active; 'I' for Inactive)
REMARK    1  A    between atoms: C6_6  and  N7_7 
ROOT
HETATM    1  C1  UNL     1     -34.191   5.445   3.282  1.00 20.00     0.284 C 
HETATM    2  C2  UNL     1     -35.491   5.048   3.969  1.00 20.00     0.106 C 
HETATM    3  C3  UNL     1     -33.540   5.959   5.499  1.00 20.00     0.280 C 
HETATM    4  C4  UNL     1     -33.551   7.091   6.520  1.00 20.00     0.055 C 
HETATM    5  N7  UNL     1     -33.563   6.473   4.122  1.00 20.00     0.102 N 
HETATM    6  S8  UNL     1     -35.039   4.932   5.713  1.00 20.00    -0.132 SA
ENDROOT
BRANCH   5   7
HETATM    7  C6  UNL     1     -32.233   6.816   3.629  1.00 20.00     0.269 C 
HETATM    8  C5  UNL     1     -32.313   7.744   2.465  1.00 20.00     0.037 C 
ENDBRANCH   5   7
TORSDOF 1
ENDMDL
MODEL 2
REMARK VINA RESULT:      -3.4     11.426     12.073
REMARK  1 active torsions:
REMARK  status: ('A' for Active; 'I' for Inactive)
REMARK    1  A    between atoms: C6_6  and  N7_7 
ROOT
HETATM    1  C1  UNL     1     -36.070  15.642  -3.272  1.00 20.00     0.284 C 
HETATM    2  C2  UNL     1     -36.581  14.431  -4.040  1.00 20.00     0.106 C 
HETATM    3  C3  UNL     1     -33.966  14.793  -3.946  1.00 20.00     0.280 C 
HETATM    4  C4  UNL     1     -32.866  13.832  -3.510  1.00 20.00     0.055 C 
HETATM    5  N7  UNL     1     -34.722  15.305  -2.794  1.00 20.00     0.102 N 
HETATM    6  S8  UNL     1     -35.155  13.909  -5.018  1.00 20.00    -0.132 SA
ENDROOT
BRANCH   5   7
HETATM    7  C6  UNL     1     -34.081  16.459  -2.170  1.00 20.00     0.269 C 
HETATM    8  C5  UNL     1     -34.583  16.668  -0.782  1.00 20.00     0.037 C 
ENDBRANCH   5   7
TORSDOF 1
ENDMDL
MODEL 3
REMARK VINA RESULT:      -3.4     12.020     13.002
REMARK  1 active torsions:
REMARK  status: ('A' for Active; 'I' for Inactive)
REMARK    1  A    between atoms: C6_6  and  N7_7 
ROOT
HETATM    1  C1  UNL     1     -33.326  16.217  -5.021  1.00 20.00     0.284 C 
HETATM    2  C2  UNL     1     -33.575  17.716  -4.922  1.00 20.00     0.106 C 
HETATM    3  C3  UNL     1     -34.652  16.181  -3.061  1.00 20.00     0.280 C 
HETATM    4  C4  UNL     1     -34.550  16.274  -1.543  1.00 20.00     0.055 C 
HETATM    5  N7  UNL     1     -33.404  15.681  -3.656  1.00 20.00     0.102 N 
HETATM    6  S8  UNL     1     -34.947  17.848  -3.755  1.00 20.00    -0.132 SA
ENDROOT
BRANCH   5   7
HETATM    7  C6  UNL     1     -33.327  14.223  -3.657  1.00 20.00     0.269 C 
HETATM    8  C5  UNL     1     -34.602  13.617  -4.137  1.00 20.00     0.037 C 
ENDBRANCH   5   7
TORSDOF 1
ENDMDL
MODEL 4
REMARK VINA RESULT:      -3.3     11.774     12.824
REMARK  1 active torsions:
REMARK  status: ('A' for Active; 'I' for Inactive)
REMARK    1  A    between atoms: C6_6  and  N7_7 
ROOT
HETATM    1  C1  UNL     1     -34.295  14.004  -3.531  1.00 20.00     0.284 C 
HETATM    2  C2  UNL     1     -34.516  13.216  -4.815  1.00 20.00     0.106 C 
HETATM    3  C3  UNL     1     -34.567  15.851  -4.985  1.00 20.00     0.280 C 
HETATM    4  C4  UNL     1     -33.780  16.783  -5.899  1.00 20.00     0.055 C 
HETATM    5  N7  UNL     1     -33.719  15.298  -3.919  1.00 20.00     0.102 N 
HETATM    6  S8  UNL     1     -35.199  14.436  -5.957  1.00 20.00    -0.132 SA
ENDROOT
BRANCH   5   7
HETATM    7  C6  UNL     1     -33.606  16.191  -2.771  1.00 20.00     0.269 C 
HETATM    8  C5  UNL     1     -34.794  16.071  -1.877  1.00 20.00     0.037 C 
ENDBRANCH   5   7
TORSDOF 1
ENDMDL
MODEL 5
REMARK VINA RESULT:      -3.3     11.747     13.426
REMARK  1 active torsions:
REMARK  status: ('A' for Active; 'I' for Inactive)
REMARK    1  A    between atoms: C6_6  and  N7_7 
ROOT
HETATM    1  C1  UNL     1     -33.295  15.371  -3.684  1.00 20.00     0.284 C 
HETATM    2  C2  UNL     1     -33.382  13.851  -3.722  1.00 20.00     0.106 C 
HETATM    3  C3  UNL     1     -34.594  15.184  -5.654  1.00 20.00     0.280 C 
HETATM    4  C4  UNL     1     -34.463  15.038  -7.166  1.00 20.00     0.055 C 
HETATM    5  N7  UNL     1     -33.413  15.838  -5.072  1.00 20.00     0.102 N 
HETATM    6  S8  UNL     1     -34.718  13.525  -4.892  1.00 20.00    -0.132 SA
ENDROOT
BRANCH   5   7
HETATM    7  C6  UNL     1     -33.491  17.294  -5.133  1.00 20.00     0.269 C 
HETATM    8  C5  UNL     1     -33.871  17.869  -3.810  1.00 20.00     0.037 C 
ENDBRANCH   5   7
TORSDOF 1
ENDMDL
MODEL 6
REMARK VINA RESULT:      -3.2     12.271     13.344
REMARK  1 active torsions:
REMARK  status: ('A' for Active; 'I' for Inactive)
REMARK    1  A    between atoms: C6_6  and  N7_7 
ROOT
HETATM    1  C1  UNL     1     -33.715  16.755  -5.261  1.00 20.00     0.284 C 
HETATM    2  C2  UNL     1     -34.473  16.555  -6.566  1.00 20.00     0.106 C 
HETATM    3  C3  UNL     1     -34.323  14.492  -4.923  1.00 20.00     0.280 C 
HETATM    4  C4  UNL     1     -35.435  13.622  -4.349  1.00 20.00     0.055 C 
HETATM    5  N7  UNL     1     -34.290  15.817  -4.287  1.00 20.00     0.102 N 
HETATM    6  S8  UNL     1     -34.622  14.761  -6.708  1.00 20.00    -0.132 SA
ENDROOT
BRANCH   5   7
HETATM    7  C6  UNL     1     -33.533  15.822  -3.039  1.00 20.00     0.269 C 
HETATM    8  C5  UNL     1     -34.383  16.256  -1.895  1.00 20.00     0.037 C 
ENDBRANCH   5   7
TORSDOF 1
ENDMDL
MODEL 7
REMARK VINA RESULT:      -3.2     11.705     12.312
REMARK  1 active torsions:
REMARK  status: ('A' for Active; 'I' for Inactive)
REMARK    1  A    between atoms: C6_6  and  N7_7 
ROOT
HETATM    1  C1  UNL     1     -35.614  14.122  -4.554  1.00 20.00     0.284 C 
HETATM    2  C2  UNL     1     -34.218  13.550  -4.348  1.00 20.00     0.106 C 
HETATM    3  C3  UNL     1     -34.776  15.842  -3.158  1.00 20.00     0.280 C 
HETATM    4  C4  UNL     1     -34.640  16.235  -1.692  1.00 20.00     0.055 C 
HETATM    5  N7  UNL     1     -35.918  14.939  -3.371  1.00 20.00     0.102 N 
HETATM    6  S8  UNL     1     -33.275  14.941  -3.689  1.00 20.00    -0.132 SA
ENDROOT
BRANCH   5   7
HETATM    7  C6  UNL     1     -37.178  15.657  -3.535  1.00 20.00     0.269 C 
HETATM    8  C5  UNL     1     -38.273  14.734  -3.947  1.00 20.00     0.037 C 
ENDBRANCH   5   7
TORSDOF 1
ENDMDL
MODEL 8
REMARK VINA RESULT:      -3.1     12.044     13.588
REMARK  1 active torsions:
REMARK  status: ('A' for Active; 'I' for Inactive)
REMARK    1  A    between atoms: C6_6  and  N7_7 
ROOT
HETATM    1  C1  UNL     1     -34.564  13.895  -5.145  1.00 20.00     0.284 C 
HETATM    2  C2  UNL     1     -34.565  14.169  -3.647  1.00 20.00     0.106 C 
HETATM    3  C3  UNL     1     -33.458  15.988  -5.211  1.00 20.00     0.280 C 
HETATM    4  C4  UNL     1     -33.730  17.484  -5.307  1.00 20.00     0.055 C 
HETATM    5  N7  UNL     1     -34.544  15.202  -5.816  1.00 20.00     0.102 N 
HETATM    6  S8  UNL     1     -33.359  15.499  -3.451  1.00 20.00    -0.132 SA
ENDROOT
BRANCH   5   7
HETATM    7  C6  UNL     1     -34.390  15.051  -7.260  1.00 20.00     0.269 C 
HETATM    8  C5  UNL     1     -35.633  14.508  -7.879  1.00 20.00     0.037 C 
ENDBRANCH   5   7
TORSDOF 1
ENDMDL
MODEL 9
REMARK VINA RESULT:      -3.1     12.047     13.280
REMARK  1 active torsions:
REMARK  status: ('A' for Active; 'I' for Inactive)
REMARK    1  A    between atoms: C6_6  and  N7_7 
ROOT
HETATM    1  C1  UNL     1     -36.397  14.495  -4.161  1.00 20.00     0.284 C 
HETATM    2  C2  UNL     1     -37.283  15.584  -4.750  1.00 20.00     0.106 C 
HETATM    3  C3  UNL     1     -34.853  15.324  -5.753  1.00 20.00     0.280 C 
HETATM    4  C4  UNL     1     -34.412  15.144  -7.201  1.00 20.00     0.055 C 
HETATM    5  N7  UNL     1     -35.456  14.095  -5.216  1.00 20.00     0.102 N 
HETATM    6  S8  UNL     1     -36.130  16.631  -5.663  1.00 20.00    -0.132 SA
ENDROOT
BRANCH   5   7
HETATM    7  C6  UNL     1     -34.460  13.157  -4.707  1.00 20.00     0.269 C 
HETATM    8  C5  UNL     1     -33.509  13.834  -3.779  1.00 20.00     0.037 C 
ENDBRANCH   5   7
TORSDOF 1
ENDMDL
