MODEL 1
REMARK VINA RESULT:      -4.2      0.000      0.000
REMARK  1 active torsions:
REMARK  status: ('A' for Active; 'I' for Inactive)
REMARK    1  A    between atoms: C8_8  and  N10_10 
ROOT
HETATM    1  C1  UNL     1     -37.620  15.075  -3.661  1.00 20.00     0.089 C 
HETATM    2  C8  UNL     1     -36.577  16.074  -3.431  1.00 20.00     0.396 C 
HETATM    3  N9  UNL     1     -38.451  14.286  -3.843  1.00 20.00    -0.195 NA
ENDROOT
BRANCH   2   4
HETATM    4  N10 UNL     1     -35.290  15.433  -3.183  1.00 20.00     0.110 N 
HETATM    5  C5  UNL     1     -34.179  16.431  -3.058  1.00 20.00     0.283 C 
HETATM    6  C6  UNL     1     -33.149  15.929  -4.091  1.00 20.00     0.038 C 
HETATM    7  C2  UNL     1     -32.662  14.565  -3.656  1.00 20.00    -0.022 C 
HETATM    8  C4  UNL     1     -34.087  15.503  -5.214  1.00 20.00     0.050 C 
HETATM    9  C3  UNL     1     -33.702  13.727  -3.787  1.00 20.00     0.005 C 
HETATM   10  C7  UNL     1     -34.863  14.552  -4.304  1.00 20.00     0.247 C 
ENDBRANCH   2   4
TORSDOF 1
ENDMDL
MODEL 2
REMARK VINA RESULT:      -4.2     11.135     12.791
REMARK  1 active torsions:
REMARK  status: ('A' for Active; 'I' for Inactive)
REMARK    1  A    between atoms: C8_8  and  N10_10 
ROOT
HETATM    1  C1  UNL     1     -41.866   2.647  -3.100  1.00 20.00     0.089 C 
HETATM    2  C8  UNL     1     -42.630   3.608  -2.306  1.00 20.00     0.396 C 
HETATM    3  N9  UNL     1     -41.262   1.881  -3.729  1.00 20.00    -0.195 NA
ENDROOT
BRANCH   2   4
HETATM    4  N10 UNL     1     -41.863   4.829  -2.090  1.00 20.00     0.110 N 
HETATM    5  C5  UNL     1     -40.773   4.639  -1.079  1.00 20.00     0.283 C 
HETATM    6  C6  UNL     1     -41.046   5.768  -0.063  1.00 20.00     0.038 C 
HETATM    7  C2  UNL     1     -40.866   7.096  -0.764  1.00 20.00    -0.022 C 
HETATM    8  C4  UNL     1     -42.569   5.723  -0.020  1.00 20.00     0.050 C 
HETATM    9  C3  UNL     1     -41.866   7.198  -1.653  1.00 20.00     0.005 C 
HETATM   10  C7  UNL     1     -42.690   5.933  -1.528  1.00 20.00     0.247 C 
ENDBRANCH   2   4
TORSDOF 1
ENDMDL
MODEL 3
REMARK VINA RESULT:      -4.1      1.856      3.482
REMARK  1 active torsions:
REMARK  status: ('A' for Active; 'I' for Inactive)
REMARK    1  A    between atoms: C8_8  and  N10_10 
ROOT
HETATM    1  C1  UNL     1     -34.451  13.691  -4.045  1.00 20.00     0.089 C 
HETATM    2  C8  UNL     1     -33.748  14.885  -3.577  1.00 20.00     0.396 C 
HETATM    3  N9  UNL     1     -35.006  12.744  -4.420  1.00 20.00    -0.195 NA
ENDROOT
BRANCH   2   4
HETATM    4  N10 UNL     1     -34.490  15.539  -2.506  1.00 20.00     0.110 N 
HETATM    5  C5  UNL     1     -35.759  16.166  -3.000  1.00 20.00     0.283 C 
HETATM    6  C6  UNL     1     -35.635  17.623  -2.507  1.00 20.00     0.038 C 
HETATM    7  C2  UNL     1     -35.625  17.617  -0.995  1.00 20.00    -0.022 C 
HETATM    8  C4  UNL     1     -34.151  17.863  -2.757  1.00 20.00     0.050 C 
HETATM    9  C3  UNL     1     -34.472  17.039  -0.622  1.00 20.00     0.005 C 
HETATM   10  C7  UNL     1     -33.739  16.670  -1.895  1.00 20.00     0.247 C 
ENDBRANCH   2   4
TORSDOF 1
ENDMDL
MODEL 4
REMARK VINA RESULT:      -4.1      1.192      1.837
REMARK  1 active torsions:
REMARK  status: ('A' for Active; 'I' for Inactive)
REMARK    1  A    between atoms: C8_8  and  N10_10 
ROOT
HETATM    1  C1  UNL     1     -37.738  14.881  -4.327  1.00 20.00     0.089 C 
HETATM    2  C8  UNL     1     -36.626  15.597  -4.950  1.00 20.00     0.396 C 
HETATM    3  N9  UNL     1     -38.623  14.312  -3.837  1.00 20.00    -0.195 NA
ENDROOT
BRANCH   2   4
HETATM    4  N10 UNL     1     -35.806  16.260  -3.942  1.00 20.00     0.110 N 
HETATM    5  C5  UNL     1     -34.508  16.753  -4.508  1.00 20.00     0.283 C 
HETATM    6  C6  UNL     1     -33.462  16.123  -3.566  1.00 20.00     0.038 C 
HETATM    7  C2  UNL     1     -33.662  16.690  -2.179  1.00 20.00    -0.022 C 
HETATM    8  C4  UNL     1     -34.087  14.749  -3.357  1.00 20.00     0.050 C 
HETATM    9  C3  UNL     1     -34.838  16.215  -1.738  1.00 20.00     0.005 C 
HETATM   10  C7  UNL     1     -35.397  15.343  -2.842  1.00 20.00     0.247 C 
ENDBRANCH   2   4
TORSDOF 1
ENDMDL
MODEL 5
REMARK VINA RESULT:      -4.0      1.757      3.113
REMARK  1 active torsions:
REMARK  status: ('A' for Active; 'I' for Inactive)
REMARK    1  A    between atoms: C8_8  and  N10_10 
ROOT
HETATM    1  C1  UNL     1     -35.372  13.655  -4.207  1.00 20.00     0.089 C 
HETATM    2  C8  UNL     1     -36.104  14.756  -3.584  1.00 20.00     0.396 C 
HETATM    3  N9  UNL     1     -34.793  12.779  -4.701  1.00 20.00    -0.195 NA
ENDROOT
BRANCH   2   4
HETATM    4  N10 UNL     1     -35.300  15.973  -3.569  1.00 20.00     0.110 N 
HETATM    5  C5  UNL     1     -33.873  15.702  -3.198  1.00 20.00     0.283 C 
HETATM    6  C6  UNL     1     -33.635  16.673  -2.023  1.00 20.00     0.038 C 
HETATM    7  C2  UNL     1     -33.768  18.089  -2.536  1.00 20.00    -0.022 C 
HETATM    8  C4  UNL     1     -34.973  16.551  -1.303  1.00 20.00     0.050 C 
HETATM    9  C3  UNL     1     -35.061  18.260  -2.855  1.00 20.00     0.005 C 
HETATM   10  C7  UNL     1     -35.762  16.953  -2.548  1.00 20.00     0.247 C 
ENDBRANCH   2   4
TORSDOF 1
ENDMDL
MODEL 6
REMARK VINA RESULT:      -4.0      2.066      2.901
REMARK  1 active torsions:
REMARK  status: ('A' for Active; 'I' for Inactive)
REMARK    1  A    between atoms: C8_8  and  N10_10 
ROOT
HETATM    1  C1  UNL     1     -34.328  16.936  -1.234  1.00 20.00     0.089 C 
HETATM    2  C8  UNL     1     -33.783  17.096  -2.582  1.00 20.00     0.396 C 
HETATM    3  N9  UNL     1     -34.759  16.812  -0.165  1.00 20.00    -0.195 NA
ENDROOT
BRANCH   2   4
HETATM    4  N10 UNL     1     -33.689  15.809  -3.262  1.00 20.00     0.110 N 
HETATM    5  C5  UNL     1     -33.311  15.960  -4.704  1.00 20.00     0.283 C 
HETATM    6  C6  UNL     1     -34.427  15.185  -5.434  1.00 20.00     0.038 C 
HETATM    7  C2  UNL     1     -34.339  13.729  -5.034  1.00 20.00    -0.022 C 
HETATM    8  C4  UNL     1     -35.629  15.595  -4.592  1.00 20.00     0.050 C 
HETATM    9  C3  UNL     1     -34.683  13.668  -3.737  1.00 20.00     0.005 C 
HETATM   10  C7  UNL     1     -34.990  15.086  -3.301  1.00 20.00     0.247 C 
ENDBRANCH   2   4
TORSDOF 1
ENDMDL
MODEL 7
REMARK VINA RESULT:      -4.0      1.958      2.802
REMARK  1 active torsions:
REMARK  status: ('A' for Active; 'I' for Inactive)
REMARK    1  A    between atoms: C8_8  and  N10_10 
ROOT
HETATM    1  C1  UNL     1     -35.710  14.902  -7.335  1.00 20.00     0.089 C 
HETATM    2  C8  UNL     1     -34.411  15.086  -6.690  1.00 20.00     0.396 C 
HETATM    3  N9  UNL     1     -36.739  14.756  -7.851  1.00 20.00    -0.195 NA
ENDROOT
BRANCH   2   4
HETATM    4  N10 UNL     1     -34.571  15.619  -5.341  1.00 20.00     0.110 N 
HETATM    5  C5  UNL     1     -33.272  16.097  -4.766  1.00 20.00     0.283 C 
HETATM    6  C6  UNL     1     -33.191  15.337  -3.425  1.00 20.00     0.038 C 
HETATM    7  C2  UNL     1     -34.335  15.792  -2.548  1.00 20.00    -0.022 C 
HETATM    8  C4  UNL     1     -33.740  13.982  -3.855  1.00 20.00     0.050 C 
HETATM    9  C3  UNL     1     -35.461  15.338  -3.121  1.00 20.00     0.005 C 
HETATM   10  C7  UNL     1     -35.042  14.592  -4.371  1.00 20.00     0.247 C 
ENDBRANCH   2   4
TORSDOF 1
ENDMDL
MODEL 8
REMARK VINA RESULT:      -3.9      1.605      3.287
REMARK  1 active torsions:
REMARK  status: ('A' for Active; 'I' for Inactive)
REMARK    1  A    between atoms: C8_8  and  N10_10 
ROOT
HETATM    1  C1  UNL     1     -34.101  17.076  -1.780  1.00 20.00     0.089 C 
HETATM    2  C8  UNL     1     -34.920  15.894  -2.042  1.00 20.00     0.396 C 
HETATM    3  N9  UNL     1     -33.451  18.014  -1.567  1.00 20.00    -0.195 NA
ENDROOT
BRANCH   2   4
HETATM    4  N10 UNL     1     -35.048  15.658  -3.476  1.00 20.00     0.110 N 
HETATM    5  C5  UNL     1     -35.939  14.491  -3.778  1.00 20.00     0.283 C 
HETATM    6  C6  UNL     1     -35.053  13.608  -4.681  1.00 20.00     0.038 C 
HETATM    7  C2  UNL     1     -34.759  14.368  -5.954  1.00 20.00    -0.022 C 
HETATM    8  C4  UNL     1     -33.709  13.779  -3.982  1.00 20.00     0.050 C 
HETATM    9  C3  UNL     1     -33.967  15.396  -5.612  1.00 20.00     0.005 C 
HETATM   10  C7  UNL     1     -33.752  15.300  -4.116  1.00 20.00     0.247 C 
ENDBRANCH   2   4
TORSDOF 1
ENDMDL
MODEL 9
REMARK VINA RESULT:      -3.9      2.237      3.573
REMARK  1 active torsions:
REMARK  status: ('A' for Active; 'I' for Inactive)
REMARK    1  A    between atoms: C8_8  and  N10_10 
ROOT
HETATM    1  C1  UNL     1     -33.681  18.291  -5.862  1.00 20.00     0.089 C 
HETATM    2  C8  UNL     1     -33.563  17.658  -4.550  1.00 20.00     0.396 C 
HETATM    3  N9  UNL     1     -33.775  18.797  -6.902  1.00 20.00    -0.195 NA
ENDROOT
BRANCH   2   4
HETATM    4  N10 UNL     1     -33.810  16.223  -4.640  1.00 20.00     0.110 N 
HETATM    5  C5  UNL     1     -35.273  15.909  -4.745  1.00 20.00     0.283 C 
HETATM    6  C6  UNL     1     -35.491  14.906  -3.594  1.00 20.00     0.038 C 
HETATM    7  C2  UNL     1     -34.680  13.662  -3.883  1.00 20.00    -0.022 C 
HETATM    8  C4  UNL     1     -34.601  15.530  -2.525  1.00 20.00     0.050 C 
HETATM    9  C3  UNL     1     -33.389  14.015  -3.779  1.00 20.00     0.005 C 
HETATM   10  C7  UNL     1     -33.366  15.487  -3.425  1.00 20.00     0.247 C 
ENDBRANCH   2   4
TORSDOF 1
ENDMDL
