MODEL 1
REMARK VINA RESULT:      -5.0      0.000      0.000
REMARK  1 active torsions:
REMARK  status: ('A' for Active; 'I' for Inactive)
REMARK    1  A    between atoms: C6_6  and  C7_7 
ROOT
HETATM    1  C1  UNL     1     -37.158  16.718  -3.416  1.00 20.00    -0.003 C 
HETATM    2  C2  UNL     1     -36.559  15.685  -4.256  1.00 20.00     0.015 C 
HETATM    3  C3  UNL     1     -34.817  15.048  -2.680  1.00 20.00     0.011 C 
HETATM    4  C4  UNL     1     -36.619  17.718  -2.692  1.00 20.00    -0.026 C 
HETATM    5  C5  UNL     1     -33.955  16.079  -2.678  1.00 20.00    -0.021 C 
HETATM    6  C6  UNL     1     -35.542  14.866  -3.918  1.00 20.00     0.009 C 
HETATM    7  C8  UNL     1     -35.187  18.191  -2.528  1.00 20.00     0.035 C 
HETATM    8  C9  UNL     1     -34.184  17.269  -1.780  1.00 20.00     0.007 C 
HETATM    9  C11 UNL     1     -34.621  16.967  -0.344  1.00 20.00     0.014 C 
ENDROOT
BRANCH   6  10
HETATM   10  C7  UNL     1     -35.135  13.824  -4.865  1.00 20.00     0.155 C 
HETATM   11  C10 UNL     1     -34.956  14.214  -6.309  1.00 20.00     0.096 C 
HETATM   12  O12 UNL     1     -34.956  12.668  -4.483  1.00 20.00    -0.293 OA
ENDBRANCH   6  10
TORSDOF 1
ENDMDL
MODEL 2
REMARK VINA RESULT:      -5.0      1.580      2.163
REMARK  1 active torsions:
REMARK  status: ('A' for Active; 'I' for Inactive)
REMARK    1  A    between atoms: C6_6  and  C7_7 
ROOT
HETATM    1  C1  UNL     1     -33.674  17.710  -4.365  1.00 20.00    -0.003 C 
HETATM    2  C2  UNL     1     -33.486  16.264  -4.438  1.00 20.00     0.015 C 
HETATM    3  C3  UNL     1     -35.122  15.704  -2.724  1.00 20.00     0.011 C 
HETATM    4  C4  UNL     1     -33.755  18.558  -3.322  1.00 20.00    -0.026 C 
HETATM    5  C5  UNL     1     -34.564  16.098  -1.568  1.00 20.00    -0.021 C 
HETATM    6  C6  UNL     1     -34.180  15.329  -3.757  1.00 20.00     0.009 C 
HETATM    7  C8  UNL     1     -33.613  18.341  -1.827  1.00 20.00     0.035 C 
HETATM    8  C9  UNL     1     -34.710  17.521  -1.091  1.00 20.00     0.007 C 
HETATM    9  C11 UNL     1     -36.100  18.147  -1.225  1.00 20.00     0.014 C 
ENDROOT
BRANCH   6  10
HETATM   10  C7  UNL     1     -33.910  13.915  -4.032  1.00 20.00     0.155 C 
HETATM   11  C10 UNL     1     -34.861  13.178  -4.938  1.00 20.00     0.096 C 
HETATM   12  O12 UNL     1     -32.937  13.356  -3.525  1.00 20.00    -0.293 OA
ENDBRANCH   6  10
TORSDOF 1
ENDMDL
MODEL 3
REMARK VINA RESULT:      -4.9      2.217      4.450
REMARK  1 active torsions:
REMARK  status: ('A' for Active; 'I' for Inactive)
REMARK    1  A    between atoms: C6_6  and  C7_7 
ROOT
HETATM    1  C1  UNL     1     -33.418  17.002  -4.974  1.00 20.00    -0.003 C 
HETATM    2  C2  UNL     1     -33.640  17.390  -3.584  1.00 20.00     0.015 C 
HETATM    3  C3  UNL     1     -34.273  15.176  -2.796  1.00 20.00     0.011 C 
HETATM    4  C4  UNL     1     -34.142  16.253  -5.829  1.00 20.00    -0.026 C 
HETATM    5  C5  UNL     1     -35.489  14.954  -3.322  1.00 20.00    -0.021 C 
HETATM    6  C6  UNL     1     -33.958  16.569  -2.563  1.00 20.00     0.009 C 
HETATM    7  C8  UNL     1     -35.496  15.582  -5.690  1.00 20.00     0.035 C 
HETATM    8  C9  UNL     1     -35.631  14.382  -4.711  1.00 20.00     0.007 C 
HETATM    9  C11 UNL     1     -34.699  13.222  -5.071  1.00 20.00     0.014 C 
ENDROOT
BRANCH   6  10
HETATM   10  C7  UNL     1     -34.050  17.131  -1.213  1.00 20.00     0.155 C 
HETATM   11  C10 UNL     1     -33.256  18.375  -0.911  1.00 20.00     0.096 C 
HETATM   12  O12 UNL     1     -34.751  16.590  -0.358  1.00 20.00    -0.293 OA
ENDBRANCH   6  10
TORSDOF 1
ENDMDL
MODEL 4
REMARK VINA RESULT:      -4.8      2.048      4.656
REMARK  1 active torsions:
REMARK  status: ('A' for Active; 'I' for Inactive)
REMARK    1  A    between atoms: C6_6  and  C7_7 
ROOT
HETATM    1  C1  UNL     1     -34.582  13.631  -3.949  1.00 20.00    -0.003 C 
HETATM    2  C2  UNL     1     -34.182  14.753  -3.106  1.00 20.00     0.015 C 
HETATM    3  C3  UNL     1     -35.753  16.357  -4.047  1.00 20.00     0.011 C 
HETATM    4  C4  UNL     1     -34.810  13.531  -5.273  1.00 20.00    -0.026 C 
HETATM    5  C5  UNL     1     -35.284  16.623  -5.277  1.00 20.00    -0.021 C 
HETATM    6  C6  UNL     1     -34.744  15.979  -3.081  1.00 20.00     0.009 C 
HETATM    7  C8  UNL     1     -34.669  14.535  -6.402  1.00 20.00     0.035 C 
HETATM    8  C9  UNL     1     -35.649  15.742  -6.446  1.00 20.00     0.007 C 
HETATM    9  C11 UNL     1     -37.113  15.307  -6.542  1.00 20.00     0.014 C 
ENDROOT
BRANCH   6  10
HETATM   10  C7  UNL     1     -34.262  16.953  -2.098  1.00 20.00     0.155 C 
HETATM   11  C10 UNL     1     -34.618  16.730  -0.651  1.00 20.00     0.096 C 
HETATM   12  O12 UNL     1     -33.595  17.924  -2.456  1.00 20.00    -0.293 OA
ENDBRANCH   6  10
TORSDOF 1
ENDMDL
MODEL 5
REMARK VINA RESULT:      -4.7      1.741      2.604
REMARK  1 active torsions:
REMARK  status: ('A' for Active; 'I' for Inactive)
REMARK    1  A    between atoms: C6_6  and  C7_7 
ROOT
HETATM    1  C1  UNL     1     -34.751  16.699  -1.760  1.00 20.00    -0.003 C 
HETATM    2  C2  UNL     1     -34.577  15.403  -2.408  1.00 20.00     0.015 C 
HETATM    3  C3  UNL     1     -33.319  16.235  -4.318  1.00 20.00     0.011 C 
HETATM    4  C4  UNL     1     -35.122  17.904  -2.235  1.00 20.00    -0.026 C 
HETATM    5  C5  UNL     1     -34.215  16.909  -5.058  1.00 20.00    -0.021 C 
HETATM    6  C6  UNL     1     -33.872  15.155  -3.530  1.00 20.00     0.009 C 
HETATM    7  C8  UNL     1     -35.566  18.355  -3.614  1.00 20.00     0.035 C 
HETATM    8  C9  UNL     1     -34.521  18.357  -4.764  1.00 20.00     0.007 C 
HETATM    9  C11 UNL     1     -33.322  19.261  -4.468  1.00 20.00     0.014 C 
ENDROOT
BRANCH   6  10
HETATM   10  C7  UNL     1     -33.735  13.767  -3.981  1.00 20.00     0.155 C 
HETATM   11  C10 UNL     1     -34.824  13.197  -4.850  1.00 20.00     0.096 C 
HETATM   12  O12 UNL     1     -32.758  13.096  -3.646  1.00 20.00    -0.293 OA
ENDBRANCH   6  10
TORSDOF 1
ENDMDL
MODEL 6
REMARK VINA RESULT:      -4.5      2.326      4.529
REMARK  1 active torsions:
REMARK  status: ('A' for Active; 'I' for Inactive)
REMARK    1  A    between atoms: C6_6  and  C7_7 
ROOT
HETATM    1  C1  UNL     1     -36.104  14.786  -3.812  1.00 20.00    -0.003 C 
HETATM    2  C2  UNL     1     -35.392  15.567  -2.805  1.00 20.00     0.015 C 
HETATM    3  C3  UNL     1     -34.554  17.262  -4.338  1.00 20.00     0.011 C 
HETATM    4  C4  UNL     1     -35.748  14.353  -5.038  1.00 20.00    -0.026 C 
HETATM    5  C5  UNL     1     -33.612  16.638  -5.066  1.00 20.00    -0.021 C 
HETATM    6  C6  UNL     1     -34.741  16.731  -3.005  1.00 20.00     0.009 C 
HETATM    7  C8  UNL     1     -34.446  14.458  -5.809  1.00 20.00     0.035 C 
HETATM    8  C9  UNL     1     -33.988  15.860  -6.302  1.00 20.00     0.007 C 
HETATM    9  C11 UNL     1     -35.005  16.515  -7.239  1.00 20.00     0.014 C 
ENDROOT
BRANCH   6  10
HETATM   10  C7  UNL     1     -34.161  17.419  -1.849  1.00 20.00     0.155 C 
HETATM   11  C10 UNL     1     -34.545  16.936  -0.474  1.00 20.00     0.096 C 
HETATM   12  O12 UNL     1     -33.392  18.367  -2.007  1.00 20.00    -0.293 OA
ENDBRANCH   6  10
TORSDOF 1
ENDMDL
MODEL 7
REMARK VINA RESULT:      -4.5      2.214      3.819
REMARK  1 active torsions:
REMARK  status: ('A' for Active; 'I' for Inactive)
REMARK    1  A    between atoms: C6_6  and  C7_7 
ROOT
HETATM    1  C1  UNL     1     -35.932  14.632  -7.014  1.00 20.00    -0.003 C 
HETATM    2  C2  UNL     1     -34.808  14.523  -6.088  1.00 20.00     0.015 C 
HETATM    3  C3  UNL     1     -36.154  14.172  -4.090  1.00 20.00     0.011 C 
HETATM    4  C4  UNL     1     -37.091  15.316  -6.952  1.00 20.00    -0.026 C 
HETATM    5  C5  UNL     1     -36.730  15.360  -3.845  1.00 20.00    -0.021 C 
HETATM    6  C6  UNL     1     -34.879  14.244  -4.771  1.00 20.00     0.009 C 
HETATM    7  C8  UNL     1     -37.638  16.287  -5.923  1.00 20.00     0.035 C 
HETATM    8  C9  UNL     1     -38.025  15.740  -4.520  1.00 20.00     0.007 C 
HETATM    9  C11 UNL     1     -39.103  14.656  -4.589  1.00 20.00     0.014 C 
ENDROOT
BRANCH   6  10
HETATM   10  C7  UNL     1     -33.632  14.084  -4.019  1.00 20.00     0.155 C 
HETATM   11  C10 UNL     1     -32.873  15.329  -3.638  1.00 20.00     0.096 C 
HETATM   12  O12 UNL     1     -33.222  12.962  -3.720  1.00 20.00    -0.293 OA
ENDBRANCH   6  10
TORSDOF 1
ENDMDL
MODEL 8
REMARK VINA RESULT:      -4.5      2.199      3.285
REMARK  1 active torsions:
REMARK  status: ('A' for Active; 'I' for Inactive)
REMARK    1  A    between atoms: C6_6  and  C7_7 
ROOT
HETATM    1  C1  UNL     1     -34.793  16.150  -7.391  1.00 20.00    -0.003 C 
HETATM    2  C2  UNL     1     -34.418  15.019  -6.548  1.00 20.00     0.015 C 
HETATM    3  C3  UNL     1     -35.134  16.016  -4.446  1.00 20.00     0.011 C 
HETATM    4  C4  UNL     1     -34.593  17.476  -7.265  1.00 20.00    -0.026 C 
HETATM    5  C5  UNL     1     -34.238  16.985  -4.197  1.00 20.00    -0.021 C 
HETATM    6  C6  UNL     1     -34.627  14.904  -5.221  1.00 20.00     0.009 C 
HETATM    7  C8  UNL     1     -33.842  18.293  -6.230  1.00 20.00     0.035 C 
HETATM    8  C9  UNL     1     -34.413  18.363  -4.786  1.00 20.00     0.007 C 
HETATM    9  C11 UNL     1     -35.825  18.950  -4.740  1.00 20.00     0.014 C 
ENDROOT
BRANCH   6  10
HETATM   10  C7  UNL     1     -34.261  13.649  -4.558  1.00 20.00     0.155 C 
HETATM   11  C10 UNL     1     -33.088  13.665  -3.613  1.00 20.00     0.096 C 
HETATM   12  O12 UNL     1     -34.896  12.618  -4.782  1.00 20.00    -0.293 OA
ENDBRANCH   6  10
TORSDOF 1
ENDMDL
MODEL 9
REMARK VINA RESULT:      -4.4      2.136      3.435
REMARK  1 active torsions:
REMARK  status: ('A' for Active; 'I' for Inactive)
REMARK    1  A    between atoms: C6_6  and  C7_7 
ROOT
HETATM    1  C1  UNL     1     -34.492  13.641  -4.262  1.00 20.00    -0.003 C 
HETATM    2  C2  UNL     1     -35.942  13.783  -4.169  1.00 20.00     0.015 C 
HETATM    3  C3  UNL     1     -36.030  16.076  -4.982  1.00 20.00     0.011 C 
HETATM    4  C4  UNL     1     -33.480  14.445  -3.881  1.00 20.00    -0.026 C 
HETATM    5  C5  UNL     1     -35.515  16.818  -3.988  1.00 20.00    -0.021 C 
HETATM    6  C6  UNL     1     -36.670  14.850  -4.555  1.00 20.00     0.009 C 
HETATM    7  C8  UNL     1     -33.463  15.774  -3.150  1.00 20.00     0.035 C 
HETATM    8  C9  UNL     1     -34.025  17.027  -3.879  1.00 20.00     0.007 C 
HETATM    9  C11 UNL     1     -33.281  17.333  -5.181  1.00 20.00     0.014 C 
ENDROOT
BRANCH   6  10
HETATM   10  C7  UNL     1     -38.131  14.772  -4.468  1.00 20.00     0.155 C 
HETATM   11  C10 UNL     1     -38.933  15.188  -5.674  1.00 20.00     0.096 C 
HETATM   12  O12 UNL     1     -38.675  14.385  -3.434  1.00 20.00    -0.293 OA
ENDBRANCH   6  10
TORSDOF 1
ENDMDL
