MODEL 1
REMARK VINA RESULT:      -4.9      0.000      0.000
REMARK  1 active torsions:
REMARK  status: ('A' for Active; 'I' for Inactive)
REMARK    1  A    between atoms: C3_3  and  C8_8 
ROOT
HETATM    1  C1  UNL     1     -34.554  14.682  -5.515  1.00 20.00    -0.084 C 
HETATM    2  C2  UNL     1     -35.159  14.479  -6.688  1.00 20.00     0.015 C 
HETATM    3  C4  UNL     1     -33.566  15.778  -5.203  1.00 20.00     0.038 C 
HETATM    4  C5  UNL     1     -33.241  13.906  -3.760  1.00 20.00     0.014 C 
HETATM    5  C6  UNL     1     -34.453  15.745  -2.840  1.00 20.00     0.021 C 
HETATM    6  C7  UNL     1     -34.682  13.823  -4.273  1.00 20.00     0.028 C 
HETATM    7  C8  UNL     1     -35.430  14.605  -3.178  1.00 20.00     0.095 C 
HETATM    8  C9  UNL     1     -33.232  15.437  -3.737  1.00 20.00    -0.009 C 
ENDROOT
BRANCH   7   9
HETATM    9  C3  UNL     1     -36.795  15.092  -3.623  1.00 20.00     0.177 C 
HETATM   10  O10 UNL     1     -36.908  16.344  -3.740  1.00 20.00    -0.648 OA
HETATM   11  O11 UNL     1     -37.646  14.180  -3.819  1.00 20.00    -0.648 OA
ENDBRANCH   7   9
TORSDOF 1
ENDMDL
MODEL 2
REMARK VINA RESULT:      -4.8      1.360      2.881
REMARK  1 active torsions:
REMARK  status: ('A' for Active; 'I' for Inactive)
REMARK    1  A    between atoms: C3_3  and  C8_8 
ROOT
HETATM    1  C1  UNL     1     -34.353  16.073  -3.376  1.00 20.00    -0.084 C 
HETATM    2  C2  UNL     1     -34.508  16.046  -2.049  1.00 20.00     0.015 C 
HETATM    3  C4  UNL     1     -33.049  15.928  -4.121  1.00 20.00     0.038 C 
HETATM    4  C5  UNL     1     -34.639  17.144  -5.419  1.00 20.00     0.014 C 
HETATM    5  C6  UNL     1     -34.368  14.839  -5.978  1.00 20.00     0.021 C 
HETATM    6  C7  UNL     1     -35.437  16.318  -4.406  1.00 20.00     0.028 C 
HETATM    7  C8  UNL     1     -35.688  15.029  -5.209  1.00 20.00     0.095 C 
HETATM    8  C9  UNL     1     -33.545  16.084  -5.572  1.00 20.00    -0.009 C 
ENDROOT
BRANCH   7   9
HETATM    9  C3  UNL     1     -36.052  13.846  -4.335  1.00 20.00     0.177 C 
HETATM   10  O10 UNL     1     -35.204  12.910  -4.314  1.00 20.00    -0.648 OA
HETATM   11  O11 UNL     1     -37.160  13.948  -3.737  1.00 20.00    -0.648 OA
ENDBRANCH   7   9
TORSDOF 1
ENDMDL
MODEL 3
REMARK VINA RESULT:      -4.7      1.544      2.077
REMARK  1 active torsions:
REMARK  status: ('A' for Active; 'I' for Inactive)
REMARK    1  A    between atoms: C3_3  and  C8_8 
ROOT
HETATM    1  C1  UNL     1     -34.490  15.658  -5.927  1.00 20.00    -0.084 C 
HETATM    2  C2  UNL     1     -34.453  15.007  -7.093  1.00 20.00     0.015 C 
HETATM    3  C4  UNL     1     -35.232  16.941  -5.649  1.00 20.00     0.038 C 
HETATM    4  C5  UNL     1     -33.392  16.682  -4.153  1.00 20.00     0.014 C 
HETATM    5  C6  UNL     1     -35.541  16.111  -3.284  1.00 20.00     0.021 C 
HETATM    6  C7  UNL     1     -33.747  15.282  -4.660  1.00 20.00     0.028 C 
HETATM    7  C8  UNL     1     -34.752  14.825  -3.588  1.00 20.00     0.095 C 
HETATM    8  C9  UNL     1     -34.845  17.167  -4.174  1.00 20.00    -0.009 C 
ENDROOT
BRANCH   7   9
HETATM    9  C3  UNL     1     -35.628  13.675  -4.045  1.00 20.00     0.177 C 
HETATM   10  O10 UNL     1     -35.008  12.646  -4.433  1.00 20.00    -0.648 OA
HETATM   11  O11 UNL     1     -36.870  13.895  -3.979  1.00 20.00    -0.648 OA
ENDBRANCH   7   9
TORSDOF 1
ENDMDL
MODEL 4
REMARK VINA RESULT:      -4.7      2.036      2.938
REMARK  1 active torsions:
REMARK  status: ('A' for Active; 'I' for Inactive)
REMARK    1  A    between atoms: C3_3  and  C8_8 
ROOT
HETATM    1  C1  UNL     1     -34.907  15.525  -5.902  1.00 20.00    -0.084 C 
HETATM    2  C2  UNL     1     -34.199  15.156  -6.973  1.00 20.00     0.015 C 
HETATM    3  C4  UNL     1     -36.406  15.686  -5.841  1.00 20.00     0.038 C 
HETATM    4  C5  UNL     1     -35.337  17.040  -4.192  1.00 20.00     0.014 C 
HETATM    5  C6  UNL     1     -36.265  14.979  -3.422  1.00 20.00     0.021 C 
HETATM    6  C7  UNL     1     -34.355  15.920  -4.547  1.00 20.00     0.028 C 
HETATM    7  C8  UNL     1     -34.733  14.854  -3.504  1.00 20.00     0.095 C 
HETATM    8  C9  UNL     1     -36.572  16.153  -4.381  1.00 20.00    -0.009 C 
ENDROOT
BRANCH   7   9
HETATM    9  C3  UNL     1     -34.262  13.463  -3.878  1.00 20.00     0.177 C 
HETATM   10  O10 UNL     1     -35.160  12.687  -4.309  1.00 20.00    -0.648 OA
HETATM   11  O11 UNL     1     -33.026  13.258  -3.711  1.00 20.00    -0.648 OA
ENDBRANCH   7   9
TORSDOF 1
ENDMDL
MODEL 5
REMARK VINA RESULT:      -4.7      1.430      2.062
REMARK  1 active torsions:
REMARK  status: ('A' for Active; 'I' for Inactive)
REMARK    1  A    between atoms: C3_3  and  C8_8 
ROOT
HETATM    1  C1  UNL     1     -33.870  14.833  -3.589  1.00 20.00    -0.084 C 
HETATM    2  C2  UNL     1     -33.604  13.559  -3.888  1.00 20.00     0.015 C 
HETATM    3  C4  UNL     1     -33.204  16.045  -4.191  1.00 20.00     0.038 C 
HETATM    4  C5  UNL     1     -34.064  16.539  -2.021  1.00 20.00     0.014 C 
HETATM    5  C6  UNL     1     -35.392  17.262  -3.869  1.00 20.00     0.021 C 
HETATM    6  C7  UNL     1     -34.846  15.329  -2.540  1.00 20.00     0.028 C 
HETATM    7  C8  UNL     1     -36.037  16.019  -3.228  1.00 20.00     0.095 C 
HETATM    8  C9  UNL     1     -33.918  17.166  -3.411  1.00 20.00    -0.009 C 
ENDROOT
BRANCH   7   9
HETATM    9  C3  UNL     1     -36.747  15.127  -4.226  1.00 20.00     0.177 C 
HETATM   10  O10 UNL     1     -36.645  15.480  -5.434  1.00 20.00    -0.648 OA
HETATM   11  O11 UNL     1     -37.352  14.140  -3.719  1.00 20.00    -0.648 OA
ENDBRANCH   7   9
TORSDOF 1
ENDMDL
MODEL 6
REMARK VINA RESULT:      -4.6      1.777      3.410
REMARK  1 active torsions:
REMARK  status: ('A' for Active; 'I' for Inactive)
REMARK    1  A    between atoms: C3_3  and  C8_8 
ROOT
HETATM    1  C1  UNL     1     -34.577  15.497  -2.820  1.00 20.00    -0.084 C 
HETATM    2  C2  UNL     1     -34.819  16.306  -1.785  1.00 20.00     0.015 C 
HETATM    3  C4  UNL     1     -35.553  14.526  -3.436  1.00 20.00     0.038 C 
HETATM    4  C5  UNL     1     -33.304  13.830  -3.823  1.00 20.00     0.014 C 
HETATM    5  C6  UNL     1     -34.390  14.937  -5.638  1.00 20.00     0.021 C 
HETATM    6  C7  UNL     1     -33.258  15.336  -3.550  1.00 20.00     0.028 C 
HETATM    7  C8  UNL     1     -33.386  15.899  -4.978  1.00 20.00     0.095 C 
HETATM    8  C9  UNL     1     -34.663  13.898  -4.527  1.00 20.00    -0.009 C 
ENDROOT
BRANCH   7   9
HETATM    9  C3  UNL     1     -33.831  17.347  -5.008  1.00 20.00     0.177 C 
HETATM   10  O10 UNL     1     -33.038  18.167  -4.465  1.00 20.00    -0.648 OA
HETATM   11  O11 UNL     1     -34.942  17.549  -5.574  1.00 20.00    -0.648 OA
ENDBRANCH   7   9
TORSDOF 1
ENDMDL
MODEL 7
REMARK VINA RESULT:      -4.6      1.813      2.953
REMARK  1 active torsions:
REMARK  status: ('A' for Active; 'I' for Inactive)
REMARK    1  A    between atoms: C3_3  and  C8_8 
ROOT
HETATM    1  C1  UNL     1     -35.772  15.971  -3.616  1.00 20.00    -0.084 C 
HETATM    2  C2  UNL     1     -37.097  15.946  -3.785  1.00 20.00     0.015 C 
HETATM    3  C4  UNL     1     -35.040  15.813  -2.307  1.00 20.00     0.038 C 
HETATM    4  C5  UNL     1     -33.726  17.045  -3.871  1.00 20.00     0.014 C 
HETATM    5  C6  UNL     1     -33.170  14.738  -3.617  1.00 20.00     0.021 C 
HETATM    6  C7  UNL     1     -34.731  16.227  -4.687  1.00 20.00     0.028 C 
HETATM    7  C8  UNL     1     -33.925  14.940  -4.943  1.00 20.00     0.095 C 
HETATM    8  C9  UNL     1     -33.584  15.973  -2.786  1.00 20.00    -0.009 C 
ENDROOT
BRANCH   7   9
HETATM    9  C3  UNL     1     -34.796  13.761  -5.327  1.00 20.00     0.177 C 
HETATM   10  O10 UNL     1     -34.794  12.800  -4.508  1.00 20.00    -0.648 OA
HETATM   11  O11 UNL     1     -35.413  13.891  -6.422  1.00 20.00    -0.648 OA
ENDBRANCH   7   9
TORSDOF 1
ENDMDL
MODEL 8
REMARK VINA RESULT:      -4.5      2.165      2.914
REMARK  1 active torsions:
REMARK  status: ('A' for Active; 'I' for Inactive)
REMARK    1  A    between atoms: C3_3  and  C8_8 
ROOT
HETATM    1  C1  UNL     1     -35.181  14.465  -6.060  1.00 20.00    -0.084 C 
HETATM    2  C2  UNL     1     -35.066  14.624  -7.382  1.00 20.00     0.015 C 
HETATM    3  C4  UNL     1     -34.686  13.286  -5.261  1.00 20.00     0.038 C 
HETATM    4  C5  UNL     1     -36.498  14.368  -4.147  1.00 20.00     0.014 C 
HETATM    5  C6  UNL     1     -34.310  14.891  -3.349  1.00 20.00     0.021 C 
HETATM    6  C7  UNL     1     -35.885  15.400  -5.098  1.00 20.00     0.028 C 
HETATM    7  C8  UNL     1     -34.849  16.071  -4.177  1.00 20.00     0.095 C 
HETATM    8  C9  UNL     1     -35.154  13.696  -3.850  1.00 20.00    -0.009 C 
ENDROOT
BRANCH   7   9
HETATM    9  C3  UNL     1     -33.771  16.815  -4.939  1.00 20.00     0.177 C 
HETATM   10  O10 UNL     1     -34.163  17.834  -5.573  1.00 20.00    -0.648 OA
HETATM   11  O11 UNL     1     -32.613  16.318  -4.841  1.00 20.00    -0.648 OA
ENDBRANCH   7   9
TORSDOF 1
ENDMDL
MODEL 9
REMARK VINA RESULT:      -4.4      0.995      2.725
REMARK  1 active torsions:
REMARK  status: ('A' for Active; 'I' for Inactive)
REMARK    1  A    between atoms: C3_3  and  C8_8 
ROOT
HETATM    1  C1  UNL     1     -34.613  15.606  -3.013  1.00 20.00    -0.084 C 
HETATM    2  C2  UNL     1     -34.704  16.077  -1.766  1.00 20.00     0.015 C 
HETATM    3  C4  UNL     1     -33.969  14.307  -3.427  1.00 20.00     0.038 C 
HETATM    4  C5  UNL     1     -33.957  15.874  -5.227  1.00 20.00     0.014 C 
HETATM    5  C6  UNL     1     -35.660  14.202  -5.299  1.00 20.00     0.021 C 
HETATM    6  C7  UNL     1     -35.078  16.303  -4.276  1.00 20.00     0.028 C 
HETATM    7  C8  UNL     1     -36.278  15.546  -4.872  1.00 20.00     0.095 C 
HETATM    8  C9  UNL     1     -34.163  14.380  -4.955  1.00 20.00    -0.009 C 
ENDROOT
BRANCH   7   9
HETATM    9  C3  UNL     1     -37.431  15.398  -3.899  1.00 20.00     0.177 C 
HETATM   10  O10 UNL     1     -37.795  14.211  -3.672  1.00 20.00    -0.648 OA
HETATM   11  O11 UNL     1     -37.880  16.486  -3.439  1.00 20.00    -0.648 OA
ENDBRANCH   7   9
TORSDOF 1
ENDMDL
