MODEL 1
REMARK VINA RESULT:      -3.9      0.000      0.000
REMARK  4 active torsions:
REMARK  status: ('A' for Active; 'I' for Inactive)
REMARK    1  A    between atoms: C1_1  and  C7_7 
REMARK    2  A    between atoms: C6_6  and  O10_10 
REMARK    3  A    between atoms: C7_7  and  C8_8 
REMARK    4  A    between atoms: C7_7  and  O10_10 
ROOT
HETATM    1  C7  UNL     1     -35.193  14.984  -3.118  1.00 20.00     0.193 C 
ENDROOT
BRANCH   1   2
HETATM    2  C1  UNL     1     -34.525  13.753  -3.723  1.00 20.00     0.152 C 
HETATM    3  C2  UNL     1     -33.020  13.681  -3.658  1.00 20.00     0.093 C 
HETATM    4  O9  UNL     1     -35.175  12.845  -4.243  1.00 20.00    -0.296 OA
ENDBRANCH   1   2
BRANCH   1   5
HETATM    5  C8  UNL     1     -34.176  15.993  -2.555  1.00 20.00     0.014 C 
HETATM    6  C4  UNL     1     -33.980  17.204  -3.474  1.00 20.00     0.012 C 
HETATM    7  C5  UNL     1     -34.612  16.478  -1.168  1.00 20.00     0.012 C 
ENDBRANCH   1   5
BRANCH   1   8
HETATM    8  O10 UNL     1     -35.996  15.605  -4.112  1.00 20.00    -0.378 OA
BRANCH   8   9
HETATM    9  C6  UNL     1     -37.316  15.847  -3.641  1.00 20.00     0.164 C 
HETATM   10  C3  UNL     1     -38.218  14.723  -4.103  1.00 20.00     0.033 C 
ENDBRANCH   8   9
ENDBRANCH   1   8
TORSDOF 4
ENDMDL
MODEL 2
REMARK VINA RESULT:      -3.9      1.948      3.336
REMARK  4 active torsions:
REMARK  status: ('A' for Active; 'I' for Inactive)
REMARK    1  A    between atoms: C1_1  and  C7_7 
REMARK    2  A    between atoms: C6_6  and  O10_10 
REMARK    3  A    between atoms: C7_7  and  C8_8 
REMARK    4  A    between atoms: C7_7  and  O10_10 
ROOT
HETATM    1  C7  UNL     1     -35.425  14.876  -4.611  1.00 20.00     0.193 C 
ENDROOT
BRANCH   1   2
HETATM    2  C1  UNL     1     -36.907  15.025  -4.279  1.00 20.00     0.152 C 
HETATM    3  C2  UNL     1     -37.559  16.343  -4.609  1.00 20.00     0.093 C 
HETATM    4  O9  UNL     1     -37.556  14.114  -3.764  1.00 20.00    -0.296 OA
ENDBRANCH   1   2
BRANCH   1   5
HETATM    5  C8  UNL     1     -34.567  14.574  -3.370  1.00 20.00     0.014 C 
HETATM    6  C4  UNL     1     -33.317  13.754  -3.707  1.00 20.00     0.012 C 
HETATM    7  C5  UNL     1     -34.147  15.876  -2.678  1.00 20.00     0.012 C 
ENDBRANCH   1   5
BRANCH   1   8
HETATM    8  O10 UNL     1     -35.273  13.841  -5.573  1.00 20.00    -0.378 OA
BRANCH   8   9
HETATM    9  C6  UNL     1     -35.292  14.353  -6.899  1.00 20.00     0.164 C 
HETATM   10  C3  UNL     1     -34.286  15.479  -7.007  1.00 20.00     0.033 C 
ENDBRANCH   8   9
ENDBRANCH   1   8
TORSDOF 4
ENDMDL
MODEL 3
REMARK VINA RESULT:      -3.8      2.222      3.067
REMARK  4 active torsions:
REMARK  status: ('A' for Active; 'I' for Inactive)
REMARK    1  A    between atoms: C1_1  and  C7_7 
REMARK    2  A    between atoms: C6_6  and  O10_10 
REMARK    3  A    between atoms: C7_7  and  C8_8 
REMARK    4  A    between atoms: C7_7  and  O10_10 
ROOT
HETATM    1  C7  UNL     1     -35.010  14.840  -5.217  1.00 20.00     0.193 C 
ENDROOT
BRANCH   1   2
HETATM    2  C1  UNL     1     -34.378  13.598  -4.595  1.00 20.00     0.152 C 
HETATM    3  C2  UNL     1     -33.206  13.809  -3.672  1.00 20.00     0.093 C 
HETATM    4  O9  UNL     1     -34.800  12.465  -4.827  1.00 20.00    -0.296 OA
ENDBRANCH   1   2
BRANCH   1   5
HETATM    5  C8  UNL     1     -34.538  15.085  -6.661  1.00 20.00     0.014 C 
HETATM    6  C4  UNL     1     -35.480  14.466  -7.700  1.00 20.00     0.012 C 
HETATM    7  C5  UNL     1     -34.401  16.588  -6.935  1.00 20.00     0.012 C 
ENDBRANCH   1   5
BRANCH   1   8
HETATM    8  O10 UNL     1     -36.424  14.701  -5.183  1.00 20.00    -0.378 OA
BRANCH   8   9
HETATM    9  C6  UNL     1     -36.958  15.096  -3.925  1.00 20.00     0.164 C 
HETATM   10  C3  UNL     1     -36.458  16.486  -3.593  1.00 20.00     0.033 C 
ENDBRANCH   8   9
ENDBRANCH   1   8
TORSDOF 4
ENDMDL
MODEL 4
REMARK VINA RESULT:      -3.8      1.457      2.753
REMARK  4 active torsions:
REMARK  status: ('A' for Active; 'I' for Inactive)
REMARK    1  A    between atoms: C1_1  and  C7_7 
REMARK    2  A    between atoms: C6_6  and  O10_10 
REMARK    3  A    between atoms: C7_7  and  C8_8 
REMARK    4  A    between atoms: C7_7  and  O10_10 
ROOT
HETATM    1  C7  UNL     1     -34.636  15.242  -3.947  1.00 20.00     0.193 C 
ENDROOT
BRANCH   1   2
HETATM    2  C1  UNL     1     -34.258  13.764  -3.909  1.00 20.00     0.152 C 
HETATM    3  C2  UNL     1     -32.861  13.420  -3.462  1.00 20.00     0.093 C 
HETATM    4  O9  UNL     1     -35.054  12.878  -4.225  1.00 20.00    -0.296 OA
ENDBRANCH   1   2
BRANCH   1   5
HETATM    5  C8  UNL     1     -35.486  15.668  -2.737  1.00 20.00     0.014 C 
HETATM    6  C4  UNL     1     -34.645  16.297  -1.621  1.00 20.00     0.012 C 
HETATM    7  C5  UNL     1     -36.576  16.657  -3.167  1.00 20.00     0.012 C 
ENDBRANCH   1   5
BRANCH   1   8
HETATM    8  O10 UNL     1     -33.447  16.018  -4.005  1.00 20.00    -0.378 OA
BRANCH   8   9
HETATM    9  C6  UNL     1     -33.337  16.714  -5.240  1.00 20.00     0.164 C 
HETATM   10  C3  UNL     1     -33.590  18.187  -5.000  1.00 20.00     0.033 C 
ENDBRANCH   8   9
ENDBRANCH   1   8
TORSDOF 4
ENDMDL
MODEL 5
REMARK VINA RESULT:      -3.8      2.056      3.508
REMARK  4 active torsions:
REMARK  status: ('A' for Active; 'I' for Inactive)
REMARK    1  A    between atoms: C1_1  and  C7_7 
REMARK    2  A    between atoms: C6_6  and  O10_10 
REMARK    3  A    between atoms: C7_7  and  C8_8 
REMARK    4  A    between atoms: C7_7  and  O10_10 
ROOT
HETATM    1  C7  UNL     1     -34.575  15.183  -4.816  1.00 20.00     0.193 C 
ENDROOT
BRANCH   1   2
HETATM    2  C1  UNL     1     -35.508  14.066  -4.359  1.00 20.00     0.152 C 
HETATM    3  C2  UNL     1     -36.928  14.444  -4.025  1.00 20.00     0.093 C 
HETATM    4  O9  UNL     1     -35.130  12.897  -4.264  1.00 20.00    -0.296 OA
ENDBRANCH   1   2
BRANCH   1   5
HETATM    5  C8  UNL     1     -34.947  15.735  -6.203  1.00 20.00     0.014 C 
HETATM    6  C4  UNL     1     -34.298  17.093  -6.488  1.00 20.00     0.012 C 
HETATM    7  C5  UNL     1     -34.547  14.743  -7.302  1.00 20.00     0.012 C 
ENDBRANCH   1   5
BRANCH   1   8
HETATM    8  O10 UNL     1     -34.604  16.227  -3.853  1.00 20.00    -0.378 OA
BRANCH   8   9
HETATM    9  C6  UNL     1     -33.819  15.906  -2.711  1.00 20.00     0.164 C 
HETATM   10  C3  UNL     1     -34.560  16.343  -1.465  1.00 20.00     0.033 C 
ENDBRANCH   8   9
ENDBRANCH   1   8
TORSDOF 4
ENDMDL
MODEL 6
REMARK VINA RESULT:      -3.8      1.846      3.199
REMARK  4 active torsions:
REMARK  status: ('A' for Active; 'I' for Inactive)
REMARK    1  A    between atoms: C1_1  and  C7_7 
REMARK    2  A    between atoms: C6_6  and  O10_10 
REMARK    3  A    between atoms: C7_7  and  C8_8 
REMARK    4  A    between atoms: C7_7  and  O10_10 
ROOT
HETATM    1  C7  UNL     1     -34.857  15.038  -4.748  1.00 20.00     0.193 C 
ENDROOT
BRANCH   1   2
HETATM    2  C1  UNL     1     -34.368  13.685  -4.239  1.00 20.00     0.152 C 
HETATM    3  C2  UNL     1     -33.005  13.641  -3.597  1.00 20.00     0.093 C 
HETATM    4  O9  UNL     1     -35.050  12.664  -4.338  1.00 20.00    -0.296 OA
ENDBRANCH   1   2
BRANCH   1   5
HETATM    5  C8  UNL     1     -35.669  14.922  -6.050  1.00 20.00     0.014 C 
HETATM    6  C4  UNL     1     -36.653  16.084  -6.234  1.00 20.00     0.012 C 
HETATM    7  C5  UNL     1     -34.735  14.855  -7.263  1.00 20.00     0.012 C 
ENDBRANCH   1   5
BRANCH   1   8
HETATM    8  O10 UNL     1     -35.642  15.653  -3.737  1.00 20.00    -0.378 OA
BRANCH   8   9
HETATM    9  C6  UNL     1     -34.923  16.684  -3.071  1.00 20.00     0.164 C 
HETATM   10  C3  UNL     1     -34.739  16.297  -1.619  1.00 20.00     0.033 C 
ENDBRANCH   8   9
ENDBRANCH   1   8
TORSDOF 4
ENDMDL
MODEL 7
REMARK VINA RESULT:      -3.7      2.052      3.793
REMARK  4 active torsions:
REMARK  status: ('A' for Active; 'I' for Inactive)
REMARK    1  A    between atoms: C1_1  and  C7_7 
REMARK    2  A    between atoms: C6_6  and  O10_10 
REMARK    3  A    between atoms: C7_7  and  C8_8 
REMARK    4  A    between atoms: C7_7  and  O10_10 
ROOT
HETATM    1  C7  UNL     1     -33.910  16.132  -3.568  1.00 20.00     0.193 C 
ENDROOT
BRANCH   1   2
HETATM    2  C1  UNL     1     -33.976  17.078  -2.372  1.00 20.00     0.152 C 
HETATM    3  C2  UNL     1     -34.569  16.538  -1.096  1.00 20.00     0.093 C 
HETATM    4  O9  UNL     1     -33.562  18.237  -2.432  1.00 20.00    -0.296 OA
ENDBRANCH   1   2
BRANCH   1   5
HETATM    5  C8  UNL     1     -34.461  14.732  -3.246  1.00 20.00     0.014 C 
HETATM    6  C4  UNL     1     -35.879  14.520  -3.788  1.00 20.00     0.012 C 
HETATM    7  C5  UNL     1     -33.537  13.647  -3.812  1.00 20.00     0.012 C 
ENDBRANCH   1   5
BRANCH   1   8
HETATM    8  O10 UNL     1     -34.635  16.706  -4.647  1.00 20.00    -0.378 OA
BRANCH   8   9
HETATM    9  C6  UNL     1     -33.814  16.879  -5.795  1.00 20.00     0.164 C 
HETATM   10  C3  UNL     1     -34.197  15.847  -6.834  1.00 20.00     0.033 C 
ENDBRANCH   8   9
ENDBRANCH   1   8
TORSDOF 4
ENDMDL
MODEL 8
REMARK VINA RESULT:      -3.7      2.135      3.707
REMARK  4 active torsions:
REMARK  status: ('A' for Active; 'I' for Inactive)
REMARK    1  A    between atoms: C1_1  and  C7_7 
REMARK    2  A    between atoms: C6_6  and  O10_10 
REMARK    3  A    between atoms: C7_7  and  C8_8 
REMARK    4  A    between atoms: C7_7  and  O10_10 
ROOT
HETATM    1  C7  UNL     1     -34.453  14.826  -5.310  1.00 20.00     0.193 C 
ENDROOT
BRANCH   1   2
HETATM    2  C1  UNL     1     -34.251  13.623  -4.393  1.00 20.00     0.152 C 
HETATM    3  C2  UNL     1     -33.013  13.608  -3.535  1.00 20.00     0.093 C 
HETATM    4  O9  UNL     1     -35.061  12.695  -4.345  1.00 20.00    -0.296 OA
ENDBRANCH   1   2
BRANCH   1   5
HETATM    5  C8  UNL     1     -35.450  14.544  -6.447  1.00 20.00     0.014 C 
HETATM    6  C4  UNL     1     -36.758  15.326  -6.289  1.00 20.00     0.012 C 
HETATM    7  C5  UNL     1     -34.824  14.877  -7.806  1.00 20.00     0.012 C 
ENDBRANCH   1   5
BRANCH   1   8
HETATM    8  O10 UNL     1     -34.901  15.926  -4.530  1.00 20.00    -0.378 OA
BRANCH   8   9
HETATM    9  C6  UNL     1     -33.862  16.872  -4.315  1.00 20.00     0.164 C 
HETATM   10  C3  UNL     1     -33.634  17.652  -5.592  1.00 20.00     0.033 C 
ENDBRANCH   8   9
ENDBRANCH   1   8
TORSDOF 4
ENDMDL
MODEL 9
REMARK VINA RESULT:      -3.7      1.599      2.068
REMARK  4 active torsions:
REMARK  status: ('A' for Active; 'I' for Inactive)
REMARK    1  A    between atoms: C1_1  and  C7_7 
REMARK    2  A    between atoms: C6_6  and  O10_10 
REMARK    3  A    between atoms: C7_7  and  C8_8 
REMARK    4  A    between atoms: C7_7  and  O10_10 
ROOT
HETATM    1  C7  UNL     1     -35.727  15.737  -3.498  1.00 20.00     0.193 C 
ENDROOT
BRANCH   1   2
HETATM    2  C1  UNL     1     -36.323  14.388  -3.890  1.00 20.00     0.152 C 
HETATM    3  C2  UNL     1     -35.373  13.334  -4.396  1.00 20.00     0.093 C 
HETATM    4  O9  UNL     1     -37.529  14.156  -3.800  1.00 20.00    -0.296 OA
ENDBRANCH   1   2
BRANCH   1   5
HETATM    5  C8  UNL     1     -34.532  15.600  -2.538  1.00 20.00     0.014 C 
HETATM    6  C4  UNL     1     -33.202  15.979  -3.198  1.00 20.00     0.012 C 
HETATM    7  C5  UNL     1     -34.742  16.466  -1.290  1.00 20.00     0.012 C 
ENDBRANCH   1   5
BRANCH   1   8
HETATM    8  O10 UNL     1     -35.329  16.423  -4.676  1.00 20.00    -0.378 OA
BRANCH   8   9
HETATM    9  C6  UNL     1     -36.354  17.289  -5.148  1.00 20.00     0.164 C 
HETATM   10  C3  UNL     1     -36.670  18.309  -4.074  1.00 20.00     0.033 C 
ENDBRANCH   8   9
ENDBRANCH   1   8
TORSDOF 4
ENDMDL
