MODEL 1
REMARK VINA RESULT:      -4.7      0.000      0.000
REMARK  1 active torsions:
REMARK  status: ('A' for Active; 'I' for Inactive)
REMARK    1  A    between atoms: C2_2  and  C3_3 
ROOT
HETATM    1  C1  UNL     1     -33.407  15.238  -3.686  1.00 20.00    -0.010 A 
HETATM    2  C2  UNL     1     -34.597  14.689  -3.975  1.00 20.00    -0.016 A 
HETATM    3  C4  UNL     1     -35.656  15.204  -3.042  1.00 20.00     0.048 A 
HETATM    4  C5  UNL     1     -33.455  16.155  -2.532  1.00 20.00     0.022 A 
HETATM    5  C6  UNL     1     -34.919  16.143  -2.103  1.00 20.00     0.007 A 
HETATM    6  C7  UNL     1     -34.254  17.442  -2.527  1.00 20.00    -0.036 A 
HETATM    7  C9  UNL     1     -33.936  18.433  -1.431  1.00 20.00     0.016 C 
HETATM    8  C10 UNL     1     -34.642  18.108  -3.824  1.00 20.00     0.016 C 
ENDROOT
BRANCH   2   9
HETATM    9  C3  UNL     1     -34.831  13.751  -5.056  1.00 20.00     0.151 C 
HETATM   10  C8  UNL     1     -35.057  14.295  -6.452  1.00 20.00     0.096 C 
HETATM   11  O11 UNL     1     -34.857  12.527  -4.851  1.00 20.00    -0.293 OA
ENDBRANCH   2   9
TORSDOF 1
ENDMDL
MODEL 2
REMARK VINA RESULT:      -4.6      2.463      3.204
REMARK  1 active torsions:
REMARK  status: ('A' for Active; 'I' for Inactive)
REMARK    1  A    between atoms: C2_2  and  C3_3 
ROOT
HETATM    1  C1  UNL     1     -33.975  16.252  -2.339  1.00 20.00    -0.010 A 
HETATM    2  C2  UNL     1     -34.124  17.237  -3.238  1.00 20.00    -0.016 A 
HETATM    3  C4  UNL     1     -35.035  18.305  -2.702  1.00 20.00     0.048 A 
HETATM    4  C5  UNL     1     -34.757  16.465  -1.108  1.00 20.00     0.022 A 
HETATM    5  C6  UNL     1     -35.454  17.803  -1.332  1.00 20.00     0.007 A 
HETATM    6  C7  UNL     1     -34.509  17.616  -0.156  1.00 20.00    -0.036 A 
HETATM    7  C9  UNL     1     -35.140  17.511   1.213  1.00 20.00     0.016 C 
HETATM    8  C10 UNL     1     -33.174  18.317  -0.133  1.00 20.00     0.016 C 
ENDROOT
BRANCH   2   9
HETATM    9  C3  UNL     1     -33.474  17.277  -4.533  1.00 20.00     0.151 C 
HETATM   10  C8  UNL     1     -33.658  18.506  -5.399  1.00 20.00     0.096 C 
HETATM   11  O11 UNL     1     -32.786  16.326  -4.937  1.00 20.00    -0.293 OA
ENDBRANCH   2   9
TORSDOF 1
ENDMDL
MODEL 3
REMARK VINA RESULT:      -4.5      2.483      4.693
REMARK  1 active torsions:
REMARK  status: ('A' for Active; 'I' for Inactive)
REMARK    1  A    between atoms: C2_2  and  C3_3 
ROOT
HETATM    1  C1  UNL     1     -33.835  17.284  -3.568  1.00 20.00    -0.010 A 
HETATM    2  C2  UNL     1     -33.969  17.278  -2.233  1.00 20.00    -0.016 A 
HETATM    3  C4  UNL     1     -34.702  16.045  -1.784  1.00 20.00     0.048 A 
HETATM    4  C5  UNL     1     -34.458  16.119  -4.221  1.00 20.00     0.022 A 
HETATM    5  C6  UNL     1     -35.027  15.301  -3.066  1.00 20.00     0.007 A 
HETATM    6  C7  UNL     1     -33.991  14.695  -4.000  1.00 20.00    -0.036 A 
HETATM    7  C9  UNL     1     -34.485  13.660  -4.983  1.00 20.00     0.016 C 
HETATM    8  C10 UNL     1     -32.594  14.415  -3.506  1.00 20.00     0.016 C 
ENDROOT
BRANCH   2   9
HETATM    9  C3  UNL     1     -33.456  18.304  -1.347  1.00 20.00     0.151 C 
HETATM   10  C8  UNL     1     -33.749  18.195   0.135  1.00 20.00     0.096 C 
HETATM   11  O11 UNL     1     -32.796  19.260  -1.784  1.00 20.00    -0.293 OA
ENDBRANCH   2   9
TORSDOF 1
ENDMDL
MODEL 4
REMARK VINA RESULT:      -4.5      1.453      2.208
REMARK  1 active torsions:
REMARK  status: ('A' for Active; 'I' for Inactive)
REMARK    1  A    between atoms: C2_2  and  C3_3 
ROOT
HETATM    1  C1  UNL     1     -35.878  16.674  -3.259  1.00 20.00    -0.010 A 
HETATM    2  C2  UNL     1     -35.284  15.485  -3.445  1.00 20.00    -0.016 A 
HETATM    3  C4  UNL     1     -33.822  15.569  -3.110  1.00 20.00     0.048 A 
HETATM    4  C5  UNL     1     -34.946  17.727  -2.816  1.00 20.00     0.022 A 
HETATM    5  C6  UNL     1     -33.599  17.018  -2.713  1.00 20.00     0.007 A 
HETATM    6  C7  UNL     1     -34.213  17.682  -1.491  1.00 20.00    -0.036 A 
HETATM    7  C9  UNL     1     -33.575  18.971  -1.026  1.00 20.00     0.016 C 
HETATM    8  C10 UNL     1     -34.738  16.845  -0.353  1.00 20.00     0.016 C 
ENDROOT
BRANCH   2   9
HETATM    9  C3  UNL     1     -35.966  14.283  -3.883  1.00 20.00     0.151 C 
HETATM   10  C8  UNL     1     -35.144  13.165  -4.492  1.00 20.00     0.096 C 
HETATM   11  O11 UNL     1     -37.196  14.164  -3.772  1.00 20.00    -0.293 OA
ENDBRANCH   2   9
TORSDOF 1
ENDMDL
MODEL 5
REMARK VINA RESULT:      -4.5      2.346      4.432
REMARK  1 active torsions:
REMARK  status: ('A' for Active; 'I' for Inactive)
REMARK    1  A    between atoms: C2_2  and  C3_3 
ROOT
HETATM    1  C1  UNL     1     -35.506  15.802  -2.834  1.00 20.00    -0.010 A 
HETATM    2  C2  UNL     1     -34.300  16.199  -2.400  1.00 20.00    -0.016 A 
HETATM    3  C4  UNL     1     -33.211  15.498  -3.162  1.00 20.00     0.048 A 
HETATM    4  C5  UNL     1     -35.436  14.783  -3.897  1.00 20.00     0.022 A 
HETATM    5  C6  UNL     1     -33.942  14.576  -4.122  1.00 20.00     0.007 A 
HETATM    6  C7  UNL     1     -34.832  15.046  -5.261  1.00 20.00    -0.036 A 
HETATM    7  C9  UNL     1     -35.140  14.038  -6.344  1.00 20.00     0.016 C 
HETATM    8  C10 UNL     1     -34.714  16.454  -5.787  1.00 20.00     0.016 C 
ENDROOT
BRANCH   2   9
HETATM    9  C3  UNL     1     -34.080  17.185  -1.361  1.00 20.00     0.151 C 
HETATM   10  C8  UNL     1     -34.814  17.026  -0.044  1.00 20.00     0.096 C 
HETATM   11  O11 UNL     1     -33.317  18.147  -1.538  1.00 20.00    -0.293 OA
ENDBRANCH   2   9
TORSDOF 1
ENDMDL
MODEL 6
REMARK VINA RESULT:      -4.4      1.493      1.769
REMARK  1 active torsions:
REMARK  status: ('A' for Active; 'I' for Inactive)
REMARK    1  A    between atoms: C2_2  and  C3_3 
ROOT
HETATM    1  C1  UNL     1     -33.751  16.225  -4.636  1.00 20.00    -0.010 A 
HETATM    2  C2  UNL     1     -34.565  15.302  -5.170  1.00 20.00    -0.016 A 
HETATM    3  C4  UNL     1     -35.200  14.472  -4.090  1.00 20.00     0.048 A 
HETATM    4  C5  UNL     1     -33.676  16.155  -3.166  1.00 20.00     0.022 A 
HETATM    5  C6  UNL     1     -34.619  15.014  -2.796  1.00 20.00     0.007 A 
HETATM    6  C7  UNL     1     -34.863  16.416  -2.261  1.00 20.00    -0.036 A 
HETATM    7  C9  UNL     1     -34.561  16.648  -0.799  1.00 20.00     0.016 C 
HETATM    8  C10 UNL     1     -36.037  17.225  -2.752  1.00 20.00     0.016 C 
ENDROOT
BRANCH   2   9
HETATM    9  C3  UNL     1     -34.817  15.146  -6.590  1.00 20.00     0.151 C 
HETATM   10  C8  UNL     1     -34.607  16.340  -7.498  1.00 20.00     0.096 C 
HETATM   11  O11 UNL     1     -35.205  14.065  -7.059  1.00 20.00    -0.293 OA
ENDBRANCH   2   9
TORSDOF 1
ENDMDL
MODEL 7
REMARK VINA RESULT:      -4.4     11.521     12.371
REMARK  1 active torsions:
REMARK  status: ('A' for Active; 'I' for Inactive)
REMARK    1  A    between atoms: C2_2  and  C3_3 
ROOT
HETATM    1  C1  UNL     1     -32.439   5.783   3.626  1.00 20.00    -0.010 A 
HETATM    2  C2  UNL     1     -32.852   6.963   3.139  1.00 20.00    -0.016 A 
HETATM    3  C4  UNL     1     -34.346   7.083   3.245  1.00 20.00     0.048 A 
HETATM    4  C5  UNL     1     -33.546   4.927   4.093  1.00 20.00     0.022 A 
HETATM    5  C6  UNL     1     -34.797   5.766   3.851  1.00 20.00     0.007 A 
HETATM    6  C7  UNL     1     -34.447   5.296   5.254  1.00 20.00    -0.036 A 
HETATM    7  C9  UNL     1     -35.295   4.187   5.831  1.00 20.00     0.016 C 
HETATM    8  C10 UNL     1     -33.988   6.285   6.295  1.00 20.00     0.016 C 
ENDROOT
BRANCH   2   9
HETATM    9  C3  UNL     1     -31.974   7.989   2.611  1.00 20.00     0.151 C 
HETATM   10  C8  UNL     1     -32.272   8.562   1.240  1.00 20.00     0.096 C 
HETATM   11  O11 UNL     1     -30.993   8.391   3.256  1.00 20.00    -0.293 OA
ENDBRANCH   2   9
TORSDOF 1
ENDMDL
MODEL 8
REMARK VINA RESULT:      -4.3      2.402      3.675
REMARK  1 active torsions:
REMARK  status: ('A' for Active; 'I' for Inactive)
REMARK    1  A    between atoms: C2_2  and  C3_3 
ROOT
HETATM    1  C1  UNL     1     -35.731  15.672  -5.153  1.00 20.00    -0.010 A 
HETATM    2  C2  UNL     1     -34.834  14.728  -5.479  1.00 20.00    -0.016 A 
HETATM    3  C4  UNL     1     -34.285  14.976  -6.855  1.00 20.00     0.048 A 
HETATM    4  C5  UNL     1     -35.953  16.658  -6.226  1.00 20.00     0.022 A 
HETATM    5  C6  UNL     1     -35.013  16.216  -7.344  1.00 20.00     0.007 A 
HETATM    6  C7  UNL     1     -34.875  17.598  -6.726  1.00 20.00    -0.036 A 
HETATM    7  C9  UNL     1     -35.333  18.767  -7.566  1.00 20.00     0.016 C 
HETATM    8  C10 UNL     1     -33.686  17.928  -5.860  1.00 20.00     0.016 C 
ENDROOT
BRANCH   2   9
HETATM    9  C3  UNL     1     -34.433  13.637  -4.612  1.00 20.00     0.151 C 
HETATM   10  C8  UNL     1     -33.242  13.839  -3.697  1.00 20.00     0.096 C 
HETATM   11  O11 UNL     1     -35.040  12.554  -4.617  1.00 20.00    -0.293 OA
ENDBRANCH   2   9
TORSDOF 1
ENDMDL
MODEL 9
REMARK VINA RESULT:      -4.3      2.201      4.406
REMARK  1 active torsions:
REMARK  status: ('A' for Active; 'I' for Inactive)
REMARK    1  A    between atoms: C2_2  and  C3_3 
ROOT
HETATM    1  C1  UNL     1     -33.574  16.794  -3.328  1.00 20.00    -0.010 A 
HETATM    2  C2  UNL     1     -34.442  16.687  -2.310  1.00 20.00    -0.016 A 
HETATM    3  C4  UNL     1     -35.701  16.004  -2.762  1.00 20.00     0.048 A 
HETATM    4  C5  UNL     1     -34.095  16.253  -4.596  1.00 20.00     0.022 A 
HETATM    5  C6  UNL     1     -35.484  15.732  -4.241  1.00 20.00     0.007 A 
HETATM    6  C7  UNL     1     -34.430  14.790  -4.799  1.00 20.00    -0.036 A 
HETATM    7  C9  UNL     1     -34.618  14.329  -6.226  1.00 20.00     0.016 C 
HETATM    8  C10 UNL     1     -33.811  13.733  -3.918  1.00 20.00     0.016 C 
ENDROOT
BRANCH   2   9
HETATM    9  C3  UNL     1     -34.187  17.143  -0.958  1.00 20.00     0.151 C 
HETATM   10  C8  UNL     1     -33.073  18.144  -0.728  1.00 20.00     0.096 C 
HETATM   11  O11 UNL     1     -34.856  16.722  -0.000  1.00 20.00    -0.293 OA
ENDBRANCH   2   9
TORSDOF 1
ENDMDL
