MODEL 1
REMARK VINA RESULT:      -5.2      0.000      0.000
REMARK  0 active torsions:
REMARK  status: ('A' for Active; 'I' for Inactive)
ROOT
HETATM    1  C1  UNL     1     -33.630   4.960   6.452  1.00 20.00     0.012 A 
HETATM    2  C2  UNL     1     -33.245   5.438   2.638  1.00 20.00     0.006 A 
HETATM    3  C3  UNL     1     -35.576   4.622   5.077  1.00 20.00     0.101 C 
HETATM    4  C4  UNL     1     -34.899   5.301   6.214  1.00 20.00     0.016 A 
HETATM    5  C5  UNL     1     -34.186   5.586   3.585  1.00 20.00     0.035 A 
HETATM    6  C6  UNL     1     -32.213   7.821   2.755  1.00 20.00     0.015 A 
HETATM    7  C7  UNL     1     -33.858   6.298   5.997  1.00 20.00     0.017 A 
HETATM    8  C8  UNL     1     -32.083   6.327   2.813  1.00 20.00     0.015 A 
HETATM    9  C9  UNL     1     -33.776   6.709   4.550  1.00 20.00     0.048 A 
HETATM   10  C10 UNL     1     -32.392   7.119   4.076  1.00 20.00     0.004 A 
HETATM   11  N11 UNL     1     -35.262   4.767   3.822  1.00 20.00    -0.269 NA
ENDROOT
TORSDOF 0
ENDMDL
MODEL 2
REMARK VINA RESULT:      -5.0     12.300     13.443
REMARK  0 active torsions:
REMARK  status: ('A' for Active; 'I' for Inactive)
ROOT
HETATM    1  C1  UNL     1     -32.909  15.051  -3.615  1.00 20.00     0.012 A 
HETATM    2  C2  UNL     1     -33.490  18.425  -1.825  1.00 20.00     0.006 A 
HETATM    3  C3  UNL     1     -33.527  16.945  -4.965  1.00 20.00     0.101 C 
HETATM    4  C4  UNL     1     -33.767  15.550  -4.509  1.00 20.00     0.016 A 
HETATM    5  C5  UNL     1     -33.940  17.763  -2.904  1.00 20.00     0.035 A 
HETATM    6  C6  UNL     1     -35.206  17.532  -0.089  1.00 20.00     0.015 A 
HETATM    7  C7  UNL     1     -34.252  15.259  -3.165  1.00 20.00     0.017 A 
HETATM    8  C8  UNL     1     -33.795  17.756  -0.548  1.00 20.00     0.015 A 
HETATM    9  C9  UNL     1     -34.707  16.509  -2.457  1.00 20.00     0.048 A 
HETATM   10  C10 UNL     1     -34.538  16.488  -0.947  1.00 20.00     0.004 A 
HETATM   11  N11 UNL     1     -33.629  18.006  -4.218  1.00 20.00    -0.269 NA
ENDROOT
TORSDOF 0
ENDMDL
MODEL 3
REMARK VINA RESULT:      -4.8     11.838     12.990
REMARK  0 active torsions:
REMARK  status: ('A' for Active; 'I' for Inactive)
ROOT
HETATM    1  C1  UNL     1     -33.687  13.516  -4.151  1.00 20.00     0.012 A 
HETATM    2  C2  UNL     1     -33.731  17.325  -3.504  1.00 20.00     0.006 A 
HETATM    3  C3  UNL     1     -34.448  14.948  -5.930  1.00 20.00     0.101 C 
HETATM    4  C4  UNL     1     -34.672  13.803  -5.007  1.00 20.00     0.016 A 
HETATM    5  C5  UNL     1     -34.414  16.413  -4.215  1.00 20.00     0.035 A 
HETATM    6  C6  UNL     1     -35.129  17.223  -1.315  1.00 20.00     0.015 A 
HETATM    7  C7  UNL     1     -34.905  14.006  -3.582  1.00 20.00     0.017 A 
HETATM    8  C8  UNL     1     -33.822  17.130  -2.047  1.00 20.00     0.015 A 
HETATM    9  C9  UNL     1     -35.149  15.459  -3.261  1.00 20.00     0.048 A 
HETATM   10  C10 UNL     1     -34.695  15.894  -1.878  1.00 20.00     0.004 A 
HETATM   11  N11 UNL     1     -34.347  16.194  -5.569  1.00 20.00    -0.269 NA
ENDROOT
TORSDOF 0
ENDMDL
MODEL 4
REMARK VINA RESULT:      -4.8     11.848     12.807
REMARK  0 active torsions:
REMARK  status: ('A' for Active; 'I' for Inactive)
ROOT
HETATM    1  C1  UNL     1     -34.735  16.523  -1.192  1.00 20.00     0.012 A 
HETATM    2  C2  UNL     1     -36.355  14.799  -4.247  1.00 20.00     0.006 A 
HETATM    3  C3  UNL     1     -35.682  17.928  -2.901  1.00 20.00     0.101 C 
HETATM    4  C4  UNL     1     -34.528  17.521  -2.056  1.00 20.00     0.016 A 
HETATM    5  C5  UNL     1     -35.699  15.935  -3.958  1.00 20.00     0.035 A 
HETATM    6  C6  UNL     1     -34.306  13.321  -4.856  1.00 20.00     0.015 A 
HETATM    7  C7  UNL     1     -33.832  16.258  -2.271  1.00 20.00     0.017 A 
HETATM    8  C8  UNL     1     -35.548  13.582  -4.055  1.00 20.00     0.015 A 
HETATM    9  C9  UNL     1     -34.250  15.608  -3.565  1.00 20.00     0.048 A 
HETATM   10  C10 UNL     1     -34.198  14.089  -3.565  1.00 20.00     0.004 A 
HETATM   11  N11 UNL     1     -36.232  17.193  -3.824  1.00 20.00    -0.269 NA
ENDROOT
TORSDOF 0
ENDMDL
MODEL 5
REMARK VINA RESULT:      -4.7     12.067     13.178
REMARK  0 active torsions:
REMARK  status: ('A' for Active; 'I' for Inactive)
ROOT
HETATM    1  C1  UNL     1     -35.384  17.065  -1.845  1.00 20.00     0.012 A 
HETATM    2  C2  UNL     1     -34.718  15.739  -5.412  1.00 20.00     0.006 A 
HETATM    3  C3  UNL     1     -33.689  18.166  -3.152  1.00 20.00     0.101 C 
HETATM    4  C4  UNL     1     -34.108  17.455  -1.914  1.00 20.00     0.016 A 
HETATM    5  C5  UNL     1     -34.043  16.327  -4.410  1.00 20.00     0.035 A 
HETATM    6  C6  UNL     1     -34.335  13.262  -4.725  1.00 20.00     0.015 A 
HETATM    7  C7  UNL     1     -34.402  16.027  -1.917  1.00 20.00     0.017 A 
HETATM    8  C8  UNL     1     -35.243  14.406  -5.072  1.00 20.00     0.015 A 
HETATM    9  C9  UNL     1     -33.974  15.375  -3.206  1.00 20.00     0.048 A 
HETATM   10  C10 UNL     1     -34.811  14.179  -3.629  1.00 20.00     0.004 A 
HETATM   11  N11 UNL     1     -33.632  17.635  -4.339  1.00 20.00    -0.269 NA
ENDROOT
TORSDOF 0
ENDMDL
MODEL 6
REMARK VINA RESULT:      -4.7     11.805     12.707
REMARK  0 active torsions:
REMARK  status: ('A' for Active; 'I' for Inactive)
ROOT
HETATM    1  C1  UNL     1     -34.431  14.408  -4.932  1.00 20.00     0.012 A 
HETATM    2  C2  UNL     1     -35.713  17.437  -2.905  1.00 20.00     0.006 A 
HETATM    3  C3  UNL     1     -36.715  14.365  -4.174  1.00 20.00     0.101 C 
HETATM    4  C4  UNL     1     -35.364  13.745  -4.244  1.00 20.00     0.016 A 
HETATM    5  C5  UNL     1     -35.926  16.113  -2.987  1.00 20.00     0.035 A 
HETATM    6  C6  UNL     1     -33.819  17.407  -1.126  1.00 20.00     0.015 A 
HETATM    7  C7  UNL     1     -34.230  14.302  -3.519  1.00 20.00     0.017 A 
HETATM    8  C8  UNL     1     -34.350  17.793  -2.476  1.00 20.00     0.015 A 
HETATM    9  C9  UNL     1     -34.665  15.359  -2.536  1.00 20.00     0.048 A 
HETATM   10  C10 UNL     1     -33.646  16.457  -2.282  1.00 20.00     0.004 A 
HETATM   11  N11 UNL     1     -36.998  15.477  -3.561  1.00 20.00    -0.269 NA
ENDROOT
TORSDOF 0
ENDMDL
MODEL 7
REMARK VINA RESULT:      -4.6     11.680     13.756
REMARK  0 active torsions:
REMARK  status: ('A' for Active; 'I' for Inactive)
ROOT
HETATM    1  C1  UNL     1     -35.618  13.876  -4.321  1.00 20.00     0.012 A 
HETATM    2  C2  UNL     1     -33.706  17.218  -4.639  1.00 20.00     0.006 A 
HETATM    3  C3  UNL     1     -33.291  13.900  -3.707  1.00 20.00     0.101 C 
HETATM    4  C4  UNL     1     -34.410  13.341  -4.513  1.00 20.00     0.016 A 
HETATM    5  C5  UNL     1     -33.461  15.901  -4.735  1.00 20.00     0.035 A 
HETATM    6  C6  UNL     1     -34.335  17.668  -7.120  1.00 20.00     0.015 A 
HETATM    7  C7  UNL     1     -35.019  14.095  -5.601  1.00 20.00     0.017 A 
HETATM    8  C8  UNL     1     -34.648  17.722  -5.653  1.00 20.00     0.015 A 
HETATM    9  C9  UNL     1     -34.213  15.322  -5.944  1.00 20.00     0.048 A 
HETATM   10  C10 UNL     1     -35.023  16.494  -6.473  1.00 20.00     0.004 A 
HETATM   11  N11 UNL     1     -32.816  15.106  -3.820  1.00 20.00    -0.269 NA
ENDROOT
TORSDOF 0
ENDMDL
MODEL 8
REMARK VINA RESULT:      -4.6     12.144     13.759
REMARK  0 active torsions:
REMARK  status: ('A' for Active; 'I' for Inactive)
ROOT
HETATM    1  C1  UNL     1     -35.645  15.513  -3.159  1.00 20.00     0.012 A 
HETATM    2  C2  UNL     1     -34.427  16.444  -6.705  1.00 20.00     0.006 A 
HETATM    3  C3  UNL     1     -33.290  15.903  -3.470  1.00 20.00     0.101 C 
HETATM    4  C4  UNL     1     -34.408  15.027  -3.026  1.00 20.00     0.016 A 
HETATM    5  C5  UNL     1     -33.972  15.800  -5.617  1.00 20.00     0.035 A 
HETATM    6  C6  UNL     1     -35.516  14.419  -7.918  1.00 20.00     0.015 A 
HETATM    7  C7  UNL     1     -35.306  14.392  -3.982  1.00 20.00     0.017 A 
HETATM    8  C8  UNL     1     -35.593  15.799  -7.333  1.00 20.00     0.015 A 
HETATM    9  C9  UNL     1     -34.795  14.521  -5.394  1.00 20.00     0.048 A 
HETATM   10  C10 UNL     1     -35.873  14.581  -6.463  1.00 20.00     0.004 A 
HETATM   11  N11 UNL     1     -33.059  16.258  -4.700  1.00 20.00    -0.269 NA
ENDROOT
TORSDOF 0
ENDMDL
MODEL 9
REMARK VINA RESULT:      -4.6     11.523     13.412
REMARK  0 active torsions:
REMARK  status: ('A' for Active; 'I' for Inactive)
ROOT
HETATM    1  C1  UNL     1     -33.048  14.020  -3.601  1.00 20.00     0.012 A 
HETATM    2  C2  UNL     1     -34.129  16.399  -6.448  1.00 20.00     0.006 A 
HETATM    3  C3  UNL     1     -34.827  13.297  -5.053  1.00 20.00     0.101 C 
HETATM    4  C4  UNL     1     -34.308  13.587  -3.689  1.00 20.00     0.016 A 
HETATM    5  C5  UNL     1     -34.674  15.468  -5.647  1.00 20.00     0.035 A 
HETATM    6  C6  UNL     1     -34.530  18.478  -4.940  1.00 20.00     0.015 A 
HETATM    7  C7  UNL     1     -34.070  14.953  -3.237  1.00 20.00     0.017 A 
HETATM    8  C8  UNL     1     -33.621  17.578  -5.726  1.00 20.00     0.015 A 
HETATM    9  C9  UNL     1     -34.653  15.962  -4.192  1.00 20.00     0.048 A 
HETATM   10  C10 UNL     1     -33.909  17.286  -4.260  1.00 20.00     0.004 A 
HETATM   11  N11 UNL     1     -35.027  14.184  -5.984  1.00 20.00    -0.269 NA
ENDROOT
TORSDOF 0
ENDMDL
