MODEL 1
REMARK VINA RESULT:      -4.2      0.000      0.000
REMARK  1 active torsions:
REMARK  status: ('A' for Active; 'I' for Inactive)
REMARK    1  A    between atoms: C6_6  and  N10_10 
ROOT
HETATM    1  C1  UNL     1     -37.385  14.544  -3.989  1.00 20.00     0.066 C 
HETATM    2  C2  UNL     1     -34.112  14.090  -3.636  1.00 20.00    -0.054 C 
HETATM    3  C3  UNL     1     -32.806  13.869  -3.474  1.00 20.00     0.016 C 
HETATM    4  C4  UNL     1     -35.172  13.408  -4.476  1.00 20.00     0.057 C 
HETATM    5  C5  UNL     1     -35.973  14.725  -4.272  1.00 20.00     0.134 C 
HETATM    6  C6  UNL     1     -35.092  15.075  -3.034  1.00 20.00     0.268 C 
HETATM    7  N9  UNL     1     -38.513  14.398  -3.763  1.00 20.00    -0.197 NA
ENDROOT
BRANCH   6   8
HETATM    8  N10 UNL     1     -34.672  16.468  -3.162  1.00 20.00     0.089 N 
HETATM    9  C7  UNL     1     -33.842  16.860  -2.023  1.00 20.00     0.310 C 
HETATM   10  C8  UNL     1     -35.837  17.346  -3.271  1.00 20.00     0.310 C 
ENDBRANCH   6   8
TORSDOF 1
ENDMDL
MODEL 2
REMARK VINA RESULT:      -4.1      1.720      2.802
REMARK  1 active torsions:
REMARK  status: ('A' for Active; 'I' for Inactive)
REMARK    1  A    between atoms: C6_6  and  N10_10 
ROOT
HETATM    1  C1  UNL     1     -34.604  13.704  -4.578  1.00 20.00     0.066 C 
HETATM    2  C2  UNL     1     -34.041  16.212  -2.471  1.00 20.00    -0.054 C 
HETATM    3  C3  UNL     1     -33.802  17.189  -1.594  1.00 20.00     0.016 C 
HETATM    4  C4  UNL     1     -33.133  15.251  -3.210  1.00 20.00     0.057 C 
HETATM    5  C5  UNL     1     -34.346  15.072  -4.168  1.00 20.00     0.134 C 
HETATM    6  C6  UNL     1     -35.303  15.624  -3.067  1.00 20.00     0.268 C 
HETATM    7  N9  UNL     1     -34.811  12.611  -4.905  1.00 20.00    -0.197 NA
ENDROOT
BRANCH   6   8
HETATM    8  N10 UNL     1     -36.174  16.618  -3.687  1.00 20.00     0.089 N 
HETATM    9  C7  UNL     1     -36.895  17.377  -2.666  1.00 20.00     0.310 C 
HETATM   10  C8  UNL     1     -37.115  15.975  -4.604  1.00 20.00     0.310 C 
ENDBRANCH   6   8
TORSDOF 1
ENDMDL
MODEL 3
REMARK VINA RESULT:      -3.9      2.226      2.824
REMARK  1 active torsions:
REMARK  status: ('A' for Active; 'I' for Inactive)
REMARK    1  A    between atoms: C6_6  and  N10_10 
ROOT
HETATM    1  C1  UNL     1     -34.644  14.678  -5.842  1.00 20.00     0.066 C 
HETATM    2  C2  UNL     1     -34.572  15.835  -2.727  1.00 20.00    -0.054 C 
HETATM    3  C3  UNL     1     -34.583  16.282  -1.470  1.00 20.00     0.016 C 
HETATM    4  C4  UNL     1     -34.496  14.444  -3.322  1.00 20.00     0.057 C 
HETATM    5  C5  UNL     1     -34.049  15.180  -4.617  1.00 20.00     0.134 C 
HETATM    6  C6  UNL     1     -34.667  16.508  -4.080  1.00 20.00     0.268 C 
HETATM    7  N9  UNL     1     -35.120  14.276  -6.820  1.00 20.00    -0.197 NA
ENDROOT
BRANCH   6   8
HETATM    8  N10 UNL     1     -33.683  17.570  -4.274  1.00 20.00     0.089 N 
HETATM    9  C7  UNL     1     -34.050  18.757  -3.502  1.00 20.00     0.310 C 
HETATM   10  C8  UNL     1     -33.559  17.902  -5.694  1.00 20.00     0.310 C 
ENDBRANCH   6   8
TORSDOF 1
ENDMDL
MODEL 4
REMARK VINA RESULT:      -3.9      2.525      3.541
REMARK  1 active torsions:
REMARK  status: ('A' for Active; 'I' for Inactive)
REMARK    1  A    between atoms: C6_6  and  N10_10 
ROOT
HETATM    1  C1  UNL     1     -34.417  13.747  -4.278  1.00 20.00     0.066 C 
HETATM    2  C2  UNL     1     -33.974  16.976  -3.631  1.00 20.00    -0.054 C 
HETATM    3  C3  UNL     1     -33.827  18.270  -3.339  1.00 20.00     0.016 C 
HETATM    4  C4  UNL     1     -33.639  15.708  -2.873  1.00 20.00     0.057 C 
HETATM    5  C5  UNL     1     -33.730  15.025  -4.267  1.00 20.00     0.134 C 
HETATM    6  C6  UNL     1     -34.564  16.228  -4.807  1.00 20.00     0.268 C 
HETATM    7  N9  UNL     1     -34.967  12.726  -4.286  1.00 20.00    -0.197 NA
ENDROOT
BRANCH   6   8
HETATM    8  N10 UNL     1     -33.999  16.624  -6.094  1.00 20.00     0.089 N 
HETATM    9  C7  UNL     1     -34.571  17.895  -6.536  1.00 20.00     0.310 C 
HETATM   10  C8  UNL     1     -34.229  15.584  -7.097  1.00 20.00     0.310 C 
ENDBRANCH   6   8
TORSDOF 1
ENDMDL
MODEL 5
REMARK VINA RESULT:      -3.8      2.393      2.979
REMARK  1 active torsions:
REMARK  status: ('A' for Active; 'I' for Inactive)
REMARK    1  A    between atoms: C6_6  and  N10_10 
ROOT
HETATM    1  C1  UNL     1     -34.703  13.859  -4.812  1.00 20.00     0.066 C 
HETATM    2  C2  UNL     1     -33.939  16.987  -5.630  1.00 20.00    -0.054 C 
HETATM    3  C3  UNL     1     -33.597  18.228  -5.982  1.00 20.00     0.016 C 
HETATM    4  C4  UNL     1     -34.477  15.809  -6.416  1.00 20.00     0.057 C 
HETATM    5  C5  UNL     1     -34.928  15.276  -5.025  1.00 20.00     0.134 C 
HETATM    6  C6  UNL     1     -33.901  16.220  -4.326  1.00 20.00     0.268 C 
HETATM    7  N9  UNL     1     -34.523  12.725  -4.642  1.00 20.00    -0.197 NA
ENDROOT
BRANCH   6   8
HETATM    8  N10 UNL     1     -34.589  16.897  -3.230  1.00 20.00     0.089 N 
HETATM    9  C7  UNL     1     -33.792  18.022  -2.742  1.00 20.00     0.310 C 
HETATM   10  C8  UNL     1     -34.867  15.959  -2.142  1.00 20.00     0.310 C 
ENDBRANCH   6   8
TORSDOF 1
ENDMDL
MODEL 6
REMARK VINA RESULT:      -3.8      1.813      3.041
REMARK  1 active torsions:
REMARK  status: ('A' for Active; 'I' for Inactive)
REMARK    1  A    between atoms: C6_6  and  N10_10 
ROOT
HETATM    1  C1  UNL     1     -35.973  14.775  -3.554  1.00 20.00     0.066 C 
HETATM    2  C2  UNL     1     -34.188  17.357  -2.465  1.00 20.00    -0.054 C 
HETATM    3  C3  UNL     1     -33.506  18.409  -2.005  1.00 20.00     0.016 C 
HETATM    4  C4  UNL     1     -34.757  16.127  -1.788  1.00 20.00     0.057 C 
HETATM    5  C5  UNL     1     -34.777  15.527  -3.223  1.00 20.00     0.134 C 
HETATM    6  C6  UNL     1     -34.712  16.964  -3.829  1.00 20.00     0.268 C 
HETATM    7  N9  UNL     1     -36.930  14.174  -3.818  1.00 20.00    -0.197 NA
ENDROOT
BRANCH   6   8
HETATM    8  N10 UNL     1     -33.688  16.964  -4.870  1.00 20.00     0.089 N 
HETATM    9  C7  UNL     1     -33.528  18.305  -5.432  1.00 20.00     0.310 C 
HETATM   10  C8  UNL     1     -34.027  16.007  -5.924  1.00 20.00     0.310 C 
ENDBRANCH   6   8
TORSDOF 1
ENDMDL
MODEL 7
REMARK VINA RESULT:      -3.7      2.666      4.265
REMARK  1 active torsions:
REMARK  status: ('A' for Active; 'I' for Inactive)
REMARK    1  A    between atoms: C6_6  and  N10_10 
ROOT
HETATM    1  C1  UNL     1     -33.617  17.690  -4.901  1.00 20.00     0.066 C 
HETATM    2  C2  UNL     1     -34.975  15.361  -6.843  1.00 20.00    -0.054 C 
HETATM    3  C3  UNL     1     -35.555  14.453  -7.631  1.00 20.00     0.016 C 
HETATM    4  C4  UNL     1     -34.343  16.709  -7.123  1.00 20.00     0.057 C 
HETATM    5  C5  UNL     1     -33.655  16.508  -5.743  1.00 20.00     0.134 C 
HETATM    6  C6  UNL     1     -34.736  15.454  -5.352  1.00 20.00     0.268 C 
HETATM    7  N9  UNL     1     -33.586  18.635  -4.229  1.00 20.00    -0.197 NA
ENDROOT
BRANCH   6   8
HETATM    8  N10 UNL     1     -34.048  14.292  -4.797  1.00 20.00     0.089 N 
HETATM    9  C7  UNL     1     -35.014  13.275  -4.381  1.00 20.00     0.310 C 
HETATM   10  C8  UNL     1     -33.204  14.685  -3.668  1.00 20.00     0.310 C 
ENDBRANCH   6   8
TORSDOF 1
ENDMDL
MODEL 8
REMARK VINA RESULT:      -3.7      2.204      4.034
REMARK  1 active torsions:
REMARK  status: ('A' for Active; 'I' for Inactive)
REMARK    1  A    between atoms: C6_6  and  N10_10 
ROOT
HETATM    1  C1  UNL     1     -34.190  16.410  -2.060  1.00 20.00     0.066 C 
HETATM    2  C2  UNL     1     -34.194  17.053  -5.320  1.00 20.00    -0.054 C 
HETATM    3  C3  UNL     1     -34.224  17.344  -6.622  1.00 20.00     0.016 C 
HETATM    4  C4  UNL     1     -33.647  17.791  -4.116  1.00 20.00     0.057 C 
HETATM    5  C5  UNL     1     -33.695  16.399  -3.424  1.00 20.00     0.134 C 
HETATM    6  C6  UNL     1     -34.716  15.899  -4.492  1.00 20.00     0.268 C 
HETATM    7  N9  UNL     1     -34.585  16.421  -0.970  1.00 20.00    -0.197 NA
ENDROOT
BRANCH   6   8
HETATM    8  N10 UNL     1     -34.267  14.591  -4.964  1.00 20.00     0.089 N 
HETATM    9  C7  UNL     1     -35.105  14.130  -6.070  1.00 20.00     0.310 C 
HETATM   10  C8  UNL     1     -34.283  13.619  -3.871  1.00 20.00     0.310 C 
ENDBRANCH   6   8
TORSDOF 1
ENDMDL
MODEL 9
REMARK VINA RESULT:      -3.7      1.513      3.153
REMARK  1 active torsions:
REMARK  status: ('A' for Active; 'I' for Inactive)
REMARK    1  A    between atoms: C6_6  and  N10_10 
ROOT
HETATM    1  C1  UNL     1     -36.158  17.497  -2.251  1.00 20.00     0.066 C 
HETATM    2  C2  UNL     1     -33.626  15.566  -3.201  1.00 20.00    -0.054 C 
HETATM    3  C3  UNL     1     -32.589  14.827  -3.599  1.00 20.00     0.016 C 
HETATM    4  C4  UNL     1     -33.782  16.622  -2.126  1.00 20.00     0.057 C 
HETATM    5  C5  UNL     1     -35.303  16.325  -2.261  1.00 20.00     0.134 C 
HETATM    6  C6  UNL     1     -35.060  15.697  -3.668  1.00 20.00     0.268 C 
HETATM    7  N9  UNL     1     -36.841  18.434  -2.243  1.00 20.00    -0.197 NA
ENDROOT
BRANCH   6   8
HETATM    8  N10 UNL     1     -35.775  14.424  -3.720  1.00 20.00     0.089 N 
HETATM    9  C7  UNL     1     -35.218  13.565  -4.764  1.00 20.00     0.310 C 
HETATM   10  C8  UNL     1     -37.203  14.647  -3.950  1.00 20.00     0.310 C 
ENDBRANCH   6   8
TORSDOF 1
ENDMDL
