MODEL 1
REMARK VINA RESULT:      -5.1      0.000      0.000
REMARK  1 active torsions:
REMARK  status: ('A' for Active; 'I' for Inactive)
REMARK    1  A    between atoms: C1_1  and  C7_7 
ROOT
HETATM    1  C2  UNL     1     -33.854  17.882  -1.564  1.00 20.00     0.001 C 
HETATM    2  C3  UNL     1     -35.678  15.694  -4.421  1.00 20.00     0.014 C 
HETATM    3  C4  UNL     1     -34.035  18.166  -3.045  1.00 20.00     0.005 C 
HETATM    4  C5  UNL     1     -34.453  16.493  -1.416  1.00 20.00     0.006 C 
HETATM    5  C6  UNL     1     -34.507  16.513  -4.949  1.00 20.00     0.006 C 
HETATM    6  C7  UNL     1     -35.081  14.860  -3.290  1.00 20.00     0.076 C 
HETATM    7  C8  UNL     1     -33.673  16.838  -3.714  1.00 20.00    -0.010 C 
HETATM    8  C9  UNL     1     -33.993  15.742  -2.672  1.00 20.00     0.002 C 
ENDROOT
BRANCH   6   9
HETATM    9  C1  UNL     1     -34.486  13.589  -3.823  1.00 20.00     0.223 C 
HETATM   10  O10 UNL     1     -35.174  12.743  -4.387  1.00 20.00    -0.279 OA
HETATM   11 CL11 UNL     1     -32.775  13.499  -3.537  1.00 20.00    -0.043 Cl
ENDBRANCH   6   9
TORSDOF 1
ENDMDL
MODEL 2
REMARK VINA RESULT:      -4.8      1.650      1.890
REMARK  1 active torsions:
REMARK  status: ('A' for Active; 'I' for Inactive)
REMARK    1  A    between atoms: C1_1  and  C7_7 
ROOT
HETATM    1  C2  UNL     1     -34.620  16.483  -1.403  1.00 20.00     0.001 C 
HETATM    2  C3  UNL     1     -34.548  16.270  -5.431  1.00 20.00     0.014 C 
HETATM    3  C4  UNL     1     -33.593  17.008  -2.391  1.00 20.00     0.005 C 
HETATM    4  C5  UNL     1     -35.601  15.749  -2.303  1.00 20.00     0.006 C 
HETATM    5  C6  UNL     1     -33.158  16.258  -4.805  1.00 20.00     0.006 C 
HETATM    6  C7  UNL     1     -35.277  15.107  -4.764  1.00 20.00     0.076 C 
HETATM    7  C8  UNL     1     -33.390  15.839  -3.357  1.00 20.00    -0.010 C 
HETATM    8  C9  UNL     1     -34.716  15.045  -3.340  1.00 20.00     0.002 C 
ENDROOT
BRANCH   6   9
HETATM    9  C1  UNL     1     -35.006  13.821  -5.490  1.00 20.00     0.223 C 
HETATM   10  O10 UNL     1     -34.762  12.781  -4.887  1.00 20.00    -0.279 OA
HETATM   11 CL11 UNL     1     -35.083  14.016  -7.214  1.00 20.00    -0.043 Cl
ENDBRANCH   6   9
TORSDOF 1
ENDMDL
MODEL 3
REMARK VINA RESULT:      -4.8      2.459      3.847
REMARK  1 active torsions:
REMARK  status: ('A' for Active; 'I' for Inactive)
REMARK    1  A    between atoms: C1_1  and  C7_7 
ROOT
HETATM    1  C2  UNL     1     -34.746  13.098  -4.829  1.00 20.00     0.001 C 
HETATM    2  C3  UNL     1     -33.412  16.904  -4.745  1.00 20.00     0.014 C 
HETATM    3  C4  UNL     1     -35.091  14.274  -5.726  1.00 20.00     0.005 C 
HETATM    4  C5  UNL     1     -33.825  13.726  -3.797  1.00 20.00     0.006 C 
HETATM    5  C6  UNL     1     -34.845  16.782  -5.250  1.00 20.00     0.006 C 
HETATM    6  C7  UNL     1     -33.429  16.225  -3.378  1.00 20.00     0.076 C 
HETATM    7  C8  UNL     1     -35.318  15.423  -4.744  1.00 20.00    -0.010 C 
HETATM    8  C9  UNL     1     -34.455  15.095  -3.505  1.00 20.00     0.002 C 
ENDROOT
BRANCH   6   9
HETATM    9  C1  UNL     1     -33.845  17.192  -2.308  1.00 20.00     0.223 C 
HETATM   10  O10 UNL     1     -33.596  18.391  -2.391  1.00 20.00    -0.279 OA
HETATM   11 CL11 UNL     1     -34.685  16.405  -1.007  1.00 20.00    -0.043 Cl
ENDBRANCH   6   9
TORSDOF 1
ENDMDL
MODEL 4
REMARK VINA RESULT:      -4.7      1.913      2.754
REMARK  1 active torsions:
REMARK  status: ('A' for Active; 'I' for Inactive)
REMARK    1  A    between atoms: C1_1  and  C7_7 
ROOT
HETATM    1  C2  UNL     1     -33.837  18.105  -6.147  1.00 20.00     0.001 C 
HETATM    2  C3  UNL     1     -36.044  14.739  -5.865  1.00 20.00     0.014 C 
HETATM    3  C4  UNL     1     -34.429  17.231  -7.239  1.00 20.00     0.005 C 
HETATM    4  C5  UNL     1     -34.196  17.344  -4.881  1.00 20.00     0.006 C 
HETATM    5  C6  UNL     1     -35.162  14.777  -7.109  1.00 20.00     0.006 C 
HETATM    6  C7  UNL     1     -35.074  14.941  -4.704  1.00 20.00     0.076 C 
HETATM    7  C8  UNL     1     -34.087  15.810  -6.789  1.00 20.00    -0.010 C 
HETATM    8  C9  UNL     1     -33.984  15.870  -5.248  1.00 20.00     0.002 C 
ENDROOT
BRANCH   6   9
HETATM    9  C1  UNL     1     -34.480  13.633  -4.272  1.00 20.00     0.223 C 
HETATM   10  O10 UNL     1     -35.094  12.577  -4.389  1.00 20.00    -0.279 OA
HETATM   11 CL11 UNL     1     -32.883  13.825  -3.617  1.00 20.00    -0.043 Cl
ENDBRANCH   6   9
TORSDOF 1
ENDMDL
MODEL 5
REMARK VINA RESULT:      -4.7      1.134      1.134
REMARK  1 active torsions:
REMARK  status: ('A' for Active; 'I' for Inactive)
REMARK    1  A    between atoms: C1_1  and  C7_7 
ROOT
HETATM    1  C2  UNL     1     -33.936  17.857  -1.375  1.00 20.00     0.001 C 
HETATM    2  C3  UNL     1     -35.536  15.797  -4.453  1.00 20.00     0.014 C 
HETATM    3  C4  UNL     1     -34.117  18.257  -2.828  1.00 20.00     0.005 C 
HETATM    4  C5  UNL     1     -34.423  16.417  -1.363  1.00 20.00     0.006 C 
HETATM    5  C6  UNL     1     -34.426  16.752  -4.881  1.00 20.00     0.006 C 
HETATM    6  C7  UNL     1     -34.890  14.915  -3.388  1.00 20.00     0.076 C 
HETATM    7  C8  UNL     1     -33.640  17.029  -3.604  1.00 20.00    -0.010 C 
HETATM    8  C9  UNL     1     -33.885  15.821  -2.671  1.00 20.00     0.002 C 
ENDROOT
BRANCH   6   9
HETATM    9  C1  UNL     1     -34.186  13.748  -4.018  1.00 20.00     0.223 C 
HETATM   10  O10 UNL     1     -33.178  13.259  -3.520  1.00 20.00    -0.279 OA
HETATM   11 CL11 UNL     1     -34.969  13.224  -5.478  1.00 20.00    -0.043 Cl
ENDBRANCH   6   9
TORSDOF 1
ENDMDL
MODEL 6
REMARK VINA RESULT:      -4.5      1.787      2.840
REMARK  1 active torsions:
REMARK  status: ('A' for Active; 'I' for Inactive)
REMARK    1  A    between atoms: C1_1  and  C7_7 
ROOT
HETATM    1  C2  UNL     1     -34.064  18.246  -5.947  1.00 20.00     0.001 C 
HETATM    2  C3  UNL     1     -33.172  14.926  -3.836  1.00 20.00     0.014 C 
HETATM    3  C4  UNL     1     -33.583  18.100  -4.514  1.00 20.00     0.005 C 
HETATM    4  C5  UNL     1     -34.231  16.802  -6.391  1.00 20.00     0.006 C 
HETATM    5  C6  UNL     1     -33.728  16.054  -2.974  1.00 20.00     0.006 C 
HETATM    6  C7  UNL     1     -34.234  14.708  -4.910  1.00 20.00     0.076 C 
HETATM    7  C8  UNL     1     -34.451  16.970  -3.955  1.00 20.00    -0.010 C 
HETATM    8  C9  UNL     1     -34.832  16.094  -5.170  1.00 20.00     0.002 C 
ENDROOT
BRANCH   6   9
HETATM    9  C1  UNL     1     -35.294  13.761  -4.428  1.00 20.00     0.223 C 
HETATM   10  O10 UNL     1     -35.058  12.571  -4.242  1.00 20.00    -0.279 OA
HETATM   11 CL11 UNL     1     -36.819  14.557  -4.186  1.00 20.00    -0.043 Cl
ENDBRANCH   6   9
TORSDOF 1
ENDMDL
MODEL 7
REMARK VINA RESULT:      -4.4      2.270      2.960
REMARK  1 active torsions:
REMARK  status: ('A' for Active; 'I' for Inactive)
REMARK    1  A    between atoms: C1_1  and  C7_7 
ROOT
HETATM    1  C2  UNL     1     -33.757  16.397  -2.379  1.00 20.00     0.001 C 
HETATM    2  C3  UNL     1     -35.186  13.514  -4.814  1.00 20.00     0.014 C 
HETATM    3  C4  UNL     1     -35.036  15.583  -2.283  1.00 20.00     0.005 C 
HETATM    4  C5  UNL     1     -33.164  15.930  -3.698  1.00 20.00     0.006 C 
HETATM    5  C6  UNL     1     -36.284  14.332  -4.142  1.00 20.00     0.006 C 
HETATM    6  C7  UNL     1     -34.321  14.551  -5.525  1.00 20.00     0.076 C 
HETATM    7  C8  UNL     1     -35.595  15.621  -3.706  1.00 20.00    -0.010 C 
HETATM    8  C9  UNL     1     -34.372  15.796  -4.635  1.00 20.00     0.002 C 
ENDROOT
BRANCH   6   9
HETATM    9  C1  UNL     1     -34.869  14.858  -6.888  1.00 20.00     0.223 C 
HETATM   10  O10 UNL     1     -35.496  14.023  -7.533  1.00 20.00    -0.279 OA
HETATM   11 CL11 UNL     1     -34.503  16.481  -7.389  1.00 20.00    -0.043 Cl
ENDBRANCH   6   9
TORSDOF 1
ENDMDL
MODEL 8
REMARK VINA RESULT:      -4.4      2.630      3.489
REMARK  1 active torsions:
REMARK  status: ('A' for Active; 'I' for Inactive)
REMARK    1  A    between atoms: C1_1  and  C7_7 
ROOT
HETATM    1  C2  UNL     1     -38.280  15.576  -5.109  1.00 20.00     0.001 C 
HETATM    2  C3  UNL     1     -34.989  13.302  -5.631  1.00 20.00     0.014 C 
HETATM    3  C4  UNL     1     -37.366  15.444  -6.314  1.00 20.00     0.005 C 
HETATM    4  C5  UNL     1     -37.595  14.699  -4.074  1.00 20.00     0.006 C 
HETATM    5  C6  UNL     1     -34.940  14.615  -6.405  1.00 20.00     0.006 C 
HETATM    6  C7  UNL     1     -35.227  13.721  -4.183  1.00 20.00     0.076 C 
HETATM    7  C8  UNL     1     -35.962  15.510  -5.711  1.00 20.00    -0.010 C 
HETATM    8  C9  UNL     1     -36.099  14.978  -4.267  1.00 20.00     0.002 C 
ENDROOT
BRANCH   6   9
HETATM    9  C1  UNL     1     -33.928  14.030  -3.497  1.00 20.00     0.223 C 
HETATM   10  O10 UNL     1     -32.969  13.267  -3.562  1.00 20.00    -0.279 OA
HETATM   11 CL11 UNL     1     -33.982  15.542  -2.644  1.00 20.00    -0.043 Cl
ENDBRANCH   6   9
TORSDOF 1
ENDMDL
MODEL 9
REMARK VINA RESULT:      -4.4      2.383      3.779
REMARK  1 active torsions:
REMARK  status: ('A' for Active; 'I' for Inactive)
REMARK    1  A    between atoms: C1_1  and  C7_7 
ROOT
HETATM    1  C2  UNL     1     -35.249  14.288  -6.770  1.00 20.00     0.001 C 
HETATM    2  C3  UNL     1     -33.279  15.883  -3.631  1.00 20.00     0.014 C 
HETATM    3  C4  UNL     1     -34.158  15.344  -6.736  1.00 20.00     0.005 C 
HETATM    4  C5  UNL     1     -35.507  14.029  -5.295  1.00 20.00     0.006 C 
HETATM    5  C6  UNL     1     -33.450  16.858  -4.791  1.00 20.00     0.006 C 
HETATM    6  C7  UNL     1     -34.699  15.428  -3.303  1.00 20.00     0.076 C 
HETATM    7  C8  UNL     1     -34.599  16.283  -5.613  1.00 20.00    -0.010 C 
HETATM    8  C9  UNL     1     -35.437  15.417  -4.645  1.00 20.00     0.002 C 
ENDROOT
BRANCH   6   9
HETATM    9  C1  UNL     1     -35.357  16.381  -2.350  1.00 20.00     0.223 C 
HETATM   10  O10 UNL     1     -36.407  16.952  -2.632  1.00 20.00    -0.279 OA
HETATM   11 CL11 UNL     1     -34.462  16.549  -0.871  1.00 20.00    -0.043 Cl
ENDBRANCH   6   9
TORSDOF 1
ENDMDL
