MODEL 1
REMARK VINA RESULT:      -5.3      0.000      0.000
REMARK  3 active torsions:
REMARK  status: ('A' for Active; 'I' for Inactive)
REMARK    1  A    between atoms: C1_1  and  C2_2 
REMARK    2  A    between atoms: C4_4  and  C9_9 
REMARK    3  A    between atoms: C5_5  and  C9_9 
ROOT
HETATM    1  C2  UNL     1     -32.421   6.580   3.208  1.00 20.00    -0.004 C 
HETATM    2  C4  UNL     1     -33.576   6.618   3.892  1.00 20.00    -0.015 C 
ENDROOT
BRANCH   2   3
HETATM    3  C9  UNL     1     -34.152   5.429   4.615  1.00 20.00     0.073 C 
HETATM    4  C8  UNL     1     -35.464   4.978   3.983  1.00 20.00     0.022 C 
BRANCH   3   5
HETATM    5  C5  UNL     1     -34.381   5.794   6.080  1.00 20.00     0.130 C 
HETATM    6  C7  UNL     1     -33.661   7.018   6.589  1.00 20.00     0.091 C 
HETATM    7  O10 UNL     1     -35.080   5.118   6.834  1.00 20.00    -0.298 OA
ENDBRANCH   3   5
ENDBRANCH   2   3
BRANCH   1   8
HETATM    8  C1  UNL     1     -31.875   7.727   2.517  1.00 20.00    -0.005 C 
HETATM    9  C3  UNL     1     -32.618   8.549   1.761  1.00 20.00    -0.031 C 
HETATM   10  C6  UNL     1     -32.067   9.735   1.041  1.00 20.00     0.036 C 
ENDBRANCH   1   8
TORSDOF 3
ENDMDL
MODEL 2
REMARK VINA RESULT:      -5.0      0.932      1.933
REMARK  3 active torsions:
REMARK  status: ('A' for Active; 'I' for Inactive)
REMARK    1  A    between atoms: C1_1  and  C2_2 
REMARK    2  A    between atoms: C4_4  and  C9_9 
REMARK    3  A    between atoms: C5_5  and  C9_9 
ROOT
HETATM    1  C2  UNL     1     -32.674   6.845   3.895  1.00 20.00    -0.004 C 
HETATM    2  C4  UNL     1     -33.960   6.551   4.147  1.00 20.00    -0.015 C 
ENDROOT
BRANCH   2   3
HETATM    3  C9  UNL     1     -34.487   6.248   5.524  1.00 20.00     0.073 C 
HETATM    4  C8  UNL     1     -33.642   6.917   6.602  1.00 20.00     0.022 C 
BRANCH   3   5
HETATM    5  C5  UNL     1     -34.495   4.736   5.737  1.00 20.00     0.130 C 
HETATM    6  C7  UNL     1     -35.169   3.909   4.672  1.00 20.00     0.091 C 
HETATM    7  O10 UNL     1     -34.016   4.201   6.738  1.00 20.00    -0.298 OA
ENDBRANCH   3   5
ENDBRANCH   2   3
BRANCH   1   8
HETATM    8  C1  UNL     1     -32.176   7.137   2.570  1.00 20.00    -0.005 C 
HETATM    9  C3  UNL     1     -32.186   8.368   2.037  1.00 20.00    -0.031 C 
HETATM   10  C6  UNL     1     -31.676   8.683   0.670  1.00 20.00     0.036 C 
ENDBRANCH   1   8
TORSDOF 3
ENDMDL
MODEL 3
REMARK VINA RESULT:      -4.9     11.202     12.165
REMARK  3 active torsions:
REMARK  status: ('A' for Active; 'I' for Inactive)
REMARK    1  A    between atoms: C1_1  and  C2_2 
REMARK    2  A    between atoms: C4_4  and  C9_9 
REMARK    3  A    between atoms: C5_5  and  C9_9 
ROOT
HETATM    1  C2  UNL     1     -34.096  16.208  -2.219  1.00 20.00    -0.004 C 
HETATM    2  C4  UNL     1     -34.413  15.149  -2.980  1.00 20.00    -0.015 C 
ENDROOT
BRANCH   2   3
HETATM    3  C9  UNL     1     -33.717  14.817  -4.273  1.00 20.00     0.073 C 
HETATM    4  C8  UNL     1     -33.495  16.065  -5.120  1.00 20.00     0.022 C 
BRANCH   3   5
HETATM    5  C5  UNL     1     -34.556  13.806  -5.051  1.00 20.00     0.130 C 
HETATM    6  C7  UNL     1     -35.088  14.260  -6.388  1.00 20.00     0.091 C 
HETATM    7  O10 UNL     1     -34.830  12.689  -4.613  1.00 20.00    -0.298 OA
ENDBRANCH   3   5
ENDBRANCH   2   3
BRANCH   1   8
HETATM    8  C1  UNL     1     -34.769  16.519  -0.979  1.00 20.00    -0.005 C 
HETATM    9  C3  UNL     1     -34.344  17.469  -0.133  1.00 20.00    -0.031 C 
HETATM   10  C6  UNL     1     -35.029  17.801   1.152  1.00 20.00     0.036 C 
ENDBRANCH   1   8
TORSDOF 3
ENDMDL
MODEL 4
REMARK VINA RESULT:      -4.8     10.617     11.616
REMARK  3 active torsions:
REMARK  status: ('A' for Active; 'I' for Inactive)
REMARK    1  A    between atoms: C1_1  and  C2_2 
REMARK    2  A    between atoms: C4_4  and  C9_9 
REMARK    3  A    between atoms: C5_5  and  C9_9 
ROOT
HETATM    1  C2  UNL     1     -35.007  16.298  -1.618  1.00 20.00    -0.004 C 
HETATM    2  C4  UNL     1     -34.412  15.878  -2.745  1.00 20.00    -0.015 C 
ENDROOT
BRANCH   2   3
HETATM    3  C9  UNL     1     -35.119  15.088  -3.814  1.00 20.00     0.073 C 
HETATM    4  C8  UNL     1     -36.603  14.936  -3.500  1.00 20.00     0.022 C 
BRANCH   3   5
HETATM    5  C5  UNL     1     -34.471  13.710  -3.932  1.00 20.00     0.130 C 
HETATM    6  C7  UNL     1     -33.005  13.624  -3.588  1.00 20.00     0.091 C 
HETATM    7  O10 UNL     1     -35.084  12.717  -4.323  1.00 20.00    -0.298 OA
ENDBRANCH   3   5
ENDBRANCH   2   3
BRANCH   1   8
HETATM    8  C1  UNL     1     -34.321  17.057  -0.598  1.00 20.00    -0.005 C 
HETATM    9  C3  UNL     1     -33.339  17.929  -0.869  1.00 20.00    -0.031 C 
HETATM   10  C6  UNL     1     -32.620  18.719   0.174  1.00 20.00     0.036 C 
ENDBRANCH   1   8
TORSDOF 3
ENDMDL
MODEL 5
REMARK VINA RESULT:      -4.5     11.167     12.518
REMARK  3 active torsions:
REMARK  status: ('A' for Active; 'I' for Inactive)
REMARK    1  A    between atoms: C1_1  and  C2_2 
REMARK    2  A    between atoms: C4_4  and  C9_9 
REMARK    3  A    between atoms: C5_5  and  C9_9 
ROOT
HETATM    1  C2  UNL     1     -34.725  16.282  -1.592  1.00 20.00    -0.004 C 
HETATM    2  C4  UNL     1     -33.949  16.026  -2.657  1.00 20.00    -0.015 C 
ENDROOT
BRANCH   2   3
HETATM    3  C9  UNL     1     -34.398  15.196  -3.830  1.00 20.00     0.073 C 
HETATM    4  C8  UNL     1     -33.984  13.738  -3.670  1.00 20.00     0.022 C 
BRANCH   3   5
HETATM    5  C5  UNL     1     -33.793  15.768  -5.111  1.00 20.00     0.130 C 
HETATM    6  C7  UNL     1     -34.351  15.246  -6.411  1.00 20.00     0.091 C 
HETATM    7  O10 UNL     1     -32.870  16.583  -5.106  1.00 20.00    -0.298 OA
ENDBRANCH   3   5
ENDBRANCH   2   3
BRANCH   1   8
HETATM    8  C1  UNL     1     -34.286  17.081  -0.469  1.00 20.00    -0.005 C 
HETATM    9  C3  UNL     1     -35.089  17.411   0.553  1.00 20.00    -0.031 C 
HETATM   10  C6  UNL     1     -34.650  18.235   1.718  1.00 20.00     0.036 C 
ENDBRANCH   1   8
TORSDOF 3
ENDMDL
MODEL 6
REMARK VINA RESULT:      -4.5     11.124     11.908
REMARK  3 active torsions:
REMARK  status: ('A' for Active; 'I' for Inactive)
REMARK    1  A    between atoms: C1_1  and  C2_2 
REMARK    2  A    between atoms: C4_4  and  C9_9 
REMARK    3  A    between atoms: C5_5  and  C9_9 
ROOT
HETATM    1  C2  UNL     1     -34.814  15.752  -1.944  1.00 20.00    -0.004 C 
HETATM    2  C4  UNL     1     -34.444  15.209  -3.114  1.00 20.00    -0.015 C 
ENDROOT
BRANCH   2   3
HETATM    3  C9  UNL     1     -35.152  14.042  -3.749  1.00 20.00     0.073 C 
HETATM    4  C8  UNL     1     -34.327  13.441  -4.881  1.00 20.00     0.022 C 
BRANCH   3   5
HETATM    5  C5  UNL     1     -36.505  14.506  -4.285  1.00 20.00     0.130 C 
HETATM    6  C7  UNL     1     -36.475  15.440  -5.469  1.00 20.00     0.091 C 
HETATM    7  O10 UNL     1     -37.574  14.180  -3.769  1.00 20.00    -0.298 OA
ENDBRANCH   3   5
ENDBRANCH   2   3
BRANCH   1   8
HETATM    8  C1  UNL     1     -34.129  16.874  -1.341  1.00 20.00    -0.005 C 
HETATM    9  C3  UNL     1     -34.443  17.361  -0.132  1.00 20.00    -0.031 C 
HETATM   10  C6  UNL     1     -33.745  18.519   0.502  1.00 20.00     0.036 C 
ENDBRANCH   1   8
TORSDOF 3
ENDMDL
MODEL 7
REMARK VINA RESULT:      -4.1     11.563     12.279
REMARK  3 active torsions:
REMARK  status: ('A' for Active; 'I' for Inactive)
REMARK    1  A    between atoms: C1_1  and  C2_2 
REMARK    2  A    between atoms: C4_4  and  C9_9 
REMARK    3  A    between atoms: C5_5  and  C9_9 
ROOT
HETATM    1  C2  UNL     1     -34.721  16.545  -0.794  1.00 20.00    -0.004 C 
HETATM    2  C4  UNL     1     -34.067  16.466  -1.964  1.00 20.00    -0.015 C 
ENDROOT
BRANCH   2   3
HETATM    3  C9  UNL     1     -34.253  15.337  -2.943  1.00 20.00     0.073 C 
HETATM    4  C8  UNL     1     -32.984  15.091  -3.752  1.00 20.00     0.022 C 
BRANCH   3   5
HETATM    5  C5  UNL     1     -35.408  15.673  -3.884  1.00 20.00     0.130 C 
HETATM    6  C7  UNL     1     -36.686  14.897  -3.683  1.00 20.00     0.091 C 
HETATM    7  O10 UNL     1     -35.311  16.501  -4.790  1.00 20.00    -0.298 OA
ENDBRANCH   3   5
ENDBRANCH   2   3
BRANCH   1   8
HETATM    8  C1  UNL     1     -34.538  17.632   0.141  1.00 20.00    -0.005 C 
HETATM    9  C3  UNL     1     -35.138  17.677   1.339  1.00 20.00    -0.031 C 
HETATM   10  C6  UNL     1     -34.959  18.794   2.314  1.00 20.00     0.036 C 
ENDBRANCH   1   8
TORSDOF 3
ENDMDL
MODEL 8
REMARK VINA RESULT:      -4.1      2.467      5.415
REMARK  3 active torsions:
REMARK  status: ('A' for Active; 'I' for Inactive)
REMARK    1  A    between atoms: C1_1  and  C2_2 
REMARK    2  A    between atoms: C4_4  and  C9_9 
REMARK    3  A    between atoms: C5_5  and  C9_9 
ROOT
HETATM    1  C2  UNL     1     -33.218   6.567   4.072  1.00 20.00    -0.004 C 
HETATM    2  C4  UNL     1     -32.866   6.793   2.797  1.00 20.00    -0.015 C 
ENDROOT
BRANCH   2   3
HETATM    3  C9  UNL     1     -31.747   7.718   2.396  1.00 20.00     0.073 C 
HETATM    4  C8  UNL     1     -31.002   8.248   3.615  1.00 20.00     0.022 C 
BRANCH   3   5
HETATM    5  C5  UNL     1     -32.322   8.883   1.594  1.00 20.00     0.130 C 
HETATM    6  C7  UNL     1     -32.256   8.764   0.092  1.00 20.00     0.091 C 
HETATM    7  O10 UNL     1     -32.783   9.894   2.124  1.00 20.00    -0.298 OA
ENDBRANCH   3   5
ENDBRANCH   2   3
BRANCH   1   8
HETATM    8  C1  UNL     1     -34.293   5.677   4.449  1.00 20.00    -0.005 C 
HETATM    9  C3  UNL     1     -34.296   4.975   5.591  1.00 20.00    -0.031 C 
HETATM   10  C6  UNL     1     -35.399   4.051   5.992  1.00 20.00     0.036 C 
ENDBRANCH   1   8
TORSDOF 3
ENDMDL
MODEL 9
REMARK VINA RESULT:      -3.9      9.681     11.622
REMARK  3 active torsions:
REMARK  status: ('A' for Active; 'I' for Inactive)
REMARK    1  A    between atoms: C1_1  and  C2_2 
REMARK    2  A    between atoms: C4_4  and  C9_9 
REMARK    3  A    between atoms: C5_5  and  C9_9 
ROOT
HETATM    1  C2  UNL     1     -42.177   2.937  -3.218  1.00 20.00    -0.004 C 
HETATM    2  C4  UNL     1     -41.629   3.777  -2.325  1.00 20.00    -0.015 C 
ENDROOT
BRANCH   2   3
HETATM    3  C9  UNL     1     -42.301   5.038  -1.851  1.00 20.00     0.073 C 
HETATM    4  C8  UNL     1     -42.871   5.836  -3.018  1.00 20.00     0.022 C 
BRANCH   3   5
HETATM    5  C5  UNL     1     -41.289   5.889  -1.087  1.00 20.00     0.130 C 
HETATM    6  C7  UNL     1     -41.509   7.381  -1.112  1.00 20.00     0.091 C 
HETATM    7  O10 UNL     1     -40.316   5.407  -0.507  1.00 20.00    -0.298 OA
ENDBRANCH   3   5
ENDBRANCH   2   3
BRANCH   1   8
HETATM    8  C1  UNL     1     -41.526   1.728  -3.668  1.00 20.00    -0.005 C 
HETATM    9  C3  UNL     1     -42.111   0.522  -3.626  1.00 20.00    -0.031 C 
HETATM   10  C6  UNL     1     -41.450  -0.736  -4.086  1.00 20.00     0.036 C 
ENDBRANCH   1   8
TORSDOF 3
ENDMDL
