MODEL 1
REMARK VINA RESULT:      -5.8      0.000      0.000
REMARK  2 active torsions:
REMARK  status: ('A' for Active; 'I' for Inactive)
REMARK    1  A    between atoms: C5_5  and  C7_7 
REMARK    2  A    between atoms: C7_7  and  O8_8 
ROOT
HETATM    1  C1  UNL     1     -33.236   6.602   5.304  1.00 20.00     0.013 C 
HETATM    2  C2  UNL     1     -34.372   5.266   3.479  1.00 20.00     0.013 C 
HETATM    3  C3  UNL     1     -34.267   6.100   6.312  1.00 20.00     0.079 C 
HETATM    4  C4  UNL     1     -35.403   4.766   4.487  1.00 20.00     0.079 C 
HETATM    5  C5  UNL     1     -33.809   6.638   3.879  1.00 20.00     0.009 C 
HETATM    6  C6  UNL     1     -34.842   4.757   5.898  1.00 20.00     0.243 C 
HETATM    7  F9  UNL     1     -33.873   3.809   5.989  1.00 20.00    -0.206 F 
HETATM    8  F10 UNL     1     -35.817   4.395   6.770  1.00 20.00    -0.206 F 
ENDROOT
BRANCH   5   9
HETATM    9  C7  UNL     1     -32.745   7.096   2.882  1.00 20.00     0.168 C 
BRANCH   9  10
HETATM   10  O8  UNL     1     -31.572   7.428   3.600  1.00 20.00    -0.400 OA
HETATM   11  H22 UNL     1     -31.817   7.481   4.540  1.00 20.00     0.209 HD
ENDBRANCH   9  10
ENDBRANCH   5   9
TORSDOF 2
ENDMDL
MODEL 2
REMARK VINA RESULT:      -4.7      2.938      4.160
REMARK  2 active torsions:
REMARK  status: ('A' for Active; 'I' for Inactive)
REMARK    1  A    between atoms: C5_5  and  C7_7 
REMARK    2  A    between atoms: C7_7  and  O8_8 
ROOT
HETATM    1  C1  UNL     1     -34.556   4.938   3.871  1.00 20.00     0.013 C 
HETATM    2  C2  UNL     1     -33.357   6.390   5.562  1.00 20.00     0.013 C 
HETATM    3  C3  UNL     1     -34.035   5.824   2.742  1.00 20.00     0.079 C 
HETATM    4  C4  UNL     1     -32.838   7.276   4.433  1.00 20.00     0.079 C 
HETATM    5  C5  UNL     1     -34.686   5.718   5.188  1.00 20.00     0.009 C 
HETATM    6  C6  UNL     1     -32.736   6.509   3.126  1.00 20.00     0.243 C 
HETATM    7  F9  UNL     1     -31.753   5.576   3.230  1.00 20.00    -0.206 F 
HETATM    8  F10 UNL     1     -32.360   7.355   2.134  1.00 20.00    -0.206 F 
ENDROOT
BRANCH   5   9
HETATM    9  C7  UNL     1     -35.161   4.799   6.313  1.00 20.00     0.168 C 
BRANCH   9  10
HETATM   10  O8  UNL     1     -35.525   3.553   5.750  1.00 20.00    -0.400 OA
HETATM   11  H22 UNL     1     -35.151   3.524   4.853  1.00 20.00     0.209 HD
ENDBRANCH   9  10
ENDBRANCH   5   9
TORSDOF 2
ENDMDL
MODEL 3
REMARK VINA RESULT:      -4.6     12.526     13.176
REMARK  2 active torsions:
REMARK  status: ('A' for Active; 'I' for Inactive)
REMARK    1  A    between atoms: C5_5  and  C7_7 
REMARK    2  A    between atoms: C7_7  and  O8_8 
ROOT
HETATM    1  C1  UNL     1     -35.227  16.214  -3.010  1.00 20.00     0.013 C 
HETATM    2  C2  UNL     1     -35.401  14.149  -4.463  1.00 20.00     0.013 C 
HETATM    3  C3  UNL     1     -33.782  15.856  -2.675  1.00 20.00     0.079 C 
HETATM    4  C4  UNL     1     -33.957  13.791  -4.125  1.00 20.00     0.079 C 
HETATM    5  C5  UNL     1     -36.058  14.965  -3.339  1.00 20.00     0.009 C 
HETATM    6  C6  UNL     1     -33.145  15.025  -3.774  1.00 20.00     0.243 C 
HETATM    7  F9  UNL     1     -32.995  15.794  -4.885  1.00 20.00    -0.206 F 
HETATM    8  F10 UNL     1     -31.897  14.652  -3.394  1.00 20.00    -0.206 F 
ENDROOT
BRANCH   5   9
HETATM    9  C7  UNL     1     -37.487  15.353  -3.720  1.00 20.00     0.168 C 
BRANCH   9  10
HETATM   10  O8  UNL     1     -38.276  14.179  -3.752  1.00 20.00    -0.400 OA
HETATM   11  H22 UNL     1     -38.743  14.172  -4.605  1.00 20.00     0.209 HD
ENDBRANCH   9  10
ENDBRANCH   5   9
TORSDOF 2
ENDMDL
MODEL 4
REMARK VINA RESULT:      -4.5     12.960     13.823
REMARK  2 active torsions:
REMARK  status: ('A' for Active; 'I' for Inactive)
REMARK    1  A    between atoms: C5_5  and  C7_7 
REMARK    2  A    between atoms: C7_7  and  O8_8 
ROOT
HETATM    1  C1  UNL     1     -34.657  14.854  -3.141  1.00 20.00     0.013 C 
HETATM    2  C2  UNL     1     -34.019  15.669  -5.451  1.00 20.00     0.013 C 
HETATM    3  C3  UNL     1     -34.022  16.099  -2.527  1.00 20.00     0.079 C 
HETATM    4  C4  UNL     1     -33.382  16.913  -4.836  1.00 20.00     0.079 C 
HETATM    5  C5  UNL     1     -33.996  14.482  -4.477  1.00 20.00     0.009 C 
HETATM    6  C6  UNL     1     -34.020  17.262  -3.503  1.00 20.00     0.243 C 
HETATM    7  F9  UNL     1     -35.298  17.672  -3.712  1.00 20.00    -0.206 F 
HETATM    8  F10 UNL     1     -33.365  18.315  -2.951  1.00 20.00    -0.206 F 
ENDROOT
BRANCH   5   9
HETATM    9  C7  UNL     1     -34.681  13.264  -5.096  1.00 20.00     0.168 C 
BRANCH   9  10
HETATM   10  O8  UNL     1     -35.363  12.565  -4.072  1.00 20.00    -0.400 OA
HETATM   11  H22 UNL     1     -36.315  12.710  -4.212  1.00 20.00     0.209 HD
ENDBRANCH   9  10
ENDBRANCH   5   9
TORSDOF 2
ENDMDL
MODEL 5
REMARK VINA RESULT:      -4.4      1.566      2.340
REMARK  2 active torsions:
REMARK  status: ('A' for Active; 'I' for Inactive)
REMARK    1  A    between atoms: C5_5  and  C7_7 
REMARK    2  A    between atoms: C7_7  and  O8_8 
ROOT
HETATM    1  C1  UNL     1     -33.370   5.907   2.668  1.00 20.00     0.013 C 
HETATM    2  C2  UNL     1     -33.489   6.829   5.022  1.00 20.00     0.013 C 
HETATM    3  C3  UNL     1     -34.165   4.681   3.109  1.00 20.00     0.079 C 
HETATM    4  C4  UNL     1     -34.282   5.601   5.462  1.00 20.00     0.079 C 
HETATM    5  C5  UNL     1     -32.571   6.512   3.832  1.00 20.00     0.009 C 
HETATM    6  C6  UNL     1     -35.050   4.990   4.303  1.00 20.00     0.243 C 
HETATM    7  F9  UNL     1     -36.036   5.843   3.919  1.00 20.00    -0.206 F 
HETATM    8  F10 UNL     1     -35.665   3.854   4.718  1.00 20.00    -0.206 F 
ENDROOT
BRANCH   5   9
HETATM    9  C7  UNL     1     -31.824   7.766   3.379  1.00 20.00     0.168 C 
BRANCH   9  10
HETATM   10  O8  UNL     1     -32.157   8.021   2.027  1.00 20.00    -0.400 OA
HETATM   11  H22 UNL     1     -33.082   8.321   2.012  1.00 20.00     0.209 HD
ENDBRANCH   9  10
ENDBRANCH   5   9
TORSDOF 2
ENDMDL
MODEL 6
REMARK VINA RESULT:      -4.4     12.314     12.836
REMARK  2 active torsions:
REMARK  status: ('A' for Active; 'I' for Inactive)
REMARK    1  A    between atoms: C5_5  and  C7_7 
REMARK    2  A    between atoms: C7_7  and  O8_8 
ROOT
HETATM    1  C1  UNL     1     -33.425  15.321  -3.116  1.00 20.00     0.013 C 
HETATM    2  C2  UNL     1     -35.945  15.380  -3.344  1.00 20.00     0.013 C 
HETATM    3  C3  UNL     1     -33.390  13.985  -3.853  1.00 20.00     0.079 C 
HETATM    4  C4  UNL     1     -35.909  14.042  -4.079  1.00 20.00     0.079 C 
HETATM    5  C5  UNL     1     -34.758  15.527  -2.381  1.00 20.00     0.009 C 
HETATM    6  C6  UNL     1     -34.580  13.830  -4.783  1.00 20.00     0.243 C 
HETATM    7  F9  UNL     1     -34.468  14.719  -5.805  1.00 20.00    -0.206 F 
HETATM    8  F10 UNL     1     -34.559  12.595  -5.344  1.00 20.00    -0.206 F 
ENDROOT
BRANCH   5   9
HETATM    9  C7  UNL     1     -34.788  16.892  -1.693  1.00 20.00     0.168 C 
BRANCH   9  10
HETATM   10  O8  UNL     1     -34.977  16.690  -0.305  1.00 20.00    -0.400 OA
HETATM   11  H22 UNL     1     -34.421  15.934  -0.049  1.00 20.00     0.209 HD
ENDBRANCH   9  10
ENDBRANCH   5   9
TORSDOF 2
ENDMDL
MODEL 7
REMARK VINA RESULT:      -4.3      9.750     10.662
REMARK  2 active torsions:
REMARK  status: ('A' for Active; 'I' for Inactive)
REMARK    1  A    between atoms: C5_5  and  C7_7 
REMARK    2  A    between atoms: C7_7  and  O8_8 
ROOT
HETATM    1  C1  UNL     1     -41.489   4.565  -0.788  1.00 20.00     0.013 C 
HETATM    2  C2  UNL     1     -42.603   5.717  -2.747  1.00 20.00     0.013 C 
HETATM    3  C3  UNL     1     -40.752   5.857  -0.448  1.00 20.00     0.079 C 
HETATM    4  C4  UNL     1     -41.863   7.008  -2.407  1.00 20.00     0.079 C 
HETATM    5  C5  UNL     1     -41.820   4.479  -2.285  1.00 20.00     0.009 C 
HETATM    6  C6  UNL     1     -41.515   7.078  -0.931  1.00 20.00     0.243 C 
HETATM    7  F9  UNL     1     -42.657   7.206  -0.206  1.00 20.00    -0.206 F 
HETATM    8  F10 UNL     1     -40.781   8.194  -0.692  1.00 20.00    -0.206 F 
ENDROOT
BRANCH   5   9
HETATM    9  C7  UNL     1     -42.601   3.202  -2.592  1.00 20.00     0.168 C 
BRANCH   9  10
HETATM   10  O8  UNL     1     -41.676   2.155  -2.818  1.00 20.00    -0.400 OA
HETATM   11  H22 UNL     1     -41.242   2.336  -3.669  1.00 20.00     0.209 HD
ENDBRANCH   9  10
ENDBRANCH   5   9
TORSDOF 2
ENDMDL
MODEL 8
REMARK VINA RESULT:      -4.3     12.356     13.424
REMARK  2 active torsions:
REMARK  status: ('A' for Active; 'I' for Inactive)
REMARK    1  A    between atoms: C5_5  and  C7_7 
REMARK    2  A    between atoms: C7_7  and  O8_8 
ROOT
HETATM    1  C1  UNL     1     -35.350  13.910  -3.838  1.00 20.00     0.013 C 
HETATM    2  C2  UNL     1     -35.137  16.237  -4.811  1.00 20.00     0.013 C 
HETATM    3  C3  UNL     1     -33.829  13.779  -3.821  1.00 20.00     0.079 C 
HETATM    4  C4  UNL     1     -33.617  16.104  -4.795  1.00 20.00     0.079 C 
HETATM    5  C5  UNL     1     -35.823  14.869  -4.941  1.00 20.00     0.009 C 
HETATM    6  C6  UNL     1     -33.154  15.136  -3.721  1.00 20.00     0.243 C 
HETATM    7  F9  UNL     1     -33.405  15.671  -2.497  1.00 20.00    -0.206 F 
HETATM    8  F10 UNL     1     -31.809  14.979  -3.803  1.00 20.00    -0.206 F 
ENDROOT
BRANCH   5   9
HETATM    9  C7  UNL     1     -37.343  15.022  -4.906  1.00 20.00     0.168 C 
BRANCH   9  10
HETATM   10  O8  UNL     1     -37.849  14.227  -3.851  1.00 20.00    -0.400 OA
HETATM   11  H22 UNL     1     -37.744  14.739  -3.031  1.00 20.00     0.209 HD
ENDBRANCH   9  10
ENDBRANCH   5   9
TORSDOF 2
ENDMDL
MODEL 9
REMARK VINA RESULT:      -4.2      9.701     10.345
REMARK  2 active torsions:
REMARK  status: ('A' for Active; 'I' for Inactive)
REMARK    1  A    between atoms: C5_5  and  C7_7 
REMARK    2  A    between atoms: C7_7  and  O8_8 
ROOT
HETATM    1  C1  UNL     1     -41.142   7.107  -1.353  1.00 20.00     0.013 C 
HETATM    2  C2  UNL     1     -42.532   5.370  -2.560  1.00 20.00     0.013 C 
HETATM    3  C3  UNL     1     -41.151   6.241  -0.096  1.00 20.00     0.079 C 
HETATM    4  C4  UNL     1     -42.542   4.505  -1.302  1.00 20.00     0.079 C 
HETATM    5  C5  UNL     1     -42.386   6.861  -2.219  1.00 20.00     0.009 C 
HETATM    6  C6  UNL     1     -41.324   4.771  -0.435  1.00 20.00     0.243 C 
HETATM    7  F9  UNL     1     -40.211   4.326  -1.076  1.00 20.00    -0.206 F 
HETATM    8  F10 UNL     1     -41.419   4.050   0.711  1.00 20.00    -0.206 F 
ENDROOT
BRANCH   5   9
HETATM    9  C7  UNL     1     -42.330   7.702  -3.494  1.00 20.00     0.168 C 
BRANCH   9  10
HETATM   10  O8  UNL     1     -43.372   7.280  -4.355  1.00 20.00    -0.400 OA
HETATM   11  H22 UNL     1     -43.339   7.849  -5.143  1.00 20.00     0.209 HD
ENDBRANCH   9  10
ENDBRANCH   5   9
TORSDOF 2
ENDMDL
