MODEL 1
REMARK VINA RESULT:      -4.6      0.000      0.000
REMARK  1 active torsions:
REMARK  status: ('A' for Active; 'I' for Inactive)
REMARK    1  A    between atoms: C7_7  and  C10_10 
ROOT
HETATM    1  C1  UNL     1     -34.767  17.103  -0.053  1.00 20.00     0.015 C 
HETATM    2  C2  UNL     1     -34.823  16.934  -1.240  1.00 20.00    -0.085 C 
HETATM    3  C3  UNL     1     -33.687  17.107  -4.842  1.00 20.00    -0.018 C 
HETATM    4  C4  UNL     1     -34.229  15.964  -5.300  1.00 20.00    -0.059 C 
HETATM    5  C5  UNL     1     -33.794  17.517  -3.405  1.00 20.00     0.072 C 
HETATM    6  C6  UNL     1     -34.892  16.726  -2.692  1.00 20.00     0.203 C 
HETATM    7  C7  UNL     1     -34.945  15.014  -4.355  1.00 20.00     0.151 C 
HETATM    8  C8  UNL     1     -34.187  15.614  -6.760  1.00 20.00     0.046 C 
HETATM    9  O11 UNL     1     -34.704  15.338  -2.972  1.00 20.00    -0.364 OA
ENDROOT
BRANCH   7  10
HETATM   10  C10 UNL     1     -34.511  13.560  -4.522  1.00 20.00     0.032 C 
HETATM   11  C9  UNL     1     -33.262  13.265  -3.757  1.00 20.00     0.008 C 
ENDBRANCH   7  10
TORSDOF 1
ENDMDL
MODEL 2
REMARK VINA RESULT:      -4.5      1.359      2.746
REMARK  1 active torsions:
REMARK  status: ('A' for Active; 'I' for Inactive)
REMARK    1  A    between atoms: C7_7  and  C10_10 
ROOT
HETATM    1  C1  UNL     1     -34.665  16.886  -0.336  1.00 20.00     0.015 C 
HETATM    2  C2  UNL     1     -34.491  16.441  -1.438  1.00 20.00    -0.085 C 
HETATM    3  C3  UNL     1     -35.405  14.792  -4.715  1.00 20.00    -0.018 C 
HETATM    4  C4  UNL     1     -34.537  15.420  -5.528  1.00 20.00    -0.059 C 
HETATM    5  C5  UNL     1     -35.507  15.119  -3.256  1.00 20.00     0.072 C 
HETATM    6  C6  UNL     1     -34.277  15.897  -2.785  1.00 20.00     0.203 C 
HETATM    7  C7  UNL     1     -33.644  16.528  -4.999  1.00 20.00     0.151 C 
HETATM    8  C8  UNL     1     -34.389  15.017  -6.967  1.00 20.00     0.046 C 
HETATM    9  O11 UNL     1     -34.050  16.978  -3.692  1.00 20.00    -0.364 OA
ENDROOT
BRANCH   7  10
HETATM   10  C10 UNL     1     -33.641  17.773  -5.883  1.00 20.00     0.032 C 
HETATM   11  C9  UNL     1     -33.575  19.026  -5.073  1.00 20.00     0.008 C 
ENDBRANCH   7  10
TORSDOF 1
ENDMDL
MODEL 3
REMARK VINA RESULT:      -4.4      1.698      2.481
REMARK  1 active torsions:
REMARK  status: ('A' for Active; 'I' for Inactive)
REMARK    1  A    between atoms: C7_7  and  C10_10 
ROOT
HETATM    1  C1  UNL     1     -34.672  16.775  -0.452  1.00 20.00     0.015 C 
HETATM    2  C2  UNL     1     -34.667  16.472  -1.614  1.00 20.00    -0.085 C 
HETATM    3  C3  UNL     1     -34.187  14.249  -4.634  1.00 20.00    -0.018 C 
HETATM    4  C4  UNL     1     -35.158  14.738  -5.425  1.00 20.00    -0.059 C 
HETATM    5  C5  UNL     1     -33.963  14.758  -3.243  1.00 20.00     0.072 C 
HETATM    6  C6  UNL     1     -34.663  16.102  -3.034  1.00 20.00     0.203 C 
HETATM    7  C7  UNL     1     -36.104  15.811  -4.916  1.00 20.00     0.151 C 
HETATM    8  C8  UNL     1     -35.309  14.276  -6.846  1.00 20.00     0.046 C 
HETATM    9  O11 UNL     1     -36.012  15.985  -3.489  1.00 20.00    -0.364 OA
ENDROOT
BRANCH   7  10
HETATM   10  C10 UNL     1     -37.572  15.504  -5.203  1.00 20.00     0.032 C 
HETATM   11  C9  UNL     1     -38.200  14.725  -4.094  1.00 20.00     0.008 C 
ENDBRANCH   7  10
TORSDOF 1
ENDMDL
MODEL 4
REMARK VINA RESULT:      -4.4      1.993      3.815
REMARK  1 active torsions:
REMARK  status: ('A' for Active; 'I' for Inactive)
REMARK    1  A    between atoms: C7_7  and  C10_10 
ROOT
HETATM    1  C1  UNL     1     -39.192  14.986  -4.267  1.00 20.00     0.015 C 
HETATM    2  C2  UNL     1     -38.022  14.778  -4.093  1.00 20.00    -0.085 C 
HETATM    3  C3  UNL     1     -34.363  14.480  -4.998  1.00 20.00    -0.018 C 
HETATM    4  C4  UNL     1     -33.815  14.854  -3.829  1.00 20.00    -0.059 C 
HETATM    5  C5  UNL     1     -35.845  14.470  -5.214  1.00 20.00     0.072 C 
HETATM    6  C6  UNL     1     -36.592  14.525  -3.880  1.00 20.00     0.203 C 
HETATM    7  C7  UNL     1     -34.689  15.327  -2.680  1.00 20.00     0.151 C 
HETATM    8  C8  UNL     1     -32.332  14.773  -3.604  1.00 20.00     0.046 C 
HETATM    9  O11 UNL     1     -36.043  15.588  -3.098  1.00 20.00    -0.364 OA
ENDROOT
BRANCH   7  10
HETATM   10  C10 UNL     1     -34.195  16.622  -2.041  1.00 20.00     0.032 C 
HETATM   11  C9  UNL     1     -34.634  16.739  -0.618  1.00 20.00     0.008 C 
ENDBRANCH   7  10
TORSDOF 1
ENDMDL
MODEL 5
REMARK VINA RESULT:      -4.2      1.481      4.482
REMARK  1 active torsions:
REMARK  status: ('A' for Active; 'I' for Inactive)
REMARK    1  A    between atoms: C7_7  and  C10_10 
ROOT
HETATM    1  C1  UNL     1     -34.787  14.766  -7.418  1.00 20.00     0.015 C 
HETATM    2  C2  UNL     1     -34.781  14.911  -6.226  1.00 20.00    -0.085 C 
HETATM    3  C3  UNL     1     -33.485  16.042  -2.860  1.00 20.00    -0.018 C 
HETATM    4  C4  UNL     1     -34.655  16.274  -2.238  1.00 20.00    -0.059 C 
HETATM    5  C5  UNL     1     -33.417  15.607  -4.291  1.00 20.00     0.072 C 
HETATM    6  C6  UNL     1     -34.775  15.089  -4.769  1.00 20.00     0.203 C 
HETATM    7  C7  UNL     1     -35.969  16.142  -2.989  1.00 20.00     0.151 C 
HETATM    8  C8  UNL     1     -34.705  16.624  -0.779  1.00 20.00     0.046 C 
HETATM    9  O11 UNL     1     -35.775  16.046  -4.413  1.00 20.00    -0.364 OA
ENDROOT
BRANCH   7  10
HETATM   10  C10 UNL     1     -36.905  17.330  -2.777  1.00 20.00     0.032 C 
HETATM   11  C9  UNL     1     -36.470  18.523  -3.563  1.00 20.00     0.008 C 
ENDBRANCH   7  10
TORSDOF 1
ENDMDL
MODEL 6
REMARK VINA RESULT:      -4.2      1.440      4.610
REMARK  1 active torsions:
REMARK  status: ('A' for Active; 'I' for Inactive)
REMARK    1  A    between atoms: C7_7  and  C10_10 
ROOT
HETATM    1  C1  UNL     1     -35.522  14.444  -7.917  1.00 20.00     0.015 C 
HETATM    2  C2  UNL     1     -35.520  14.704  -6.745  1.00 20.00    -0.085 C 
HETATM    3  C3  UNL     1     -34.272  14.696  -3.176  1.00 20.00    -0.018 C 
HETATM    4  C4  UNL     1     -34.697  15.912  -2.790  1.00 20.00    -0.059 C 
HETATM    5  C5  UNL     1     -34.466  14.192  -4.574  1.00 20.00     0.072 C 
HETATM    6  C6  UNL     1     -35.517  15.023  -5.312  1.00 20.00     0.203 C 
HETATM    7  C7  UNL     1     -35.363  16.850  -3.783  1.00 20.00     0.151 C 
HETATM    8  C8  UNL     1     -34.572  16.363  -1.364  1.00 20.00     0.046 C 
HETATM    9  O11 UNL     1     -35.202  16.406  -5.144  1.00 20.00    -0.364 OA
ENDROOT
BRANCH   7  10
HETATM   10  C10 UNL     1     -34.801  18.269  -3.740  1.00 20.00     0.032 C 
HETATM   11  C9  UNL     1     -33.605  18.416  -4.623  1.00 20.00     0.008 C 
ENDBRANCH   7  10
TORSDOF 1
ENDMDL
MODEL 7
REMARK VINA RESULT:      -4.2     11.915     14.002
REMARK  1 active torsions:
REMARK  status: ('A' for Active; 'I' for Inactive)
REMARK    1  A    between atoms: C7_7  and  C10_10 
ROOT
HETATM    1  C1  UNL     1     -43.417   2.217  -4.661  1.00 20.00     0.015 C 
HETATM    2  C2  UNL     1     -43.093   2.957  -3.773  1.00 20.00    -0.085 C 
HETATM    3  C3  UNL     1     -40.789   4.567  -1.245  1.00 20.00    -0.018 C 
HETATM    4  C4  UNL     1     -41.319   5.802  -1.217  1.00 20.00    -0.059 C 
HETATM    5  C5  UNL     1     -41.309   3.499  -2.157  1.00 20.00     0.072 C 
HETATM    6  C6  UNL     1     -42.697   3.863  -2.688  1.00 20.00     0.203 C 
HETATM    7  C7  UNL     1     -42.457   6.177  -2.152  1.00 20.00     0.151 C 
HETATM    8  C8  UNL     1     -40.841   6.832  -0.234  1.00 20.00     0.046 C 
HETATM    9  O11 UNL     1     -42.652   5.200  -3.191  1.00 20.00    -0.364 OA
ENDROOT
BRANCH   7  10
HETATM   10  C10 UNL     1     -42.232   7.507  -2.869  1.00 20.00     0.032 C 
HETATM   11  C9  UNL     1     -43.116   7.644  -4.065  1.00 20.00     0.008 C 
ENDBRANCH   7  10
TORSDOF 1
ENDMDL
MODEL 8
REMARK VINA RESULT:      -4.1      1.823      4.131
REMARK  1 active torsions:
REMARK  status: ('A' for Active; 'I' for Inactive)
REMARK    1  A    between atoms: C7_7  and  C10_10 
ROOT
HETATM    1  C1  UNL     1     -33.904  19.174  -7.727  1.00 20.00     0.015 C 
HETATM    2  C2  UNL     1     -34.290  18.196  -7.147  1.00 20.00    -0.085 C 
HETATM    3  C3  UNL     1     -34.640  14.511  -6.376  1.00 20.00    -0.018 C 
HETATM    4  C4  UNL     1     -34.784  14.577  -5.041  1.00 20.00    -0.059 C 
HETATM    5  C5  UNL     1     -34.406  15.732  -7.212  1.00 20.00     0.072 C 
HETATM    6  C6  UNL     1     -34.761  17.001  -6.435  1.00 20.00     0.203 C 
HETATM    7  C7  UNL     1     -34.672  15.907  -4.315  1.00 20.00     0.151 C 
HETATM    8  C8  UNL     1     -35.106  13.353  -4.232  1.00 20.00     0.046 C 
HETATM    9  O11 UNL     1     -34.127  16.942  -5.156  1.00 20.00    -0.364 OA
ENDROOT
BRANCH   7  10
HETATM   10  C10 UNL     1     -33.764  15.848  -3.089  1.00 20.00     0.032 C 
HETATM   11  C9  UNL     1     -34.499  16.206  -1.839  1.00 20.00     0.008 C 
ENDBRANCH   7  10
TORSDOF 1
ENDMDL
MODEL 9
REMARK VINA RESULT:      -4.1      1.823      4.167
REMARK  1 active torsions:
REMARK  status: ('A' for Active; 'I' for Inactive)
REMARK    1  A    between atoms: C7_7  and  C10_10 
ROOT
HETATM    1  C1  UNL     1     -36.877  14.970  -7.800  1.00 20.00     0.015 C 
HETATM    2  C2  UNL     1     -36.517  15.384  -6.733  1.00 20.00    -0.085 C 
HETATM    3  C3  UNL     1     -36.469  15.743  -2.969  1.00 20.00    -0.018 C 
HETATM    4  C4  UNL     1     -35.158  15.981  -2.786  1.00 20.00    -0.059 C 
HETATM    5  C5  UNL     1     -37.045  15.465  -4.324  1.00 20.00     0.072 C 
HETATM    6  C6  UNL     1     -36.074  15.889  -5.427  1.00 20.00     0.203 C 
HETATM    7  C7  UNL     1     -34.192  15.936  -3.958  1.00 20.00     0.151 C 
HETATM    8  C8  UNL     1     -34.615  16.344  -1.434  1.00 20.00     0.046 C 
HETATM    9  O11 UNL     1     -34.786  15.346  -5.130  1.00 20.00    -0.364 OA
ENDROOT
BRANCH   7  10
HETATM   10  C10 UNL     1     -32.937  15.115  -3.671  1.00 20.00     0.032 C 
HETATM   11  C9  UNL     1     -33.216  13.648  -3.708  1.00 20.00     0.008 C 
ENDBRANCH   7  10
TORSDOF 1
ENDMDL
