MODEL 1
REMARK VINA RESULT:      -4.3      0.000      0.000
REMARK  0 active torsions:
REMARK  status: ('A' for Active; 'I' for Inactive)
ROOT
HETATM    1  C1  UNL     1     -34.525  13.800  -4.801  1.00 20.00     0.089 C 
HETATM    2  C2  UNL     1     -34.140  16.030  -3.976  1.00 20.00     0.017 C 
HETATM    3  C3  UNL     1     -34.155  15.155  -4.990  1.00 20.00     0.118 C 
HETATM    4  C4  UNL     1     -34.515  15.644  -2.566  1.00 20.00     0.059 C 
HETATM    5  C5  UNL     1     -33.902  16.775  -1.736  1.00 20.00     0.026 C 
HETATM    6  C6  UNL     1     -33.902  17.986  -2.671  1.00 20.00     0.122 C 
HETATM    7  C7  UNL     1     -33.520  18.187  -5.143  1.00 20.00     0.149 C 
HETATM    8  N8  UNL     1     -34.827  12.689  -4.653  1.00 20.00    -0.192 NA
HETATM    9  N9  UNL     1     -33.795  17.369  -3.984  1.00 20.00    -0.388 N 
ENDROOT
TORSDOF 0
ENDMDL
MODEL 2
REMARK VINA RESULT:      -4.0      2.036      4.162
REMARK  0 active torsions:
REMARK  status: ('A' for Active; 'I' for Inactive)
ROOT
HETATM    1  C1  UNL     1     -34.157  17.060  -1.426  1.00 20.00     0.089 C 
HETATM    2  C2  UNL     1     -34.844  15.359  -2.987  1.00 20.00     0.017 C 
HETATM    3  C3  UNL     1     -35.156  16.325  -2.115  1.00 20.00     0.118 C 
HETATM    4  C4  UNL     1     -33.418  14.980  -3.305  1.00 20.00     0.059 C 
HETATM    5  C5  UNL     1     -33.573  13.590  -3.929  1.00 20.00     0.026 C 
HETATM    6  C6  UNL     1     -34.963  13.603  -4.566  1.00 20.00     0.122 C 
HETATM    7  C7  UNL     1     -37.121  14.665  -3.846  1.00 20.00     0.149 C 
HETATM    8  N8  UNL     1     -33.344  17.664  -0.861  1.00 20.00    -0.192 NA
HETATM    9  N9  UNL     1     -35.686  14.546  -3.725  1.00 20.00    -0.388 N 
ENDROOT
TORSDOF 0
ENDMDL
MODEL 3
REMARK VINA RESULT:      -4.0     11.891     13.261
REMARK  0 active torsions:
REMARK  status: ('A' for Active; 'I' for Inactive)
ROOT
HETATM    1  C1  UNL     1     -32.517   7.194   2.665  1.00 20.00     0.089 C 
HETATM    2  C2  UNL     1     -33.677   6.087   4.462  1.00 20.00     0.017 C 
HETATM    3  C3  UNL     1     -33.388   6.190   3.159  1.00 20.00     0.118 C 
HETATM    4  C4  UNL     1     -33.102   7.022   5.498  1.00 20.00     0.059 C 
HETATM    5  C5  UNL     1     -34.052   6.832   6.684  1.00 20.00     0.026 C 
HETATM    6  C6  UNL     1     -34.570   5.400   6.541  1.00 20.00     0.122 C 
HETATM    7  C7  UNL     1     -35.142   4.024   4.520  1.00 20.00     0.149 C 
HETATM    8  N8  UNL     1     -31.805   8.013   2.255  1.00 20.00    -0.192 NA
HETATM    9  N9  UNL     1     -34.508   5.185   5.103  1.00 20.00    -0.388 N 
ENDROOT
TORSDOF 0
ENDMDL
MODEL 4
REMARK VINA RESULT:      -4.0      1.003      2.196
REMARK  0 active torsions:
REMARK  status: ('A' for Active; 'I' for Inactive)
ROOT
HETATM    1  C1  UNL     1     -34.591  13.582  -4.063  1.00 20.00     0.089 C 
HETATM    2  C2  UNL     1     -34.225  15.795  -3.187  1.00 20.00     0.017 C 
HETATM    3  C3  UNL     1     -34.660  14.540  -3.021  1.00 20.00     0.118 C 
HETATM    4  C4  UNL     1     -33.630  16.284  -4.486  1.00 20.00     0.059 C 
HETATM    5  C5  UNL     1     -33.741  17.805  -4.354  1.00 20.00     0.026 C 
HETATM    6  C6  UNL     1     -33.673  18.069  -2.848  1.00 20.00     0.122 C 
HETATM    7  C7  UNL     1     -34.570  16.787  -0.885  1.00 20.00     0.149 C 
HETATM    8  N8  UNL     1     -34.536  12.793  -4.913  1.00 20.00    -0.192 NA
HETATM    9  N9  UNL     1     -34.232  16.847  -2.289  1.00 20.00    -0.388 N 
ENDROOT
TORSDOF 0
ENDMDL
MODEL 5
REMARK VINA RESULT:      -3.9      2.176      2.679
REMARK  0 active torsions:
REMARK  status: ('A' for Active; 'I' for Inactive)
ROOT
HETATM    1  C1  UNL     1     -37.439  14.970  -3.988  1.00 20.00     0.089 C 
HETATM    2  C2  UNL     1     -35.060  15.346  -3.967  1.00 20.00     0.017 C 
HETATM    3  C3  UNL     1     -36.302  15.792  -4.192  1.00 20.00     0.118 C 
HETATM    4  C4  UNL     1     -34.776  13.946  -3.481  1.00 20.00     0.059 C 
HETATM    5  C5  UNL     1     -33.297  13.763  -3.832  1.00 20.00     0.026 C 
HETATM    6  C6  UNL     1     -32.710  15.175  -3.781  1.00 20.00     0.122 C 
HETATM    7  C7  UNL     1     -33.664  17.405  -4.426  1.00 20.00     0.149 C 
HETATM    8  N8  UNL     1     -38.374  14.303  -3.823  1.00 20.00    -0.192 NA
HETATM    9  N9  UNL     1     -33.854  16.005  -4.127  1.00 20.00    -0.388 N 
ENDROOT
TORSDOF 0
ENDMDL
MODEL 6
REMARK VINA RESULT:      -3.9     11.885     13.132
REMARK  0 active torsions:
REMARK  status: ('A' for Active; 'I' for Inactive)
ROOT
HETATM    1  C1  UNL     1     -43.019   7.729  -3.524  1.00 20.00     0.089 C 
HETATM    2  C2  UNL     1     -41.949   5.966  -2.280  1.00 20.00     0.017 C 
HETATM    3  C3  UNL     1     -42.771   6.358  -3.262  1.00 20.00     0.118 C 
HETATM    4  C4  UNL     1     -41.229   6.944  -1.385  1.00 20.00     0.059 C 
HETATM    5  C5  UNL     1     -40.836   6.074  -0.187  1.00 20.00     0.026 C 
HETATM    6  C6  UNL     1     -40.684   4.665  -0.764  1.00 20.00     0.122 C 
HETATM    7  C7  UNL     1     -41.949   3.451  -2.561  1.00 20.00     0.149 C 
HETATM    8  N8  UNL     1     -43.226   8.850  -3.743  1.00 20.00    -0.192 NA
HETATM    9  N9  UNL     1     -41.611   4.683  -1.886  1.00 20.00    -0.388 N 
ENDROOT
TORSDOF 0
ENDMDL
MODEL 7
REMARK VINA RESULT:      -3.9      1.890      2.227
REMARK  0 active torsions:
REMARK  status: ('A' for Active; 'I' for Inactive)
ROOT
HETATM    1  C1  UNL     1     -35.442  13.689  -4.289  1.00 20.00     0.089 C 
HETATM    2  C2  UNL     1     -35.721  15.750  -3.075  1.00 20.00     0.017 C 
HETATM    3  C3  UNL     1     -36.188  14.844  -3.943  1.00 20.00     0.118 C 
HETATM    4  C4  UNL     1     -34.376  15.614  -2.403  1.00 20.00     0.059 C 
HETATM    5  C5  UNL     1     -34.094  17.041  -1.926  1.00 20.00     0.026 C 
HETATM    6  C6  UNL     1     -35.476  17.652  -1.692  1.00 20.00     0.122 C 
HETATM    7  C7  UNL     1     -37.653  17.374  -2.910  1.00 20.00     0.149 C 
HETATM    8  N8  UNL     1     -34.837  12.742  -4.577  1.00 20.00    -0.192 NA
HETATM    9  N9  UNL     1     -36.306  16.927  -2.642  1.00 20.00    -0.388 N 
ENDROOT
TORSDOF 0
ENDMDL
MODEL 8
REMARK VINA RESULT:      -3.7      1.760      3.953
REMARK  0 active torsions:
REMARK  status: ('A' for Active; 'I' for Inactive)
ROOT
HETATM    1  C1  UNL     1     -34.361  16.856  -1.011  1.00 20.00     0.089 C 
HETATM    2  C2  UNL     1     -34.492  15.956  -3.242  1.00 20.00     0.017 C 
HETATM    3  C3  UNL     1     -34.781  15.868  -1.938  1.00 20.00     0.118 C 
HETATM    4  C4  UNL     1     -33.706  17.106  -3.824  1.00 20.00     0.059 C 
HETATM    5  C5  UNL     1     -33.237  16.544  -5.168  1.00 20.00     0.026 C 
HETATM    6  C6  UNL     1     -34.311  15.527  -5.560  1.00 20.00     0.122 C 
HETATM    7  C7  UNL     1     -35.681  13.933  -4.188  1.00 20.00     0.149 C 
HETATM    8  N8  UNL     1     -34.021  17.662  -0.249  1.00 20.00    -0.192 NA
HETATM    9  N9  UNL     1     -34.810  15.083  -4.267  1.00 20.00    -0.388 N 
ENDROOT
TORSDOF 0
ENDMDL
MODEL 9
REMARK VINA RESULT:      -3.7      2.122      2.442
REMARK  0 active torsions:
REMARK  status: ('A' for Active; 'I' for Inactive)
ROOT
HETATM    1  C1  UNL     1     -37.253  14.502  -3.874  1.00 20.00     0.089 C 
HETATM    2  C2  UNL     1     -35.200  15.492  -3.093  1.00 20.00     0.017 C 
HETATM    3  C3  UNL     1     -35.838  14.597  -3.857  1.00 20.00     0.118 C 
HETATM    4  C4  UNL     1     -35.931  16.463  -2.198  1.00 20.00     0.059 C 
HETATM    5  C5  UNL     1     -34.839  16.905  -1.221  1.00 20.00     0.026 C 
HETATM    6  C6  UNL     1     -33.536  16.777  -2.013  1.00 20.00     0.122 C 
HETATM    7  C7  UNL     1     -32.782  15.109  -3.730  1.00 20.00     0.149 C 
HETATM    8  N8  UNL     1     -38.410  14.419  -3.891  1.00 20.00    -0.192 NA
HETATM    9  N9  UNL     1     -33.841  15.707  -2.950  1.00 20.00    -0.388 N 
ENDROOT
TORSDOF 0
ENDMDL
