MODEL 1
REMARK VINA RESULT:      -5.0      0.000      0.000
REMARK  3 active torsions:
REMARK  status: ('A' for Active; 'I' for Inactive)
REMARK    1  A    between atoms: C1_1  and  C10_10 
REMARK    2  A    between atoms: C7_7  and  C8_8 
REMARK    3  A    between atoms: C9_9  and  C10_10 
ROOT
HETATM    1  C2  UNL     1     -34.968  16.195  -7.346  1.00 20.00     0.006 C 
HETATM    2  C3  UNL     1     -33.662  17.299  -5.534  1.00 20.00     0.006 C 
HETATM    3  C4  UNL     1     -34.642  14.811  -6.737  1.00 20.00     0.019 C 
HETATM    4  C5  UNL     1     -33.339  15.920  -4.923  1.00 20.00     0.019 C 
HETATM    5  C7  UNL     1     -35.038  17.263  -6.228  1.00 20.00    -0.010 C 
HETATM    6  C10 UNL     1     -34.495  14.932  -5.198  1.00 20.00     0.040 C 
ENDROOT
BRANCH   6   7
HETATM    7  C1  UNL     1     -34.164  13.603  -4.590  1.00 20.00     0.228 C 
HETATM    8  O11 UNL     1     -34.793  12.588  -4.876  1.00 20.00    -0.279 OA
HETATM    9 CL12 UNL     1     -32.830  13.704  -3.481  1.00 20.00    -0.043 Cl
ENDBRANCH   6   7
BRANCH   6  10
HETATM   10  C9  UNL     1     -35.821  15.472  -4.671  1.00 20.00     0.007 A 
HETATM   11  C6  UNL     1     -36.862  14.664  -3.937  1.00 20.00     0.011 A 
HETATM   12  C8  UNL     1     -35.847  15.467  -3.163  1.00 20.00    -0.005 A 
ENDBRANCH   6  10
TORSDOF 3
ENDMDL
MODEL 2
REMARK VINA RESULT:      -4.7      1.770      2.262
REMARK  3 active torsions:
REMARK  status: ('A' for Active; 'I' for Inactive)
REMARK    1  A    between atoms: C1_1  and  C10_10 
REMARK    2  A    between atoms: C7_7  and  C8_8 
REMARK    3  A    between atoms: C9_9  and  C10_10 
ROOT
HETATM    1  C2  UNL     1     -33.595  17.389  -4.723  1.00 20.00     0.006 C 
HETATM    2  C3  UNL     1     -33.703  16.132  -2.574  1.00 20.00     0.006 C 
HETATM    3  C4  UNL     1     -33.807  16.072  -5.503  1.00 20.00     0.019 C 
HETATM    4  C5  UNL     1     -33.919  14.818  -3.351  1.00 20.00     0.019 C 
HETATM    5  C7  UNL     1     -34.311  17.315  -3.353  1.00 20.00    -0.010 C 
HETATM    6  C10 UNL     1     -34.678  15.097  -4.669  1.00 20.00     0.040 C 
ENDROOT
BRANCH   6   7
HETATM    7  C1  UNL     1     -34.883  13.807  -5.403  1.00 20.00     0.228 C 
HETATM    8  O11 UNL     1     -34.833  12.723  -4.828  1.00 20.00    -0.279 OA
HETATM    9 CL12 UNL     1     -35.187  14.057  -7.095  1.00 20.00    -0.043 Cl
ENDBRANCH   6   7
BRANCH   6  10
HETATM   10  C9  UNL     1     -36.002  15.806  -4.405  1.00 20.00     0.007 A 
HETATM   11  C6  UNL     1     -37.322  15.456  -5.044  1.00 20.00     0.011 A 
HETATM   12  C8  UNL     1     -36.970  14.898  -3.688  1.00 20.00    -0.005 A 
ENDBRANCH   6  10
TORSDOF 3
ENDMDL
MODEL 3
REMARK VINA RESULT:      -4.6      1.200      3.041
REMARK  3 active torsions:
REMARK  status: ('A' for Active; 'I' for Inactive)
REMARK    1  A    between atoms: C1_1  and  C10_10 
REMARK    2  A    between atoms: C7_7  and  C8_8 
REMARK    3  A    between atoms: C9_9  and  C10_10 
ROOT
HETATM    1  C2  UNL     1     -35.524  17.068  -2.779  1.00 20.00     0.006 C 
HETATM    2  C3  UNL     1     -37.559  15.951  -3.684  1.00 20.00     0.006 C 
HETATM    3  C4  UNL     1     -34.755  15.729  -2.859  1.00 20.00     0.019 C 
HETATM    4  C5  UNL     1     -36.792  14.616  -3.769  1.00 20.00     0.019 C 
HETATM    5  C7  UNL     1     -36.592  17.133  -3.897  1.00 20.00    -0.010 C 
HETATM    6  C10 UNL     1     -35.293  14.880  -4.040  1.00 20.00     0.040 C 
ENDROOT
BRANCH   6   7
HETATM    7  C1  UNL     1     -34.570  13.571  -4.126  1.00 20.00     0.228 C 
HETATM    8  O11 UNL     1     -35.129  12.549  -4.516  1.00 20.00    -0.279 OA
HETATM    9 CL12 UNL     1     -32.913  13.703  -3.619  1.00 20.00    -0.043 Cl
ENDBRANCH   6   7
BRANCH   6  10
HETATM   10  C9  UNL     1     -35.097  15.710  -5.304  1.00 20.00     0.007 A 
HETATM   11  C6  UNL     1     -34.046  15.462  -6.357  1.00 20.00     0.011 A 
HETATM   12  C8  UNL     1     -35.437  14.909  -6.536  1.00 20.00    -0.005 A 
ENDBRANCH   6  10
TORSDOF 3
ENDMDL
MODEL 4
REMARK VINA RESULT:      -4.5      1.699      2.827
REMARK  3 active torsions:
REMARK  status: ('A' for Active; 'I' for Inactive)
REMARK    1  A    between atoms: C1_1  and  C10_10 
REMARK    2  A    between atoms: C7_7  and  C8_8 
REMARK    3  A    between atoms: C9_9  and  C10_10 
ROOT
HETATM    1  C2  UNL     1     -34.261  16.933  -6.461  1.00 20.00     0.006 C 
HETATM    2  C3  UNL     1     -35.901  15.278  -7.344  1.00 20.00     0.006 C 
HETATM    3  C4  UNL     1     -34.909  16.826  -5.061  1.00 20.00     0.019 C 
HETATM    4  C5  UNL     1     -36.546  15.168  -5.949  1.00 20.00     0.019 C 
HETATM    5  C7  UNL     1     -34.396  15.586  -7.211  1.00 20.00    -0.010 C 
HETATM    6  C10 UNL     1     -35.482  15.401  -4.851  1.00 20.00     0.040 C 
ENDROOT
BRANCH   6   7
HETATM    7  C1  UNL     1     -36.128  15.281  -3.505  1.00 20.00     0.228 C 
HETATM    8  O11 UNL     1     -37.182  14.669  -3.346  1.00 20.00    -0.279 OA
HETATM    9 CL12 UNL     1     -35.219  16.092  -2.266  1.00 20.00    -0.043 Cl
ENDBRANCH   6   7
BRANCH   6  10
HETATM   10  C9  UNL     1     -34.315  14.430  -4.998  1.00 20.00     0.007 A 
HETATM   11  C6  UNL     1     -33.648  13.690  -3.866  1.00 20.00     0.011 A 
HETATM   12  C8  UNL     1     -34.736  13.021  -4.667  1.00 20.00    -0.005 A 
ENDBRANCH   6  10
TORSDOF 3
ENDMDL
MODEL 5
REMARK VINA RESULT:      -4.4      2.327      3.398
REMARK  3 active torsions:
REMARK  status: ('A' for Active; 'I' for Inactive)
REMARK    1  A    between atoms: C1_1  and  C10_10 
REMARK    2  A    between atoms: C7_7  and  C8_8 
REMARK    3  A    between atoms: C9_9  and  C10_10 
ROOT
HETATM    1  C2  UNL     1     -33.581  13.805  -3.867  1.00 20.00     0.006 C 
HETATM    2  C3  UNL     1     -33.596  16.041  -2.766  1.00 20.00     0.006 C 
HETATM    3  C4  UNL     1     -35.118  13.726  -3.725  1.00 20.00     0.019 C 
HETATM    4  C5  UNL     1     -35.129  15.965  -2.627  1.00 20.00     0.019 C 
HETATM    5  C7  UNL     1     -33.138  15.280  -4.026  1.00 20.00    -0.010 C 
HETATM    6  C10 UNL     1     -35.729  15.149  -3.795  1.00 20.00     0.040 C 
ENDROOT
BRANCH   6   7
HETATM    7  C1  UNL     1     -37.219  15.096  -3.645  1.00 20.00     0.228 C 
HETATM    8  O11 UNL     1     -37.860  14.085  -3.922  1.00 20.00    -0.279 OA
HETATM    9 CL12 UNL     1     -37.873  16.593  -3.054  1.00 20.00    -0.043 Cl
ENDBRANCH   6   7
BRANCH   6  10
HETATM   10  C9  UNL     1     -35.325  15.736  -5.144  1.00 20.00     0.007 A 
HETATM   11  C6  UNL     1     -36.223  15.849  -6.351  1.00 20.00     0.011 A 
HETATM   12  C8  UNL     1     -36.062  17.023  -5.418  1.00 20.00    -0.005 A 
ENDBRANCH   6  10
TORSDOF 3
ENDMDL
MODEL 6
REMARK VINA RESULT:      -4.4      2.244      3.422
REMARK  3 active torsions:
REMARK  status: ('A' for Active; 'I' for Inactive)
REMARK    1  A    between atoms: C1_1  and  C10_10 
REMARK    2  A    between atoms: C7_7  and  C8_8 
REMARK    3  A    between atoms: C9_9  and  C10_10 
ROOT
HETATM    1  C2  UNL     1     -34.071  16.344  -2.395  1.00 20.00     0.006 C 
HETATM    2  C3  UNL     1     -34.183  17.523  -4.587  1.00 20.00     0.006 C 
HETATM    3  C4  UNL     1     -35.479  15.754  -2.641  1.00 20.00     0.019 C 
HETATM    4  C5  UNL     1     -35.585  16.933  -4.836  1.00 20.00     0.019 C 
HETATM    5  C7  UNL     1     -33.339  16.548  -3.743  1.00 20.00    -0.010 C 
HETATM    6  C10 UNL     1     -35.707  15.547  -4.161  1.00 20.00     0.040 C 
ENDROOT
BRANCH   6   7
HETATM    7  C1  UNL     1     -37.073  14.989  -4.422  1.00 20.00     0.228 C 
HETATM    8  O11 UNL     1     -37.574  14.140  -3.689  1.00 20.00    -0.279 OA
HETATM    9 CL12 UNL     1     -37.805  15.683  -5.837  1.00 20.00    -0.043 Cl
ENDBRANCH   6   7
BRANCH   6  10
HETATM   10  C9  UNL     1     -34.615  14.599  -4.645  1.00 20.00     0.007 A 
HETATM   11  C6  UNL     1     -34.796  13.126  -4.916  1.00 20.00     0.011 A 
HETATM   12  C8  UNL     1     -34.896  14.118  -6.047  1.00 20.00    -0.005 A 
ENDBRANCH   6  10
TORSDOF 3
ENDMDL
MODEL 7
REMARK VINA RESULT:      -4.4      2.306      3.408
REMARK  3 active torsions:
REMARK  status: ('A' for Active; 'I' for Inactive)
REMARK    1  A    between atoms: C1_1  and  C10_10 
REMARK    2  A    between atoms: C7_7  and  C8_8 
REMARK    3  A    between atoms: C9_9  and  C10_10 
ROOT
HETATM    1  C2  UNL     1     -36.093  16.915  -2.295  1.00 20.00     0.006 C 
HETATM    2  C3  UNL     1     -33.601  16.967  -2.302  1.00 20.00     0.006 C 
HETATM    3  C4  UNL     1     -36.092  16.743  -3.832  1.00 20.00     0.019 C 
HETATM    4  C5  UNL     1     -33.599  16.791  -3.834  1.00 20.00     0.019 C 
HETATM    5  C7  UNL     1     -34.827  16.262  -1.688  1.00 20.00    -0.010 C 
HETATM    6  C10 UNL     1     -34.828  15.964  -4.276  1.00 20.00     0.040 C 
ENDROOT
BRANCH   6   7
HETATM    7  C1  UNL     1     -34.801  15.799  -5.765  1.00 20.00     0.228 C 
HETATM    8  O11 UNL     1     -33.752  15.855  -6.402  1.00 20.00    -0.279 OA
HETATM    9 CL12 UNL     1     -36.387  15.533  -6.424  1.00 20.00    -0.043 Cl
ENDBRANCH   6   7
BRANCH   6  10
HETATM   10  C9  UNL     1     -34.870  14.614  -3.566  1.00 20.00     0.007 A 
HETATM   11  C6  UNL     1     -35.080  13.281  -4.239  1.00 20.00     0.011 A 
HETATM   12  C8  UNL     1     -33.682  13.765  -3.944  1.00 20.00    -0.005 A 
ENDBRANCH   6  10
TORSDOF 3
ENDMDL
MODEL 8
REMARK VINA RESULT:      -4.3      2.278      3.039
REMARK  3 active torsions:
REMARK  status: ('A' for Active; 'I' for Inactive)
REMARK    1  A    between atoms: C1_1  and  C10_10 
REMARK    2  A    between atoms: C7_7  and  C8_8 
REMARK    3  A    between atoms: C9_9  and  C10_10 
ROOT
HETATM    1  C2  UNL     1     -34.478  13.372  -4.747  1.00 20.00     0.006 C 
HETATM    2  C3  UNL     1     -34.146  15.137  -6.475  1.00 20.00     0.006 C 
HETATM    3  C4  UNL     1     -34.103  14.386  -3.641  1.00 20.00     0.019 C 
HETATM    4  C5  UNL     1     -33.776  16.150  -5.374  1.00 20.00     0.019 C 
HETATM    5  C7  UNL     1     -35.154  14.105  -5.931  1.00 20.00    -0.010 C 
HETATM    6  C10 UNL     1     -34.531  15.814  -4.067  1.00 20.00     0.040 C 
ENDROOT
BRANCH   6   7
HETATM    7  C1  UNL     1     -34.162  16.815  -3.014  1.00 20.00     0.228 C 
HETATM    8  O11 UNL     1     -33.682  17.908  -3.303  1.00 20.00    -0.279 OA
HETATM    9 CL12 UNL     1     -34.496  16.233  -1.411  1.00 20.00    -0.043 Cl
ENDBRANCH   6   7
BRANCH   6  10
HETATM   10  C9  UNL     1     -36.038  15.773  -4.294  1.00 20.00     0.007 A 
HETATM   11  C6  UNL     1     -37.072  16.423  -3.410  1.00 20.00     0.011 A 
HETATM   12  C8  UNL     1     -36.572  17.141  -4.638  1.00 20.00    -0.005 A 
ENDBRANCH   6  10
TORSDOF 3
ENDMDL
MODEL 9
REMARK VINA RESULT:      -4.3      1.768      2.319
REMARK  3 active torsions:
REMARK  status: ('A' for Active; 'I' for Inactive)
REMARK    1  A    between atoms: C1_1  and  C10_10 
REMARK    2  A    between atoms: C7_7  and  C8_8 
REMARK    3  A    between atoms: C9_9  and  C10_10 
ROOT
HETATM    1  C2  UNL     1     -34.440  16.883  -6.927  1.00 20.00     0.006 C 
HETATM    2  C3  UNL     1     -36.373  17.257  -5.399  1.00 20.00     0.006 C 
HETATM    3  C4  UNL     1     -33.548  16.538  -5.713  1.00 20.00     0.019 C 
HETATM    4  C5  UNL     1     -35.486  16.909  -4.188  1.00 20.00     0.019 C 
HETATM    5  C7  UNL     1     -35.905  16.474  -6.642  1.00 20.00    -0.010 C 
HETATM    6  C10 UNL     1     -34.404  15.884  -4.598  1.00 20.00     0.040 C 
ENDROOT
BRANCH   6   7
HETATM    7  C1  UNL     1     -33.559  15.555  -3.404  1.00 20.00     0.228 C 
HETATM    8  O11 UNL     1     -32.465  15.008  -3.519  1.00 20.00    -0.279 OA
HETATM    9 CL12 UNL     1     -34.314  16.035  -1.915  1.00 20.00    -0.043 Cl
ENDBRANCH   6   7
BRANCH   6  10
HETATM   10  C9  UNL     1     -35.030  14.631  -5.201  1.00 20.00     0.007 A 
HETATM   11  C6  UNL     1     -34.623  13.213  -4.884  1.00 20.00     0.011 A 
HETATM   12  C8  UNL     1     -35.784  13.845  -4.157  1.00 20.00    -0.005 A 
ENDBRANCH   6  10
TORSDOF 3
ENDMDL
