MODEL 1
REMARK VINA RESULT:      -4.0      0.000      0.000
REMARK  0 active torsions:
REMARK  status: ('A' for Active; 'I' for Inactive)
ROOT
HETATM    1  C1  UNL     1     -33.821   6.225   4.660  1.00 20.00     0.169 C 
HETATM    2  C2  UNL     1     -33.789   5.273   2.750  1.00 20.00     0.062 C 
HETATM    3  C3  UNL     1     -32.734   6.042   3.587  1.00 20.00     0.058 C 
HETATM    4  C4  UNL     1     -34.791   5.238   3.942  1.00 20.00     0.174 C 
HETATM    5  C5  UNL     1     -32.198   7.319   2.973  1.00 20.00     0.018 C 
HETATM    6  O6  UNL     1     -33.887   6.881   5.678  1.00 20.00    -0.294 OA
HETATM    7 CL7  UNL     1     -34.915   3.686   4.836  1.00 20.00    -0.093 Cl
HETATM    8 CL8  UNL     1     -36.396   5.977   3.640  1.00 20.00    -0.093 Cl
ENDROOT
TORSDOF 0
ENDMDL
MODEL 2
REMARK VINA RESULT:      -4.0     11.866     12.667
REMARK  0 active torsions:
REMARK  status: ('A' for Active; 'I' for Inactive)
ROOT
HETATM    1  C1  UNL     1     -34.837  13.925  -4.602  1.00 20.00     0.169 C 
HETATM    2  C2  UNL     1     -34.294  15.918  -5.138  1.00 20.00     0.062 C 
HETATM    3  C3  UNL     1     -35.287  14.879  -5.722  1.00 20.00     0.058 C 
HETATM    4  C4  UNL     1     -34.045  15.049  -3.870  1.00 20.00     0.174 C 
HETATM    5  C5  UNL     1     -35.005  14.410  -7.135  1.00 20.00     0.018 C 
HETATM    6  O6  UNL     1     -35.037  12.750  -4.377  1.00 20.00    -0.294 OA
HETATM    7 CL7  UNL     1     -34.886  15.565  -2.371  1.00 20.00    -0.093 Cl
HETATM    8 CL8  UNL     1     -32.341  14.579  -3.565  1.00 20.00    -0.093 Cl
ENDROOT
TORSDOF 0
ENDMDL
MODEL 3
REMARK VINA RESULT:      -3.8     11.599     12.325
REMARK  0 active torsions:
REMARK  status: ('A' for Active; 'I' for Inactive)
ROOT
HETATM    1  C1  UNL     1     -33.509  14.852  -3.503  1.00 20.00     0.169 C 
HETATM    2  C2  UNL     1     -35.630  15.073  -3.575  1.00 20.00     0.062 C 
HETATM    3  C3  UNL     1     -34.669  13.864  -3.719  1.00 20.00     0.058 C 
HETATM    4  C4  UNL     1     -34.476  16.006  -3.103  1.00 20.00     0.174 C 
HETATM    5  C5  UNL     1     -34.686  13.155  -5.057  1.00 20.00     0.018 C 
HETATM    6  O6  UNL     1     -32.303  14.757  -3.601  1.00 20.00    -0.294 OA
HETATM    7 CL7  UNL     1     -34.391  16.341  -1.341  1.00 20.00    -0.093 Cl
HETATM    8 CL8  UNL     1     -34.207  17.480  -4.088  1.00 20.00    -0.093 Cl
ENDROOT
TORSDOF 0
ENDMDL
MODEL 4
REMARK VINA RESULT:      -3.8     12.009     12.753
REMARK  0 active torsions:
REMARK  status: ('A' for Active; 'I' for Inactive)
ROOT
HETATM    1  C1  UNL     1     -35.262  13.945  -4.256  1.00 20.00     0.169 C 
HETATM    2  C2  UNL     1     -35.576  16.055  -4.326  1.00 20.00     0.062 C 
HETATM    3  C3  UNL     1     -36.270  14.888  -3.576  1.00 20.00     0.058 C 
HETATM    4  C4  UNL     1     -34.411  15.133  -4.795  1.00 20.00     0.174 C 
HETATM    5  C5  UNL     1     -37.727  14.649  -3.919  1.00 20.00     0.018 C 
HETATM    6  O6  UNL     1     -35.169  12.738  -4.330  1.00 20.00    -0.294 OA
HETATM    7 CL7  UNL     1     -32.863  15.282  -3.899  1.00 20.00    -0.093 Cl
HETATM    8 CL8  UNL     1     -34.161  15.028  -6.568  1.00 20.00    -0.093 Cl
ENDROOT
TORSDOF 0
ENDMDL
MODEL 5
REMARK VINA RESULT:      -3.8      2.069      3.210
REMARK  0 active torsions:
REMARK  status: ('A' for Active; 'I' for Inactive)
ROOT
HETATM    1  C1  UNL     1     -33.964   6.233   5.347  1.00 20.00     0.169 C 
HETATM    2  C2  UNL     1     -34.684   5.224   3.611  1.00 20.00     0.062 C 
HETATM    3  C3  UNL     1     -35.099   5.224   5.105  1.00 20.00     0.058 C 
HETATM    4  C4  UNL     1     -33.720   6.429   3.821  1.00 20.00     0.174 C 
HETATM    5  C5  UNL     1     -34.968   3.901   5.833  1.00 20.00     0.018 C 
HETATM    6  O6  UNL     1     -33.462   6.699   6.349  1.00 20.00    -0.294 OA
HETATM    7 CL7  UNL     1     -34.313   8.031   3.270  1.00 20.00    -0.093 Cl
HETATM    8 CL8  UNL     1     -32.007   6.149   3.374  1.00 20.00    -0.093 Cl
ENDROOT
TORSDOF 0
ENDMDL
MODEL 6
REMARK VINA RESULT:      -3.8     11.921     12.596
REMARK  0 active torsions:
REMARK  status: ('A' for Active; 'I' for Inactive)
ROOT
HETATM    1  C1  UNL     1     -33.342  15.232  -3.722  1.00 20.00     0.169 C 
HETATM    2  C2  UNL     1     -35.332  15.993  -3.838  1.00 20.00     0.062 C 
HETATM    3  C3  UNL     1     -34.027  16.493  -3.166  1.00 20.00     0.058 C 
HETATM    4  C4  UNL     1     -34.573  14.869  -4.604  1.00 20.00     0.174 C 
HETATM    5  C5  UNL     1     -34.057  16.612  -1.656  1.00 20.00     0.018 C 
HETATM    6  O6  UNL     1     -32.254  14.727  -3.542  1.00 20.00    -0.294 OA
HETATM    7 CL7  UNL     1     -34.238  15.174  -6.341  1.00 20.00    -0.093 Cl
HETATM    8 CL8  UNL     1     -35.142  13.195  -4.306  1.00 20.00    -0.093 Cl
ENDROOT
TORSDOF 0
ENDMDL
MODEL 7
REMARK VINA RESULT:      -3.6     12.359     13.301
REMARK  0 active torsions:
REMARK  status: ('A' for Active; 'I' for Inactive)
ROOT
HETATM    1  C1  UNL     1     -33.694  15.855  -5.238  1.00 20.00     0.169 C 
HETATM    2  C2  UNL     1     -35.111  14.330  -5.701  1.00 20.00     0.062 C 
HETATM    3  C3  UNL     1     -34.226  15.272  -6.558  1.00 20.00     0.058 C 
HETATM    4  C4  UNL     1     -34.379  14.742  -4.390  1.00 20.00     0.174 C 
HETATM    5  C5  UNL     1     -34.964  16.246  -7.455  1.00 20.00     0.018 C 
HETATM    6  O6  UNL     1     -32.998  16.812  -4.970  1.00 20.00    -0.294 OA
HETATM    7 CL7  UNL     1     -33.171  13.578  -3.750  1.00 20.00    -0.093 Cl
HETATM    8 CL8  UNL     1     -35.414  15.426  -3.096  1.00 20.00    -0.093 Cl
ENDROOT
TORSDOF 0
ENDMDL
MODEL 8
REMARK VINA RESULT:      -3.6     11.804     12.459
REMARK  0 active torsions:
REMARK  status: ('A' for Active; 'I' for Inactive)
ROOT
HETATM    1  C1  UNL     1     -35.425  15.296  -3.389  1.00 20.00     0.169 C 
HETATM    2  C2  UNL     1     -33.299  15.455  -3.471  1.00 20.00     0.062 C 
HETATM    3  C3  UNL     1     -34.343  15.563  -2.329  1.00 20.00     0.058 C 
HETATM    4  C4  UNL     1     -34.369  14.931  -4.475  1.00 20.00     0.174 C 
HETATM    5  C5  UNL     1     -34.427  16.904  -1.629  1.00 20.00     0.018 C 
HETATM    6  O6  UNL     1     -36.638  15.344  -3.373  1.00 20.00    -0.294 OA
HETATM    7 CL7  UNL     1     -34.360  13.167  -4.803  1.00 20.00    -0.093 Cl
HETATM    8 CL8  UNL     1     -34.582  15.899  -5.969  1.00 20.00    -0.093 Cl
ENDROOT
TORSDOF 0
ENDMDL
MODEL 9
REMARK VINA RESULT:      -3.5     11.934     12.695
REMARK  0 active torsions:
REMARK  status: ('A' for Active; 'I' for Inactive)
ROOT
HETATM    1  C1  UNL     1     -34.890  13.862  -4.869  1.00 20.00     0.169 C 
HETATM    2  C2  UNL     1     -35.035  15.986  -4.717  1.00 20.00     0.062 C 
HETATM    3  C3  UNL     1     -33.847  14.990  -4.775  1.00 20.00     0.058 C 
HETATM    4  C4  UNL     1     -36.061  14.870  -5.074  1.00 20.00     0.174 C 
HETATM    5  C5  UNL     1     -32.949  14.953  -3.555  1.00 20.00     0.018 C 
HETATM    6  O6  UNL     1     -34.817  12.653  -4.814  1.00 20.00    -0.294 OA
HETATM    7 CL7  UNL     1     -36.653  14.840  -6.768  1.00 20.00    -0.093 Cl
HETATM    8 CL8  UNL     1     -37.382  14.612  -3.889  1.00 20.00    -0.093 Cl
ENDROOT
TORSDOF 0
ENDMDL
