MODEL 1
REMARK VINA RESULT:      -4.2      0.000      0.000
REMARK  1 active torsions:
REMARK  status: ('A' for Active; 'I' for Inactive)
REMARK    1  A    between atoms: C6_6  and  N10_10 
ROOT
HETATM    1  C1  UNL     1     -35.328  14.388  -6.673  1.00 20.00     0.064 C 
HETATM    2  C2  UNL     1     -34.405  13.176  -4.700  1.00 20.00     0.021 C 
HETATM    3  C3  UNL     1     -33.552  13.985  -3.724  1.00 20.00     0.037 C 
HETATM    4  C4  UNL     1     -35.287  15.448  -4.428  1.00 20.00     0.055 C 
HETATM    5  C5  UNL     1     -35.471  14.151  -5.230  1.00 20.00     0.095 C 
HETATM    6  C6  UNL     1     -34.535  15.010  -3.175  1.00 20.00     0.223 C 
HETATM    7  N9  UNL     1     -35.214  14.574  -7.812  1.00 20.00    -0.197 NA
ENDROOT
BRANCH   6   8
HETATM    8  N10 UNL     1     -33.876  16.114  -2.500  1.00 20.00     0.084 N 
HETATM    9  C7  UNL     1     -34.574  16.456  -1.256  1.00 20.00     0.309 C 
HETATM   10  C8  UNL     1     -33.801  17.289  -3.373  1.00 20.00     0.309 C 
ENDBRANCH   6   8
TORSDOF 1
ENDMDL
MODEL 2
REMARK VINA RESULT:      -4.2      1.852      2.589
REMARK  1 active torsions:
REMARK  status: ('A' for Active; 'I' for Inactive)
REMARK    1  A    between atoms: C6_6  and  N10_10 
ROOT
HETATM    1  C1  UNL     1     -34.154  13.685  -4.345  1.00 20.00     0.064 C 
HETATM    2  C2  UNL     1     -33.353  15.998  -4.813  1.00 20.00     0.021 C 
HETATM    3  C3  UNL     1     -34.110  17.144  -4.145  1.00 20.00     0.037 C 
HETATM    4  C4  UNL     1     -34.052  15.390  -2.543  1.00 20.00     0.055 C 
HETATM    5  C5  UNL     1     -33.400  14.828  -3.815  1.00 20.00     0.095 C 
HETATM    6  C6  UNL     1     -33.866  16.900  -2.662  1.00 20.00     0.223 C 
HETATM    7  N9  UNL     1     -34.751  12.782  -4.764  1.00 20.00    -0.197 NA
ENDROOT
BRANCH   6   8
HETATM    8  N10 UNL     1     -34.776  17.647  -1.812  1.00 20.00     0.084 N 
HETATM    9  C7  UNL     1     -34.779  17.107  -0.449  1.00 20.00     0.309 C 
HETATM   10  C8  UNL     1     -36.135  17.632  -2.362  1.00 20.00     0.309 C 
ENDBRANCH   6   8
TORSDOF 1
ENDMDL
MODEL 3
REMARK VINA RESULT:      -4.1      2.042      2.751
REMARK  1 active torsions:
REMARK  status: ('A' for Active; 'I' for Inactive)
REMARK    1  A    between atoms: C6_6  and  N10_10 
ROOT
HETATM    1  C1  UNL     1     -34.353  13.716  -3.922  1.00 20.00     0.064 C 
HETATM    2  C2  UNL     1     -33.030  15.763  -4.443  1.00 20.00     0.021 C 
HETATM    3  C3  UNL     1     -33.730  17.108  -4.258  1.00 20.00     0.037 C 
HETATM    4  C4  UNL     1     -34.500  15.732  -2.480  1.00 20.00     0.055 C 
HETATM    5  C5  UNL     1     -33.602  14.841  -3.351  1.00 20.00     0.095 C 
HETATM    6  C6  UNL     1     -34.008  17.149  -2.761  1.00 20.00     0.223 C 
HETATM    7  N9  UNL     1     -34.947  12.828  -4.373  1.00 20.00    -0.197 NA
ENDROOT
BRANCH   6   8
HETATM    8  N10 UNL     1     -34.981  18.164  -2.398  1.00 20.00     0.084 N 
HETATM    9  C7  UNL     1     -36.319  17.581  -2.264  1.00 20.00     0.309 C 
HETATM   10  C8  UNL     1     -35.001  19.245  -3.388  1.00 20.00     0.309 C 
ENDBRANCH   6   8
TORSDOF 1
ENDMDL
MODEL 4
REMARK VINA RESULT:      -4.0      1.154      4.206
REMARK  1 active torsions:
REMARK  status: ('A' for Active; 'I' for Inactive)
REMARK    1  A    between atoms: C6_6  and  N10_10 
ROOT
HETATM    1  C1  UNL     1     -34.041  15.967  -2.427  1.00 20.00     0.064 C 
HETATM    2  C2  UNL     1     -33.662  13.765  -3.532  1.00 20.00     0.021 C 
HETATM    3  C3  UNL     1     -34.667  13.341  -4.601  1.00 20.00     0.037 C 
HETATM    4  C4  UNL     1     -34.390  15.686  -4.870  1.00 20.00     0.055 C 
HETATM    5  C5  UNL     1     -33.556  15.296  -3.641  1.00 20.00     0.095 C 
HETATM    6  C6  UNL     1     -34.486  14.398  -5.682  1.00 20.00     0.223 C 
HETATM    7  N9  UNL     1     -34.425  16.496  -1.469  1.00 20.00    -0.197 NA
ENDROOT
BRANCH   6   8
HETATM    8  N10 UNL     1     -35.578  14.417  -6.639  1.00 20.00     0.084 N 
HETATM    9  C7  UNL     1     -35.142  14.986  -7.918  1.00 20.00     0.309 C 
HETATM   10  C8  UNL     1     -36.718  15.174  -6.114  1.00 20.00     0.309 C 
ENDBRANCH   6   8
TORSDOF 1
ENDMDL
MODEL 5
REMARK VINA RESULT:      -3.9      2.297      2.868
REMARK  1 active torsions:
REMARK  status: ('A' for Active; 'I' for Inactive)
REMARK    1  A    between atoms: C6_6  and  N10_10 
ROOT
HETATM    1  C1  UNL     1     -36.722  14.380  -3.981  1.00 20.00     0.064 C 
HETATM    2  C2  UNL     1     -34.923  14.146  -5.691  1.00 20.00     0.021 C 
HETATM    3  C3  UNL     1     -34.326  15.435  -6.252  1.00 20.00     0.037 C 
HETATM    4  C4  UNL     1     -34.729  15.861  -3.950  1.00 20.00     0.055 C 
HETATM    5  C5  UNL     1     -35.275  14.452  -4.225  1.00 20.00     0.095 C 
HETATM    6  C6  UNL     1     -33.675  16.073  -5.033  1.00 20.00     0.223 C 
HETATM    7  N9  UNL     1     -37.864  14.324  -3.790  1.00 20.00    -0.197 NA
ENDROOT
BRANCH   6   8
HETATM    8  N10 UNL     1     -33.351  17.473  -5.236  1.00 20.00     0.084 N 
HETATM    9  C7  UNL     1     -33.715  18.269  -4.060  1.00 20.00     0.309 C 
HETATM   10  C8  UNL     1     -34.027  17.997  -6.426  1.00 20.00     0.309 C 
ENDBRANCH   6   8
TORSDOF 1
ENDMDL
MODEL 6
REMARK VINA RESULT:      -3.9      2.020      2.958
REMARK  1 active torsions:
REMARK  status: ('A' for Active; 'I' for Inactive)
REMARK    1  A    between atoms: C6_6  and  N10_10 
ROOT
HETATM    1  C1  UNL     1     -35.163  13.755  -4.116  1.00 20.00     0.064 C 
HETATM    2  C2  UNL     1     -34.683  15.462  -2.364  1.00 20.00     0.021 C 
HETATM    3  C3  UNL     1     -33.974  16.738  -2.813  1.00 20.00     0.037 C 
HETATM    4  C4  UNL     1     -35.467  16.177  -4.575  1.00 20.00     0.055 C 
HETATM    5  C5  UNL     1     -35.577  15.043  -3.544  1.00 20.00     0.095 C 
HETATM    6  C6  UNL     1     -34.979  17.374  -3.764  1.00 20.00     0.223 C 
HETATM    7  N9  UNL     1     -34.835  12.738  -4.568  1.00 20.00    -0.197 NA
ENDROOT
BRANCH   6   8
HETATM    8  N10 UNL     1     -34.391  18.411  -4.593  1.00 20.00     0.084 N 
HETATM    9  C7  UNL     1     -33.677  17.827  -5.732  1.00 20.00     0.309 C 
HETATM   10  C8  UNL     1     -33.484  19.253  -3.807  1.00 20.00     0.309 C 
ENDBRANCH   6   8
TORSDOF 1
ENDMDL
MODEL 7
REMARK VINA RESULT:      -3.9      1.306      4.154
REMARK  1 active torsions:
REMARK  status: ('A' for Active; 'I' for Inactive)
REMARK    1  A    between atoms: C6_6  and  N10_10 
ROOT
HETATM    1  C1  UNL     1     -34.207  15.993  -2.151  1.00 20.00     0.064 C 
HETATM    2  C2  UNL     1     -33.966  14.007  -3.639  1.00 20.00     0.021 C 
HETATM    3  C3  UNL     1     -34.844  13.964  -4.888  1.00 20.00     0.037 C 
HETATM    4  C4  UNL     1     -34.213  16.240  -4.622  1.00 20.00     0.055 C 
HETATM    5  C5  UNL     1     -33.637  15.493  -3.410  1.00 20.00     0.095 C 
HETATM    6  C6  UNL     1     -34.357  15.162  -5.692  1.00 20.00     0.223 C 
HETATM    7  N9  UNL     1     -34.657  16.387  -1.158  1.00 20.00    -0.197 NA
ENDROOT
BRANCH   6   8
HETATM    8  N10 UNL     1     -35.277  15.539  -6.750  1.00 20.00     0.084 N 
HETATM    9  C7  UNL     1     -36.577  15.932  -6.196  1.00 20.00     0.309 C 
HETATM   10  C8  UNL     1     -35.449  14.443  -7.708  1.00 20.00     0.309 C 
ENDBRANCH   6   8
TORSDOF 1
ENDMDL
MODEL 8
REMARK VINA RESULT:      -3.9      2.230      2.779
REMARK  1 active torsions:
REMARK  status: ('A' for Active; 'I' for Inactive)
REMARK    1  A    between atoms: C6_6  and  N10_10 
ROOT
HETATM    1  C1  UNL     1     -37.009  14.687  -3.888  1.00 20.00     0.064 C 
HETATM    2  C2  UNL     1     -35.525  16.503  -4.731  1.00 20.00     0.021 C 
HETATM    3  C3  UNL     1     -34.937  17.457  -3.695  1.00 20.00     0.037 C 
HETATM    4  C4  UNL     1     -34.940  15.314  -2.668  1.00 20.00     0.055 C 
HETATM    5  C5  UNL     1     -35.618  15.134  -4.034  1.00 20.00     0.095 C 
HETATM    6  C6  UNL     1     -34.059  16.547  -2.846  1.00 20.00     0.223 C 
HETATM    7  N9  UNL     1     -38.108  14.334  -3.773  1.00 20.00    -0.197 NA
ENDROOT
BRANCH   6   8
HETATM    8  N10 UNL     1     -33.676  17.153  -1.583  1.00 20.00     0.084 N 
HETATM    9  C7  UNL     1     -34.653  16.837  -0.536  1.00 20.00     0.309 C 
HETATM   10  C8  UNL     1     -33.540  18.606  -1.722  1.00 20.00     0.309 C 
ENDBRANCH   6   8
TORSDOF 1
ENDMDL
MODEL 9
REMARK VINA RESULT:      -3.8      1.983      4.946
REMARK  1 active torsions:
REMARK  status: ('A' for Active; 'I' for Inactive)
REMARK    1  A    between atoms: C6_6  and  N10_10 
ROOT
HETATM    1  C1  UNL     1     -33.265  18.194  -0.670  1.00 20.00     0.064 C 
HETATM    2  C2  UNL     1     -33.826  18.049  -3.094  1.00 20.00     0.021 C 
HETATM    3  C3  UNL     1     -33.695  16.679  -3.757  1.00 20.00     0.037 C 
HETATM    4  C4  UNL     1     -34.535  16.261  -1.574  1.00 20.00     0.055 C 
HETATM    5  C5  UNL     1     -34.276  17.773  -1.649  1.00 20.00     0.095 C 
HETATM    6  C6  UNL     1     -34.737  15.842  -3.027  1.00 20.00     0.223 C 
HETATM    7  N9  UNL     1     -32.466  18.526   0.103  1.00 20.00    -0.197 NA
ENDROOT
BRANCH   6   8
HETATM    8  N10 UNL     1     -34.557  14.416  -3.232  1.00 20.00     0.084 N 
HETATM    9  C7  UNL     1     -33.212  14.128  -3.738  1.00 20.00     0.309 C 
HETATM   10  C8  UNL     1     -35.566  13.891  -4.157  1.00 20.00     0.309 C 
ENDBRANCH   6   8
TORSDOF 1
ENDMDL
