MODEL 1
REMARK VINA RESULT:      -6.1      0.000      0.000
REMARK  1 active torsions:
REMARK  status: ('A' for Active; 'I' for Inactive)
REMARK    1  A    between atoms: C9_9  and  C10_10 
ROOT
HETATM    1  C1  UNL     1     -35.255   4.801   5.301  1.00 20.00     0.001 A 
HETATM    2  C2  UNL     1     -34.705   5.634   6.377  1.00 20.00     0.001 A 
HETATM    3  C3  UNL     1     -34.786   4.859   4.038  1.00 20.00     0.012 A 
HETATM    4  C4  UNL     1     -33.697   6.507   6.166  1.00 20.00     0.012 A 
HETATM    5  C5  UNL     1     -33.058   6.038   2.616  1.00 20.00     0.001 A 
HETATM    6  C6  UNL     1     -32.174   7.374   4.343  1.00 20.00     0.001 A 
HETATM    7  C7  UNL     1     -33.708   5.779   3.759  1.00 20.00    -0.029 A 
HETATM    8  C8  UNL     1     -33.160   6.606   4.829  1.00 20.00    -0.029 A 
HETATM    9  C10 UNL     1     -32.007   7.087   2.873  1.00 20.00     0.094 A 
ENDROOT
BRANCH   9  10
HETATM   10  C9  UNL     1     -32.334   8.317   2.088  1.00 20.00     0.243 C 
HETATM   11  O11 UNL     1     -31.757   8.629   1.051  1.00 20.00    -0.306 OA
ENDBRANCH   9  10
TORSDOF 1
ENDMDL
MODEL 2
REMARK VINA RESULT:      -4.8     11.126     12.271
REMARK  1 active torsions:
REMARK  status: ('A' for Active; 'I' for Inactive)
REMARK    1  A    between atoms: C9_9  and  C10_10 
ROOT
HETATM    1  C1  UNL     1     -33.576  19.111  -0.620  1.00 20.00     0.001 A 
HETATM    2  C2  UNL     1     -34.306  18.208   0.276  1.00 20.00     0.001 A 
HETATM    3  C3  UNL     1     -33.322  18.795  -1.906  1.00 20.00     0.012 A 
HETATM    4  C4  UNL     1     -34.767  17.007  -0.133  1.00 20.00     0.012 A 
HETATM    5  C5  UNL     1     -33.687  16.957  -3.606  1.00 20.00     0.001 A 
HETATM    6  C6  UNL     1     -34.860  15.508  -2.167  1.00 20.00     0.001 A 
HETATM    7  C7  UNL     1     -33.794  17.519  -2.394  1.00 20.00    -0.029 A 
HETATM    8  C8  UNL     1     -34.521  16.622  -1.503  1.00 20.00    -0.029 A 
HETATM    9  C10 UNL     1     -34.360  15.609  -3.585  1.00 20.00     0.094 A 
ENDROOT
BRANCH   9  10
HETATM   10  C9  UNL     1     -33.340  14.543  -3.829  1.00 20.00     0.243 C 
HETATM   11  O11 UNL     1     -33.590  13.343  -3.767  1.00 20.00    -0.306 OA
ENDBRANCH   9  10
TORSDOF 1
ENDMDL
MODEL 3
REMARK VINA RESULT:      -4.8      0.945      2.105
REMARK  1 active torsions:
REMARK  status: ('A' for Active; 'I' for Inactive)
REMARK    1  A    between atoms: C9_9  and  C10_10 
ROOT
HETATM    1  C1  UNL     1     -34.806   4.841   6.798  1.00 20.00     0.001 A 
HETATM    2  C2  UNL     1     -35.154   3.837   5.787  1.00 20.00     0.001 A 
HETATM    3  C3  UNL     1     -34.260   6.030   6.471  1.00 20.00     0.012 A 
HETATM    4  C4  UNL     1     -34.947   4.044   4.469  1.00 20.00     0.012 A 
HETATM    5  C5  UNL     1     -33.498   7.380   4.473  1.00 20.00     0.001 A 
HETATM    6  C6  UNL     1     -34.057   5.768   2.848  1.00 20.00     0.001 A 
HETATM    7  C7  UNL     1     -34.018   6.300   5.073  1.00 20.00    -0.029 A 
HETATM    8  C8  UNL     1     -34.365   5.302   4.067  1.00 20.00    -0.029 A 
HETATM    9  C10 UNL     1     -33.471   7.150   2.983  1.00 20.00     0.094 A 
ENDROOT
BRANCH   9  10
HETATM   10  C9  UNL     1     -32.051   7.134   2.512  1.00 20.00     0.243 C 
HETATM   11  O11 UNL     1     -31.569   8.002   1.791  1.00 20.00    -0.306 OA
ENDBRANCH   9  10
TORSDOF 1
ENDMDL
MODEL 4
REMARK VINA RESULT:      -4.7     11.330     12.534
REMARK  1 active torsions:
REMARK  status: ('A' for Active; 'I' for Inactive)
REMARK    1  A    between atoms: C9_9  and  C10_10 
ROOT
HETATM    1  C1  UNL     1     -33.598  18.328  -2.376  1.00 20.00     0.001 A 
HETATM    2  C2  UNL     1     -34.007  17.483  -1.249  1.00 20.00     0.001 A 
HETATM    3  C3  UNL     1     -33.846  17.987  -3.657  1.00 20.00     0.012 A 
HETATM    4  C4  UNL     1     -34.657  16.313  -1.428  1.00 20.00     0.012 A 
HETATM    5  C5  UNL     1     -34.912  16.168  -5.054  1.00 20.00     0.001 A 
HETATM    6  C6  UNL     1     -35.571  14.810  -3.245  1.00 20.00     0.001 A 
HETATM    7  C7  UNL     1     -34.539  16.744  -3.902  1.00 20.00    -0.029 A 
HETATM    8  C8  UNL     1     -34.947  15.903  -2.782  1.00 20.00    -0.029 A 
HETATM    9  C10 UNL     1     -35.613  14.869  -4.750  1.00 20.00     0.094 A 
ENDROOT
BRANCH   9  10
HETATM   10  C9  UNL     1     -34.817  13.734  -5.313  1.00 20.00     0.243 C 
HETATM   11  O11 UNL     1     -34.745  12.631  -4.780  1.00 20.00    -0.306 OA
ENDBRANCH   9  10
TORSDOF 1
ENDMDL
MODEL 5
REMARK VINA RESULT:      -4.7     11.245     13.077
REMARK  1 active torsions:
REMARK  status: ('A' for Active; 'I' for Inactive)
REMARK    1  A    between atoms: C9_9  and  C10_10 
ROOT
HETATM    1  C1  UNL     1     -34.514  15.991  -7.259  1.00 20.00     0.001 A 
HETATM    2  C2  UNL     1     -34.873  14.590  -7.013  1.00 20.00     0.001 A 
HETATM    3  C3  UNL     1     -34.101  16.810  -6.270  1.00 20.00     0.012 A 
HETATM    4  C4  UNL     1     -34.811  14.038  -5.783  1.00 20.00     0.012 A 
HETATM    5  C5  UNL     1     -33.644  16.843  -3.783  1.00 20.00     0.001 A 
HETATM    6  C6  UNL     1     -34.219  14.593  -3.388  1.00 20.00     0.001 A 
HETATM    7  C7  UNL     1     -34.018  16.267  -4.934  1.00 20.00    -0.029 A 
HETATM    8  C8  UNL     1     -34.374  14.874  -4.690  1.00 20.00    -0.029 A 
HETATM    9  C10 UNL     1     -33.734  15.827  -2.673  1.00 20.00     0.094 A 
ENDROOT
BRANCH   9  10
HETATM   10  C9  UNL     1     -34.767  16.265  -1.684  1.00 20.00     0.243 C 
HETATM   11  O11 UNL     1     -34.499  16.628  -0.543  1.00 20.00    -0.306 OA
ENDBRANCH   9  10
TORSDOF 1
ENDMDL
MODEL 6
REMARK VINA RESULT:      -4.7     11.177     12.189
REMARK  1 active torsions:
REMARK  status: ('A' for Active; 'I' for Inactive)
REMARK    1  A    between atoms: C9_9  and  C10_10 
ROOT
HETATM    1  C1  UNL     1     -35.268  17.677  -0.274  1.00 20.00     0.001 A 
HETATM    2  C2  UNL     1     -36.385  18.259  -1.026  1.00 20.00     0.001 A 
HETATM    3  C3  UNL     1     -34.512  16.677  -0.771  1.00 20.00     0.012 A 
HETATM    4  C4  UNL     1     -36.722  17.829  -2.260  1.00 20.00     0.012 A 
HETATM    5  C5  UNL     1     -34.257  15.213  -2.818  1.00 20.00     0.001 A 
HETATM    6  C6  UNL     1     -36.050  16.149  -4.026  1.00 20.00     0.001 A 
HETATM    7  C7  UNL     1     -34.832  16.180  -2.089  1.00 20.00    -0.029 A 
HETATM    8  C8  UNL     1     -35.942  16.760  -2.838  1.00 20.00    -0.029 A 
HETATM    9  C10 UNL     1     -34.979  15.094  -4.136  1.00 20.00     0.094 A 
ENDROOT
BRANCH   9  10
HETATM   10  C9  UNL     1     -35.620  13.745  -4.228  1.00 20.00     0.243 C 
HETATM   11  O11 UNL     1     -34.987  12.705  -4.379  1.00 20.00    -0.306 OA
ENDBRANCH   9  10
TORSDOF 1
ENDMDL
MODEL 7
REMARK VINA RESULT:      -4.6     11.266     11.815
REMARK  1 active torsions:
REMARK  status: ('A' for Active; 'I' for Inactive)
REMARK    1  A    between atoms: C9_9  and  C10_10 
ROOT
HETATM    1  C1  UNL     1     -35.552  13.550  -4.488  1.00 20.00     0.001 A 
HETATM    2  C2  UNL     1     -34.087  13.476  -4.451  1.00 20.00     0.001 A 
HETATM    3  C3  UNL     1     -36.240  14.502  -3.825  1.00 20.00     0.012 A 
HETATM    4  C4  UNL     1     -33.341  14.358  -3.752  1.00 20.00     0.012 A 
HETATM    5  C5  UNL     1     -35.904  16.507  -2.321  1.00 20.00     0.001 A 
HETATM    6  C6  UNL     1     -33.552  16.391  -2.263  1.00 20.00     0.001 A 
HETATM    7  C7  UNL     1     -35.488  15.469  -3.061  1.00 20.00    -0.029 A 
HETATM    8  C8  UNL     1     -34.031  15.398  -3.025  1.00 20.00    -0.029 A 
HETATM    9  C10 UNL     1     -34.704  17.205  -1.733  1.00 20.00     0.094 A 
ENDROOT
BRANCH   9  10
HETATM   10  C9  UNL     1     -34.747  17.092  -0.243  1.00 20.00     0.243 C 
HETATM   11  O11 UNL     1     -34.460  18.014   0.513  1.00 20.00    -0.306 OA
ENDBRANCH   9  10
TORSDOF 1
ENDMDL
MODEL 8
REMARK VINA RESULT:      -4.6     11.016     12.736
REMARK  1 active torsions:
REMARK  status: ('A' for Active; 'I' for Inactive)
REMARK    1  A    between atoms: C9_9  and  C10_10 
ROOT
HETATM    1  C1  UNL     1     -33.773  18.328  -1.858  1.00 20.00     0.001 A 
HETATM    2  C2  UNL     1     -33.716  18.913  -3.202  1.00 20.00     0.001 A 
HETATM    3  C3  UNL     1     -33.816  16.995  -1.656  1.00 20.00     0.012 A 
HETATM    4  C4  UNL     1     -33.704  18.152  -4.317  1.00 20.00     0.012 A 
HETATM    5  C5  UNL     1     -33.836  14.799  -2.911  1.00 20.00     0.001 A 
HETATM    6  C6  UNL     1     -33.744  15.738  -5.070  1.00 20.00     0.001 A 
HETATM    7  C7  UNL     1     -33.805  16.136  -2.817  1.00 20.00    -0.029 A 
HETATM    8  C8  UNL     1     -33.747  16.717  -4.154  1.00 20.00    -0.029 A 
HETATM    9  C10 UNL     1     -33.800  14.407  -4.366  1.00 20.00     0.094 A 
ENDROOT
BRANCH   9  10
HETATM   10  C9  UNL     1     -35.075  13.711  -4.722  1.00 20.00     0.243 C 
HETATM   11  O11 UNL     1     -35.334  12.560  -4.385  1.00 20.00    -0.306 OA
ENDBRANCH   9  10
TORSDOF 1
ENDMDL
MODEL 9
REMARK VINA RESULT:      -4.6     11.292     13.474
REMARK  1 active torsions:
REMARK  status: ('A' for Active; 'I' for Inactive)
REMARK    1  A    between atoms: C9_9  and  C10_10 
ROOT
HETATM    1  C1  UNL     1     -33.666  13.798  -3.778  1.00 20.00     0.001 A 
HETATM    2  C2  UNL     1     -33.060  15.129  -3.664  1.00 20.00     0.001 A 
HETATM    3  C3  UNL     1     -34.420  13.441  -4.838  1.00 20.00     0.012 A 
HETATM    4  C4  UNL     1     -33.219  16.075  -4.614  1.00 20.00     0.012 A 
HETATM    5  C5  UNL     1     -35.310  14.336  -7.030  1.00 20.00     0.001 A 
HETATM    6  C6  UNL     1     -34.335  16.473  -6.848  1.00 20.00     0.001 A 
HETATM    7  C7  UNL     1     -34.621  14.418  -5.882  1.00 20.00    -0.029 A 
HETATM    8  C8  UNL     1     -34.017  15.742  -5.770  1.00 20.00    -0.029 A 
HETATM    9  C10 UNL     1     -35.196  15.645  -7.767  1.00 20.00     0.094 A 
ENDROOT
BRANCH   9  10
HETATM   10  C9  UNL     1     -36.550  16.272  -7.875  1.00 20.00     0.243 C 
HETATM   11  O11 UNL     1     -37.284  16.463  -6.911  1.00 20.00    -0.306 OA
ENDBRANCH   9  10
TORSDOF 1
ENDMDL
