MODEL 1
REMARK VINA RESULT:      -4.6      0.000      0.000
REMARK  0 active torsions:
REMARK  status: ('A' for Active; 'I' for Inactive)
ROOT
HETATM    1  C1  UNL     1     -33.334  14.842  -3.713  1.00 20.00     0.031 A 
HETATM    2  C2  UNL     1     -33.362  16.964  -4.940  1.00 20.00    -0.014 A 
HETATM    3  C3  UNL     1     -34.924  15.719  -6.978  1.00 20.00    -0.013 A 
HETATM    4  C4  UNL     1     -33.742  13.561  -3.680  1.00 20.00     0.117 A 
HETATM    5  C5  UNL     1     -34.873  13.638  -5.664  1.00 20.00     0.128 A 
HETATM    6  C6  UNL     1     -33.718  15.672  -4.840  1.00 20.00    -0.027 A 
HETATM    7  C7  UNL     1     -34.520  15.066  -5.883  1.00 20.00    -0.012 A 
HETATM    8  C8  UNL     1     -33.761  17.840  -6.096  1.00 20.00     0.032 A 
HETATM    9  C9  UNL     1     -34.566  17.157  -7.219  1.00 20.00     0.032 A 
HETATM   10  N10 UNL     1     -34.512  12.929  -4.636  1.00 20.00    -0.272 NA
ENDROOT
TORSDOF 0
ENDMDL
MODEL 2
REMARK VINA RESULT:      -4.5     11.863     13.980
REMARK  0 active torsions:
REMARK  status: ('A' for Active; 'I' for Inactive)
ROOT
HETATM    1  C1  UNL     1     -33.173   5.953   2.554  1.00 20.00     0.031 A 
HETATM    2  C2  UNL     1     -34.737   4.781   4.033  1.00 20.00    -0.014 A 
HETATM    3  C3  UNL     1     -33.806   6.372   6.212  1.00 20.00    -0.013 A 
HETATM    4  C4  UNL     1     -32.234   6.910   2.448  1.00 20.00     0.117 A 
HETATM    5  C5  UNL     1     -32.289   7.520   4.650  1.00 20.00     0.128 A 
HETATM    6  C6  UNL     1     -33.783   5.708   3.849  1.00 20.00    -0.027 A 
HETATM    7  C7  UNL     1     -33.334   6.511   4.968  1.00 20.00    -0.012 A 
HETATM    8  C8  UNL     1     -35.386   4.523   5.366  1.00 20.00     0.032 A 
HETATM    9  C9  UNL     1     -34.852   5.350   6.552  1.00 20.00     0.032 A 
HETATM   10  N10 UNL     1     -31.771   7.711   3.473  1.00 20.00    -0.272 NA
ENDROOT
TORSDOF 0
ENDMDL
MODEL 3
REMARK VINA RESULT:      -4.5      1.102      2.563
REMARK  0 active torsions:
REMARK  status: ('A' for Active; 'I' for Inactive)
ROOT
HETATM    1  C1  UNL     1     -34.567  14.660  -6.089  1.00 20.00     0.031 A 
HETATM    2  C2  UNL     1     -34.038  16.946  -5.380  1.00 20.00    -0.014 A 
HETATM    3  C3  UNL     1     -33.976  16.049  -2.672  1.00 20.00    -0.013 A 
HETATM    4  C4  UNL     1     -34.774  13.388  -5.706  1.00 20.00     0.117 A 
HETATM    5  C5  UNL     1     -34.477  13.776  -3.475  1.00 20.00     0.128 A 
HETATM    6  C6  UNL     1     -34.271  15.658  -5.078  1.00 20.00    -0.027 A 
HETATM    7  C7  UNL     1     -34.223  15.225  -3.696  1.00 20.00    -0.012 A 
HETATM    8  C8  UNL     1     -33.719  17.989  -4.345  1.00 20.00     0.032 A 
HETATM    9  C9  UNL     1     -33.729  17.515  -2.878  1.00 20.00     0.032 A 
HETATM   10  N10 UNL     1     -34.735  12.912  -4.411  1.00 20.00    -0.272 NA
ENDROOT
TORSDOF 0
ENDMDL
MODEL 4
REMARK VINA RESULT:      -4.4      2.559      3.454
REMARK  0 active torsions:
REMARK  status: ('A' for Active; 'I' for Inactive)
ROOT
HETATM    1  C1  UNL     1     -36.037  14.119  -4.224  1.00 20.00     0.031 A 
HETATM    2  C2  UNL     1     -36.489  16.246  -3.092  1.00 20.00    -0.014 A 
HETATM    3  C3  UNL     1     -33.747  16.369  -2.313  1.00 20.00    -0.013 A 
HETATM    4  C4  UNL     1     -35.114  13.197  -4.548  1.00 20.00     0.117 A 
HETATM    5  C5  UNL     1     -33.374  14.246  -3.503  1.00 20.00     0.128 A 
HETATM    6  C6  UNL     1     -35.631  15.274  -3.444  1.00 20.00    -0.027 A 
HETATM    7  C7  UNL     1     -34.241  15.365  -3.046  1.00 20.00    -0.012 A 
HETATM    8  C8  UNL     1     -36.082  17.454  -2.294  1.00 20.00     0.032 A 
HETATM    9  C9  UNL     1     -34.611  17.499  -1.834  1.00 20.00     0.032 A 
HETATM   10  N10 UNL     1     -33.776  13.229  -4.206  1.00 20.00    -0.272 NA
ENDROOT
TORSDOF 0
ENDMDL
MODEL 5
REMARK VINA RESULT:      -4.4      0.616      2.115
REMARK  0 active torsions:
REMARK  status: ('A' for Active; 'I' for Inactive)
ROOT
HETATM    1  C1  UNL     1     -34.949  13.858  -5.890  1.00 20.00     0.031 A 
HETATM    2  C2  UNL     1     -34.829  16.072  -6.934  1.00 20.00    -0.014 A 
HETATM    3  C3  UNL     1     -33.343  17.008  -4.685  1.00 20.00    -0.013 A 
HETATM    4  C4  UNL     1     -34.602  13.095  -4.839  1.00 20.00     0.117 A 
HETATM    5  C5  UNL     1     -33.483  14.746  -3.725  1.00 20.00     0.128 A 
HETATM    6  C6  UNL     1     -34.535  15.249  -5.915  1.00 20.00    -0.027 A 
HETATM    7  C7  UNL     1     -33.770  15.745  -4.789  1.00 20.00    -0.012 A 
HETATM    8  C8  UNL     1     -34.398  17.513  -6.980  1.00 20.00     0.032 A 
HETATM    9  C9  UNL     1     -33.634  18.031  -5.745  1.00 20.00     0.032 A 
HETATM   10  N10 UNL     1     -33.870  13.505  -3.743  1.00 20.00    -0.272 NA
ENDROOT
TORSDOF 0
ENDMDL
MODEL 6
REMARK VINA RESULT:      -4.4      2.220      3.506
REMARK  0 active torsions:
REMARK  status: ('A' for Active; 'I' for Inactive)
ROOT
HETATM    1  C1  UNL     1     -34.099  16.206  -2.187  1.00 20.00     0.031 A 
HETATM    2  C2  UNL     1     -34.512  14.159  -3.470  1.00 20.00    -0.014 A 
HETATM    3  C3  UNL     1     -34.293  15.672  -5.879  1.00 20.00    -0.013 A 
HETATM    4  C4  UNL     1     -33.838  17.525  -2.234  1.00 20.00     0.117 A 
HETATM    5  C5  UNL     1     -33.853  17.672  -4.514  1.00 20.00     0.128 A 
HETATM    6  C6  UNL     1     -34.264  15.478  -3.432  1.00 20.00    -0.027 A 
HETATM    7  C7  UNL     1     -34.147  16.223  -4.669  1.00 20.00    -0.012 A 
HETATM    8  C8  UNL     1     -34.675  13.389  -4.751  1.00 20.00     0.032 A 
HETATM    9  C9  UNL     1     -34.601  14.213  -6.052  1.00 20.00     0.032 A 
HETATM   10  N10 UNL     1     -33.708  18.287  -3.378  1.00 20.00    -0.272 NA
ENDROOT
TORSDOF 0
ENDMDL
MODEL 7
REMARK VINA RESULT:      -4.3      1.827      4.091
REMARK  0 active torsions:
REMARK  status: ('A' for Active; 'I' for Inactive)
ROOT
HETATM    1  C1  UNL     1     -34.778  16.357  -7.085  1.00 20.00     0.031 A 
HETATM    2  C2  UNL     1     -34.826  14.158  -6.004  1.00 20.00    -0.014 A 
HETATM    3  C3  UNL     1     -33.385  15.256  -3.799  1.00 20.00    -0.013 A 
HETATM    4  C4  UNL     1     -34.396  17.643  -6.994  1.00 20.00     0.117 A 
HETATM    5  C5  UNL     1     -33.412  17.436  -4.942  1.00 20.00     0.128 A 
HETATM    6  C6  UNL     1     -34.466  15.452  -5.994  1.00 20.00    -0.027 A 
HETATM    7  C7  UNL     1     -33.744  15.989  -4.859  1.00 20.00    -0.012 A 
HETATM    8  C8  UNL     1     -34.520  13.211  -4.876  1.00 20.00     0.032 A 
HETATM    9  C9  UNL     1     -33.703  13.791  -3.705  1.00 20.00     0.032 A 
HETATM   10  N10 UNL     1     -33.714  18.214  -5.938  1.00 20.00    -0.272 NA
ENDROOT
TORSDOF 0
ENDMDL
MODEL 8
REMARK VINA RESULT:      -4.3      1.548      3.358
REMARK  0 active torsions:
REMARK  status: ('A' for Active; 'I' for Inactive)
ROOT
HETATM    1  C1  UNL     1     -34.344  16.914  -6.571  1.00 20.00     0.031 A 
HETATM    2  C2  UNL     1     -33.255  16.078  -4.541  1.00 20.00    -0.014 A 
HETATM    3  C3  UNL     1     -34.380  13.505  -5.044  1.00 20.00    -0.013 A 
HETATM    4  C4  UNL     1     -35.117  16.618  -7.631  1.00 20.00     0.117 A 
HETATM    5  C5  UNL     1     -35.411  14.419  -7.084  1.00 20.00     0.128 A 
HETATM    6  C6  UNL     1     -34.031  15.866  -5.616  1.00 20.00    -0.027 A 
HETATM    7  C7  UNL     1     -34.582  14.548  -5.856  1.00 20.00    -0.012 A 
HETATM    8  C8  UNL     1     -32.912  15.000  -3.549  1.00 20.00     0.032 A 
HETATM    9  C9  UNL     1     -33.555  13.622  -3.795  1.00 20.00     0.032 A 
HETATM   10  N10 UNL     1     -35.665  15.384  -7.918  1.00 20.00    -0.272 NA
ENDROOT
TORSDOF 0
ENDMDL
MODEL 9
REMARK VINA RESULT:      -4.3     12.183     13.855
REMARK  0 active torsions:
REMARK  status: ('A' for Active; 'I' for Inactive)
ROOT
HETATM    1  C1  UNL     1     -32.321   7.544   4.943  1.00 20.00     0.031 A 
HETATM    2  C2  UNL     1     -33.926   6.252   6.271  1.00 20.00    -0.014 A 
HETATM    3  C3  UNL     1     -34.674   4.832   3.912  1.00 20.00    -0.013 A 
HETATM    4  C4  UNL     1     -31.777   7.748   3.730  1.00 20.00     0.117 A 
HETATM    5  C5  UNL     1     -33.015   6.153   2.661  1.00 20.00     0.128 A 
HETATM    6  C6  UNL     1     -33.345   6.525   5.092  1.00 20.00    -0.027 A 
HETATM    7  C7  UNL     1     -33.734   5.783   3.910  1.00 20.00    -0.012 A 
HETATM    8  C8  UNL     1     -34.979   5.193   6.443  1.00 20.00     0.032 A 
HETATM    9  C9  UNL     1     -35.416   4.456   5.162  1.00 20.00     0.032 A 
HETATM   10  N10 UNL     1     -32.099   7.070   2.571  1.00 20.00    -0.272 NA
ENDROOT
TORSDOF 0
ENDMDL
