MODEL 1
REMARK VINA RESULT:      -4.9      0.000      0.000
REMARK  1 active torsions:
REMARK  status: ('A' for Active; 'I' for Inactive)
REMARK    1  A    between atoms: C10_10  and  O13_13 
ROOT
HETATM    1  C1  UNL     1     -35.019  13.658  -4.178  1.00 20.00     0.099 C 
HETATM    2  C2  UNL     1     -36.498  15.539  -3.656  1.00 20.00     0.023 A 
HETATM    3  C3  UNL     1     -36.771  16.731  -2.981  1.00 20.00     0.012 A 
HETATM    4  C4  UNL     1     -34.310  15.390  -2.606  1.00 20.00     0.030 A 
HETATM    5  C5  UNL     1     -35.277  14.873  -3.470  1.00 20.00     0.045 A 
HETATM    6  C6  UNL     1     -35.812  17.230  -2.116  1.00 20.00    -0.023 A 
HETATM    7  C7  UNL     1     -34.592  16.565  -1.931  1.00 20.00    -0.048 A 
HETATM    8  C8  UNL     1     -33.707  17.322  -0.991  1.00 20.00     0.042 C 
HETATM    9  C9  UNL     1     -34.727  18.231  -0.293  1.00 20.00     0.041 C 
HETATM   10  C10 UNL     1     -35.845  18.497  -1.314  1.00 20.00     0.154 C 
HETATM   11  N12 UNL     1     -34.809  12.671  -4.752  1.00 20.00    -0.191 NA
ENDROOT
BRANCH  10  12
HETATM   12  O13 UNL     1     -37.088  18.685  -0.669  1.00 20.00    -0.386 OA
HETATM   13  C11 UNL     1     -36.996  18.456   0.735  1.00 20.00     0.202 C 
ENDBRANCH  10  12
TORSDOF 1
ENDMDL
MODEL 2
REMARK VINA RESULT:      -4.8      4.856      6.929
REMARK  1 active torsions:
REMARK  status: ('A' for Active; 'I' for Inactive)
REMARK    1  A    between atoms: C10_10  and  O13_13 
ROOT
HETATM    1  C1  UNL     1     -31.564  19.102   4.816  1.00 20.00     0.099 C 
HETATM    2  C2  UNL     1     -31.374  19.193   2.375  1.00 20.00     0.023 A 
HETATM    3  C3  UNL     1     -31.910  19.014   1.099  1.00 20.00     0.012 A 
HETATM    4  C4  UNL     1     -33.442  18.431   3.403  1.00 20.00     0.030 A 
HETATM    5  C5  UNL     1     -32.133  18.904   3.519  1.00 20.00     0.045 A 
HETATM    6  C6  UNL     1     -33.205  18.532   0.991  1.00 20.00    -0.023 A 
HETATM    7  C7  UNL     1     -33.962  18.244   2.134  1.00 20.00    -0.048 A 
HETATM    8  C8  UNL     1     -35.338  17.786   1.762  1.00 20.00     0.042 C 
HETATM    9  C9  UNL     1     -35.129  17.388   0.295  1.00 20.00     0.041 C 
HETATM   10  C10 UNL     1     -34.013  18.294  -0.249  1.00 20.00     0.154 C 
HETATM   11  N12 UNL     1     -31.101  19.263   5.868  1.00 20.00    -0.191 NA
ENDROOT
BRANCH  10  12
HETATM   12  O13 UNL     1     -33.268  17.635  -1.252  1.00 20.00    -0.386 OA
HETATM   13  C11 UNL     1     -34.034  16.628  -1.906  1.00 20.00     0.202 C 
ENDBRANCH  10  12
TORSDOF 1
ENDMDL
MODEL 3
REMARK VINA RESULT:      -4.8      2.923      3.912
REMARK  1 active torsions:
REMARK  status: ('A' for Active; 'I' for Inactive)
REMARK    1  A    between atoms: C10_10  and  O13_13 
ROOT
HETATM    1  C1  UNL     1     -34.025  16.616  -2.817  1.00 20.00     0.099 C 
HETATM    2  C2  UNL     1     -35.092  16.909  -0.631  1.00 20.00     0.023 A 
HETATM    3  C3  UNL     1     -35.100  17.423   0.668  1.00 20.00     0.012 A 
HETATM    4  C4  UNL     1     -32.915  17.905  -1.061  1.00 20.00     0.030 A 
HETATM    5  C5  UNL     1     -34.007  17.147  -1.489  1.00 20.00     0.045 A 
HETATM    6  C6  UNL     1     -34.007  18.162   1.089  1.00 20.00    -0.023 A 
HETATM    7  C7  UNL     1     -32.926  18.400   0.232  1.00 20.00    -0.048 A 
HETATM    8  C8  UNL     1     -31.895  19.259   0.896  1.00 20.00     0.042 C 
HETATM    9  C9  UNL     1     -32.277  19.088   2.372  1.00 20.00     0.041 C 
HETATM   10  C10 UNL     1     -33.795  18.847   2.406  1.00 20.00     0.154 C 
HETATM   11  N12 UNL     1     -34.039  16.185  -3.894  1.00 20.00    -0.191 NA
ENDROOT
BRANCH  10  12
HETATM   12  O13 UNL     1     -34.155  18.026   3.497  1.00 20.00    -0.386 OA
HETATM   13  C11 UNL     1     -33.370  18.307   4.653  1.00 20.00     0.202 C 
ENDBRANCH  10  12
TORSDOF 1
ENDMDL
MODEL 4
REMARK VINA RESULT:      -4.8      3.792      5.459
REMARK  1 active torsions:
REMARK  status: ('A' for Active; 'I' for Inactive)
REMARK    1  A    between atoms: C10_10  and  O13_13 
ROOT
HETATM    1  C1  UNL     1     -34.452  16.556  -1.424  1.00 20.00     0.099 C 
HETATM    2  C2  UNL     1     -34.514  14.797  -3.129  1.00 20.00     0.023 A 
HETATM    3  C3  UNL     1     -34.482  14.385  -4.462  1.00 20.00     0.012 A 
HETATM    4  C4  UNL     1     -34.301  17.127  -3.795  1.00 20.00     0.030 A 
HETATM    5  C5  UNL     1     -34.424  16.158  -2.797  1.00 20.00     0.045 A 
HETATM    6  C6  UNL     1     -34.373  15.352  -5.447  1.00 20.00    -0.023 A 
HETATM    7  C7  UNL     1     -34.283  16.710  -5.116  1.00 20.00    -0.048 A 
HETATM    8  C8  UNL     1     -34.124  17.552  -6.344  1.00 20.00     0.042 C 
HETATM    9  C9  UNL     1     -34.612  16.583  -7.429  1.00 20.00     0.041 C 
HETATM   10  C10 UNL     1     -34.278  15.167  -6.932  1.00 20.00     0.154 C 
HETATM   11  N12 UNL     1     -34.474  16.878  -0.309  1.00 20.00    -0.191 NA
ENDROOT
BRANCH  10  12
HETATM   12  O13 UNL     1     -35.217  14.227  -7.412  1.00 20.00    -0.386 OA
HETATM   13  C11 UNL     1     -36.462  14.839  -7.738  1.00 20.00     0.202 C 
ENDBRANCH  10  12
TORSDOF 1
ENDMDL
MODEL 5
REMARK VINA RESULT:      -4.7      2.948      4.798
REMARK  1 active torsions:
REMARK  status: ('A' for Active; 'I' for Inactive)
REMARK    1  A    between atoms: C10_10  and  O13_13 
ROOT
HETATM    1  C1  UNL     1     -33.464  18.032  -1.000  1.00 20.00     0.099 C 
HETATM    2  C2  UNL     1     -35.589  17.493  -2.095  1.00 20.00     0.023 A 
HETATM    3  C3  UNL     1     -36.387  16.646  -2.866  1.00 20.00     0.012 A 
HETATM    4  C4  UNL     1     -33.710  15.957  -2.269  1.00 20.00     0.030 A 
HETATM    5  C5  UNL     1     -34.260  17.152  -1.798  1.00 20.00     0.045 A 
HETATM    6  C6  UNL     1     -35.831  15.470  -3.341  1.00 20.00    -0.023 A 
HETATM    7  C7  UNL     1     -34.505  15.130  -3.044  1.00 20.00    -0.048 A 
HETATM    8  C8  UNL     1     -34.152  13.796  -3.625  1.00 20.00     0.042 C 
HETATM    9  C9  UNL     1     -35.254  13.633  -4.680  1.00 20.00     0.041 C 
HETATM   10  C10 UNL     1     -36.483  14.386  -4.146  1.00 20.00     0.154 C 
HETATM   11  N12 UNL     1     -32.819  18.746  -0.352  1.00 20.00    -0.191 NA
ENDROOT
BRANCH  10  12
HETATM   12  O13 UNL     1     -37.260  14.906  -5.206  1.00 20.00    -0.386 OA
HETATM   13  C11 UNL     1     -36.480  15.118  -6.379  1.00 20.00     0.202 C 
ENDBRANCH  10  12
TORSDOF 1
ENDMDL
MODEL 6
REMARK VINA RESULT:      -4.5      3.442      4.884
REMARK  1 active torsions:
REMARK  status: ('A' for Active; 'I' for Inactive)
REMARK    1  A    between atoms: C10_10  and  O13_13 
ROOT
HETATM    1  C1  UNL     1     -35.253  17.609   1.168  1.00 20.00     0.099 C 
HETATM    2  C2  UNL     1     -35.084  18.858  -0.932  1.00 20.00     0.023 A 
HETATM    3  C3  UNL     1     -34.807  18.921  -2.300  1.00 20.00     0.012 A 
HETATM    4  C4  UNL     1     -34.552  16.485  -0.886  1.00 20.00     0.030 A 
HETATM    5  C5  UNL     1     -34.957  17.650  -0.230  1.00 20.00     0.045 A 
HETATM    6  C6  UNL     1     -34.394  17.764  -2.940  1.00 20.00    -0.023 A 
HETATM    7  C7  UNL     1     -34.268  16.558  -2.239  1.00 20.00    -0.048 A 
HETATM    8  C8  UNL     1     -33.856  15.447  -3.154  1.00 20.00     0.042 C 
HETATM    9  C9  UNL     1     -33.298  16.238  -4.344  1.00 20.00     0.041 C 
HETATM   10  C10 UNL     1     -34.078  17.563  -4.392  1.00 20.00     0.154 C 
HETATM   11  N12 UNL     1     -35.493  17.577   2.303  1.00 20.00    -0.191 NA
ENDROOT
BRANCH  10  12
HETATM   12  O13 UNL     1     -33.278  18.604  -4.913  1.00 20.00    -0.386 OA
HETATM   13  C11 UNL     1     -33.686  18.980  -6.225  1.00 20.00     0.202 C 
ENDBRANCH  10  12
TORSDOF 1
ENDMDL
MODEL 7
REMARK VINA RESULT:      -4.5      3.551      5.171
REMARK  1 active torsions:
REMARK  status: ('A' for Active; 'I' for Inactive)
REMARK    1  A    between atoms: C10_10  and  O13_13 
ROOT
HETATM    1  C1  UNL     1     -33.894  17.919  -0.710  1.00 20.00     0.099 C 
HETATM    2  C2  UNL     1     -34.500  15.866  -1.902  1.00 20.00     0.023 A 
HETATM    3  C3  UNL     1     -34.647  15.135  -3.082  1.00 20.00     0.012 A 
HETATM    4  C4  UNL     1     -33.729  17.808  -3.146  1.00 20.00     0.030 A 
HETATM    5  C5  UNL     1     -34.044  17.193  -1.933  1.00 20.00     0.045 A 
HETATM    6  C6  UNL     1     -34.345  15.756  -4.283  1.00 20.00    -0.023 A 
HETATM    7  C7  UNL     1     -33.890  17.081  -4.313  1.00 20.00    -0.048 A 
HETATM    8  C8  UNL     1     -33.586  17.510  -5.715  1.00 20.00     0.042 C 
HETATM    9  C9  UNL     1     -34.365  16.461  -6.519  1.00 20.00     0.041 C 
HETATM   10  C10 UNL     1     -34.381  15.181  -5.667  1.00 20.00     0.154 C 
HETATM   11  N12 UNL     1     -33.773  18.508   0.282  1.00 20.00    -0.191 NA
ENDROOT
BRANCH  10  12
HETATM   12  O13 UNL     1     -35.556  14.432  -5.901  1.00 20.00    -0.386 OA
HETATM   13  C11 UNL     1     -36.507  15.163  -6.670  1.00 20.00     0.202 C 
ENDBRANCH  10  12
TORSDOF 1
ENDMDL
MODEL 8
REMARK VINA RESULT:      -4.3      3.111      4.051
REMARK  1 active torsions:
REMARK  status: ('A' for Active; 'I' for Inactive)
REMARK    1  A    between atoms: C10_10  and  O13_13 
ROOT
HETATM    1  C1  UNL     1     -39.060  14.686  -4.646  1.00 20.00     0.099 C 
HETATM    2  C2  UNL     1     -36.922  15.069  -5.779  1.00 20.00     0.023 A 
HETATM    3  C3  UNL     1     -35.559  15.373  -5.750  1.00 20.00     0.012 A 
HETATM    4  C4  UNL     1     -37.060  15.244  -3.357  1.00 20.00     0.030 A 
HETATM    5  C5  UNL     1     -37.667  15.005  -4.592  1.00 20.00     0.045 A 
HETATM    6  C6  UNL     1     -34.966  15.621  -4.523  1.00 20.00    -0.023 A 
HETATM    7  C7  UNL     1     -35.711  15.556  -3.338  1.00 20.00    -0.048 A 
HETATM    8  C8  UNL     1     -34.843  15.813  -2.145  1.00 20.00     0.042 C 
HETATM    9  C9  UNL     1     -33.638  16.499  -2.802  1.00 20.00     0.041 C 
HETATM   10  C10 UNL     1     -33.529  15.924  -4.224  1.00 20.00     0.154 C 
HETATM   11  N12 UNL     1     -40.190  14.427  -4.691  1.00 20.00    -0.191 NA
ENDROOT
BRANCH  10  12
HETATM   12  O13 UNL     1     -32.990  16.877  -5.117  1.00 20.00    -0.386 OA
HETATM   13  C11 UNL     1     -33.489  18.186  -4.859  1.00 20.00     0.202 C 
ENDBRANCH  10  12
TORSDOF 1
ENDMDL
MODEL 9
REMARK VINA RESULT:      -4.3      3.173      5.154
REMARK  1 active torsions:
REMARK  status: ('A' for Active; 'I' for Inactive)
REMARK    1  A    between atoms: C10_10  and  O13_13 
ROOT
HETATM    1  C1  UNL     1     -34.922  17.403   0.001  1.00 20.00     0.099 C 
HETATM    2  C2  UNL     1     -33.648  16.563  -1.915  1.00 20.00     0.023 A 
HETATM    3  C3  UNL     1     -33.578  16.105  -3.232  1.00 20.00     0.012 A 
HETATM    4  C4  UNL     1     -36.057  16.847  -2.091  1.00 20.00     0.030 A 
HETATM    5  C5  UNL     1     -34.877  16.931  -1.348  1.00 20.00     0.045 A 
HETATM    6  C6  UNL     1     -34.754  16.013  -3.959  1.00 20.00    -0.023 A 
HETATM    7  C7  UNL     1     -35.981  16.381  -3.392  1.00 20.00    -0.048 A 
HETATM    8  C8  UNL     1     -37.093  16.239  -4.385  1.00 20.00     0.042 C 
HETATM    9  C9  UNL     1     -36.449  15.304  -5.416  1.00 20.00     0.041 C 
HETATM   10  C10 UNL     1     -34.939  15.595  -5.387  1.00 20.00     0.154 C 
HETATM   11  N12 UNL     1     -34.958  17.786   1.096  1.00 20.00    -0.191 NA
ENDROOT
BRANCH  10  12
HETATM   12  O13 UNL     1     -34.193  14.438  -5.703  1.00 20.00    -0.386 OA
HETATM   13  C11 UNL     1     -34.785  13.261  -5.160  1.00 20.00     0.202 C 
ENDBRANCH  10  12
TORSDOF 1
ENDMDL
