MODEL 1
REMARK VINA RESULT:      -4.7      0.000      0.000
REMARK  3 active torsions:
REMARK  status: ('A' for Active; 'I' for Inactive)
REMARK    1  A    between atoms: C3_3  and  C8_8 
REMARK    2  A    between atoms: C7_7  and  C8_8 
REMARK    3  A    between atoms: C8_8  and  C9_9 
ROOT
HETATM    1  C1  UNL     1     -31.975   8.250   2.068  1.00 20.00     0.012 C 
HETATM    2  C2  UNL     1     -32.256   7.417   2.886  1.00 20.00    -0.117 C 
HETATM    3  C7  UNL     1     -32.598   6.392   3.889  1.00 20.00     0.105 C 
ENDROOT
BRANCH   3   4
HETATM    4  C8  UNL     1     -34.069   6.499   4.328  1.00 20.00     0.069 C 
BRANCH   4   5
HETATM    5  C3  UNL     1     -34.965   5.583   3.484  1.00 20.00     0.128 C 
HETATM    6  C4  UNL     1     -34.301   4.841   2.351  1.00 20.00     0.091 C 
HETATM    7  O10 UNL     1     -36.171   5.458   3.697  1.00 20.00    -0.298 OA
ENDBRANCH   4   5
BRANCH   4   8
HETATM    8  C9  UNL     1     -34.309   6.208   5.833  1.00 20.00    -0.011 C 
HETATM    9  C5  UNL     1     -34.129   4.734   6.210  1.00 20.00     0.010 C 
HETATM   10  C6  UNL     1     -33.416   7.082   6.720  1.00 20.00     0.010 C 
ENDBRANCH   4   8
ENDBRANCH   3   4
TORSDOF 3
ENDMDL
MODEL 2
REMARK VINA RESULT:      -4.6     11.043     12.188
REMARK  3 active torsions:
REMARK  status: ('A' for Active; 'I' for Inactive)
REMARK    1  A    between atoms: C3_3  and  C8_8 
REMARK    2  A    between atoms: C7_7  and  C8_8 
REMARK    3  A    between atoms: C8_8  and  C9_9 
ROOT
HETATM    1  C1  UNL     1     -34.536  16.775  -0.610  1.00 20.00     0.012 C 
HETATM    2  C2  UNL     1     -34.701  16.477  -1.762  1.00 20.00    -0.117 C 
HETATM    3  C7  UNL     1     -34.904  16.113  -3.175  1.00 20.00     0.105 C 
ENDROOT
BRANCH   3   4
HETATM    4  C8  UNL     1     -35.659  14.779  -3.315  1.00 20.00     0.069 C 
BRANCH   4   5
HETATM    5  C3  UNL     1     -37.092  15.007  -3.816  1.00 20.00     0.128 C 
HETATM    6  C4  UNL     1     -37.423  16.389  -4.321  1.00 20.00     0.091 C 
HETATM    7  O10 UNL     1     -37.946  14.120  -3.800  1.00 20.00    -0.298 OA
ENDBRANCH   4   5
BRANCH   4   8
HETATM    8  C9  UNL     1     -34.955  13.740  -4.226  1.00 20.00    -0.011 C 
HETATM    9  C5  UNL     1     -35.038  14.074  -5.718  1.00 20.00     0.010 C 
HETATM   10  C6  UNL     1     -33.491  13.542  -3.820  1.00 20.00     0.010 C 
ENDBRANCH   4   8
ENDBRANCH   3   4
TORSDOF 3
ENDMDL
MODEL 3
REMARK VINA RESULT:      -4.6     11.188     12.477
REMARK  3 active torsions:
REMARK  status: ('A' for Active; 'I' for Inactive)
REMARK    1  A    between atoms: C3_3  and  C8_8 
REMARK    2  A    between atoms: C7_7  and  C8_8 
REMARK    3  A    between atoms: C8_8  and  C9_9 
ROOT
HETATM    1  C1  UNL     1     -34.022  17.359  -0.578  1.00 20.00     0.012 C 
HETATM    2  C2  UNL     1     -34.476  16.570  -1.361  1.00 20.00    -0.117 C 
HETATM    3  C7  UNL     1     -35.035  15.601  -2.321  1.00 20.00     0.105 C 
ENDROOT
BRANCH   3   4
HETATM    4  C8  UNL     1     -34.083  15.363  -3.506  1.00 20.00     0.069 C 
BRANCH   4   5
HETATM    5  C3  UNL     1     -33.961  13.866  -3.823  1.00 20.00     0.128 C 
HETATM    6  C4  UNL     1     -35.162  13.206  -4.451  1.00 20.00     0.091 C 
HETATM    7  O10 UNL     1     -32.945  13.218  -3.571  1.00 20.00    -0.298 OA
ENDBRANCH   4   5
BRANCH   4   8
HETATM    8  C9  UNL     1     -34.465  16.133  -4.797  1.00 20.00    -0.011 C 
HETATM    9  C5  UNL     1     -35.824  16.835  -4.714  1.00 20.00     0.010 C 
HETATM   10  C6  UNL     1     -33.382  17.145  -5.186  1.00 20.00     0.010 C 
ENDBRANCH   4   8
ENDBRANCH   3   4
TORSDOF 3
ENDMDL
MODEL 4
REMARK VINA RESULT:      -4.5     11.624     12.856
REMARK  3 active torsions:
REMARK  status: ('A' for Active; 'I' for Inactive)
REMARK    1  A    between atoms: C3_3  and  C8_8 
REMARK    2  A    between atoms: C7_7  and  C8_8 
REMARK    3  A    between atoms: C8_8  and  C9_9 
ROOT
HETATM    1  C1  UNL     1     -34.792  16.843  -0.732  1.00 20.00     0.012 C 
HETATM    2  C2  UNL     1     -34.391  16.263  -1.704  1.00 20.00    -0.117 C 
HETATM    3  C7  UNL     1     -33.897  15.553  -2.897  1.00 20.00     0.105 C 
ENDROOT
BRANCH   3   4
HETATM    4  C8  UNL     1     -34.784  15.823  -4.126  1.00 20.00     0.069 C 
BRANCH   4   5
HETATM    5  C3  UNL     1     -33.946  16.320  -5.311  1.00 20.00     0.128 C 
HETATM    6  C4  UNL     1     -34.380  15.871  -6.684  1.00 20.00     0.091 C 
HETATM    7  O10 UNL     1     -32.957  17.038  -5.167  1.00 20.00    -0.298 OA
ENDBRANCH   4   5
BRANCH   4   8
HETATM    8  C9  UNL     1     -35.640  14.609  -4.574  1.00 20.00    -0.011 C 
HETATM    9  C5  UNL     1     -34.995  13.254  -4.263  1.00 20.00     0.010 C 
HETATM   10  C6  UNL     1     -37.047  14.664  -3.970  1.00 20.00     0.010 C 
ENDBRANCH   4   8
ENDBRANCH   3   4
TORSDOF 3
ENDMDL
MODEL 5
REMARK VINA RESULT:      -4.4     11.544     12.849
REMARK  3 active torsions:
REMARK  status: ('A' for Active; 'I' for Inactive)
REMARK    1  A    between atoms: C3_3  and  C8_8 
REMARK    2  A    between atoms: C7_7  and  C8_8 
REMARK    3  A    between atoms: C8_8  and  C9_9 
ROOT
HETATM    1  C1  UNL     1     -34.693  16.262  -1.708  1.00 20.00     0.012 C 
HETATM    2  C2  UNL     1     -33.995  15.757  -2.545  1.00 20.00    -0.117 C 
HETATM    3  C7  UNL     1     -33.138  15.139  -3.571  1.00 20.00     0.105 C 
ENDROOT
BRANCH   3   4
HETATM    4  C8  UNL     1     -33.944  14.748  -4.823  1.00 20.00     0.069 C 
BRANCH   4   5
HETATM    5  C3  UNL     1     -35.148  13.873  -4.452  1.00 20.00     0.128 C 
HETATM    6  C4  UNL     1     -36.495  14.551  -4.414  1.00 20.00     0.091 C 
HETATM    7  O10 UNL     1     -35.037  12.677  -4.182  1.00 20.00    -0.298 OA
ENDBRANCH   4   5
BRANCH   4   8
HETATM    8  C9  UNL     1     -34.426  15.953  -5.673  1.00 20.00    -0.011 C 
HETATM    9  C5  UNL     1     -33.570  17.211  -5.498  1.00 20.00     0.010 C 
HETATM   10  C6  UNL     1     -34.514  15.589  -7.159  1.00 20.00     0.010 C 
ENDBRANCH   4   8
ENDBRANCH   3   4
TORSDOF 3
ENDMDL
MODEL 6
REMARK VINA RESULT:      -4.3     11.526     12.398
REMARK  3 active torsions:
REMARK  status: ('A' for Active; 'I' for Inactive)
REMARK    1  A    between atoms: C3_3  and  C8_8 
REMARK    2  A    between atoms: C7_7  and  C8_8 
REMARK    3  A    between atoms: C8_8  and  C9_9 
ROOT
HETATM    1  C1  UNL     1     -39.051  14.751  -4.056  1.00 20.00     0.012 C 
HETATM    2  C2  UNL     1     -37.920  15.149  -4.126  1.00 20.00    -0.117 C 
HETATM    3  C7  UNL     1     -36.533  15.638  -4.214  1.00 20.00     0.105 C 
ENDROOT
BRANCH   3   4
HETATM    4  C8  UNL     1     -35.525  14.574  -3.742  1.00 20.00     0.069 C 
BRANCH   4   5
HETATM    5  C3  UNL     1     -35.052  13.705  -4.915  1.00 20.00     0.128 C 
HETATM    6  C4  UNL     1     -35.215  14.284  -6.298  1.00 20.00     0.091 C 
HETATM    7  O10 UNL     1     -34.574  12.582  -4.754  1.00 20.00    -0.298 OA
ENDBRANCH   4   5
BRANCH   4   8
HETATM    8  C9  UNL     1     -34.292  15.148  -2.997  1.00 20.00    -0.011 C 
HETATM    9  C5  UNL     1     -33.304  15.876  -3.914  1.00 20.00     0.010 C 
HETATM   10  C6  UNL     1     -34.713  16.074  -1.851  1.00 20.00     0.010 C 
ENDBRANCH   4   8
ENDBRANCH   3   4
TORSDOF 3
ENDMDL
MODEL 7
REMARK VINA RESULT:      -4.3     10.700     12.414
REMARK  3 active torsions:
REMARK  status: ('A' for Active; 'I' for Inactive)
REMARK    1  A    between atoms: C3_3  and  C8_8 
REMARK    2  A    between atoms: C7_7  and  C8_8 
REMARK    3  A    between atoms: C8_8  and  C9_9 
ROOT
HETATM    1  C1  UNL     1     -33.731  18.169  -5.831  1.00 20.00     0.012 C 
HETATM    2  C2  UNL     1     -33.531  17.230  -5.110  1.00 20.00    -0.117 C 
HETATM    3  C7  UNL     1     -33.283  16.078  -4.226  1.00 20.00     0.105 C 
ENDROOT
BRANCH   3   4
HETATM    4  C8  UNL     1     -34.555  15.236  -4.022  1.00 20.00     0.069 C 
BRANCH   4   5
HETATM    5  C3  UNL     1     -34.219  13.741  -3.932  1.00 20.00     0.128 C 
HETATM    6  C4  UNL     1     -32.824  13.385  -3.482  1.00 20.00     0.091 C 
HETATM    7  O10 UNL     1     -35.030  12.862  -4.224  1.00 20.00    -0.298 OA
ENDBRANCH   4   5
BRANCH   4   8
HETATM    8  C9  UNL     1     -35.402  15.647  -2.789  1.00 20.00    -0.011 C 
HETATM    9  C5  UNL     1     -34.583  16.298  -1.670  1.00 20.00     0.010 C 
HETATM   10  C6  UNL     1     -36.559  16.570  -3.188  1.00 20.00     0.010 C 
ENDBRANCH   4   8
ENDBRANCH   3   4
TORSDOF 3
ENDMDL
MODEL 8
REMARK VINA RESULT:      -4.0     11.147     13.519
REMARK  3 active torsions:
REMARK  status: ('A' for Active; 'I' for Inactive)
REMARK    1  A    between atoms: C3_3  and  C8_8 
REMARK    2  A    between atoms: C7_7  and  C8_8 
REMARK    3  A    between atoms: C8_8  and  C9_9 
ROOT
HETATM    1  C1  UNL     1     -37.727  17.224  -4.733  1.00 20.00     0.012 C 
HETATM    2  C2  UNL     1     -37.244  16.138  -4.908  1.00 20.00    -0.117 C 
HETATM    3  C7  UNL     1     -36.654  14.804  -5.122  1.00 20.00     0.105 C 
ENDROOT
BRANCH   3   4
HETATM    4  C8  UNL     1     -35.120  14.873  -5.223  1.00 20.00     0.069 C 
BRANCH   4   5
HETATM    5  C3  UNL     1     -34.469  13.646  -4.572  1.00 20.00     0.128 C 
HETATM    6  C4  UNL     1     -33.264  13.899  -3.700  1.00 20.00     0.091 C 
HETATM    7  O10 UNL     1     -34.886  12.502  -4.753  1.00 20.00    -0.298 OA
ENDBRANCH   4   5
BRANCH   4   8
HETATM    8  C9  UNL     1     -34.582  15.034  -6.669  1.00 20.00    -0.011 C 
HETATM    9  C5  UNL     1     -35.509  14.446  -7.738  1.00 20.00     0.010 C 
HETATM   10  C6  UNL     1     -34.283  16.501  -6.995  1.00 20.00     0.010 C 
ENDBRANCH   4   8
ENDBRANCH   3   4
TORSDOF 3
ENDMDL
MODEL 9
REMARK VINA RESULT:      -4.0     11.625     12.825
REMARK  3 active torsions:
REMARK  status: ('A' for Active; 'I' for Inactive)
REMARK    1  A    between atoms: C3_3  and  C8_8 
REMARK    2  A    between atoms: C7_7  and  C8_8 
REMARK    3  A    between atoms: C8_8  and  C9_9 
ROOT
HETATM    1  C1  UNL     1     -33.993  13.568  -4.229  1.00 20.00     0.012 C 
HETATM    2  C2  UNL     1     -34.380  14.381  -3.434  1.00 20.00    -0.117 C 
HETATM    3  C7  UNL     1     -34.858  15.377  -2.459  1.00 20.00     0.105 C 
ENDROOT
BRANCH   3   4
HETATM    4  C8  UNL     1     -34.143  16.729  -2.633  1.00 20.00     0.069 C 
BRANCH   4   5
HETATM    5  C3  UNL     1     -34.540  17.396  -3.957  1.00 20.00     0.128 C 
HETATM    6  C4  UNL     1     -33.462  17.521  -5.004  1.00 20.00     0.091 C 
HETATM    7  O10 UNL     1     -35.674  17.828  -4.166  1.00 20.00    -0.298 OA
ENDBRANCH   4   5
BRANCH   4   8
HETATM    8  C9  UNL     1     -34.370  17.726  -1.467  1.00 20.00    -0.011 C 
HETATM    9  C5  UNL     1     -34.778  17.052  -0.153  1.00 20.00     0.010 C 
HETATM   10  C6  UNL     1     -33.137  18.607  -1.236  1.00 20.00     0.010 C 
ENDBRANCH   4   8
ENDBRANCH   3   4
TORSDOF 3
ENDMDL
