MODEL 1
REMARK VINA RESULT:      -4.6      0.000      0.000
REMARK  0 active torsions:
REMARK  status: ('A' for Active; 'I' for Inactive)
ROOT
HETATM    1  C1  UNL     1     -33.284   6.104   3.774  1.00 20.00     0.007 C 
HETATM    2  C2  UNL     1     -34.020   6.455   5.926  1.00 20.00     0.226 C 
HETATM    3  C3  UNL     1     -32.457   6.197   2.728  1.00 20.00     0.038 C 
HETATM    4  C4  UNL     1     -34.541   5.284   3.865  1.00 20.00     0.043 C 
HETATM    5  C5  UNL     1     -34.903   5.350   5.369  1.00 20.00     0.083 C 
HETATM    6  C6  UNL     1     -35.658   5.876   3.004  1.00 20.00     0.017 C 
HETATM    7  C7  UNL     1     -34.589   4.044   6.092  1.00 20.00     0.020 C 
HETATM    8  N8  UNL     1     -33.092   6.770   4.949  1.00 20.00    -0.331 N 
HETATM    9  O9  UNL     1     -34.097   6.925   7.050  1.00 20.00    -0.273 OA
HETATM   10  H20 UNL     1     -32.337   7.434   5.086  1.00 20.00     0.168 HD
ENDROOT
TORSDOF 0
ENDMDL
MODEL 2
REMARK VINA RESULT:      -4.6     12.323     13.065
REMARK  0 active torsions:
REMARK  status: ('A' for Active; 'I' for Inactive)
ROOT
HETATM    1  C1  UNL     1     -34.000  15.925  -4.694  1.00 20.00     0.007 C 
HETATM    2  C2  UNL     1     -34.741  13.753  -4.521  1.00 20.00     0.226 C 
HETATM    3  C3  UNL     1     -33.344  16.960  -5.227  1.00 20.00     0.038 C 
HETATM    4  C4  UNL     1     -34.933  15.953  -3.515  1.00 20.00     0.043 C 
HETATM    5  C5  UNL     1     -35.590  14.551  -3.545  1.00 20.00     0.083 C 
HETATM    6  C6  UNL     1     -34.174  16.177  -2.207  1.00 20.00     0.017 C 
HETATM    7  C7  UNL     1     -37.027  14.601  -4.054  1.00 20.00     0.020 C 
HETATM    8  N8  UNL     1     -33.905  14.648  -5.165  1.00 20.00    -0.331 N 
HETATM    9  O9  UNL     1     -34.832  12.552  -4.723  1.00 20.00    -0.273 OA
HETATM   10  H20 UNL     1     -33.278  14.387  -5.919  1.00 20.00     0.168 HD
ENDROOT
TORSDOF 0
ENDMDL
MODEL 3
REMARK VINA RESULT:      -4.5     11.920     12.781
REMARK  0 active torsions:
REMARK  status: ('A' for Active; 'I' for Inactive)
ROOT
HETATM    1  C1  UNL     1     -33.645  16.340  -4.063  1.00 20.00     0.007 C 
HETATM    2  C2  UNL     1     -33.330  14.080  -3.759  1.00 20.00     0.226 C 
HETATM    3  C3  UNL     1     -33.388  17.563  -4.536  1.00 20.00     0.038 C 
HETATM    4  C4  UNL     1     -34.836  15.914  -3.250  1.00 20.00     0.043 C 
HETATM    5  C5  UNL     1     -34.729  14.369  -3.242  1.00 20.00     0.083 C 
HETATM    6  C6  UNL     1     -34.773  16.477  -1.830  1.00 20.00     0.017 C 
HETATM    7  C7  UNL     1     -35.752  13.718  -4.168  1.00 20.00     0.020 C 
HETATM    8  N8  UNL     1     -32.824  15.268  -4.259  1.00 20.00    -0.331 N 
HETATM    9  O9  UNL     1     -32.791  12.984  -3.773  1.00 20.00    -0.273 OA
HETATM   10  H20 UNL     1     -31.927  15.342  -4.728  1.00 20.00     0.168 HD
ENDROOT
TORSDOF 0
ENDMDL
MODEL 4
REMARK VINA RESULT:      -4.4      1.697      3.108
REMARK  0 active torsions:
REMARK  status: ('A' for Active; 'I' for Inactive)
ROOT
HETATM    1  C1  UNL     1     -33.867   6.435   5.757  1.00 20.00     0.007 C 
HETATM    2  C2  UNL     1     -33.530   5.955   3.531  1.00 20.00     0.226 C 
HETATM    3  C3  UNL     1     -33.686   7.074   6.917  1.00 20.00     0.038 C 
HETATM    4  C4  UNL     1     -34.894   5.380   5.455  1.00 20.00     0.043 C 
HETATM    5  C5  UNL     1     -34.808   5.227   3.916  1.00 20.00     0.083 C 
HETATM    6  C6  UNL     1     -34.565   4.062   6.158  1.00 20.00     0.017 C 
HETATM    7  C7  UNL     1     -35.991   5.878   3.207  1.00 20.00     0.020 C 
HETATM    8  N8  UNL     1     -33.109   6.661   4.645  1.00 20.00    -0.331 N 
HETATM    9  O9  UNL     1     -33.017   5.950   2.423  1.00 20.00    -0.273 OA
HETATM   10  H20 UNL     1     -32.313   7.290   4.642  1.00 20.00     0.168 HD
ENDROOT
TORSDOF 0
ENDMDL
MODEL 5
REMARK VINA RESULT:      -4.3     11.855     12.788
REMARK  0 active torsions:
REMARK  status: ('A' for Active; 'I' for Inactive)
ROOT
HETATM    1  C1  UNL     1     -34.745  16.183  -2.111  1.00 20.00     0.007 C 
HETATM    2  C2  UNL     1     -36.048  14.845  -3.457  1.00 20.00     0.226 C 
HETATM    3  C3  UNL     1     -34.419  16.878  -1.017  1.00 20.00     0.038 C 
HETATM    4  C4  UNL     1     -33.881  15.928  -3.315  1.00 20.00     0.043 C 
HETATM    5  C5  UNL     1     -34.673  14.856  -4.103  1.00 20.00     0.083 C 
HETATM    6  C6  UNL     1     -33.693  17.197  -4.147  1.00 20.00     0.017 C 
HETATM    7  C7  UNL     1     -34.047  13.471  -3.977  1.00 20.00     0.020 C 
HETATM    8  N8  UNL     1     -35.960  15.589  -2.293  1.00 20.00    -0.331 N 
HETATM    9  O9  UNL     1     -37.023  14.240  -3.874  1.00 20.00    -0.273 OA
HETATM   10  H20 UNL     1     -36.723  15.687  -1.631  1.00 20.00     0.168 HD
ENDROOT
TORSDOF 0
ENDMDL
MODEL 6
REMARK VINA RESULT:      -4.2     12.496     13.471
REMARK  0 active torsions:
REMARK  status: ('A' for Active; 'I' for Inactive)
ROOT
HETATM    1  C1  UNL     1     -35.741  16.725  -3.216  1.00 20.00     0.007 C 
HETATM    2  C2  UNL     1     -33.732  16.411  -4.295  1.00 20.00     0.226 C 
HETATM    3  C3  UNL     1     -36.994  17.161  -3.056  1.00 20.00     0.038 C 
HETATM    4  C4  UNL     1     -34.965  15.833  -2.286  1.00 20.00     0.043 C 
HETATM    5  C5  UNL     1     -33.715  15.452  -3.116  1.00 20.00     0.083 C 
HETATM    6  C6  UNL     1     -34.571  16.570  -1.005  1.00 20.00     0.017 C 
HETATM    7  C7  UNL     1     -33.785  14.019  -3.633  1.00 20.00     0.020 C 
HETATM    8  N8  UNL     1     -34.961  17.047  -4.289  1.00 20.00    -0.331 N 
HETATM    9  O9  UNL     1     -32.837  16.542  -5.116  1.00 20.00    -0.273 OA
HETATM   10  H20 UNL     1     -35.263  17.692  -5.011  1.00 20.00     0.168 HD
ENDROOT
TORSDOF 0
ENDMDL
MODEL 7
REMARK VINA RESULT:      -4.2     12.145     13.141
REMARK  0 active torsions:
REMARK  status: ('A' for Active; 'I' for Inactive)
ROOT
HETATM    1  C1  UNL     1     -34.509  15.560  -3.200  1.00 20.00     0.007 C 
HETATM    2  C2  UNL     1     -34.820  13.671  -4.478  1.00 20.00     0.226 C 
HETATM    3  C3  UNL     1     -34.026  16.298  -2.196  1.00 20.00     0.038 C 
HETATM    4  C4  UNL     1     -35.344  16.038  -4.356  1.00 20.00     0.043 C 
HETATM    5  C5  UNL     1     -35.358  14.821  -5.313  1.00 20.00     0.083 C 
HETATM    6  C6  UNL     1     -36.760  16.404  -3.910  1.00 20.00     0.017 C 
HETATM    7  C7  UNL     1     -34.452  15.031  -6.522  1.00 20.00     0.020 C 
HETATM    8  N8  UNL     1     -34.306  14.216  -3.313  1.00 20.00    -0.331 N 
HETATM    9  O9  UNL     1     -34.803  12.497  -4.813  1.00 20.00    -0.273 OA
HETATM   10  H20 UNL     1     -33.823  13.673  -2.606  1.00 20.00     0.168 HD
ENDROOT
TORSDOF 0
ENDMDL
MODEL 8
REMARK VINA RESULT:      -4.1     12.079     12.897
REMARK  0 active torsions:
REMARK  status: ('A' for Active; 'I' for Inactive)
ROOT
HETATM    1  C1  UNL     1     -34.539  14.548  -3.632  1.00 20.00     0.007 C 
HETATM    2  C2  UNL     1     -36.837  14.611  -3.753  1.00 20.00     0.226 C 
HETATM    3  C3  UNL     1     -33.315  14.029  -3.773  1.00 20.00     0.038 C 
HETATM    4  C4  UNL     1     -34.887  15.944  -3.193  1.00 20.00     0.043 C 
HETATM    5  C5  UNL     1     -36.403  16.044  -3.489  1.00 20.00     0.083 C 
HETATM    6  C6  UNL     1     -34.602  16.149  -1.705  1.00 20.00     0.017 C 
HETATM    7  C7  UNL     1     -36.693  16.892  -4.723  1.00 20.00     0.020 C 
HETATM    8  N8  UNL     1     -35.687  13.851  -3.874  1.00 20.00    -0.331 N 
HETATM    9  O9  UNL     1     -37.990  14.232  -3.885  1.00 20.00    -0.273 OA
HETATM   10  H20 UNL     1     -35.688  12.867  -4.120  1.00 20.00     0.168 HD
ENDROOT
TORSDOF 0
ENDMDL
MODEL 9
REMARK VINA RESULT:      -4.0     12.192     13.310
REMARK  0 active torsions:
REMARK  status: ('A' for Active; 'I' for Inactive)
ROOT
HETATM    1  C1  UNL     1     -34.838  14.866  -5.813  1.00 20.00     0.007 C 
HETATM    2  C2  UNL     1     -33.621  13.958  -4.082  1.00 20.00     0.226 C 
HETATM    3  C3  UNL     1     -35.579  14.867  -6.924  1.00 20.00     0.038 C 
HETATM    4  C4  UNL     1     -34.491  16.050  -4.953  1.00 20.00     0.043 C 
HETATM    5  C5  UNL     1     -33.870  15.405  -3.690  1.00 20.00     0.083 C 
HETATM    6  C6  UNL     1     -33.488  16.972  -5.649  1.00 20.00     0.017 C 
HETATM    7  C7  UNL     1     -34.821  15.446  -2.498  1.00 20.00     0.020 C 
HETATM    8  N8  UNL     1     -34.269  13.743  -5.287  1.00 20.00    -0.331 N 
HETATM    9  O9  UNL     1     -33.007  13.138  -3.418  1.00 20.00    -0.273 OA
HETATM   10  H20 UNL     1     -34.320  12.838  -5.742  1.00 20.00     0.168 HD
ENDROOT
TORSDOF 0
ENDMDL
