MODEL 1
REMARK VINA RESULT:      -4.8      0.000      0.000
REMARK  0 active torsions:
REMARK  status: ('A' for Active; 'I' for Inactive)
ROOT
HETATM    1  C1  UNL     1     -33.880   5.384   2.853  1.00 20.00     0.148 A 
HETATM    2  C2  UNL     1     -32.774   6.914   3.905  1.00 20.00     0.218 A 
HETATM    3  C3  UNL     1     -34.286   5.331   4.155  1.00 20.00     0.061 A 
HETATM    4  C4  UNL     1     -35.104   4.726   5.116  1.00 20.00     0.037 A 
HETATM    5  C5  UNL     1     -34.905   5.308   6.316  1.00 20.00     0.077 A 
HETATM    6  C6  UNL     1     -33.885   6.370   6.132  1.00 20.00     0.253 A 
HETATM    7  N7  UNL     1     -32.928   6.382   2.704  1.00 20.00    -0.253 NA
HETATM    8  N8  UNL     1     -33.584   6.295   4.797  1.00 20.00    -0.272 N 
HETATM    9  O9  UNL     1     -33.377   7.157   6.899  1.00 20.00    -0.268 OA
ENDROOT
TORSDOF 0
ENDMDL
MODEL 2
REMARK VINA RESULT:      -4.6      1.635      2.223
REMARK  0 active torsions:
REMARK  status: ('A' for Active; 'I' for Inactive)
ROOT
HETATM    1  C1  UNL     1     -32.796   7.106   3.974  1.00 20.00     0.148 A 
HETATM    2  C2  UNL     1     -33.685   5.377   3.028  1.00 20.00     0.218 A 
HETATM    3  C3  UNL     1     -33.521   6.466   4.937  1.00 20.00     0.061 A 
HETATM    4  C4  UNL     1     -33.945   6.430   6.270  1.00 20.00     0.037 A 
HETATM    5  C5  UNL     1     -34.734   5.353   6.468  1.00 20.00     0.077 A 
HETATM    6  C6  UNL     1     -34.835   4.631   5.175  1.00 20.00     0.253 A 
HETATM    7  N7  UNL     1     -32.905   6.415   2.775  1.00 20.00    -0.253 NA
HETATM    8  N8  UNL     1     -34.068   5.388   4.328  1.00 20.00    -0.272 N 
HETATM    9  O9  UNL     1     -35.420   3.624   4.845  1.00 20.00    -0.268 OA
ENDROOT
TORSDOF 0
ENDMDL
MODEL 3
REMARK VINA RESULT:      -4.3      1.418      2.879
REMARK  0 active torsions:
REMARK  status: ('A' for Active; 'I' for Inactive)
ROOT
HETATM    1  C1  UNL     1     -35.153   5.072   5.528  1.00 20.00     0.148 A 
HETATM    2  C2  UNL     1     -33.627   6.491   6.104  1.00 20.00     0.218 A 
HETATM    3  C3  UNL     1     -34.454   5.373   4.395  1.00 20.00     0.061 A 
HETATM    4  C4  UNL     1     -34.285   5.170   3.021  1.00 20.00     0.037 A 
HETATM    5  C5  UNL     1     -33.254   5.918   2.573  1.00 20.00     0.077 A 
HETATM    6  C6  UNL     1     -32.709   6.664   3.734  1.00 20.00     0.253 A 
HETATM    7  N7  UNL     1     -34.626   5.780   6.599  1.00 20.00    -0.253 NA
HETATM    8  N8  UNL     1     -33.505   6.260   4.774  1.00 20.00    -0.272 N 
HETATM    9  O9  UNL     1     -31.798   7.453   3.843  1.00 20.00    -0.268 OA
ENDROOT
TORSDOF 0
ENDMDL
MODEL 4
REMARK VINA RESULT:      -4.3     12.524     13.679
REMARK  0 active torsions:
REMARK  status: ('A' for Active; 'I' for Inactive)
ROOT
HETATM    1  C1  UNL     1     -34.772  13.100  -4.841  1.00 20.00     0.148 A 
HETATM    2  C2  UNL     1     -33.705  14.554  -3.649  1.00 20.00     0.218 A 
HETATM    3  C3  UNL     1     -34.586  14.193  -5.636  1.00 20.00     0.061 A 
HETATM    4  C4  UNL     1     -34.778  14.794  -6.885  1.00 20.00     0.037 A 
HETATM    5  C5  UNL     1     -34.237  16.030  -6.884  1.00 20.00     0.077 A 
HETATM    6  C6  UNL     1     -33.649  16.258  -5.541  1.00 20.00     0.253 A 
HETATM    7  N7  UNL     1     -34.216  13.335  -3.591  1.00 20.00    -0.253 NA
HETATM    8  N8  UNL     1     -33.916  15.091  -4.875  1.00 20.00    -0.272 N 
HETATM    9  O9  UNL     1     -33.062  17.199  -5.054  1.00 20.00    -0.268 OA
ENDROOT
TORSDOF 0
ENDMDL
MODEL 5
REMARK VINA RESULT:      -4.2     12.483     13.711
REMARK  0 active torsions:
REMARK  status: ('A' for Active; 'I' for Inactive)
ROOT
HETATM    1  C1  UNL     1     -34.185  13.671  -3.566  1.00 20.00     0.148 A 
HETATM    2  C2  UNL     1     -34.960  13.543  -5.580  1.00 20.00     0.218 A 
HETATM    3  C3  UNL     1     -33.853  14.841  -4.185  1.00 20.00     0.061 A 
HETATM    4  C4  UNL     1     -33.233  16.093  -4.095  1.00 20.00     0.037 A 
HETATM    5  C5  UNL     1     -33.346  16.742  -5.272  1.00 20.00     0.077 A 
HETATM    6  C6  UNL     1     -34.093  15.857  -6.200  1.00 20.00     0.253 A 
HETATM    7  N7  UNL     1     -34.881  12.859  -4.450  1.00 20.00    -0.253 NA
HETATM    8  N8  UNL     1     -34.346  14.744  -5.442  1.00 20.00    -0.272 N 
HETATM    9  O9  UNL     1     -34.440  15.987  -7.352  1.00 20.00    -0.268 OA
ENDROOT
TORSDOF 0
ENDMDL
MODEL 6
REMARK VINA RESULT:      -4.2     12.385     13.518
REMARK  0 active torsions:
REMARK  status: ('A' for Active; 'I' for Inactive)
ROOT
HETATM    1  C1  UNL     1     -33.726  16.685  -5.873  1.00 20.00     0.148 A 
HETATM    2  C2  UNL     1     -34.667  14.938  -6.730  1.00 20.00     0.218 A 
HETATM    3  C3  UNL     1     -33.704  15.720  -4.909  1.00 20.00     0.061 A 
HETATM    4  C4  UNL     1     -33.342  15.355  -3.607  1.00 20.00     0.037 A 
HETATM    5  C5  UNL     1     -33.705  14.077  -3.374  1.00 20.00     0.077 A 
HETATM    6  C6  UNL     1     -34.351  13.565  -4.609  1.00 20.00     0.253 A 
HETATM    7  N7  UNL     1     -34.334  16.186  -7.016  1.00 20.00    -0.253 NA
HETATM    8  N8  UNL     1     -34.296  14.635  -5.463  1.00 20.00    -0.272 N 
HETATM    9  O9  UNL     1     -34.837  12.494  -4.892  1.00 20.00    -0.268 OA
ENDROOT
TORSDOF 0
ENDMDL
MODEL 7
REMARK VINA RESULT:      -4.2     11.982     12.671
REMARK  0 active torsions:
REMARK  status: ('A' for Active; 'I' for Inactive)
ROOT
HETATM    1  C1  UNL     1     -35.985  16.472  -3.023  1.00 20.00     0.148 A 
HETATM    2  C2  UNL     1     -36.870  14.704  -3.897  1.00 20.00     0.218 A 
HETATM    3  C3  UNL     1     -34.958  15.616  -3.293  1.00 20.00     0.061 A 
HETATM    4  C4  UNL     1     -33.580  15.373  -3.257  1.00 20.00     0.037 A 
HETATM    5  C5  UNL     1     -33.319  14.153  -3.770  1.00 20.00     0.077 A 
HETATM    6  C6  UNL     1     -34.615  13.551  -4.171  1.00 20.00     0.253 A 
HETATM    7  N7  UNL     1     -37.186  15.891  -3.406  1.00 20.00    -0.253 NA
HETATM    8  N8  UNL     1     -35.529  14.517  -3.839  1.00 20.00    -0.272 N 
HETATM    9  O9  UNL     1     -34.903  12.487  -4.671  1.00 20.00    -0.268 OA
ENDROOT
TORSDOF 0
ENDMDL
MODEL 8
REMARK VINA RESULT:      -4.1     11.846     12.344
REMARK  0 active torsions:
REMARK  status: ('A' for Active; 'I' for Inactive)
ROOT
HETATM    1  C1  UNL     1     -33.498  13.647  -3.820  1.00 20.00     0.148 A 
HETATM    2  C2  UNL     1     -35.566  13.464  -4.421  1.00 20.00     0.218 A 
HETATM    3  C3  UNL     1     -34.157  14.708  -3.272  1.00 20.00     0.061 A 
HETATM    4  C4  UNL     1     -34.090  15.867  -2.490  1.00 20.00     0.037 A 
HETATM    5  C5  UNL     1     -35.314  16.429  -2.402  1.00 20.00     0.077 A 
HETATM    6  C6  UNL     1     -36.250  15.580  -3.180  1.00 20.00     0.253 A 
HETATM    7  N7  UNL     1     -34.391  12.868  -4.542  1.00 20.00    -0.253 NA
HETATM    8  N8  UNL     1     -35.448  14.577  -3.658  1.00 20.00    -0.272 N 
HETATM    9  O9  UNL     1     -37.437  15.664  -3.401  1.00 20.00    -0.268 OA
ENDROOT
TORSDOF 0
ENDMDL
MODEL 9
REMARK VINA RESULT:      -4.1     12.350     13.464
REMARK  0 active torsions:
REMARK  status: ('A' for Active; 'I' for Inactive)
ROOT
HETATM    1  C1  UNL     1     -33.619  16.897  -4.353  1.00 20.00     0.148 A 
HETATM    2  C2  UNL     1     -34.019  15.190  -3.089  1.00 20.00     0.218 A 
HETATM    3  C3  UNL     1     -34.045  15.896  -5.176  1.00 20.00     0.061 A 
HETATM    4  C4  UNL     1     -34.340  15.480  -6.479  1.00 20.00     0.037 A 
HETATM    5  C5  UNL     1     -34.757  14.197  -6.465  1.00 20.00     0.077 A 
HETATM    6  C6  UNL     1     -34.734  13.737  -5.055  1.00 20.00     0.253 A 
HETATM    7  N7  UNL     1     -33.605  16.446  -3.041  1.00 20.00    -0.253 NA
HETATM    8  N8  UNL     1     -34.291  14.837  -4.368  1.00 20.00    -0.272 N 
HETATM    9  O9  UNL     1     -35.014  12.680  -4.535  1.00 20.00    -0.268 OA
ENDROOT
TORSDOF 0
ENDMDL
