MODEL 1
REMARK VINA RESULT:      -4.4      0.000      0.000
REMARK  1 active torsions:
REMARK  status: ('A' for Active; 'I' for Inactive)
REMARK    1  A    between atoms: C6_6  and  N10_10 
ROOT
HETATM    1  C1  UNL     1     -32.456  18.995  -0.131  1.00 20.00     0.064 C 
HETATM    2  C2  UNL     1     -34.405  17.460  -0.033  1.00 20.00     0.021 C 
HETATM    3  C3  UNL     1     -34.652  16.443  -1.145  1.00 20.00     0.037 C 
HETATM    4  C4  UNL     1     -33.656  18.326  -2.197  1.00 20.00     0.055 C 
HETATM    5  C5  UNL     1     -33.774  18.691  -0.710  1.00 20.00     0.095 C 
HETATM    6  C6  UNL     1     -33.614  16.800  -2.203  1.00 20.00     0.223 C 
HETATM    7  N9  UNL     1     -31.416  19.236   0.325  1.00 20.00    -0.197 NA
ENDROOT
BRANCH   6   8
HETATM    8  N10 UNL     1     -33.907  16.233  -3.509  1.00 20.00     0.084 N 
HETATM    9  C7  UNL     1     -33.146  14.998  -3.724  1.00 20.00     0.309 C 
HETATM   10  C8  UNL     1     -33.610  17.197  -4.574  1.00 20.00     0.309 C 
ENDBRANCH   6   8
TORSDOF 1
ENDMDL
MODEL 2
REMARK VINA RESULT:      -4.3      0.780      1.076
REMARK  1 active torsions:
REMARK  status: ('A' for Active; 'I' for Inactive)
REMARK    1  A    between atoms: C6_6  and  N10_10 
ROOT
HETATM    1  C1  UNL     1     -32.458  19.016  -0.184  1.00 20.00     0.064 C 
HETATM    2  C2  UNL     1     -34.437  17.534   0.051  1.00 20.00     0.021 C 
HETATM    3  C3  UNL     1     -34.748  16.475  -1.005  1.00 20.00     0.037 C 
HETATM    4  C4  UNL     1     -33.748  18.286  -2.174  1.00 20.00     0.055 C 
HETATM    5  C5  UNL     1     -33.803  18.718  -0.702  1.00 20.00     0.095 C 
HETATM    6  C6  UNL     1     -33.741  16.760  -2.113  1.00 20.00     0.223 C 
HETATM    7  N9  UNL     1     -31.397  19.251   0.224  1.00 20.00    -0.197 NA
ENDROOT
BRANCH   6   8
HETATM    8  N10 UNL     1     -34.094  16.144  -3.381  1.00 20.00     0.084 N 
HETATM    9  C7  UNL     1     -35.467  15.630  -3.347  1.00 20.00     0.309 C 
HETATM   10  C8  UNL     1     -33.161  15.061  -3.711  1.00 20.00     0.309 C 
ENDBRANCH   6   8
TORSDOF 1
ENDMDL
MODEL 3
REMARK VINA RESULT:      -4.3      1.934      4.882
REMARK  1 active torsions:
REMARK  status: ('A' for Active; 'I' for Inactive)
REMARK    1  A    between atoms: C6_6  and  N10_10 
ROOT
HETATM    1  C1  UNL     1     -34.963  13.784  -4.601  1.00 20.00     0.064 C 
HETATM    2  C2  UNL     1     -34.191  16.070  -5.190  1.00 20.00     0.021 C 
HETATM    3  C3  UNL     1     -33.569  16.979  -4.131  1.00 20.00     0.037 C 
HETATM    4  C4  UNL     1     -35.180  15.657  -2.988  1.00 20.00     0.055 C 
HETATM    5  C5  UNL     1     -35.248  15.221  -4.459  1.00 20.00     0.095 C 
HETATM    6  C6  UNL     1     -33.764  16.209  -2.830  1.00 20.00     0.223 C 
HETATM    7  N9  UNL     1     -34.739  12.651  -4.714  1.00 20.00    -0.197 NA
ENDROOT
BRANCH   6   8
HETATM    8  N10 UNL     1     -33.612  17.036  -1.645  1.00 20.00     0.084 N 
HETATM    9  C7  UNL     1     -34.641  16.718  -0.650  1.00 20.00     0.309 C 
HETATM   10  C8  UNL     1     -33.673  18.460  -1.992  1.00 20.00     0.309 C 
ENDBRANCH   6   8
TORSDOF 1
ENDMDL
MODEL 4
REMARK VINA RESULT:      -4.2      2.891      4.523
REMARK  1 active torsions:
REMARK  status: ('A' for Active; 'I' for Inactive)
REMARK    1  A    between atoms: C6_6  and  N10_10 
ROOT
HETATM    1  C1  UNL     1     -34.412  13.688  -3.943  1.00 20.00     0.064 C 
HETATM    2  C2  UNL     1     -34.687  15.691  -2.501  1.00 20.00     0.021 C 
HETATM    3  C3  UNL     1     -34.523  17.095  -3.079  1.00 20.00     0.037 C 
HETATM    4  C4  UNL     1     -33.022  15.712  -4.295  1.00 20.00     0.055 C 
HETATM    5  C5  UNL     1     -33.705  14.792  -3.274  1.00 20.00     0.095 C 
HETATM    6  C6  UNL     1     -34.021  16.849  -4.497  1.00 20.00     0.223 C 
HETATM    7  N9  UNL     1     -34.970  12.817  -4.470  1.00 20.00    -0.197 NA
ENDROOT
BRANCH   6   8
HETATM    8  N10 UNL     1     -33.422  18.025  -5.106  1.00 20.00     0.084 N 
HETATM    9  C7  UNL     1     -33.593  19.202  -4.248  1.00 20.00     0.309 C 
HETATM   10  C8  UNL     1     -34.003  18.280  -6.429  1.00 20.00     0.309 C 
ENDBRANCH   6   8
TORSDOF 1
ENDMDL
MODEL 5
REMARK VINA RESULT:      -4.1     11.731     12.985
REMARK  1 active torsions:
REMARK  status: ('A' for Active; 'I' for Inactive)
REMARK    1  A    between atoms: C6_6  and  N10_10 
ROOT
HETATM    1  C1  UNL     1     -32.251   7.769   2.309  1.00 20.00     0.064 C 
HETATM    2  C2  UNL     1     -33.407   5.573   2.214  1.00 20.00     0.021 C 
HETATM    3  C3  UNL     1     -34.398   5.167   3.303  1.00 20.00     0.037 C 
HETATM    4  C4  UNL     1     -32.758   6.504   4.383  1.00 20.00     0.055 C 
HETATM    5  C5  UNL     1     -32.332   6.428   2.910  1.00 20.00     0.095 C 
HETATM    6  C6  UNL     1     -34.267   6.271   4.346  1.00 20.00     0.223 C 
HETATM    7  N9  UNL     1     -32.186   8.827   1.835  1.00 20.00    -0.197 NA
ENDROOT
BRANCH   6   8
HETATM    8  N10 UNL     1     -34.812   5.904   5.642  1.00 20.00     0.084 N 
HETATM    9  C7  UNL     1     -34.032   6.508   6.726  1.00 20.00     0.309 C 
HETATM   10  C8  UNL     1     -34.846   4.446   5.799  1.00 20.00     0.309 C 
ENDBRANCH   6   8
TORSDOF 1
ENDMDL
MODEL 6
REMARK VINA RESULT:      -4.1      2.727      5.135
REMARK  1 active torsions:
REMARK  status: ('A' for Active; 'I' for Inactive)
REMARK    1  A    between atoms: C6_6  and  N10_10 
ROOT
HETATM    1  C1  UNL     1     -37.509  14.560  -4.167  1.00 20.00     0.064 C 
HETATM    2  C2  UNL     1     -35.178  13.705  -4.176  1.00 20.00     0.021 C 
HETATM    3  C3  UNL     1     -34.106  14.356  -3.305  1.00 20.00     0.037 C 
HETATM    4  C4  UNL     1     -35.583  16.107  -3.935  1.00 20.00     0.055 C 
HETATM    5  C5  UNL     1     -36.130  14.837  -4.602  1.00 20.00     0.095 C 
HETATM    6  C6  UNL     1     -34.799  15.586  -2.732  1.00 20.00     0.223 C 
HETATM    7  N9  UNL     1     -38.597  14.342  -3.824  1.00 20.00    -0.197 NA
ENDROOT
BRANCH   6   8
HETATM    8  N10 UNL     1     -33.874  16.569  -2.194  1.00 20.00     0.084 N 
HETATM    9  C7  UNL     1     -34.244  16.940  -0.825  1.00 20.00     0.309 C 
HETATM   10  C8  UNL     1     -33.830  17.763  -3.044  1.00 20.00     0.309 C 
ENDBRANCH   6   8
TORSDOF 1
ENDMDL
MODEL 7
REMARK VINA RESULT:      -4.0      2.764      4.995
REMARK  1 active torsions:
REMARK  status: ('A' for Active; 'I' for Inactive)
REMARK    1  A    between atoms: C6_6  and  N10_10 
ROOT
HETATM    1  C1  UNL     1     -36.899  14.390  -4.137  1.00 20.00     0.064 C 
HETATM    2  C2  UNL     1     -34.502  13.929  -3.682  1.00 20.00     0.021 C 
HETATM    3  C3  UNL     1     -33.504  15.075  -3.529  1.00 20.00     0.037 C 
HETATM    4  C4  UNL     1     -35.120  15.825  -5.101  1.00 20.00     0.055 C 
HETATM    5  C5  UNL     1     -35.544  14.402  -4.712  1.00 20.00     0.095 C 
HETATM    6  C6  UNL     1     -34.311  16.313  -3.901  1.00 20.00     0.223 C 
HETATM    7  N9  UNL     1     -37.968  14.379  -3.685  1.00 20.00    -0.197 NA
ENDROOT
BRANCH   6   8
HETATM    8  N10 UNL     1     -33.483  17.467  -4.210  1.00 20.00     0.084 N 
HETATM    9  C7  UNL     1     -33.817  18.598  -3.339  1.00 20.00     0.309 C 
HETATM   10  C8  UNL     1     -33.635  17.855  -5.616  1.00 20.00     0.309 C 
ENDBRANCH   6   8
TORSDOF 1
ENDMDL
MODEL 8
REMARK VINA RESULT:      -3.9      2.520      5.562
REMARK  1 active torsions:
REMARK  status: ('A' for Active; 'I' for Inactive)
REMARK    1  A    between atoms: C6_6  and  N10_10 
ROOT
HETATM    1  C1  UNL     1     -35.773  14.694  -6.692  1.00 20.00     0.064 C 
HETATM    2  C2  UNL     1     -34.740  13.329  -4.893  1.00 20.00     0.021 C 
HETATM    3  C3  UNL     1     -34.352  13.964  -3.559  1.00 20.00     0.037 C 
HETATM    4  C4  UNL     1     -34.041  15.655  -5.199  1.00 20.00     0.055 C 
HETATM    5  C5  UNL     1     -34.525  14.415  -5.964  1.00 20.00     0.095 C 
HETATM    6  C6  UNL     1     -34.581  15.454  -3.785  1.00 20.00     0.223 C 
HETATM    7  N9  UNL     1     -36.757  14.913  -7.268  1.00 20.00    -0.197 NA
ENDROOT
BRANCH   6   8
HETATM    8  N10 UNL     1     -33.914  16.292  -2.803  1.00 20.00     0.084 N 
HETATM    9  C7  UNL     1     -34.639  16.279  -1.528  1.00 20.00     0.309 C 
HETATM   10  C8  UNL     1     -33.787  17.669  -3.293  1.00 20.00     0.309 C 
ENDBRANCH   6   8
TORSDOF 1
ENDMDL
MODEL 9
REMARK VINA RESULT:      -3.9      2.298      3.344
REMARK  1 active torsions:
REMARK  status: ('A' for Active; 'I' for Inactive)
REMARK    1  A    between atoms: C6_6  and  N10_10 
ROOT
HETATM    1  C1  UNL     1     -34.363  16.654  -1.189  1.00 20.00     0.064 C 
HETATM    2  C2  UNL     1     -34.057  17.360  -3.550  1.00 20.00     0.021 C 
HETATM    3  C3  UNL     1     -34.762  16.617  -4.683  1.00 20.00     0.037 C 
HETATM    4  C4  UNL     1     -34.300  14.982  -3.021  1.00 20.00     0.055 C 
HETATM    5  C5  UNL     1     -33.740  16.303  -2.476  1.00 20.00     0.095 C 
HETATM    6  C6  UNL     1     -35.397  15.416  -3.991  1.00 20.00     0.223 C 
HETATM    7  N9  UNL     1     -34.854  16.930  -0.173  1.00 20.00    -0.197 NA
ENDROOT
BRANCH   6   8
HETATM    8  N10 UNL     1     -35.784  14.361  -4.913  1.00 20.00     0.084 N 
HETATM    9  C7  UNL     1     -34.792  13.281  -4.916  1.00 20.00     0.309 C 
HETATM   10  C8  UNL     1     -35.953  14.891  -6.270  1.00 20.00     0.309 C 
ENDBRANCH   6   8
TORSDOF 1
ENDMDL
