MODEL 1
REMARK VINA RESULT:      -4.0      0.000      0.000
REMARK  1 active torsions:
REMARK  status: ('A' for Active; 'I' for Inactive)
REMARK    1  A    between atoms: C3_3  and  C7_7 
ROOT
HETATM    1  C1  UNL     1     -36.732  14.614  -3.933  1.00 20.00     0.346 C 
HETATM    2  C2  UNL     1     -34.461  14.357  -3.358  1.00 20.00     0.233 C 
HETATM    3  C3  UNL     1     -34.489  15.899  -3.391  1.00 20.00     0.081 C 
HETATM    4  C4  UNL     1     -33.068  13.794  -3.654  1.00 20.00     0.044 C 
HETATM    5  C6  UNL     1     -35.207  13.928  -5.683  1.00 20.00     0.311 C 
HETATM    6  N8  UNL     1     -35.523  13.841  -4.257  1.00 20.00     0.098 N 
HETATM    7  S9  UNL     1     -36.262  16.294  -3.440  1.00 20.00    -0.132 SA
ENDROOT
BRANCH   3   8
HETATM    8  C7  UNL     1     -33.826  16.546  -2.183  1.00 20.00     0.013 C 
HETATM    9  C5  UNL     1     -34.715  16.522  -0.981  1.00 20.00     0.006 C 
ENDBRANCH   3   8
TORSDOF 1
ENDMDL
MODEL 2
REMARK VINA RESULT:      -3.6     11.621     12.286
REMARK  1 active torsions:
REMARK  status: ('A' for Active; 'I' for Inactive)
REMARK    1  A    between atoms: C3_3  and  C7_7 
ROOT
HETATM    1  C1  UNL     1     -35.389   5.248   3.693  1.00 20.00     0.346 C 
HETATM    2  C2  UNL     1     -34.049   6.499   5.176  1.00 20.00     0.233 C 
HETATM    3  C3  UNL     1     -32.939   6.111   4.177  1.00 20.00     0.081 C 
HETATM    4  C4  UNL     1     -33.503   6.755   6.583  1.00 20.00     0.044 C 
HETATM    5  C6  UNL     1     -34.792   4.218   5.800  1.00 20.00     0.311 C 
HETATM    6  N8  UNL     1     -35.119   5.472   5.122  1.00 20.00     0.098 N 
HETATM    7  S9  UNL     1     -33.856   5.462   2.748  1.00 20.00    -0.132 SA
ENDROOT
BRANCH   3   8
HETATM    8  C7  UNL     1     -32.056   7.280   3.764  1.00 20.00     0.013 C 
HETATM    9  C5  UNL     1     -32.251   7.645   2.328  1.00 20.00     0.006 C 
ENDBRANCH   3   8
TORSDOF 1
ENDMDL
MODEL 3
REMARK VINA RESULT:      -3.6      2.159      3.670
REMARK  1 active torsions:
REMARK  status: ('A' for Active; 'I' for Inactive)
REMARK    1  A    between atoms: C3_3  and  C7_7 
ROOT
HETATM    1  C1  UNL     1     -33.507  17.581  -4.911  1.00 20.00     0.346 C 
HETATM    2  C2  UNL     1     -34.005  16.431  -2.915  1.00 20.00     0.233 C 
HETATM    3  C3  UNL     1     -34.924  15.619  -3.850  1.00 20.00     0.081 C 
HETATM    4  C4  UNL     1     -34.503  16.432  -1.467  1.00 20.00     0.044 C 
HETATM    5  C6  UNL     1     -34.963  18.681  -3.322  1.00 20.00     0.311 C 
HETATM    6  N8  UNL     1     -33.817  17.787  -3.489  1.00 20.00     0.098 N 
HETATM    7  S9  UNL     1     -34.384  16.112  -5.515  1.00 20.00    -0.132 SA
ENDROOT
BRANCH   3   8
HETATM    8  C7  UNL     1     -34.802  14.113  -3.669  1.00 20.00     0.013 C 
HETATM    9  C5  UNL     1     -33.384  13.652  -3.785  1.00 20.00     0.006 C 
ENDBRANCH   3   8
TORSDOF 1
ENDMDL
MODEL 4
REMARK VINA RESULT:      -3.5      1.885      2.391
REMARK  1 active torsions:
REMARK  status: ('A' for Active; 'I' for Inactive)
REMARK    1  A    between atoms: C3_3  and  C7_7 
ROOT
HETATM    1  C1  UNL     1     -34.821  13.947  -5.837  1.00 20.00     0.346 C 
HETATM    2  C2  UNL     1     -33.816  15.960  -5.135  1.00 20.00     0.233 C 
HETATM    3  C3  UNL     1     -34.648  15.696  -3.864  1.00 20.00     0.081 C 
HETATM    4  C4  UNL     1     -33.532  17.450  -5.345  1.00 20.00     0.044 C 
HETATM    5  C6  UNL     1     -35.668  16.007  -6.782  1.00 20.00     0.311 C 
HETATM    6  N8  UNL     1     -34.484  15.305  -6.288  1.00 20.00     0.098 N 
HETATM    7  S9  UNL     1     -35.200  13.975  -4.064  1.00 20.00    -0.132 SA
ENDROOT
BRANCH   3   8
HETATM    8  C7  UNL     1     -33.859  15.861  -2.574  1.00 20.00     0.013 C 
HETATM    9  C5  UNL     1     -34.704  16.417  -1.472  1.00 20.00     0.006 C 
ENDBRANCH   3   8
TORSDOF 1
ENDMDL
MODEL 5
REMARK VINA RESULT:      -3.5      1.953      3.723
REMARK  1 active torsions:
REMARK  status: ('A' for Active; 'I' for Inactive)
REMARK    1  A    between atoms: C3_3  and  C7_7 
ROOT
HETATM    1  C1  UNL     1     -33.723  17.531  -3.611  1.00 20.00     0.346 C 
HETATM    2  C2  UNL     1     -33.520  15.263  -4.221  1.00 20.00     0.233 C 
HETATM    3  C3  UNL     1     -34.587  15.659  -5.262  1.00 20.00     0.081 C 
HETATM    4  C4  UNL     1     -33.583  13.777  -3.860  1.00 20.00     0.044 C 
HETATM    5  C6  UNL     1     -34.763  15.889  -2.169  1.00 20.00     0.311 C 
HETATM    6  N8  UNL     1     -33.633  16.173  -3.054  1.00 20.00     0.098 N 
HETATM    7  S9  UNL     1     -34.593  17.475  -5.201  1.00 20.00    -0.132 SA
ENDROOT
BRANCH   3   8
HETATM    8  C7  UNL     1     -34.277  15.169  -6.669  1.00 20.00     0.013 C 
HETATM    9  C5  UNL     1     -35.424  14.416  -7.263  1.00 20.00     0.006 C 
ENDBRANCH   3   8
TORSDOF 1
ENDMDL
MODEL 6
REMARK VINA RESULT:      -3.5      1.512      3.347
REMARK  1 active torsions:
REMARK  status: ('A' for Active; 'I' for Inactive)
REMARK    1  A    between atoms: C3_3  and  C7_7 
ROOT
HETATM    1  C1  UNL     1     -36.332  16.545  -3.284  1.00 20.00     0.346 C 
HETATM    2  C2  UNL     1     -34.290  15.537  -3.891  1.00 20.00     0.233 C 
HETATM    3  C3  UNL     1     -35.151  14.257  -3.876  1.00 20.00     0.081 C 
HETATM    4  C4  UNL     1     -32.813  15.248  -3.610  1.00 20.00     0.044 C 
HETATM    5  C6  UNL     1     -34.669  16.259  -1.550  1.00 20.00     0.311 C 
HETATM    6  N8  UNL     1     -34.896  16.530  -2.970  1.00 20.00     0.098 N 
HETATM    7  S9  UNL     1     -36.854  14.888  -3.805  1.00 20.00    -0.132 SA
ENDROOT
BRANCH   3   8
HETATM    8  C7  UNL     1     -34.954  13.377  -5.102  1.00 20.00     0.013 C 
HETATM    9  C5  UNL     1     -35.102  14.150  -6.373  1.00 20.00     0.006 C 
ENDBRANCH   3   8
TORSDOF 1
ENDMDL
MODEL 7
REMARK VINA RESULT:      -3.4      1.175      1.257
REMARK  1 active torsions:
REMARK  status: ('A' for Active; 'I' for Inactive)
REMARK    1  A    between atoms: C3_3  and  C7_7 
ROOT
HETATM    1  C1  UNL     1     -37.269  16.386  -4.111  1.00 20.00     0.346 C 
HETATM    2  C2  UNL     1     -35.475  15.006  -3.453  1.00 20.00     0.233 C 
HETATM    3  C3  UNL     1     -34.705  16.342  -3.478  1.00 20.00     0.081 C 
HETATM    4  C4  UNL     1     -34.561  13.803  -3.701  1.00 20.00     0.044 C 
HETATM    5  C6  UNL     1     -36.255  14.990  -5.807  1.00 20.00     0.311 C 
HETATM    6  N8  UNL     1     -36.620  15.098  -4.394  1.00 20.00     0.098 N 
HETATM    7  S9  UNL     1     -36.019  17.592  -3.590  1.00 20.00    -0.132 SA
ENDROOT
BRANCH   3   8
HETATM    8  C7  UNL     1     -33.846  16.573  -2.243  1.00 20.00     0.013 C 
HETATM    9  C5  UNL     1     -34.657  16.538  -0.987  1.00 20.00     0.006 C 
ENDBRANCH   3   8
TORSDOF 1
ENDMDL
MODEL 8
REMARK VINA RESULT:      -3.4      1.662      3.017
REMARK  1 active torsions:
REMARK  status: ('A' for Active; 'I' for Inactive)
REMARK    1  A    between atoms: C3_3  and  C7_7 
ROOT
HETATM    1  C1  UNL     1     -34.297  13.447  -4.668  1.00 20.00     0.346 C 
HETATM    2  C2  UNL     1     -35.087  15.024  -3.104  1.00 20.00     0.233 C 
HETATM    3  C3  UNL     1     -35.645  15.699  -4.373  1.00 20.00     0.081 C 
HETATM    4  C4  UNL     1     -34.827  16.027  -1.977  1.00 20.00     0.044 C 
HETATM    5  C6  UNL     1     -32.689  14.993  -3.730  1.00 20.00     0.311 C 
HETATM    6  N8  UNL     1     -33.901  14.214  -3.477  1.00 20.00     0.098 N 
HETATM    7  S9  UNL     1     -35.466  14.421  -5.653  1.00 20.00    -0.132 SA
ENDROOT
BRANCH   3   8
HETATM    8  C7  UNL     1     -37.098  16.132  -4.245  1.00 20.00     0.013 C 
HETATM    9  C5  UNL     1     -37.982  15.000  -3.830  1.00 20.00     0.006 C 
ENDBRANCH   3   8
TORSDOF 1
ENDMDL
MODEL 9
REMARK VINA RESULT:      -3.3      2.154      3.348
REMARK  1 active torsions:
REMARK  status: ('A' for Active; 'I' for Inactive)
REMARK    1  A    between atoms: C3_3  and  C7_7 
ROOT
HETATM    1  C1  UNL     1     -35.404  17.350  -3.146  1.00 20.00     0.346 C 
HETATM    2  C2  UNL     1     -34.627  16.074  -4.970  1.00 20.00     0.233 C 
HETATM    3  C3  UNL     1     -33.773  15.404  -3.875  1.00 20.00     0.081 C 
HETATM    4  C4  UNL     1     -33.974  15.988  -6.352  1.00 20.00     0.044 C 
HETATM    5  C6  UNL     1     -33.845  18.407  -4.666  1.00 20.00     0.311 C 
HETATM    6  N8  UNL     1     -34.952  17.458  -4.541  1.00 20.00     0.098 N 
HETATM    7  S9  UNL     1     -34.519  15.996  -2.327  1.00 20.00    -0.132 SA
ENDROOT
BRANCH   3   8
HETATM    8  C7  UNL     1     -33.791  13.883  -3.933  1.00 20.00     0.013 C 
HETATM    9  C5  UNL     1     -35.164  13.352  -4.199  1.00 20.00     0.006 C 
ENDBRANCH   3   8
TORSDOF 1
ENDMDL
