MODEL 1
REMARK VINA RESULT:      -4.7      0.000      0.000
REMARK  0 active torsions:
REMARK  status: ('A' for Active; 'I' for Inactive)
ROOT
HETATM    1  C1  UNL     1     -33.847  15.955  -4.795  1.00 20.00    -0.054 C 
HETATM    2  C2  UNL     1     -34.410  13.690  -4.634  1.00 20.00     0.226 C 
HETATM    3  C3  UNL     1     -33.428  17.092  -5.366  1.00 20.00     0.017 C 
HETATM    4  C4  UNL     1     -34.776  14.938  -5.416  1.00 20.00     0.104 C 
HETATM    5  C5  UNL     1     -33.356  15.468  -3.463  1.00 20.00     0.109 C 
HETATM    6  C6  UNL     1     -34.631  14.714  -6.913  1.00 20.00     0.025 C 
HETATM    7  C7  UNL     1     -34.091  16.104  -2.293  1.00 20.00     0.037 C 
HETATM    8  N8  UNL     1     -33.633  14.059  -3.546  1.00 20.00    -0.352 N 
HETATM    9  O9  UNL     1     -34.769  12.554  -4.911  1.00 20.00    -0.273 OA
HETATM   10  H20 UNL     1     -33.289  13.390  -2.865  1.00 20.00     0.163 HD
ENDROOT
TORSDOF 0
ENDMDL
MODEL 2
REMARK VINA RESULT:      -4.4      1.867      2.643
REMARK  0 active torsions:
REMARK  status: ('A' for Active; 'I' for Inactive)
ROOT
HETATM    1  C1  UNL     1     -34.763  15.471  -3.039  1.00 20.00    -0.054 C 
HETATM    2  C2  UNL     1     -35.064  13.574  -4.373  1.00 20.00     0.226 C 
HETATM    3  C3  UNL     1     -34.241  16.240  -2.074  1.00 20.00     0.017 C 
HETATM    4  C4  UNL     1     -33.991  14.569  -3.973  1.00 20.00     0.104 C 
HETATM    5  C5  UNL     1     -36.240  15.314  -3.264  1.00 20.00     0.109 C 
HETATM    6  C6  UNL     1     -32.777  13.867  -3.386  1.00 20.00     0.025 C 
HETATM    7  C7  UNL     1     -36.833  16.438  -4.100  1.00 20.00     0.037 C 
HETATM    8  N8  UNL     1     -36.296  14.060  -3.965  1.00 20.00    -0.352 N 
HETATM    9  O9  UNL     1     -34.866  12.530  -4.980  1.00 20.00    -0.273 OA
HETATM   10  H20 UNL     1     -37.167  13.571  -4.146  1.00 20.00     0.163 HD
ENDROOT
TORSDOF 0
ENDMDL
MODEL 3
REMARK VINA RESULT:      -4.3      2.064      2.529
REMARK  0 active torsions:
REMARK  status: ('A' for Active; 'I' for Inactive)
ROOT
HETATM    1  C1  UNL     1     -34.858  14.726  -5.649  1.00 20.00    -0.054 C 
HETATM    2  C2  UNL     1     -36.643  14.248  -4.215  1.00 20.00     0.226 C 
HETATM    3  C3  UNL     1     -34.235  15.050  -6.790  1.00 20.00     0.017 C 
HETATM    4  C4  UNL     1     -36.127  15.351  -5.120  1.00 20.00     0.104 C 
HETATM    5  C5  UNL     1     -34.427  13.591  -4.765  1.00 20.00     0.109 C 
HETATM    6  C6  UNL     1     -37.168  15.749  -6.155  1.00 20.00     0.025 C 
HETATM    7  C7  UNL     1     -33.300  13.974  -3.818  1.00 20.00     0.037 C 
HETATM    8  N8  UNL     1     -35.638  13.308  -4.042  1.00 20.00    -0.352 N 
HETATM    9  O9  UNL     1     -37.755  14.216  -3.705  1.00 20.00    -0.273 OA
HETATM   10  H20 UNL     1     -35.748  12.488  -3.454  1.00 20.00     0.163 HD
ENDROOT
TORSDOF 0
ENDMDL
MODEL 4
REMARK VINA RESULT:      -4.3     12.556     13.647
REMARK  0 active torsions:
REMARK  status: ('A' for Active; 'I' for Inactive)
ROOT
HETATM    1  C1  UNL     1     -33.834   6.344   5.594  1.00 20.00    -0.054 C 
HETATM    2  C2  UNL     1     -34.862   4.573   4.464  1.00 20.00     0.226 C 
HETATM    3  C3  UNL     1     -33.640   7.259   6.554  1.00 20.00     0.017 C 
HETATM    4  C4  UNL     1     -34.236   4.904   5.806  1.00 20.00     0.104 C 
HETATM    5  C5  UNL     1     -33.780   6.661   4.127  1.00 20.00     0.109 C 
HETATM    6  C6  UNL     1     -35.202   4.632   6.949  1.00 20.00     0.025 C 
HETATM    7  C7  UNL     1     -32.362   6.663   3.575  1.00 20.00     0.037 C 
HETATM    8  N8  UNL     1     -34.553   5.585   3.568  1.00 20.00    -0.352 N 
HETATM    9  O9  UNL     1     -35.509   3.564   4.218  1.00 20.00    -0.273 OA
HETATM   10  H20 UNL     1     -34.848   5.567   2.597  1.00 20.00     0.163 HD
ENDROOT
TORSDOF 0
ENDMDL
MODEL 5
REMARK VINA RESULT:      -4.2      2.151      2.502
REMARK  0 active torsions:
REMARK  status: ('A' for Active; 'I' for Inactive)
ROOT
HETATM    1  C1  UNL     1     -34.311  15.406  -3.591  1.00 20.00    -0.054 C 
HETATM    2  C2  UNL     1     -36.566  14.784  -3.618  1.00 20.00     0.226 C 
HETATM    3  C3  UNL     1     -32.981  15.249  -3.583  1.00 20.00     0.017 C 
HETATM    4  C4  UNL     1     -35.294  14.621  -4.428  1.00 20.00     0.104 C 
HETATM    5  C5  UNL     1     -35.041  16.337  -2.666  1.00 20.00     0.109 C 
HETATM    6  C6  UNL     1     -34.968  13.153  -4.656  1.00 20.00     0.025 C 
HETATM    7  C7  UNL     1     -35.059  17.773  -3.166  1.00 20.00     0.037 C 
HETATM    8  N8  UNL     1     -36.363  15.771  -2.665  1.00 20.00    -0.352 N 
HETATM    9  O9  UNL     1     -37.603  14.162  -3.801  1.00 20.00    -0.273 OA
HETATM   10  H20 UNL     1     -37.087  16.069  -2.019  1.00 20.00     0.163 HD
ENDROOT
TORSDOF 0
ENDMDL
MODEL 6
REMARK VINA RESULT:      -4.1      1.164      1.166
REMARK  0 active torsions:
REMARK  status: ('A' for Active; 'I' for Inactive)
ROOT
HETATM    1  C1  UNL     1     -35.056  16.164  -4.179  1.00 20.00    -0.054 C 
HETATM    2  C2  UNL     1     -34.955  13.828  -4.114  1.00 20.00     0.226 C 
HETATM    3  C3  UNL     1     -35.104  17.389  -4.717  1.00 20.00     0.017 C 
HETATM    4  C4  UNL     1     -35.817  14.951  -4.660  1.00 20.00     0.104 C 
HETATM    5  C5  UNL     1     -34.134  15.789  -3.055  1.00 20.00     0.109 C 
HETATM    6  C6  UNL     1     -36.004  14.823  -6.164  1.00 20.00     0.025 C 
HETATM    7  C7  UNL     1     -34.687  16.162  -1.687  1.00 20.00     0.037 C 
HETATM    8  N8  UNL     1     -34.050  14.362  -3.209  1.00 20.00    -0.352 N 
HETATM    9  O9  UNL     1     -35.067  12.646  -4.409  1.00 20.00    -0.273 OA
HETATM   10  H20 UNL     1     -33.384  13.792  -2.698  1.00 20.00     0.163 HD
ENDROOT
TORSDOF 0
ENDMDL
MODEL 7
REMARK VINA RESULT:      -4.1      2.417      3.473
REMARK  0 active torsions:
REMARK  status: ('A' for Active; 'I' for Inactive)
ROOT
HETATM    1  C1  UNL     1     -34.204  16.199  -2.870  1.00 20.00    -0.054 C 
HETATM    2  C2  UNL     1     -33.610  17.013  -4.981  1.00 20.00     0.226 C 
HETATM    3  C3  UNL     1     -34.504  16.236  -1.565  1.00 20.00     0.017 C 
HETATM    4  C4  UNL     1     -34.684  17.171  -3.921  1.00 20.00     0.104 C 
HETATM    5  C5  UNL     1     -33.235  15.219  -3.469  1.00 20.00     0.109 C 
HETATM    6  C6  UNL     1     -34.823  18.622  -3.488  1.00 20.00     0.025 C 
HETATM    7  C7  UNL     1     -33.870  13.870  -3.770  1.00 20.00     0.037 C 
HETATM    8  N8  UNL     1     -32.849  15.893  -4.679  1.00 20.00    -0.352 N 
HETATM    9  O9  UNL     1     -33.465  17.742  -5.953  1.00 20.00    -0.273 OA
HETATM   10  H20 UNL     1     -32.082  15.576  -5.263  1.00 20.00     0.163 HD
ENDROOT
TORSDOF 0
ENDMDL
MODEL 8
REMARK VINA RESULT:      -4.1      1.405      2.967
REMARK  0 active torsions:
REMARK  status: ('A' for Active; 'I' for Inactive)
ROOT
HETATM    1  C1  UNL     1     -35.145  15.620  -4.995  1.00 20.00    -0.054 C 
HETATM    2  C2  UNL     1     -33.901  13.785  -4.250  1.00 20.00     0.226 C 
HETATM    3  C3  UNL     1     -35.919  16.709  -4.914  1.00 20.00     0.017 C 
HETATM    4  C4  UNL     1     -33.973  15.292  -4.100  1.00 20.00     0.104 C 
HETATM    5  C5  UNL     1     -35.405  14.489  -5.948  1.00 20.00     0.109 C 
HETATM    6  C6  UNL     1     -34.104  15.697  -2.640  1.00 20.00     0.025 C 
HETATM    7  C7  UNL     1     -34.855  14.752  -7.342  1.00 20.00     0.037 C 
HETATM    8  N8  UNL     1     -34.708  13.404  -5.312  1.00 20.00    -0.352 N 
HETATM    9  O9  UNL     1     -33.219  13.039  -3.560  1.00 20.00    -0.273 OA
HETATM   10  H20 UNL     1     -34.798  12.440  -5.614  1.00 20.00     0.163 HD
ENDROOT
TORSDOF 0
ENDMDL
MODEL 9
REMARK VINA RESULT:      -4.0     11.494     12.603
REMARK  0 active torsions:
REMARK  status: ('A' for Active; 'I' for Inactive)
ROOT
HETATM    1  C1  UNL     1     -33.640   5.765   3.053  1.00 20.00    -0.054 C 
HETATM    2  C2  UNL     1     -33.668   6.530   5.263  1.00 20.00     0.226 C 
HETATM    3  C3  UNL     1     -33.812   4.916   2.032  1.00 20.00     0.017 C 
HETATM    4  C4  UNL     1     -34.601   5.986   4.198  1.00 20.00     0.104 C 
HETATM    5  C5  UNL     1     -32.384   6.561   3.265  1.00 20.00     0.109 C 
HETATM    6  C6  UNL     1     -35.354   4.762   4.694  1.00 20.00     0.025 C 
HETATM    7  C7  UNL     1     -32.350   7.841   2.443  1.00 20.00     0.037 C 
HETATM    8  N8  UNL     1     -32.455   6.849   4.672  1.00 20.00    -0.352 N 
HETATM    9  O9  UNL     1     -33.957   6.683   6.442  1.00 20.00    -0.273 OA
HETATM   10  H20 UNL     1     -31.681   7.253   5.190  1.00 20.00     0.163 HD
ENDROOT
TORSDOF 0
ENDMDL
