MODEL 1
REMARK VINA RESULT:      -4.6      0.000      0.000
REMARK  5 active torsions:
REMARK  status: ('A' for Active; 'I' for Inactive)
REMARK    1  A    between atoms: C1_1  and  C5_5 
REMARK    2  A    between atoms: C2_2  and  C9_9 
REMARK    3  A    between atoms: C3_3  and  C6_6 
REMARK    4  A    between atoms: C9_9  and  C11_11 
REMARK    5  A    between atoms: C10_10  and  C11_11 
ROOT
HETATM    1  C4  UNL     1     -35.551  14.451  -6.728  1.00 20.00     0.022 A 
HETATM    2  C5  UNL     1     -35.357  15.614  -5.824  1.00 20.00     0.020 A 
HETATM    3  C6  UNL     1     -34.367  14.501  -5.804  1.00 20.00     0.063 A 
ENDROOT
BRANCH   2   4
HETATM    4  C1  UNL     1     -36.310  15.773  -4.686  1.00 20.00    -0.025 C 
HETATM    5  C2  UNL     1     -36.130  16.639  -3.677  1.00 20.00    -0.030 C 
BRANCH   5   6
HETATM    6  C9  UNL     1     -34.948  17.558  -3.567  1.00 20.00     0.027 C 
BRANCH   6   7
HETATM    7  C11 UNL     1     -33.981  17.156  -2.449  1.00 20.00     0.003 C 
BRANCH   7   8
HETATM    8  C10 UNL     1     -34.657  16.364  -1.326  1.00 20.00    -0.004 C 
HETATM    9  C8  UNL     1     -34.752  17.185  -0.049  1.00 20.00     0.005 C 
ENDBRANCH   7   8
ENDBRANCH   6   7
ENDBRANCH   5   6
ENDBRANCH   2   4
BRANCH   3  10
HETATM   10  C3  UNL     1     -34.278  13.540  -4.696  1.00 20.00     0.128 C 
HETATM   11  C7  UNL     1     -33.219  13.799  -3.660  1.00 20.00     0.091 C 
HETATM   12  O12 UNL     1     -35.035  12.574  -4.619  1.00 20.00    -0.298 OA
ENDBRANCH   3  10
TORSDOF 5
ENDMDL
MODEL 2
REMARK VINA RESULT:      -4.5      1.757      3.073
REMARK  5 active torsions:
REMARK  status: ('A' for Active; 'I' for Inactive)
REMARK    1  A    between atoms: C1_1  and  C5_5 
REMARK    2  A    between atoms: C2_2  and  C9_9 
REMARK    3  A    between atoms: C3_3  and  C6_6 
REMARK    4  A    between atoms: C9_9  and  C11_11 
REMARK    5  A    between atoms: C10_10  and  C11_11 
ROOT
HETATM    1  C4  UNL     1     -33.886  16.527  -4.376  1.00 20.00     0.022 A 
HETATM    2  C5  UNL     1     -33.509  16.172  -2.983  1.00 20.00     0.020 A 
HETATM    3  C6  UNL     1     -33.270  15.188  -4.077  1.00 20.00     0.063 A 
ENDROOT
BRANCH   2   4
HETATM    4  C1  UNL     1     -34.612  15.934  -2.006  1.00 20.00    -0.025 C 
HETATM    5  C2  UNL     1     -34.764  16.627  -0.868  1.00 20.00    -0.030 C 
BRANCH   5   6
HETATM    6  C9  UNL     1     -33.843  17.730  -0.433  1.00 20.00     0.027 C 
BRANCH   6   7
HETATM    7  C11 UNL     1     -34.129  18.223   0.989  1.00 20.00     0.003 C 
BRANCH   7   8
HETATM    8  C10 UNL     1     -32.910  18.860   1.660  1.00 20.00    -0.004 C 
HETATM    9  C8  UNL     1     -31.753  19.008   0.683  1.00 20.00     0.005 C 
ENDBRANCH   7   8
ENDBRANCH   6   7
ENDBRANCH   5   6
ENDBRANCH   2   4
BRANCH   3  10
HETATM   10  C3  UNL     1     -34.079  13.973  -4.239  1.00 20.00     0.128 C 
HETATM   11  C7  UNL     1     -34.907  13.872  -5.491  1.00 20.00     0.091 C 
HETATM   12  O12 UNL     1     -34.076  13.080  -3.393  1.00 20.00    -0.298 OA
ENDBRANCH   3  10
TORSDOF 5
ENDMDL
MODEL 3
REMARK VINA RESULT:      -4.5     10.468     12.138
REMARK  5 active torsions:
REMARK  status: ('A' for Active; 'I' for Inactive)
REMARK    1  A    between atoms: C1_1  and  C5_5 
REMARK    2  A    between atoms: C2_2  and  C9_9 
REMARK    3  A    between atoms: C3_3  and  C6_6 
REMARK    4  A    between atoms: C9_9  and  C11_11 
REMARK    5  A    between atoms: C10_10  and  C11_11 
ROOT
HETATM    1  C4  UNL     1     -34.938   6.728   3.741  1.00 20.00     0.022 A 
HETATM    2  C5  UNL     1     -34.224   5.682   2.963  1.00 20.00     0.020 A 
HETATM    3  C6  UNL     1     -35.254   5.274   3.961  1.00 20.00     0.063 A 
ENDROOT
BRANCH   2   4
HETATM    4  C1  UNL     1     -32.779   5.461   3.263  1.00 20.00    -0.025 C 
HETATM    5  C2  UNL     1     -31.844   6.419   3.180  1.00 20.00    -0.030 C 
BRANCH   5   6
HETATM    6  C9  UNL     1     -32.134   7.835   2.773  1.00 20.00     0.027 C 
BRANCH   6   7
HETATM    7  C11 UNL     1     -31.843   8.103   1.293  1.00 20.00     0.003 C 
BRANCH   7   8
HETATM    8  C10 UNL     1     -32.250   9.510   0.847  1.00 20.00    -0.004 C 
HETATM    9  C8  UNL     1     -32.844  10.307   1.999  1.00 20.00     0.005 C 
ENDBRANCH   7   8
ENDBRANCH   6   7
ENDBRANCH   5   6
ENDBRANCH   2   4
BRANCH   3  10
HETATM   10  C3  UNL     1     -34.908   4.649   5.244  1.00 20.00     0.128 C 
HETATM   11  C7  UNL     1     -34.554   5.576   6.375  1.00 20.00     0.091 C 
HETATM   12  O12 UNL     1     -34.910   3.427   5.388  1.00 20.00    -0.298 OA
ENDBRANCH   3  10
TORSDOF 5
ENDMDL
MODEL 4
REMARK VINA RESULT:      -4.4     10.409     12.062
REMARK  5 active torsions:
REMARK  status: ('A' for Active; 'I' for Inactive)
REMARK    1  A    between atoms: C1_1  and  C5_5 
REMARK    2  A    between atoms: C2_2  and  C9_9 
REMARK    3  A    between atoms: C3_3  and  C6_6 
REMARK    4  A    between atoms: C9_9  and  C11_11 
REMARK    5  A    between atoms: C10_10  and  C11_11 
ROOT
HETATM    1  C4  UNL     1     -31.887   7.502   3.822  1.00 20.00     0.022 A 
HETATM    2  C5  UNL     1     -32.564   6.529   2.925  1.00 20.00     0.020 A 
HETATM    3  C6  UNL     1     -31.685   7.578   2.334  1.00 20.00     0.063 A 
ENDROOT
BRANCH   2   4
HETATM    4  C1  UNL     1     -34.045   6.640   2.776  1.00 20.00    -0.025 C 
HETATM    5  C2  UNL     1     -34.915   5.765   3.303  1.00 20.00    -0.030 C 
BRANCH   5   6
HETATM    6  C9  UNL     1     -34.509   4.565   4.108  1.00 20.00     0.027 C 
BRANCH   6   7
HETATM    7  C11 UNL     1     -35.197   4.502   5.475  1.00 20.00     0.003 C 
BRANCH   7   8
HETATM    8  C10 UNL     1     -34.306   4.991   6.619  1.00 20.00    -0.004 C 
HETATM    9  C8  UNL     1     -34.097   6.496   6.554  1.00 20.00     0.005 C 
ENDBRANCH   7   8
ENDBRANCH   6   7
ENDBRANCH   5   6
ENDBRANCH   2   4
BRANCH   3  10
HETATM   10  C3  UNL     1     -32.216   8.731   1.594  1.00 20.00     0.128 C 
HETATM   11  C7  UNL     1     -32.241   8.619   0.094  1.00 20.00     0.091 C 
HETATM   12  O12 UNL     1     -32.624   9.736   2.174  1.00 20.00    -0.298 OA
ENDBRANCH   3  10
TORSDOF 5
ENDMDL
MODEL 5
REMARK VINA RESULT:      -4.4      1.634      2.862
REMARK  5 active torsions:
REMARK  status: ('A' for Active; 'I' for Inactive)
REMARK    1  A    between atoms: C1_1  and  C5_5 
REMARK    2  A    between atoms: C2_2  and  C9_9 
REMARK    3  A    between atoms: C3_3  and  C6_6 
REMARK    4  A    between atoms: C9_9  and  C11_11 
REMARK    5  A    between atoms: C10_10  and  C11_11 
ROOT
HETATM    1  C4  UNL     1     -34.441  13.243  -4.681  1.00 20.00     0.022 A 
HETATM    2  C5  UNL     1     -34.392  14.084  -3.457  1.00 20.00     0.020 A 
HETATM    3  C6  UNL     1     -35.680  13.941  -4.193  1.00 20.00     0.063 A 
ENDROOT
BRANCH   2   4
HETATM    4  C1  UNL     1     -33.640  15.372  -3.531  1.00 20.00    -0.025 C 
HETATM    5  C2  UNL     1     -33.745  16.351  -2.620  1.00 20.00    -0.030 C 
BRANCH   5   6
HETATM    6  C9  UNL     1     -34.631  16.274  -1.411  1.00 20.00     0.027 C 
BRANCH   6   7
HETATM    7  C11 UNL     1     -34.344  17.377  -0.387  1.00 20.00     0.003 C 
BRANCH   7   8
HETATM    8  C10 UNL     1     -33.321  18.402  -0.882  1.00 20.00    -0.004 C 
HETATM    9  C8  UNL     1     -32.302  18.734   0.198  1.00 20.00     0.005 C 
ENDBRANCH   7   8
ENDBRANCH   6   7
ENDBRANCH   5   6
ENDBRANCH   2   4
BRANCH   3  10
HETATM   10  C3  UNL     1     -36.257  15.027  -4.996  1.00 20.00     0.128 C 
HETATM   11  C7  UNL     1     -37.152  15.999  -4.276  1.00 20.00     0.091 C 
HETATM   12  O12 UNL     1     -36.018  15.138  -6.198  1.00 20.00    -0.298 OA
ENDBRANCH   3  10
TORSDOF 5
ENDMDL
MODEL 6
REMARK VINA RESULT:      -4.3      1.423      2.465
REMARK  5 active torsions:
REMARK  status: ('A' for Active; 'I' for Inactive)
REMARK    1  A    between atoms: C1_1  and  C5_5 
REMARK    2  A    between atoms: C2_2  and  C9_9 
REMARK    3  A    between atoms: C3_3  and  C6_6 
REMARK    4  A    between atoms: C9_9  and  C11_11 
REMARK    5  A    between atoms: C10_10  and  C11_11 
ROOT
HETATM    1  C4  UNL     1     -32.970  13.734  -3.710  1.00 20.00     0.022 A 
HETATM    2  C5  UNL     1     -33.321  15.132  -3.350  1.00 20.00     0.020 A 
HETATM    3  C6  UNL     1     -34.399  14.106  -3.429  1.00 20.00     0.063 A 
ENDROOT
BRANCH   2   4
HETATM    4  C1  UNL     1     -33.212  16.171  -4.416  1.00 20.00    -0.025 C 
HETATM    5  C2  UNL     1     -33.737  17.401  -4.315  1.00 20.00    -0.030 C 
BRANCH   5   6
HETATM    6  C9  UNL     1     -34.500  17.888  -3.118  1.00 20.00     0.027 C 
BRANCH   6   7
HETATM    7  C11 UNL     1     -33.610  18.589  -2.086  1.00 20.00     0.003 C 
BRANCH   7   8
HETATM    8  C10 UNL     1     -33.481  17.809  -0.776  1.00 20.00    -0.004 C 
HETATM    9  C8  UNL     1     -34.693  16.921  -0.538  1.00 20.00     0.005 C 
ENDBRANCH   7   8
ENDBRANCH   6   7
ENDBRANCH   5   6
ENDBRANCH   2   4
BRANCH   3  10
HETATM   10  C3  UNL     1     -35.380  14.072  -4.522  1.00 20.00     0.128 C 
HETATM   11  C7  UNL     1     -36.712  14.718  -4.256  1.00 20.00     0.091 C 
HETATM   12  O12 UNL     1     -35.122  13.544  -5.603  1.00 20.00    -0.298 OA
ENDBRANCH   3  10
TORSDOF 5
ENDMDL
MODEL 7
REMARK VINA RESULT:      -4.1      2.034      3.131
REMARK  5 active torsions:
REMARK  status: ('A' for Active; 'I' for Inactive)
REMARK    1  A    between atoms: C1_1  and  C5_5 
REMARK    2  A    between atoms: C2_2  and  C9_9 
REMARK    3  A    between atoms: C3_3  and  C6_6 
REMARK    4  A    between atoms: C9_9  and  C11_11 
REMARK    5  A    between atoms: C10_10  and  C11_11 
ROOT
HETATM    1  C4  UNL     1     -36.703  16.831  -3.780  1.00 20.00     0.022 A 
HETATM    2  C5  UNL     1     -35.315  16.617  -3.295  1.00 20.00     0.020 A 
HETATM    3  C6  UNL     1     -35.850  15.750  -4.383  1.00 20.00     0.063 A 
ENDROOT
BRANCH   2   4
HETATM    4  C1  UNL     1     -35.139  16.055  -1.924  1.00 20.00    -0.025 C 
HETATM    5  C2  UNL     1     -34.419  16.648  -0.960  1.00 20.00    -0.030 C 
BRANCH   5   6
HETATM    6  C9  UNL     1     -33.699  17.953  -1.140  1.00 20.00     0.027 C 
BRANCH   6   7
HETATM    7  C11 UNL     1     -33.375  18.645   0.188  1.00 20.00     0.003 C 
BRANCH   7   8
HETATM    8  C10 UNL     1     -31.880  18.916   0.374  1.00 20.00    -0.004 C 
HETATM    9  C8  UNL     1     -31.556  19.263   1.820  1.00 20.00     0.005 C 
ENDBRANCH   7   8
ENDBRANCH   6   7
ENDBRANCH   5   6
ENDBRANCH   2   4
BRANCH   3  10
HETATM   10  C3  UNL     1     -36.212  14.343  -4.167  1.00 20.00     0.128 C 
HETATM   11  C7  UNL     1     -35.127  13.324  -4.381  1.00 20.00     0.091 C 
HETATM   12  O12 UNL     1     -37.348  14.015  -3.824  1.00 20.00    -0.298 OA
ENDBRANCH   3  10
TORSDOF 5
ENDMDL
MODEL 8
REMARK VINA RESULT:      -4.0      2.150      4.477
REMARK  5 active torsions:
REMARK  status: ('A' for Active; 'I' for Inactive)
REMARK    1  A    between atoms: C1_1  and  C5_5 
REMARK    2  A    between atoms: C2_2  and  C9_9 
REMARK    3  A    between atoms: C3_3  and  C6_6 
REMARK    4  A    between atoms: C9_9  and  C11_11 
REMARK    5  A    between atoms: C10_10  and  C11_11 
ROOT
HETATM    1  C4  UNL     1     -34.389  16.651  -1.284  1.00 20.00     0.022 A 
HETATM    2  C5  UNL     1     -35.196  15.916  -2.292  1.00 20.00     0.020 A 
HETATM    3  C6  UNL     1     -33.836  16.404  -2.660  1.00 20.00     0.063 A 
ENDROOT
BRANCH   2   4
HETATM    4  C1  UNL     1     -36.399  16.601  -2.849  1.00 20.00    -0.025 C 
HETATM    5  C2  UNL     1     -37.149  16.102  -3.843  1.00 20.00    -0.030 C 
BRANCH   5   6
HETATM    6  C9  UNL     1     -36.872  14.791  -4.520  1.00 20.00     0.027 C 
BRANCH   6   7
HETATM    7  C11 UNL     1     -36.184  14.954  -5.879  1.00 20.00     0.003 C 
BRANCH   7   8
HETATM    8  C10 UNL     1     -34.979  14.028  -6.057  1.00 20.00    -0.004 C 
HETATM    9  C8  UNL     1     -34.697  13.235  -4.789  1.00 20.00     0.005 C 
ENDBRANCH   7   8
ENDBRANCH   6   7
ENDBRANCH   5   6
ENDBRANCH   2   4
BRANCH   3  10
HETATM   10  C3  UNL     1     -33.621  17.542  -3.563  1.00 20.00     0.128 C 
HETATM   11  C7  UNL     1     -33.430  17.222  -5.021  1.00 20.00     0.091 C 
HETATM   12  O12 UNL     1     -33.602  18.700  -3.148  1.00 20.00    -0.298 OA
ENDBRANCH   3  10
TORSDOF 5
ENDMDL
MODEL 9
REMARK VINA RESULT:      -4.0      1.461      2.753
REMARK  5 active torsions:
REMARK  status: ('A' for Active; 'I' for Inactive)
REMARK    1  A    between atoms: C1_1  and  C5_5 
REMARK    2  A    between atoms: C2_2  and  C9_9 
REMARK    3  A    between atoms: C3_3  and  C6_6 
REMARK    4  A    between atoms: C9_9  and  C11_11 
REMARK    5  A    between atoms: C10_10  and  C11_11 
ROOT
HETATM    1  C4  UNL     1     -33.462  16.076  -4.502  1.00 20.00     0.022 A 
HETATM    2  C5  UNL     1     -33.439  15.461  -3.150  1.00 20.00     0.020 A 
HETATM    3  C6  UNL     1     -33.497  14.581  -4.351  1.00 20.00     0.063 A 
ENDROOT
BRANCH   2   4
HETATM    4  C1  UNL     1     -34.653  15.621  -2.295  1.00 20.00    -0.025 C 
HETATM    5  C2  UNL     1     -34.762  16.531  -1.316  1.00 20.00    -0.030 C 
BRANCH   5   6
HETATM    6  C9  UNL     1     -33.677  17.505  -0.957  1.00 20.00     0.027 C 
BRANCH   6   7
HETATM    7  C11 UNL     1     -33.922  18.908  -1.521  1.00 20.00     0.003 C 
BRANCH   7   8
HETATM    8  C10 UNL     1     -35.311  19.071  -2.143  1.00 20.00    -0.004 C 
HETATM    9  C8  UNL     1     -35.225  19.262  -3.649  1.00 20.00     0.005 C 
ENDBRANCH   7   8
ENDBRANCH   6   7
ENDBRANCH   5   6
ENDBRANCH   2   4
BRANCH   3  10
HETATM   10  C3  UNL     1     -34.709  13.846  -4.737  1.00 20.00     0.128 C 
HETATM   11  C7  UNL     1     -35.590  14.491  -5.772  1.00 20.00     0.091 C 
HETATM   12  O12 UNL     1     -34.987  12.755  -4.241  1.00 20.00    -0.298 OA
ENDBRANCH   3  10
TORSDOF 5
ENDMDL
