MODEL 1
REMARK VINA RESULT:      -4.5      0.000      0.000
REMARK  2 active torsions:
REMARK  status: ('A' for Active; 'I' for Inactive)
REMARK    1  A    between atoms: C3_3  and  C8_8 
REMARK    2  A    between atoms: C9_9  and  N11_11 
ROOT
HETATM    1  C1  UNL     1     -34.781  13.772  -5.118  1.00 20.00     0.089 C 
HETATM    2  C9  UNL     1     -34.807  15.192  -5.465  1.00 20.00     0.395 C 
HETATM    3  N10 UNL     1     -34.761  12.644  -4.846  1.00 20.00    -0.195 NA
ENDROOT
BRANCH   2   4
HETATM    4  N11 UNL     1     -34.731  16.022  -4.264  1.00 20.00     0.101 N 
HETATM    5  C6  UNL     1     -35.921  15.824  -3.424  1.00 20.00     0.274 C 
HETATM    6  C4  UNL     1     -35.882  16.727  -2.191  1.00 20.00     0.039 C 
HETATM    7  C8  UNL     1     -34.605  16.504  -1.382  1.00 20.00     0.011 C 
HETATM    8  C5  UNL     1     -33.377  16.628  -2.282  1.00 20.00     0.039 C 
HETATM    9  C7  UNL     1     -33.500  15.730  -3.514  1.00 20.00     0.274 C 
BRANCH   7  10
HETATM   10  C3  UNL     1     -34.515  17.504  -0.271  1.00 20.00    -0.032 C 
HETATM   11  C2  UNL     1     -35.204  17.416   0.872  1.00 20.00     0.007 C 
ENDBRANCH   7  10
ENDBRANCH   2   4
TORSDOF 2
ENDMDL
MODEL 2
REMARK VINA RESULT:      -4.3      0.895      1.013
REMARK  2 active torsions:
REMARK  status: ('A' for Active; 'I' for Inactive)
REMARK    1  A    between atoms: C3_3  and  C8_8 
REMARK    2  A    between atoms: C9_9  and  N11_11 
ROOT
HETATM    1  C1  UNL     1     -34.750  13.851  -5.087  1.00 20.00     0.089 C 
HETATM    2  C9  UNL     1     -34.754  15.279  -5.398  1.00 20.00     0.395 C 
HETATM    3  N10 UNL     1     -34.747  12.716  -4.844  1.00 20.00    -0.195 NA
ENDROOT
BRANCH   2   4
HETATM    4  N11 UNL     1     -34.775  16.079  -4.174  1.00 20.00     0.101 N 
HETATM    5  C6  UNL     1     -34.675  15.212  -2.992  1.00 20.00     0.274 C 
HETATM    6  C4  UNL     1     -34.751  16.028  -1.701  1.00 20.00     0.039 C 
HETATM    7  C8  UNL     1     -33.676  17.114  -1.669  1.00 20.00     0.011 C 
HETATM    8  C5  UNL     1     -33.735  17.957  -2.943  1.00 20.00     0.039 C 
HETATM    9  C7  UNL     1     -33.694  17.075  -4.192  1.00 20.00     0.274 C 
BRANCH   7  10
HETATM   10  C3  UNL     1     -33.868  17.997  -0.475  1.00 20.00    -0.032 C 
HETATM   11  C2  UNL     1     -34.705  17.722   0.531  1.00 20.00     0.007 C 
ENDBRANCH   7  10
ENDBRANCH   2   4
TORSDOF 2
ENDMDL
MODEL 3
REMARK VINA RESULT:      -4.3      1.873      2.260
REMARK  2 active torsions:
REMARK  status: ('A' for Active; 'I' for Inactive)
REMARK    1  A    between atoms: C3_3  and  C8_8 
REMARK    2  A    between atoms: C9_9  and  N11_11 
ROOT
HETATM    1  C1  UNL     1     -36.744  15.005  -4.003  1.00 20.00     0.089 C 
HETATM    2  C9  UNL     1     -35.627  15.877  -4.362  1.00 20.00     0.395 C 
HETATM    3  N10 UNL     1     -37.631  14.311  -3.721  1.00 20.00    -0.195 NA
ENDROOT
BRANCH   2   4
HETATM    4  N11 UNL     1     -35.230  16.708  -3.227  1.00 20.00     0.101 N 
HETATM    5  C6  UNL     1     -34.900  15.870  -2.066  1.00 20.00     0.274 C 
HETATM    6  C4  UNL     1     -34.535  16.727  -0.853  1.00 20.00     0.039 C 
HETATM    7  C8  UNL     1     -33.388  17.683  -1.175  1.00 20.00     0.011 C 
HETATM    8  C5  UNL     1     -33.706  18.489  -2.434  1.00 20.00     0.039 C 
HETATM    9  C7  UNL     1     -34.100  17.573  -3.594  1.00 20.00     0.274 C 
BRANCH   7  10
HETATM   10  C3  UNL     1     -33.154  18.616  -0.028  1.00 20.00    -0.032 C 
HETATM   11  C2  UNL     1     -31.942  18.951   0.429  1.00 20.00     0.007 C 
ENDBRANCH   7  10
ENDBRANCH   2   4
TORSDOF 2
ENDMDL
MODEL 4
REMARK VINA RESULT:      -4.3      1.484      1.579
REMARK  2 active torsions:
REMARK  status: ('A' for Active; 'I' for Inactive)
REMARK    1  A    between atoms: C3_3  and  C8_8 
REMARK    2  A    between atoms: C9_9  and  N11_11 
ROOT
HETATM    1  C1  UNL     1     -35.343  14.349  -6.906  1.00 20.00     0.089 C 
HETATM    2  C9  UNL     1     -34.836  13.839  -5.633  1.00 20.00     0.395 C 
HETATM    3  N10 UNL     1     -35.745  14.751  -7.918  1.00 20.00    -0.195 NA
ENDROOT
BRANCH   2   4
HETATM    4  N11 UNL     1     -34.760  14.908  -4.638  1.00 20.00     0.101 N 
HETATM    5  C6  UNL     1     -35.891  14.823  -3.704  1.00 20.00     0.274 C 
HETATM    6  C4  UNL     1     -35.855  15.967  -2.689  1.00 20.00     0.039 C 
HETATM    7  C8  UNL     1     -34.529  15.994  -1.932  1.00 20.00     0.011 C 
HETATM    8  C5  UNL     1     -33.357  15.996  -2.913  1.00 20.00     0.039 C 
HETATM    9  C7  UNL     1     -33.477  14.851  -3.921  1.00 20.00     0.274 C 
BRANCH   7  10
HETATM   10  C3  UNL     1     -34.455  17.210  -1.061  1.00 20.00    -0.032 C 
HETATM   11  C2  UNL     1     -34.880  17.249   0.206  1.00 20.00     0.007 C 
ENDBRANCH   7  10
ENDBRANCH   2   4
TORSDOF 2
ENDMDL
MODEL 5
REMARK VINA RESULT:      -4.3      1.630      1.954
REMARK  2 active torsions:
REMARK  status: ('A' for Active; 'I' for Inactive)
REMARK    1  A    between atoms: C3_3  and  C8_8 
REMARK    2  A    between atoms: C9_9  and  N11_11 
ROOT
HETATM    1  C1  UNL     1     -34.910  15.018  -7.259  1.00 20.00     0.089 C 
HETATM    2  C9  UNL     1     -33.968  15.906  -6.580  1.00 20.00     0.395 C 
HETATM    3  N10 UNL     1     -35.655  14.313  -7.802  1.00 20.00    -0.195 NA
ENDROOT
BRANCH   2   4
HETATM    4  N11 UNL     1     -34.376  16.135  -5.195  1.00 20.00     0.101 N 
HETATM    5  C6  UNL     1     -34.184  14.918  -4.394  1.00 20.00     0.274 C 
HETATM    6  C4  UNL     1     -34.657  15.125  -2.954  1.00 20.00     0.039 C 
HETATM    7  C8  UNL     1     -33.954  16.316  -2.306  1.00 20.00     0.011 C 
HETATM    8  C5  UNL     1     -34.088  17.557  -3.189  1.00 20.00     0.039 C 
HETATM    9  C7  UNL     1     -33.635  17.268  -4.621  1.00 20.00     0.274 C 
BRANCH   7  10
HETATM   10  C3  UNL     1     -34.544  16.595  -0.958  1.00 20.00    -0.032 C 
HETATM   11  C2  UNL     1     -34.181  17.620  -0.181  1.00 20.00     0.007 C 
ENDBRANCH   7  10
ENDBRANCH   2   4
TORSDOF 2
ENDMDL
MODEL 6
REMARK VINA RESULT:      -4.3      1.806      2.083
REMARK  2 active torsions:
REMARK  status: ('A' for Active; 'I' for Inactive)
REMARK    1  A    between atoms: C3_3  and  C8_8 
REMARK    2  A    between atoms: C9_9  and  N11_11 
ROOT
HETATM    1  C1  UNL     1     -35.966  14.727  -7.197  1.00 20.00     0.089 C 
HETATM    2  C9  UNL     1     -34.757  14.480  -6.414  1.00 20.00     0.395 C 
HETATM    3  N10 UNL     1     -36.925  14.921  -7.823  1.00 20.00    -0.195 NA
ENDROOT
BRANCH   2   4
HETATM    4  N11 UNL     1     -34.759  15.279  -5.189  1.00 20.00     0.101 N 
HETATM    5  C6  UNL     1     -34.809  14.408  -4.006  1.00 20.00     0.274 C 
HETATM    6  C4  UNL     1     -34.867  15.230  -2.718  1.00 20.00     0.039 C 
HETATM    7  C8  UNL     1     -33.690  16.200  -2.627  1.00 20.00     0.011 C 
HETATM    8  C5  UNL     1     -33.596  17.042  -3.899  1.00 20.00     0.039 C 
HETATM    9  C7  UNL     1     -33.583  16.159  -5.148  1.00 20.00     0.274 C 
BRANCH   7  10
HETATM   10  C3  UNL     1     -33.851  17.099  -1.441  1.00 20.00    -0.032 C 
HETATM   11  C2  UNL     1     -34.734  16.890  -0.459  1.00 20.00     0.007 C 
ENDBRANCH   7  10
ENDBRANCH   2   4
TORSDOF 2
ENDMDL
MODEL 7
REMARK VINA RESULT:      -4.2      2.448      5.059
REMARK  2 active torsions:
REMARK  status: ('A' for Active; 'I' for Inactive)
REMARK    1  A    between atoms: C3_3  and  C8_8 
REMARK    2  A    between atoms: C9_9  and  N11_11 
ROOT
HETATM    1  C1  UNL     1     -32.531  18.854  -0.222  1.00 20.00     0.089 C 
HETATM    2  C9  UNL     1     -33.844  18.379  -0.654  1.00 20.00     0.395 C 
HETATM    3  N10 UNL     1     -31.490  19.234   0.123  1.00 20.00    -0.195 NA
ENDROOT
BRANCH   2   4
HETATM    4  N11 UNL     1     -33.712  17.367  -1.701  1.00 20.00     0.101 N 
HETATM    5  C6  UNL     1     -34.749  16.336  -1.555  1.00 20.00     0.274 C 
HETATM    6  C4  UNL     1     -34.591  15.241  -2.611  1.00 20.00     0.039 C 
HETATM    7  C8  UNL     1     -34.605  15.827  -4.022  1.00 20.00     0.011 C 
HETATM    8  C5  UNL     1     -33.581  16.956  -4.138  1.00 20.00     0.039 C 
HETATM    9  C7  UNL     1     -33.772  17.993  -3.030  1.00 20.00     0.274 C 
BRANCH   7  10
HETATM   10  C3  UNL     1     -34.293  14.762  -5.027  1.00 20.00    -0.032 C 
HETATM   11  C2  UNL     1     -34.379  13.451  -4.779  1.00 20.00     0.007 C 
ENDBRANCH   7  10
ENDBRANCH   2   4
TORSDOF 2
ENDMDL
MODEL 8
REMARK VINA RESULT:      -4.1      1.073      1.795
REMARK  2 active torsions:
REMARK  status: ('A' for Active; 'I' for Inactive)
REMARK    1  A    between atoms: C3_3  and  C8_8 
REMARK    2  A    between atoms: C9_9  and  N11_11 
ROOT
HETATM    1  C1  UNL     1     -35.119  13.866  -4.539  1.00 20.00     0.089 C 
HETATM    2  C9  UNL     1     -35.377  15.303  -4.612  1.00 20.00     0.395 C 
HETATM    3  N10 UNL     1     -34.914  12.725  -4.485  1.00 20.00    -0.195 NA
ENDROOT
BRANCH   2   4
HETATM    4  N11 UNL     1     -35.645  15.852  -3.283  1.00 20.00     0.101 N 
HETATM    5  C6  UNL     1     -34.418  15.862  -2.474  1.00 20.00     0.274 C 
HETATM    6  C4  UNL     1     -34.694  16.382  -1.062  1.00 20.00     0.039 C 
HETATM    7  C8  UNL     1     -35.332  17.770  -1.098  1.00 20.00     0.011 C 
HETATM    8  C5  UNL     1     -36.558  17.768  -2.010  1.00 20.00     0.039 C 
HETATM    9  C7  UNL     1     -36.220  17.200  -3.390  1.00 20.00     0.274 C 
BRANCH   7  10
HETATM   10  C3  UNL     1     -35.734  18.190   0.282  1.00 20.00    -0.032 C 
HETATM   11  C2  UNL     1     -35.131  17.767   1.398  1.00 20.00     0.007 C 
ENDBRANCH   7  10
ENDBRANCH   2   4
TORSDOF 2
ENDMDL
MODEL 9
REMARK VINA RESULT:      -4.0      1.939      2.677
REMARK  2 active torsions:
REMARK  status: ('A' for Active; 'I' for Inactive)
REMARK    1  A    between atoms: C3_3  and  C8_8 
REMARK    2  A    between atoms: C9_9  and  N11_11 
ROOT
HETATM    1  C1  UNL     1     -36.295  14.855  -7.397  1.00 20.00     0.089 C 
HETATM    2  C9  UNL     1     -34.872  14.548  -7.259  1.00 20.00     0.395 C 
HETATM    3  N10 UNL     1     -37.424  15.098  -7.510  1.00 20.00    -0.195 NA
ENDROOT
BRANCH   2   4
HETATM    4  N11 UNL     1     -34.380  14.945  -5.940  1.00 20.00     0.101 N 
HETATM    5  C6  UNL     1     -34.489  16.400  -5.766  1.00 20.00     0.274 C 
HETATM    6  C4  UNL     1     -33.928  16.838  -4.413  1.00 20.00     0.039 C 
HETATM    7  C8  UNL     1     -34.616  16.101  -3.264  1.00 20.00     0.011 C 
HETATM    8  C5  UNL     1     -34.570  14.592  -3.498  1.00 20.00     0.039 C 
HETATM    9  C7  UNL     1     -35.109  14.229  -4.883  1.00 20.00     0.274 C 
BRANCH   7  10
HETATM   10  C3  UNL     1     -33.945  16.428  -1.966  1.00 20.00    -0.032 C 
HETATM   11  C2  UNL     1     -34.601  16.673  -0.826  1.00 20.00     0.007 C 
ENDBRANCH   7  10
ENDBRANCH   2   4
TORSDOF 2
ENDMDL
