MODEL 1
REMARK VINA RESULT:      -5.0      0.000      0.000
REMARK  1 active torsions:
REMARK  status: ('A' for Active; 'I' for Inactive)
REMARK    1  A    between atoms: C1_1  and  C5_5 
ROOT
HETATM    1  C2  UNL     1     -32.081   6.118   3.585  1.00 20.00     0.011 A 
HETATM    2  C3  UNL     1     -32.749   7.280   2.843  1.00 20.00     0.011 A 
HETATM    3  C4  UNL     1     -34.363   5.136   2.505  1.00 20.00     0.023 A 
HETATM    4  C5  UNL     1     -34.765   5.773   3.847  1.00 20.00     0.064 A 
HETATM    5  C6  UNL     1     -33.488   6.072   3.201  1.00 20.00    -0.029 A 
ENDROOT
BRANCH   4   6
HETATM    6  C1  UNL     1     -34.807   4.924   5.041  1.00 20.00     0.128 C 
HETATM    7  C7  UNL     1     -34.453   5.579   6.350  1.00 20.00     0.091 C 
HETATM    8  O8  UNL     1     -35.120   3.736   4.978  1.00 20.00    -0.298 OA
ENDBRANCH   4   6
TORSDOF 1
ENDMDL
MODEL 2
REMARK VINA RESULT:      -4.9      1.648      3.433
REMARK  1 active torsions:
REMARK  status: ('A' for Active; 'I' for Inactive)
REMARK    1  A    between atoms: C1_1  and  C5_5 
ROOT
HETATM    1  C2  UNL     1     -34.780   5.240   6.281  1.00 20.00     0.011 A 
HETATM    2  C3  UNL     1     -35.013   3.877   5.623  1.00 20.00     0.011 A 
HETATM    3  C4  UNL     1     -35.416   5.730   3.694  1.00 20.00     0.023 A 
HETATM    4  C5  UNL     1     -33.903   5.450   3.717  1.00 20.00     0.064 A 
HETATM    5  C6  UNL     1     -34.773   5.081   4.831  1.00 20.00    -0.029 A 
ENDROOT
BRANCH   4   6
HETATM    6  C1  UNL     1     -32.981   6.584   3.844  1.00 20.00     0.128 C 
HETATM    7  C7  UNL     1     -32.331   7.073   2.578  1.00 20.00     0.091 C 
HETATM    8  O8  UNL     1     -32.753   7.111   4.932  1.00 20.00    -0.298 OA
ENDBRANCH   4   6
TORSDOF 1
ENDMDL
MODEL 3
REMARK VINA RESULT:      -4.9      1.395      1.453
REMARK  1 active torsions:
REMARK  status: ('A' for Active; 'I' for Inactive)
REMARK    1  A    between atoms: C1_1  and  C5_5 
ROOT
HETATM    1  C2  UNL     1     -31.743   6.861   3.594  1.00 20.00     0.011 A 
HETATM    2  C3  UNL     1     -32.550   7.640   2.551  1.00 20.00     0.011 A 
HETATM    3  C4  UNL     1     -33.884   5.325   2.970  1.00 20.00     0.023 A 
HETATM    4  C5  UNL     1     -34.362   6.303   4.057  1.00 20.00     0.064 A 
HETATM    5  C6  UNL     1     -33.133   6.530   3.300  1.00 20.00    -0.029 A 
ENDROOT
BRANCH   4   6
HETATM    6  C1  UNL     1     -34.299   5.879   5.459  1.00 20.00     0.128 C 
HETATM    7  C7  UNL     1     -34.900   4.539   5.789  1.00 20.00     0.091 C 
HETATM    8  O8  UNL     1     -33.777   6.582   6.323  1.00 20.00    -0.298 OA
ENDBRANCH   4   6
TORSDOF 1
ENDMDL
MODEL 4
REMARK VINA RESULT:      -4.5      1.474      3.474
REMARK  1 active torsions:
REMARK  status: ('A' for Active; 'I' for Inactive)
REMARK    1  A    between atoms: C1_1  and  C5_5 
ROOT
HETATM    1  C2  UNL     1     -34.235   3.914   5.850  1.00 20.00     0.011 A 
HETATM    2  C3  UNL     1     -35.441   4.646   6.448  1.00 20.00     0.011 A 
HETATM    3  C4  UNL     1     -33.544   6.527   6.021  1.00 20.00     0.023 A 
HETATM    4  C5  UNL     1     -34.308   6.373   4.694  1.00 20.00     0.064 A 
HETATM    5  C6  UNL     1     -34.378   5.363   5.747  1.00 20.00    -0.029 A 
ENDROOT
BRANCH   4   6
HETATM    6  C1  UNL     1     -33.543   6.113   3.470  1.00 20.00     0.128 C 
HETATM    7  C7  UNL     1     -32.272   6.898   3.286  1.00 20.00     0.091 C 
HETATM    8  O8  UNL     1     -33.920   5.291   2.636  1.00 20.00    -0.298 OA
ENDBRANCH   4   6
TORSDOF 1
ENDMDL
MODEL 5
REMARK VINA RESULT:      -4.1     11.759     12.252
REMARK  1 active torsions:
REMARK  status: ('A' for Active; 'I' for Inactive)
REMARK    1  A    between atoms: C1_1  and  C5_5 
ROOT
HETATM    1  C2  UNL     1     -34.514  16.079  -1.856  1.00 20.00     0.011 A 
HETATM    2  C3  UNL     1     -33.824  17.107  -2.759  1.00 20.00     0.011 A 
HETATM    3  C4  UNL     1     -32.936  14.679  -3.555  1.00 20.00     0.023 A 
HETATM    4  C5  UNL     1     -34.259  14.923  -4.303  1.00 20.00     0.064 A 
HETATM    5  C6  UNL     1     -33.889  15.692  -3.117  1.00 20.00    -0.029 A 
ENDROOT
BRANCH   4   6
HETATM    6  C1  UNL     1     -35.308  13.902  -4.225  1.00 20.00     0.128 C 
HETATM    7  C7  UNL     1     -36.718  14.394  -4.035  1.00 20.00     0.091 C 
HETATM    8  O8  UNL     1     -35.049  12.703  -4.313  1.00 20.00    -0.298 OA
ENDBRANCH   4   6
TORSDOF 1
ENDMDL
MODEL 6
REMARK VINA RESULT:      -4.0      1.792      3.030
REMARK  1 active torsions:
REMARK  status: ('A' for Active; 'I' for Inactive)
REMARK    1  A    between atoms: C1_1  and  C5_5 
ROOT
HETATM    1  C2  UNL     1     -32.904   8.987   2.008  1.00 20.00     0.011 A 
HETATM    2  C3  UNL     1     -31.758   8.434   1.154  1.00 20.00     0.011 A 
HETATM    3  C4  UNL     1     -31.292   7.598   3.684  1.00 20.00     0.023 A 
HETATM    4  C5  UNL     1     -32.246   6.567   3.056  1.00 20.00     0.064 A 
HETATM    5  C6  UNL     1     -32.057   7.896   2.479  1.00 20.00    -0.029 A 
ENDROOT
BRANCH   4   6
HETATM    6  C1  UNL     1     -33.488   6.238   3.763  1.00 20.00     0.128 C 
HETATM    7  C7  UNL     1     -34.538   5.499   2.978  1.00 20.00     0.091 C 
HETATM    8  O8  UNL     1     -33.661   6.548   4.941  1.00 20.00    -0.298 OA
ENDBRANCH   4   6
TORSDOF 1
ENDMDL
MODEL 7
REMARK VINA RESULT:      -3.9     11.831     12.375
REMARK  1 active torsions:
REMARK  status: ('A' for Active; 'I' for Inactive)
REMARK    1  A    between atoms: C1_1  and  C5_5 
ROOT
HETATM    1  C2  UNL     1     -33.597  17.078  -1.675  1.00 20.00     0.011 A 
HETATM    2  C3  UNL     1     -34.682  16.662  -0.677  1.00 20.00     0.011 A 
HETATM    3  C4  UNL     1     -35.690  16.179  -3.140  1.00 20.00     0.023 A 
HETATM    4  C5  UNL     1     -34.871  14.934  -2.755  1.00 20.00     0.064 A 
HETATM    5  C6  UNL     1     -34.704  16.212  -2.066  1.00 20.00    -0.029 A 
ENDROOT
BRANCH   4   6
HETATM    6  C1  UNL     1     -33.842  14.456  -3.685  1.00 20.00     0.128 C 
HETATM    7  C7  UNL     1     -34.268  13.420  -4.691  1.00 20.00     0.091 C 
HETATM    8  O8  UNL     1     -32.689  14.882  -3.646  1.00 20.00    -0.298 OA
ENDBRANCH   4   6
TORSDOF 1
ENDMDL
MODEL 8
REMARK VINA RESULT:      -3.8     12.002     13.369
REMARK  1 active torsions:
REMARK  status: ('A' for Active; 'I' for Inactive)
REMARK    1  A    between atoms: C1_1  and  C5_5 
ROOT
HETATM    1  C2  UNL     1     -33.301  16.620  -5.369  1.00 20.00     0.011 A 
HETATM    2  C3  UNL     1     -34.506  17.324  -6.003  1.00 20.00     0.011 A 
HETATM    3  C4  UNL     1     -34.468  14.817  -7.019  1.00 20.00     0.023 A 
HETATM    4  C5  UNL     1     -35.231  14.733  -5.686  1.00 20.00     0.064 A 
HETATM    5  C6  UNL     1     -34.373  15.869  -6.014  1.00 20.00    -0.029 A 
ENDROOT
BRANCH   4   6
HETATM    6  C1  UNL     1     -34.800  13.744  -4.692  1.00 20.00     0.128 C 
HETATM    7  C7  UNL     1     -34.421  14.270  -3.334  1.00 20.00     0.091 C 
HETATM    8  O8  UNL     1     -34.753  12.543  -4.955  1.00 20.00    -0.298 OA
ENDBRANCH   4   6
TORSDOF 1
ENDMDL
MODEL 9
REMARK VINA RESULT:      -3.8     11.622     12.395
REMARK  1 active torsions:
REMARK  status: ('A' for Active; 'I' for Inactive)
REMARK    1  A    between atoms: C1_1  and  C5_5 
ROOT
HETATM    1  C2  UNL     1     -34.801  13.867  -3.853  1.00 20.00     0.011 A 
HETATM    2  C3  UNL     1     -33.296  13.597  -3.758  1.00 20.00     0.011 A 
HETATM    3  C4  UNL     1     -33.569  16.264  -4.116  1.00 20.00     0.023 A 
HETATM    4  C5  UNL     1     -33.700  16.014  -2.603  1.00 20.00     0.064 A 
HETATM    5  C6  UNL     1     -33.849  14.937  -3.579  1.00 20.00    -0.029 A 
ENDROOT
BRANCH   4   6
HETATM    6  C1  UNL     1     -34.874  16.544  -1.903  1.00 20.00     0.128 C 
HETATM    7  C7  UNL     1     -34.698  16.887  -0.448  1.00 20.00     0.091 C 
HETATM    8  O8  UNL     1     -35.950  16.705  -2.479  1.00 20.00    -0.298 OA
ENDBRANCH   4   6
TORSDOF 1
ENDMDL
