MODEL 1
REMARK VINA RESULT:      -3.9      0.000      0.000
REMARK  1 active torsions:
REMARK  status: ('A' for Active; 'I' for Inactive)
REMARK    1  A    between atoms: C3_3  and  C7_7 
ROOT
HETATM    1  C1  UNL     1     -34.545  16.939  -5.442  1.00 20.00     0.346 C 
HETATM    2  C2  UNL     1     -33.535  15.168  -4.244  1.00 20.00     0.233 C 
HETATM    3  C3  UNL     1     -33.621  16.185  -3.083  1.00 20.00     0.081 C 
HETATM    4  C4  UNL     1     -33.586  13.720  -3.751  1.00 20.00     0.044 C 
HETATM    5  C6  UNL     1     -34.620  14.734  -6.410  1.00 20.00     0.311 C 
HETATM    6  N8  UNL     1     -34.638  15.501  -5.169  1.00 20.00     0.098 N 
HETATM    7  S9  UNL     1     -33.958  17.758  -3.934  1.00 20.00    -0.132 SA
ENDROOT
BRANCH   3   8
HETATM    8  C7  UNL     1     -34.732  15.932  -2.067  1.00 20.00     0.013 C 
HETATM    9  C5  UNL     1     -34.516  16.706  -0.808  1.00 20.00     0.006 C 
ENDBRANCH   3   8
TORSDOF 1
ENDMDL
MODEL 2
REMARK VINA RESULT:      -3.8      1.799      1.992
REMARK  1 active torsions:
REMARK  status: ('A' for Active; 'I' for Inactive)
REMARK    1  A    between atoms: C3_3  and  C7_7 
ROOT
HETATM    1  C1  UNL     1     -36.535  14.740  -3.980  1.00 20.00     0.346 C 
HETATM    2  C2  UNL     1     -34.271  15.419  -3.918  1.00 20.00     0.233 C 
HETATM    3  C3  UNL     1     -34.841  16.503  -2.975  1.00 20.00     0.081 C 
HETATM    4  C4  UNL     1     -32.810  15.088  -3.603  1.00 20.00     0.044 C 
HETATM    5  C6  UNL     1     -34.865  13.174  -4.733  1.00 20.00     0.311 C 
HETATM    6  N8  UNL     1     -35.165  14.249  -3.794  1.00 20.00     0.098 N 
HETATM    7  S9  UNL     1     -36.635  16.404  -3.269  1.00 20.00    -0.132 SA
ENDROOT
BRANCH   3   8
HETATM    8  C7  UNL     1     -34.578  16.286  -1.486  1.00 20.00     0.013 C 
HETATM    9  C5  UNL     1     -33.860  17.446  -0.879  1.00 20.00     0.006 C 
ENDBRANCH   3   8
TORSDOF 1
ENDMDL
MODEL 3
REMARK VINA RESULT:      -3.5      2.049      3.718
REMARK  1 active torsions:
REMARK  status: ('A' for Active; 'I' for Inactive)
REMARK    1  A    between atoms: C3_3  and  C7_7 
ROOT
HETATM    1  C1  UNL     1     -36.161  15.999  -3.140  1.00 20.00     0.346 C 
HETATM    2  C2  UNL     1     -34.522  14.309  -3.357  1.00 20.00     0.233 C 
HETATM    3  C3  UNL     1     -35.480  13.816  -4.466  1.00 20.00     0.081 C 
HETATM    4  C4  UNL     1     -33.068  13.919  -3.633  1.00 20.00     0.044 C 
HETATM    5  C6  UNL     1     -33.998  16.390  -2.152  1.00 20.00     0.311 C 
HETATM    6  N8  UNL     1     -34.718  15.770  -3.260  1.00 20.00     0.098 N 
HETATM    7  S9  UNL     1     -37.012  14.740  -4.130  1.00 20.00    -0.132 SA
ENDROOT
BRANCH   3   8
HETATM    8  C7  UNL     1     -35.037  14.109  -5.897  1.00 20.00     0.013 C 
HETATM    9  C5  UNL     1     -36.092  14.837  -6.664  1.00 20.00     0.006 C 
ENDBRANCH   3   8
TORSDOF 1
ENDMDL
MODEL 4
REMARK VINA RESULT:      -3.5      1.805      3.267
REMARK  1 active torsions:
REMARK  status: ('A' for Active; 'I' for Inactive)
REMARK    1  A    between atoms: C3_3  and  C7_7 
ROOT
HETATM    1  C1  UNL     1     -35.028  17.106  -5.143  1.00 20.00     0.346 C 
HETATM    2  C2  UNL     1     -35.213  16.464  -2.874  1.00 20.00     0.233 C 
HETATM    3  C3  UNL     1     -35.596  15.107  -3.509  1.00 20.00     0.081 C 
HETATM    4  C4  UNL     1     -34.560  16.297  -1.500  1.00 20.00     0.044 C 
HETATM    5  C6  UNL     1     -33.995  18.514  -3.482  1.00 20.00     0.311 C 
HETATM    6  N8  UNL     1     -34.336  17.144  -3.850  1.00 20.00     0.098 N 
HETATM    7  S9  UNL     1     -35.943  15.544  -5.242  1.00 20.00    -0.132 SA
ENDROOT
BRANCH   3   8
HETATM    8  C7  UNL     1     -34.507  14.037  -3.484  1.00 20.00     0.013 C 
HETATM    9  C5  UNL     1     -34.454  13.274  -4.767  1.00 20.00     0.006 C 
ENDBRANCH   3   8
TORSDOF 1
ENDMDL
MODEL 5
REMARK VINA RESULT:      -3.5      1.169      1.277
REMARK  1 active torsions:
REMARK  status: ('A' for Active; 'I' for Inactive)
REMARK    1  A    between atoms: C3_3  and  C7_7 
ROOT
HETATM    1  C1  UNL     1     -35.189  16.928  -5.681  1.00 20.00     0.346 C 
HETATM    2  C2  UNL     1     -34.441  14.735  -5.205  1.00 20.00     0.233 C 
HETATM    3  C3  UNL     1     -33.630  15.476  -4.116  1.00 20.00     0.081 C 
HETATM    4  C4  UNL     1     -34.768  13.295  -4.804  1.00 20.00     0.044 C 
HETATM    5  C6  UNL     1     -36.462  15.082  -6.565  1.00 20.00     0.311 C 
HETATM    6  N8  UNL     1     -35.647  15.553  -5.450  1.00 20.00     0.098 N 
HETATM    7  S9  UNL     1     -33.739  17.218  -4.632  1.00 20.00    -0.132 SA
ENDROOT
BRANCH   3   8
HETATM    8  C7  UNL     1     -34.171  15.353  -2.694  1.00 20.00     0.013 C 
HETATM    9  C5  UNL     1     -34.013  16.627  -1.931  1.00 20.00     0.006 C 
ENDBRANCH   3   8
TORSDOF 1
ENDMDL
MODEL 6
REMARK VINA RESULT:      -3.4      2.097      2.546
REMARK  1 active torsions:
REMARK  status: ('A' for Active; 'I' for Inactive)
REMARK    1  A    between atoms: C3_3  and  C7_7 
ROOT
HETATM    1  C1  UNL     1     -34.636  14.322  -5.549  1.00 20.00     0.346 C 
HETATM    2  C2  UNL     1     -36.275  14.976  -3.975  1.00 20.00     0.233 C 
HETATM    3  C3  UNL     1     -35.077  14.881  -3.003  1.00 20.00     0.081 C 
HETATM    4  C4  UNL     1     -37.317  15.998  -3.513  1.00 20.00     0.044 C 
HETATM    5  C6  UNL     1     -36.688  15.271  -6.383  1.00 20.00     0.311 C 
HETATM    6  N8  UNL     1     -35.708  15.292  -5.302  1.00 20.00     0.098 N 
HETATM    7  S9  UNL     1     -33.838  13.954  -3.963  1.00 20.00    -0.132 SA
ENDROOT
BRANCH   3   8
HETATM    8  C7  UNL     1     -34.467  16.215  -2.578  1.00 20.00     0.013 C 
HETATM    9  C5  UNL     1     -34.635  16.456  -1.113  1.00 20.00     0.006 C 
ENDBRANCH   3   8
TORSDOF 1
ENDMDL
MODEL 7
REMARK VINA RESULT:      -3.2      1.652      3.599
REMARK  1 active torsions:
REMARK  status: ('A' for Active; 'I' for Inactive)
REMARK    1  A    between atoms: C3_3  and  C7_7 
ROOT
HETATM    1  C1  UNL     1     -35.686  16.888  -3.950  1.00 20.00     0.346 C 
HETATM    2  C2  UNL     1     -34.849  14.676  -3.967  1.00 20.00     0.233 C 
HETATM    3  C3  UNL     1     -35.461  14.681  -5.387  1.00 20.00     0.081 C 
HETATM    4  C4  UNL     1     -33.657  13.724  -3.854  1.00 20.00     0.044 C 
HETATM    5  C6  UNL     1     -34.040  16.290  -2.295  1.00 20.00     0.311 C 
HETATM    6  N8  UNL     1     -34.496  16.079  -3.664  1.00 20.00     0.098 N 
HETATM    7  S9  UNL     1     -36.539  16.148  -5.368  1.00 20.00    -0.132 SA
ENDROOT
BRANCH   3   8
HETATM    8  C7  UNL     1     -34.464  14.822  -6.534  1.00 20.00     0.013 C 
HETATM    9  C5  UNL     1     -34.851  15.920  -7.470  1.00 20.00     0.006 C 
ENDBRANCH   3   8
TORSDOF 1
ENDMDL
MODEL 8
REMARK VINA RESULT:      -3.2      1.885      2.726
REMARK  1 active torsions:
REMARK  status: ('A' for Active; 'I' for Inactive)
REMARK    1  A    between atoms: C3_3  and  C7_7 
ROOT
HETATM    1  C1  UNL     1     -33.678  17.103  -5.422  1.00 20.00     0.346 C 
HETATM    2  C2  UNL     1     -34.367  15.162  -6.584  1.00 20.00     0.233 C 
HETATM    3  C3  UNL     1     -34.309  14.549  -5.166  1.00 20.00     0.081 C 
HETATM    4  C4  UNL     1     -35.394  14.462  -7.477  1.00 20.00     0.044 C 
HETATM    5  C6  UNL     1     -34.587  17.376  -7.637  1.00 20.00     0.311 C 
HETATM    6  N8  UNL     1     -34.647  16.601  -6.402  1.00 20.00     0.098 N 
HETATM    7  S9  UNL     1     -33.364  15.783  -4.219  1.00 20.00    -0.132 SA
ENDROOT
BRANCH   3   8
HETATM    8  C7  UNL     1     -35.659  14.340  -4.484  1.00 20.00     0.013 C 
HETATM    9  C5  UNL     1     -35.793  15.180  -3.256  1.00 20.00     0.006 C 
ENDBRANCH   3   8
TORSDOF 1
ENDMDL
MODEL 9
REMARK VINA RESULT:      -3.2     12.741     13.467
REMARK  1 active torsions:
REMARK  status: ('A' for Active; 'I' for Inactive)
REMARK    1  A    between atoms: C3_3  and  C7_7 
ROOT
HETATM    1  C1  UNL     1     -41.500   7.163  -1.378  1.00 20.00     0.346 C 
HETATM    2  C2  UNL     1     -42.127   5.119  -2.390  1.00 20.00     0.233 C 
HETATM    3  C3  UNL     1     -41.842   4.574  -0.972  1.00 20.00     0.081 C 
HETATM    4  C4  UNL     1     -43.179   4.290  -3.129  1.00 20.00     0.044 C 
HETATM    5  C6  UNL     1     -42.688   7.257  -3.473  1.00 20.00     0.311 C 
HETATM    6  N8  UNL     1     -42.525   6.532  -2.217  1.00 20.00     0.098 N 
HETATM    7  S9  UNL     1     -40.917   5.929  -0.184  1.00 20.00    -0.132 SA
ENDROOT
BRANCH   3   8
HETATM    8  C7  UNL     1     -43.075   4.267  -0.124  1.00 20.00     0.013 C 
HETATM    9  C5  UNL     1     -43.105   5.087   1.124  1.00 20.00     0.006 C 
ENDBRANCH   3   8
TORSDOF 1
ENDMDL
