MODEL 1
REMARK VINA RESULT:      -4.6      0.000      0.000
REMARK  0 active torsions:
REMARK  status: ('A' for Active; 'I' for Inactive)
ROOT
HETATM    1  C1  UNL     1     -34.225   5.236   2.767  1.00 20.00     0.011 C 
HETATM    2  C2  UNL     1     -34.918   3.947   4.924  1.00 20.00     0.011 C 
HETATM    3  C3  UNL     1     -33.204   6.082   3.013  1.00 20.00     0.007 C 
HETATM    4  C4  UNL     1     -34.683   4.401   6.172  1.00 20.00     0.007 C 
HETATM    5  C5  UNL     1     -32.831   7.360   5.462  1.00 20.00     0.042 C 
HETATM    6  C6  UNL     1     -33.498   6.737   6.729  1.00 20.00     0.042 C 
HETATM    7  C7  UNL     1     -35.122   5.098   3.977  1.00 20.00     0.270 C 
HETATM    8  C8  UNL     1     -33.196   6.292   4.475  1.00 20.00     0.247 C 
HETATM    9  C9  UNL     1     -34.704   5.909   6.210  1.00 20.00     0.247 C 
HETATM   10  N10 UNL     1     -34.663   6.250   4.783  1.00 20.00     0.116 N 
ENDROOT
TORSDOF 0
ENDMDL
MODEL 2
REMARK VINA RESULT:      -4.6     12.242     13.478
REMARK  0 active torsions:
REMARK  status: ('A' for Active; 'I' for Inactive)
ROOT
HETATM    1  C1  UNL     1     -34.721  14.886  -6.855  1.00 20.00     0.011 C 
HETATM    2  C2  UNL     1     -34.524  13.212  -4.867  1.00 20.00     0.011 C 
HETATM    3  C3  UNL     1     -34.006  16.006  -6.620  1.00 20.00     0.007 C 
HETATM    4  C4  UNL     1     -34.214  13.583  -3.608  1.00 20.00     0.007 C 
HETATM    5  C5  UNL     1     -33.609  17.063  -4.072  1.00 20.00     0.042 C 
HETATM    6  C6  UNL     1     -33.777  16.112  -2.844  1.00 20.00     0.042 C 
HETATM    7  C7  UNL     1     -35.272  14.312  -5.569  1.00 20.00     0.270 C 
HETATM    8  C8  UNL     1     -33.786  16.047  -5.161  1.00 20.00     0.247 C 
HETATM    9  C9  UNL     1     -34.720  14.973  -3.315  1.00 20.00     0.247 C 
HETATM   10  N10 UNL     1     -35.070  15.458  -4.656  1.00 20.00     0.116 N 
ENDROOT
TORSDOF 0
ENDMDL
MODEL 3
REMARK VINA RESULT:      -4.6      0.958      2.756
REMARK  0 active torsions:
REMARK  status: ('A' for Active; 'I' for Inactive)
ROOT
HETATM    1  C1  UNL     1     -34.545   5.748   6.445  1.00 20.00     0.011 C 
HETATM    2  C2  UNL     1     -35.598   5.266   4.110  1.00 20.00     0.011 C 
HETATM    3  C3  UNL     1     -33.667   6.770   6.381  1.00 20.00     0.007 C 
HETATM    4  C4  UNL     1     -35.009   5.599   2.943  1.00 20.00     0.007 C 
HETATM    5  C5  UNL     1     -32.127   7.327   4.126  1.00 20.00     0.042 C 
HETATM    6  C6  UNL     1     -32.615   6.783   2.746  1.00 20.00     0.042 C 
HETATM    7  C7  UNL     1     -34.559   4.960   5.153  1.00 20.00     0.270 C 
HETATM    8  C8  UNL     1     -33.300   6.899   4.956  1.00 20.00     0.247 C 
HETATM    9  C9  UNL     1     -33.506   5.553   3.065  1.00 20.00     0.247 C 
HETATM   10  N10 UNL     1     -33.322   5.465   4.519  1.00 20.00     0.116 N 
ENDROOT
TORSDOF 0
ENDMDL
MODEL 4
REMARK VINA RESULT:      -4.4     12.619     14.227
REMARK  0 active torsions:
REMARK  status: ('A' for Active; 'I' for Inactive)
ROOT
HETATM    1  C1  UNL     1     -34.496  13.790  -3.663  1.00 20.00     0.011 C 
HETATM    2  C2  UNL     1     -33.259  16.056  -4.021  1.00 20.00     0.011 C 
HETATM    3  C3  UNL     1     -34.734  13.175  -4.839  1.00 20.00     0.007 C 
HETATM    4  C4  UNL     1     -33.308  16.759  -5.170  1.00 20.00     0.007 C 
HETATM    5  C5  UNL     1     -35.210  14.548  -7.217  1.00 20.00     0.042 C 
HETATM    6  C6  UNL     1     -34.715  16.026  -7.328  1.00 20.00     0.042 C 
HETATM    7  C7  UNL     1     -34.540  15.295  -3.816  1.00 20.00     0.270 C 
HETATM    8  C8  UNL     1     -34.630  14.224  -5.873  1.00 20.00     0.247 C 
HETATM    9  C9  UNL     1     -34.628  16.555  -5.871  1.00 20.00     0.247 C 
HETATM   10  N10 UNL     1     -35.186  15.410  -5.142  1.00 20.00     0.116 N 
ENDROOT
TORSDOF 0
ENDMDL
MODEL 5
REMARK VINA RESULT:      -4.4     12.262     13.705
REMARK  0 active torsions:
REMARK  status: ('A' for Active; 'I' for Inactive)
ROOT
HETATM    1  C1  UNL     1     -33.537  17.177  -5.447  1.00 20.00     0.011 C 
HETATM    2  C2  UNL     1     -34.250  16.662  -2.994  1.00 20.00     0.011 C 
HETATM    3  C3  UNL     1     -34.194  16.386  -6.320  1.00 20.00     0.007 C 
HETATM    4  C4  UNL     1     -34.772  15.482  -2.600  1.00 20.00     0.007 C 
HETATM    5  C5  UNL     1     -35.001  13.786  -5.725  1.00 20.00     0.042 C 
HETATM    6  C6  UNL     1     -35.152  13.386  -4.223  1.00 20.00     0.042 C 
HETATM    7  C7  UNL     1     -33.295  16.459  -4.137  1.00 20.00     0.270 C 
HETATM    8  C8  UNL     1     -34.693  15.241  -5.533  1.00 20.00     0.247 C 
HETATM    9  C9  UNL     1     -34.226  14.348  -3.431  1.00 20.00     0.247 C 
HETATM   10  N10 UNL     1     -33.583  15.065  -4.539  1.00 20.00     0.116 N 
ENDROOT
TORSDOF 0
ENDMDL
MODEL 6
REMARK VINA RESULT:      -4.3     12.675     14.214
REMARK  0 active torsions:
REMARK  status: ('A' for Active; 'I' for Inactive)
ROOT
HETATM    1  C1  UNL     1     -33.873  17.378  -4.851  1.00 20.00     0.011 C 
HETATM    2  C2  UNL     1     -34.380  16.066  -7.045  1.00 20.00     0.011 C 
HETATM    3  C3  UNL     1     -33.388  16.558  -3.895  1.00 20.00     0.007 C 
HETATM    4  C4  UNL     1     -34.625  14.741  -7.082  1.00 20.00     0.007 C 
HETATM    5  C5  UNL     1     -34.114  13.878  -3.663  1.00 20.00     0.042 C 
HETATM    6  C6  UNL     1     -34.697  13.159  -4.921  1.00 20.00     0.042 C 
HETATM    7  C7  UNL     1     -34.855  16.652  -5.744  1.00 20.00     0.270 C 
HETATM    8  C8  UNL     1     -33.774  15.192  -4.300  1.00 20.00     0.247 C 
HETATM    9  C9  UNL     1     -35.297  14.281  -5.812  1.00 20.00     0.247 C 
HETATM   10  N10 UNL     1     -35.111  15.442  -4.933  1.00 20.00     0.116 N 
ENDROOT
TORSDOF 0
ENDMDL
MODEL 7
REMARK VINA RESULT:      -4.2     12.165     13.092
REMARK  0 active torsions:
REMARK  status: ('A' for Active; 'I' for Inactive)
ROOT
HETATM    1  C1  UNL     1     -37.353  15.930  -3.764  1.00 20.00     0.011 C 
HETATM    2  C2  UNL     1     -35.330  16.668  -2.295  1.00 20.00     0.011 C 
HETATM    3  C3  UNL     1     -37.268  14.623  -4.085  1.00 20.00     0.007 C 
HETATM    4  C4  UNL     1     -34.142  16.030  -2.287  1.00 20.00     0.007 C 
HETATM    5  C5  UNL     1     -34.849  13.287  -4.448  1.00 20.00     0.042 C 
HETATM    6  C6  UNL     1     -33.566  13.895  -3.798  1.00 20.00     0.042 C 
HETATM    7  C7  UNL     1     -35.978  16.552  -3.648  1.00 20.00     0.270 C 
HETATM    8  C8  UNL     1     -35.855  14.247  -3.885  1.00 20.00     0.247 C 
HETATM    9  C9  UNL     1     -33.852  15.412  -3.632  1.00 20.00     0.247 C 
HETATM   10  N10 UNL     1     -35.156  15.508  -4.298  1.00 20.00     0.116 N 
ENDROOT
TORSDOF 0
ENDMDL
MODEL 8
REMARK VINA RESULT:      -4.2     12.340     13.732
REMARK  0 active torsions:
REMARK  status: ('A' for Active; 'I' for Inactive)
ROOT
HETATM    1  C1  UNL     1     -33.386  13.706  -3.713  1.00 20.00     0.011 C 
HETATM    2  C2  UNL     1     -35.920  14.009  -4.245  1.00 20.00     0.011 C 
HETATM    3  C3  UNL     1     -32.744  14.893  -3.714  1.00 20.00     0.007 C 
HETATM    4  C4  UNL     1     -36.419  15.064  -4.920  1.00 20.00     0.007 C 
HETATM    5  C5  UNL     1     -33.479  17.030  -5.344  1.00 20.00     0.042 C 
HETATM    6  C6  UNL     1     -34.935  17.063  -5.908  1.00 20.00     0.042 C 
HETATM    7  C7  UNL     1     -34.523  13.701  -4.711  1.00 20.00     0.270 C 
HETATM    8  C8  UNL     1     -33.611  15.821  -4.467  1.00 20.00     0.247 C 
HETATM    9  C9  UNL     1     -35.419  15.587  -5.920  1.00 20.00     0.247 C 
HETATM   10  N10 UNL     1     -34.188  14.904  -5.504  1.00 20.00     0.116 N 
ENDROOT
TORSDOF 0
ENDMDL
MODEL 9
REMARK VINA RESULT:      -4.2     12.462     13.315
REMARK  0 active torsions:
REMARK  status: ('A' for Active; 'I' for Inactive)
ROOT
HETATM    1  C1  UNL     1     -36.046  14.219  -4.894  1.00 20.00     0.011 C 
HETATM    2  C2  UNL     1     -34.065  15.657  -5.790  1.00 20.00     0.011 C 
HETATM    3  C3  UNL     1     -36.518  14.714  -3.731  1.00 20.00     0.007 C 
HETATM    4  C4  UNL     1     -33.291  16.433  -5.005  1.00 20.00     0.007 C 
HETATM    5  C5  UNL     1     -34.919  16.024  -1.862  1.00 20.00     0.042 C 
HETATM    6  C6  UNL     1     -33.571  16.645  -2.349  1.00 20.00     0.042 C 
HETATM    7  C7  UNL     1     -34.558  14.460  -5.024  1.00 20.00     0.270 C 
HETATM    8  C8  UNL     1     -35.445  15.573  -3.192  1.00 20.00     0.247 C 
HETATM    9  C9  UNL     1     -33.171  15.847  -3.620  1.00 20.00     0.247 C 
HETATM   10  N10 UNL     1     -34.223  14.824  -3.630  1.00 20.00     0.116 N 
ENDROOT
TORSDOF 0
ENDMDL
