MODEL 1
REMARK VINA RESULT:      -5.0      0.000      0.000
REMARK  1 active torsions:
REMARK  status: ('A' for Active; 'I' for Inactive)
REMARK    1  A    between atoms: C1_1  and  C8_8 
ROOT
HETATM    1  C2  UNL     1     -34.725  16.448  -5.048  1.00 20.00     0.019 A 
HETATM    2  C3  UNL     1     -33.136  15.422  -3.989  1.00 20.00     0.019 A 
HETATM    3  C4  UNL     1     -35.130  15.499  -3.141  1.00 20.00     0.019 A 
HETATM    4  C5  UNL     1     -33.323  16.837  -4.557  1.00 20.00     0.038 A 
HETATM    5  C6  UNL     1     -35.317  16.913  -3.710  1.00 20.00     0.038 A 
HETATM    6  C7  UNL     1     -33.727  15.887  -2.650  1.00 20.00     0.038 A 
HETATM    7  C8  UNL     1     -34.537  15.036  -4.478  1.00 20.00     0.050 A 
HETATM    8  C9  UNL     1     -33.919  17.285  -3.228  1.00 20.00     0.117 A 
HETATM    9  F11 UNL     1     -33.609  18.414  -2.600  1.00 20.00    -0.242 F 
ENDROOT
BRANCH   7  10
HETATM   10  C1  UNL     1     -34.883  13.763  -5.186  1.00 20.00     0.228 C 
HETATM   11  O10 UNL     1     -34.900  12.684  -4.601  1.00 20.00    -0.279 OA
HETATM   12 CL12 UNL     1     -35.240  14.024  -6.866  1.00 20.00    -0.043 Cl
ENDBRANCH   7  10
TORSDOF 1
ENDMDL
MODEL 2
REMARK VINA RESULT:      -4.9      0.052      1.552
REMARK  1 active torsions:
REMARK  status: ('A' for Active; 'I' for Inactive)
REMARK    1  A    between atoms: C1_1  and  C8_8 
ROOT
HETATM    1  C2  UNL     1     -35.089  15.475  -3.146  1.00 20.00     0.019 A 
HETATM    2  C3  UNL     1     -34.769  16.460  -5.050  1.00 20.00     0.019 A 
HETATM    3  C4  UNL     1     -33.121  15.462  -4.056  1.00 20.00     0.019 A 
HETATM    4  C5  UNL     1     -35.330  16.892  -3.687  1.00 20.00     0.038 A 
HETATM    5  C6  UNL     1     -33.682  15.894  -2.693  1.00 20.00     0.038 A 
HETATM    6  C7  UNL     1     -33.363  16.878  -4.598  1.00 20.00     0.038 A 
HETATM    7  C8  UNL     1     -34.527  15.047  -4.507  1.00 20.00     0.050 A 
HETATM    8  C9  UNL     1     -33.928  17.293  -3.245  1.00 20.00     0.117 A 
HETATM    9  F11 UNL     1     -33.627  18.422  -2.611  1.00 20.00    -0.242 F 
ENDROOT
BRANCH   7  10
HETATM   10  C1  UNL     1     -34.868  13.777  -5.223  1.00 20.00     0.228 C 
HETATM   11  O10 UNL     1     -34.850  12.690  -4.653  1.00 20.00    -0.279 OA
HETATM   12 CL12 UNL     1     -35.271  14.053  -6.891  1.00 20.00    -0.043 Cl
ENDBRANCH   7  10
TORSDOF 1
ENDMDL
MODEL 3
REMARK VINA RESULT:      -4.9      3.186      3.850
REMARK  1 active torsions:
REMARK  status: ('A' for Active; 'I' for Inactive)
REMARK    1  A    between atoms: C1_1  and  C8_8 
ROOT
HETATM    1  C2  UNL     1     -33.002  15.416  -3.367  1.00 20.00     0.019 A 
HETATM    2  C3  UNL     1     -34.447  16.844  -4.125  1.00 20.00     0.019 A 
HETATM    3  C4  UNL     1     -35.124  15.035  -3.139  1.00 20.00     0.019 A 
HETATM    4  C5  UNL     1     -33.266  16.071  -4.731  1.00 20.00     0.038 A 
HETATM    5  C6  UNL     1     -33.943  14.263  -3.745  1.00 20.00     0.038 A 
HETATM    6  C7  UNL     1     -35.389  15.691  -4.503  1.00 20.00     0.038 A 
HETATM    7  C8  UNL     1     -34.183  16.187  -2.765  1.00 20.00     0.050 A 
HETATM    8  C9  UNL     1     -34.207  14.928  -5.091  1.00 20.00     0.117 A 
HETATM    9  F11 UNL     1     -34.220  14.295  -6.260  1.00 20.00    -0.242 F 
ENDROOT
BRANCH   7  10
HETATM   10  C1  UNL     1     -34.169  16.903  -1.450  1.00 20.00     0.228 C 
HETATM   11  O10 UNL     1     -34.732  16.443  -0.460  1.00 20.00    -0.279 OA
HETATM   12 CL12 UNL     1     -33.287  18.398  -1.526  1.00 20.00    -0.043 Cl
ENDBRANCH   7  10
TORSDOF 1
ENDMDL
MODEL 4
REMARK VINA RESULT:      -4.9      3.182      3.840
REMARK  1 active torsions:
REMARK  status: ('A' for Active; 'I' for Inactive)
REMARK    1  A    between atoms: C1_1  and  C8_8 
ROOT
HETATM    1  C2  UNL     1     -34.517  16.844  -4.135  1.00 20.00     0.019 A 
HETATM    2  C3  UNL     1     -35.120  15.020  -3.131  1.00 20.00     0.019 A 
HETATM    3  C4  UNL     1     -33.015  15.457  -3.415  1.00 20.00     0.019 A 
HETATM    4  C5  UNL     1     -35.437  15.666  -4.487  1.00 20.00     0.038 A 
HETATM    5  C6  UNL     1     -33.333  16.103  -4.772  1.00 20.00     0.038 A 
HETATM    6  C7  UNL     1     -33.935  14.279  -3.766  1.00 20.00     0.038 A 
HETATM    7  C8  UNL     1     -34.200  16.197  -2.782  1.00 20.00     0.050 A 
HETATM    8  C9  UNL     1     -34.252  14.934  -5.106  1.00 20.00     0.117 A 
HETATM    9  F11 UNL     1     -34.279  14.299  -6.273  1.00 20.00    -0.242 F 
ENDROOT
BRANCH   7  10
HETATM   10  C1  UNL     1     -34.173  16.910  -1.466  1.00 20.00     0.228 C 
HETATM   11  O10 UNL     1     -34.719  16.446  -0.469  1.00 20.00    -0.279 OA
HETATM   12 CL12 UNL     1     -33.301  18.411  -1.551  1.00 20.00    -0.043 Cl
ENDBRANCH   7  10
TORSDOF 1
ENDMDL
MODEL 5
REMARK VINA RESULT:      -4.9      3.193      3.825
REMARK  1 active torsions:
REMARK  status: ('A' for Active; 'I' for Inactive)
REMARK    1  A    between atoms: C1_1  and  C8_8 
ROOT
HETATM    1  C2  UNL     1     -35.191  15.127  -3.144  1.00 20.00     0.019 A 
HETATM    2  C3  UNL     1     -33.046  15.382  -3.320  1.00 20.00     0.019 A 
HETATM    3  C4  UNL     1     -34.385  16.898  -4.099  1.00 20.00     0.019 A 
HETATM    4  C5  UNL     1     -34.044  14.289  -3.728  1.00 20.00     0.038 A 
HETATM    5  C6  UNL     1     -35.384  15.805  -4.508  1.00 20.00     0.038 A 
HETATM    6  C7  UNL     1     -33.238  16.061  -4.684  1.00 20.00     0.038 A 
HETATM    7  C8  UNL     1     -34.192  16.218  -2.738  1.00 20.00     0.050 A 
HETATM    8  C9  UNL     1     -34.237  14.977  -5.074  1.00 20.00     0.117 A 
HETATM    9  F11 UNL     1     -34.258  14.354  -6.249  1.00 20.00    -0.242 F 
ENDROOT
BRANCH   7  10
HETATM   10  C1  UNL     1     -34.165  16.918  -1.416  1.00 20.00     0.228 C 
HETATM   11  O10 UNL     1     -34.742  16.463  -0.433  1.00 20.00    -0.279 OA
HETATM   12 CL12 UNL     1     -33.244  18.391  -1.473  1.00 20.00    -0.043 Cl
ENDBRANCH   7  10
TORSDOF 1
ENDMDL
MODEL 6
REMARK VINA RESULT:      -4.8      2.103      2.597
REMARK  1 active torsions:
REMARK  status: ('A' for Active; 'I' for Inactive)
REMARK    1  A    between atoms: C1_1  and  C8_8 
ROOT
HETATM    1  C2  UNL     1     -34.686  14.354  -5.295  1.00 20.00     0.019 A 
HETATM    2  C3  UNL     1     -34.985  14.290  -3.149  1.00 20.00     0.019 A 
HETATM    3  C4  UNL     1     -34.917  16.197  -4.179  1.00 20.00     0.019 A 
HETATM    4  C5  UNL     1     -33.928  13.732  -4.113  1.00 20.00     0.038 A 
HETATM    5  C6  UNL     1     -33.860  15.639  -5.143  1.00 20.00     0.038 A 
HETATM    6  C7  UNL     1     -34.160  15.576  -2.996  1.00 20.00     0.038 A 
HETATM    7  C8  UNL     1     -35.740  14.912  -4.331  1.00 20.00     0.050 A 
HETATM    8  C9  UNL     1     -33.122  15.017  -3.963  1.00 20.00     0.117 A 
HETATM    9  F11 UNL     1     -31.807  15.070  -3.777  1.00 20.00    -0.242 F 
ENDROOT
BRANCH   7  10
HETATM   10  C1  UNL     1     -37.221  14.850  -4.537  1.00 20.00     0.228 C 
HETATM   11  O10 UNL     1     -37.953  14.224  -3.776  1.00 20.00    -0.279 OA
HETATM   12 CL12 UNL     1     -37.726  15.748  -5.936  1.00 20.00    -0.043 Cl
ENDBRANCH   7  10
TORSDOF 1
ENDMDL
MODEL 7
REMARK VINA RESULT:      -4.8      3.319      3.974
REMARK  1 active torsions:
REMARK  status: ('A' for Active; 'I' for Inactive)
REMARK    1  A    between atoms: C1_1  and  C8_8 
ROOT
HETATM    1  C2  UNL     1     -34.592  16.801  -4.385  1.00 20.00     0.019 A 
HETATM    2  C3  UNL     1     -35.034  15.170  -3.027  1.00 20.00     0.019 A 
HETATM    3  C4  UNL     1     -32.986  15.561  -3.622  1.00 20.00     0.019 A 
HETATM    4  C5  UNL     1     -35.518  15.577  -4.427  1.00 20.00     0.038 A 
HETATM    5  C6  UNL     1     -33.470  15.968  -5.022  1.00 20.00     0.038 A 
HETATM    6  C7  UNL     1     -33.912  14.337  -3.663  1.00 20.00     0.038 A 
HETATM    7  C8  UNL     1     -34.108  16.392  -2.988  1.00 20.00     0.050 A 
HETATM    8  C9  UNL     1     -34.394  14.756  -5.047  1.00 20.00     0.117 A 
HETATM    9  F11 UNL     1     -34.538  13.933  -6.082  1.00 20.00    -0.242 F 
ENDROOT
BRANCH   7  10
HETATM   10  C1  UNL     1     -33.949  17.317  -1.822  1.00 20.00     0.228 C 
HETATM   11  O10 UNL     1     -33.354  18.386  -1.923  1.00 20.00    -0.279 OA
HETATM   12 CL12 UNL     1     -34.690  16.689  -0.381  1.00 20.00    -0.043 Cl
ENDBRANCH   7  10
TORSDOF 1
ENDMDL
MODEL 8
REMARK VINA RESULT:      -4.8      2.178      2.845
REMARK  1 active torsions:
REMARK  status: ('A' for Active; 'I' for Inactive)
REMARK    1  A    between atoms: C1_1  and  C8_8 
ROOT
HETATM    1  C2  UNL     1     -35.327  14.957  -2.984  1.00 20.00     0.019 A 
HETATM    2  C3  UNL     1     -35.179  15.969  -4.895  1.00 20.00     0.019 A 
HETATM    3  C4  UNL     1     -35.065  13.806  -4.802  1.00 20.00     0.019 A 
HETATM    4  C5  UNL     1     -34.432  16.066  -3.557  1.00 20.00     0.038 A 
HETATM    5  C6  UNL     1     -34.318  13.903  -3.464  1.00 20.00     0.038 A 
HETATM    6  C7  UNL     1     -34.171  14.915  -5.376  1.00 20.00     0.038 A 
HETATM    7  C8  UNL     1     -36.070  14.860  -4.322  1.00 20.00     0.050 A 
HETATM    8  C9  UNL     1     -33.444  15.011  -4.039  1.00 20.00     0.117 A 
HETATM    9  F11 UNL     1     -32.124  15.087  -3.897  1.00 20.00    -0.242 F 
ENDROOT
BRANCH   7  10
HETATM   10  C1  UNL     1     -37.556  14.778  -4.483  1.00 20.00     0.228 C 
HETATM   11  O10 UNL     1     -38.274  14.307  -3.606  1.00 20.00    -0.279 OA
HETATM   12 CL12 UNL     1     -38.086  15.413  -6.011  1.00 20.00    -0.043 Cl
ENDBRANCH   7  10
TORSDOF 1
ENDMDL
MODEL 9
REMARK VINA RESULT:      -4.8      2.102      2.461
REMARK  1 active torsions:
REMARK  status: ('A' for Active; 'I' for Inactive)
REMARK    1  A    between atoms: C1_1  and  C8_8 
ROOT
HETATM    1  C2  UNL     1     -34.983  16.185  -4.429  1.00 20.00     0.019 A 
HETATM    2  C3  UNL     1     -34.791  14.141  -5.123  1.00 20.00     0.019 A 
HETATM    3  C4  UNL     1     -35.085  14.547  -3.014  1.00 20.00     0.019 A 
HETATM    4  C5  UNL     1     -33.939  15.412  -5.249  1.00 20.00     0.038 A 
HETATM    5  C6  UNL     1     -34.233  15.818  -3.140  1.00 20.00     0.038 A 
HETATM    6  C7  UNL     1     -34.042  13.773  -3.834  1.00 20.00     0.038 A 
HETATM    7  C8  UNL     1     -35.830  14.914  -4.303  1.00 20.00     0.050 A 
HETATM    8  C9  UNL     1     -33.210  15.044  -3.963  1.00 20.00     0.117 A 
HETATM    9  F11 UNL     1     -31.893  15.109  -3.792  1.00 20.00    -0.242 F 
ENDROOT
BRANCH   7  10
HETATM   10  C1  UNL     1     -37.313  14.839  -4.497  1.00 20.00     0.228 C 
HETATM   11  O10 UNL     1     -38.038  14.244  -3.706  1.00 20.00    -0.279 OA
HETATM   12 CL12 UNL     1     -37.829  15.673  -5.932  1.00 20.00    -0.043 Cl
ENDBRANCH   7  10
TORSDOF 1
ENDMDL
