MODEL 1
REMARK VINA RESULT:      -6.3      0.000      0.000
REMARK  1 active torsions:
REMARK  status: ('A' for Active; 'I' for Inactive)
REMARK    1  A    between atoms: C8_8  and  C9_9 
ROOT
HETATM    1  C1  UNL     1     -32.218   7.299   2.598  1.00 20.00     0.218 C 
HETATM    2  C8  UNL     1     -32.785   6.425   3.377  1.00 20.00     0.044 C 
HETATM    3  O10 UNL     1     -31.704   8.089   1.894  1.00 20.00    -0.284 OA
ENDROOT
BRANCH   2   4
HETATM    4  C9  UNL     1     -34.128   6.598   4.027  1.00 20.00     0.057 C 
HETATM    5  C6  UNL     1     -35.062   5.476   3.657  1.00 20.00    -0.014 C 
HETATM    6  C4  UNL     1     -35.385   4.371   4.342  1.00 20.00    -0.003 C 
HETATM    7  C2  UNL     1     -34.852   3.933   5.605  1.00 20.00    -0.000 C 
HETATM    8  C3  UNL     1     -34.292   4.683   6.561  1.00 20.00    -0.000 C 
HETATM    9  C5  UNL     1     -34.088   6.109   6.556  1.00 20.00    -0.003 C 
HETATM   10  C7  UNL     1     -33.987   6.917   5.493  1.00 20.00    -0.014 C 
ENDBRANCH   2   4
TORSDOF 1
ENDMDL
MODEL 2
REMARK VINA RESULT:      -5.0     11.537     12.970
REMARK  1 active torsions:
REMARK  status: ('A' for Active; 'I' for Inactive)
REMARK    1  A    between atoms: C8_8  and  C9_9 
ROOT
HETATM    1  C1  UNL     1     -34.688  16.410  -1.260  1.00 20.00     0.218 C 
HETATM    2  C8  UNL     1     -34.830  15.905  -2.451  1.00 20.00     0.044 C 
HETATM    3  O10 UNL     1     -34.561  16.867  -0.184  1.00 20.00    -0.284 OA
ENDROOT
BRANCH   2   4
HETATM    4  C9  UNL     1     -33.733  15.253  -3.243  1.00 20.00     0.057 C 
HETATM    5  C6  UNL     1     -34.087  13.832  -3.598  1.00 20.00    -0.014 C 
HETATM    6  C4  UNL     1     -34.581  13.334  -4.740  1.00 20.00    -0.003 C 
HETATM    7  C2  UNL     1     -34.973  14.061  -5.918  1.00 20.00    -0.000 C 
HETATM    8  C3  UNL     1     -34.547  15.265  -6.317  1.00 20.00    -0.000 C 
HETATM    9  C5  UNL     1     -33.592  16.123  -5.664  1.00 20.00    -0.003 C 
HETATM   10  C7  UNL     1     -33.267  16.144  -4.365  1.00 20.00    -0.014 C 
ENDBRANCH   2   4
TORSDOF 1
ENDMDL
MODEL 3
REMARK VINA RESULT:      -4.8     11.566     13.087
REMARK  1 active torsions:
REMARK  status: ('A' for Active; 'I' for Inactive)
REMARK    1  A    between atoms: C8_8  and  C9_9 
ROOT
HETATM    1  C1  UNL     1     -34.284  16.670  -2.014  1.00 20.00     0.218 C 
HETATM    2  C8  UNL     1     -34.112  16.882  -3.285  1.00 20.00     0.044 C 
HETATM    3  O10 UNL     1     -34.441  16.479  -0.864  1.00 20.00    -0.284 OA
ENDROOT
BRANCH   2   4
HETATM    4  C9  UNL     1     -33.218  16.070  -4.178  1.00 20.00     0.057 C 
HETATM    5  C6  UNL     1     -32.998  14.688  -3.619  1.00 20.00    -0.014 C 
HETATM    6  C4  UNL     1     -33.597  13.532  -3.936  1.00 20.00    -0.003 C 
HETATM    7  C2  UNL     1     -34.677  13.328  -4.865  1.00 20.00    -0.000 C 
HETATM    8  C3  UNL     1     -35.018  14.097  -5.905  1.00 20.00    -0.000 C 
HETATM    9  C5  UNL     1     -34.387  15.314  -6.347  1.00 20.00    -0.003 C 
HETATM   10  C7  UNL     1     -33.653  16.165  -5.617  1.00 20.00    -0.014 C 
ENDBRANCH   2   4
TORSDOF 1
ENDMDL
MODEL 4
REMARK VINA RESULT:      -4.7     11.764     13.205
REMARK  1 active torsions:
REMARK  status: ('A' for Active; 'I' for Inactive)
REMARK    1  A    between atoms: C8_8  and  C9_9 
ROOT
HETATM    1  C1  UNL     1     -35.649  16.236  -2.766  1.00 20.00     0.218 C 
HETATM    2  C8  UNL     1     -34.442  15.868  -2.446  1.00 20.00     0.044 C 
HETATM    3  O10 UNL     1     -36.739  16.568  -3.055  1.00 20.00    -0.284 OA
ENDROOT
BRANCH   2   4
HETATM    4  C9  UNL     1     -33.442  15.280  -3.400  1.00 20.00     0.057 C 
HETATM    5  C6  UNL     1     -33.770  13.845  -3.718  1.00 20.00    -0.014 C 
HETATM    6  C4  UNL     1     -34.401  13.327  -4.782  1.00 20.00    -0.003 C 
HETATM    7  C2  UNL     1     -35.000  14.039  -5.880  1.00 20.00    -0.000 C 
HETATM    8  C3  UNL     1     -34.700  15.266  -6.321  1.00 20.00    -0.000 C 
HETATM    9  C5  UNL     1     -33.705  16.170  -5.803  1.00 20.00    -0.003 C 
HETATM   10  C7  UNL     1     -33.194  16.202  -4.566  1.00 20.00    -0.014 C 
ENDBRANCH   2   4
TORSDOF 1
ENDMDL
MODEL 5
REMARK VINA RESULT:      -4.7     11.500     13.091
REMARK  1 active torsions:
REMARK  status: ('A' for Active; 'I' for Inactive)
REMARK    1  A    between atoms: C8_8  and  C9_9 
ROOT
HETATM    1  C1  UNL     1     -34.208  13.298  -4.134  1.00 20.00     0.218 C 
HETATM    2  C8  UNL     1     -33.201  14.011  -3.720  1.00 20.00     0.044 C 
HETATM    3  O10 UNL     1     -35.117  12.653  -4.508  1.00 20.00    -0.284 OA
ENDROOT
BRANCH   2   4
HETATM    4  C9  UNL     1     -33.248  15.488  -3.451  1.00 20.00     0.057 C 
HETATM    5  C6  UNL     1     -33.217  16.278  -4.733  1.00 20.00    -0.014 C 
HETATM    6  C4  UNL     1     -34.223  16.837  -5.418  1.00 20.00    -0.003 C 
HETATM    7  C2  UNL     1     -35.631  16.759  -5.130  1.00 20.00    -0.000 C 
HETATM    8  C3  UNL     1     -36.214  16.524  -3.949  1.00 20.00    -0.000 C 
HETATM    9  C5  UNL     1     -35.571  16.293  -2.680  1.00 20.00    -0.003 C 
HETATM   10  C7  UNL     1     -34.334  15.827  -2.463  1.00 20.00    -0.014 C 
ENDBRANCH   2   4
TORSDOF 1
ENDMDL
MODEL 6
REMARK VINA RESULT:      -4.7     11.728     13.377
REMARK  1 active torsions:
REMARK  status: ('A' for Active; 'I' for Inactive)
REMARK    1  A    between atoms: C8_8  and  C9_9 
ROOT
HETATM    1  C1  UNL     1     -37.489  14.676  -4.406  1.00 20.00     0.218 C 
HETATM    2  C8  UNL     1     -36.775  15.077  -5.416  1.00 20.00     0.044 C 
HETATM    3  O10 UNL     1     -38.135  14.314  -3.492  1.00 20.00    -0.284 OA
ENDROOT
BRANCH   2   4
HETATM    4  C9  UNL     1     -35.454  14.489  -5.821  1.00 20.00     0.057 C 
HETATM    5  C6  UNL     1     -34.517  15.552  -6.333  1.00 20.00    -0.014 C 
HETATM    6  C4  UNL     1     -33.520  16.189  -5.704  1.00 20.00    -0.003 C 
HETATM    7  C2  UNL     1     -33.131  16.064  -4.324  1.00 20.00    -0.000 C 
HETATM    8  C3  UNL     1     -33.342  15.028  -3.505  1.00 20.00    -0.000 C 
HETATM    9  C5  UNL     1     -34.009  13.787  -3.806  1.00 20.00    -0.003 C 
HETATM   10  C7  UNL     1     -34.922  13.561  -4.760  1.00 20.00    -0.014 C 
ENDBRANCH   2   4
TORSDOF 1
ENDMDL
MODEL 7
REMARK VINA RESULT:      -4.6     11.825     12.737
REMARK  1 active torsions:
REMARK  status: ('A' for Active; 'I' for Inactive)
REMARK    1  A    between atoms: C8_8  and  C9_9 
ROOT
HETATM    1  C1  UNL     1     -35.273  14.786  -6.619  1.00 20.00     0.218 C 
HETATM    2  C8  UNL     1     -36.158  14.737  -5.667  1.00 20.00     0.044 C 
HETATM    3  O10 UNL     1     -34.474  14.830  -7.481  1.00 20.00    -0.284 OA
ENDROOT
BRANCH   2   4
HETATM    4  C9  UNL     1     -35.909  14.190  -4.291  1.00 20.00     0.057 C 
HETATM    5  C6  UNL     1     -34.655  13.356  -4.254  1.00 20.00    -0.014 C 
HETATM    6  C4  UNL     1     -33.421  13.684  -3.847  1.00 20.00    -0.003 C 
HETATM    7  C2  UNL     1     -32.957  14.970  -3.399  1.00 20.00    -0.000 C 
HETATM    8  C3  UNL     1     -33.682  15.965  -2.873  1.00 20.00    -0.000 C 
HETATM    9  C5  UNL     1     -35.101  15.987  -2.629  1.00 20.00    -0.003 C 
HETATM   10  C7  UNL     1     -36.048  15.265  -3.244  1.00 20.00    -0.014 C 
ENDBRANCH   2   4
TORSDOF 1
ENDMDL
MODEL 8
REMARK VINA RESULT:      -4.6     12.128     13.144
REMARK  1 active torsions:
REMARK  status: ('A' for Active; 'I' for Inactive)
REMARK    1  A    between atoms: C8_8  and  C9_9 
ROOT
HETATM    1  C1  UNL     1     -34.783  13.486  -5.088  1.00 20.00     0.218 C 
HETATM    2  C8  UNL     1     -34.472  14.489  -5.856  1.00 20.00     0.044 C 
HETATM    3  O10 UNL     1     -35.063  12.579  -4.395  1.00 20.00    -0.284 OA
ENDROOT
BRANCH   2   4
HETATM    4  C9  UNL     1     -34.209  15.887  -5.377  1.00 20.00     0.057 C 
HETATM    5  C6  UNL     1     -35.494  16.644  -5.169  1.00 20.00    -0.014 C 
HETATM    6  C4  UNL     1     -36.176  16.878  -4.039  1.00 20.00    -0.003 C 
HETATM    7  C2  UNL     1     -35.879  16.390  -2.718  1.00 20.00    -0.000 C 
HETATM    8  C3  UNL     1     -34.693  16.001  -2.236  1.00 20.00    -0.000 C 
HETATM    9  C5  UNL     1     -33.427  15.976  -2.924  1.00 20.00    -0.003 C 
HETATM   10  C7  UNL     1     -33.216  15.897  -4.244  1.00 20.00    -0.014 C 
ENDBRANCH   2   4
TORSDOF 1
ENDMDL
MODEL 9
REMARK VINA RESULT:      -4.6     11.675     13.452
REMARK  1 active torsions:
REMARK  status: ('A' for Active; 'I' for Inactive)
REMARK    1  A    between atoms: C8_8  and  C9_9 
ROOT
HETATM    1  C1  UNL     1     -34.835  13.496  -4.175  1.00 20.00     0.218 C 
HETATM    2  C8  UNL     1     -34.814  14.541  -3.400  1.00 20.00     0.044 C 
HETATM    3  O10 UNL     1     -34.855  12.551  -4.874  1.00 20.00    -0.284 OA
ENDROOT
BRANCH   2   4
HETATM    4  C9  UNL     1     -33.630  15.446  -3.212  1.00 20.00     0.057 C 
HETATM    5  C6  UNL     1     -33.145  15.993  -4.529  1.00 20.00    -0.014 C 
HETATM    6  C4  UNL     1     -33.382  17.181  -5.102  1.00 20.00    -0.003 C 
HETATM    7  C2  UNL     1     -34.238  18.233  -4.620  1.00 20.00    -0.000 C 
HETATM    8  C3  UNL     1     -34.618  18.466  -3.359  1.00 20.00    -0.000 C 
HETATM    9  C5  UNL     1     -34.262  17.721  -2.179  1.00 20.00    -0.003 C 
HETATM   10  C7  UNL     1     -33.875  16.440  -2.106  1.00 20.00    -0.014 C 
ENDBRANCH   2   4
TORSDOF 1
ENDMDL
