MODEL 1
REMARK VINA RESULT:      -4.1      0.000      0.000
REMARK  2 active torsions:
REMARK  status: ('A' for Active; 'I' for Inactive)
REMARK    1  A    between atoms: C3_3  and  C5_5 
REMARK    2  A    between atoms: C3_3  and  O8_8 
ROOT
HETATM    1  C1  UNL     1     -33.862   6.561   5.552  1.00 20.00    -0.005 C 
HETATM    2  C2  UNL     1     -34.305   5.488   6.213  1.00 20.00     0.042 C 
HETATM    3  C4  UNL     1     -34.976   5.358   3.729  1.00 20.00     0.097 C 
HETATM    4  C5  UNL     1     -34.043   6.524   4.067  1.00 20.00     0.118 C 
HETATM    5  S9  UNL     1     -35.003   4.273   5.201  1.00 20.00    -0.141 SA
ENDROOT
BRANCH   4   6
HETATM    6  C3  UNL     1     -32.685   6.340   3.461  1.00 20.00     0.267 C 
HETATM    7  O7  UNL     1     -32.245   5.264   3.081  1.00 20.00    -0.265 OA
BRANCH   6   8
HETATM    8  O8  UNL     1     -32.043   7.542   3.408  1.00 20.00    -0.326 OA
HETATM    9  C6  UNL     1     -32.050   8.187   2.131  1.00 20.00     0.213 C 
ENDBRANCH   6   8
ENDBRANCH   4   6
TORSDOF 2
ENDMDL
MODEL 2
REMARK VINA RESULT:      -3.8     11.743     12.525
REMARK  2 active torsions:
REMARK  status: ('A' for Active; 'I' for Inactive)
REMARK    1  A    between atoms: C3_3  and  C5_5 
REMARK    2  A    between atoms: C3_3  and  O8_8 
ROOT
HETATM    1  C1  UNL     1     -35.314  15.333  -3.019  1.00 20.00    -0.005 C 
HETATM    2  C2  UNL     1     -35.287  16.633  -3.323  1.00 20.00     0.042 C 
HETATM    3  C4  UNL     1     -33.036  15.524  -3.903  1.00 20.00     0.097 C 
HETATM    4  C5  UNL     1     -34.125  14.541  -3.462  1.00 20.00     0.118 C 
HETATM    5  S9  UNL     1     -33.866  17.131  -4.171  1.00 20.00    -0.141 SA
ENDROOT
BRANCH   4   6
HETATM    6  C3  UNL     1     -34.572  13.667  -4.594  1.00 20.00     0.267 C 
HETATM    7  O7  UNL     1     -35.114  12.580  -4.447  1.00 20.00    -0.265 OA
BRANCH   6   8
HETATM    8  O8  UNL     1     -34.280  14.272  -5.780  1.00 20.00    -0.326 OA
HETATM    9  C6  UNL     1     -35.360  14.340  -6.718  1.00 20.00     0.213 C 
ENDBRANCH   6   8
ENDBRANCH   4   6
TORSDOF 2
ENDMDL
MODEL 3
REMARK VINA RESULT:      -3.7     11.356     12.263
REMARK  2 active torsions:
REMARK  status: ('A' for Active; 'I' for Inactive)
REMARK    1  A    between atoms: C3_3  and  C5_5 
REMARK    2  A    between atoms: C3_3  and  O8_8 
ROOT
HETATM    1  C1  UNL     1     -35.018  13.806  -5.859  1.00 20.00    -0.005 C 
HETATM    2  C2  UNL     1     -35.621  14.867  -6.402  1.00 20.00     0.042 C 
HETATM    3  C4  UNL     1     -36.579  14.386  -4.060  1.00 20.00     0.097 C 
HETATM    4  C5  UNL     1     -35.369  13.525  -4.433  1.00 20.00     0.118 C 
HETATM    5  S9  UNL     1     -36.692  15.697  -5.330  1.00 20.00    -0.141 SA
ENDROOT
BRANCH   4   6
HETATM    6  C3  UNL     1     -34.168  13.872  -3.606  1.00 20.00     0.267 C 
HETATM    7  O7  UNL     1     -33.107  13.264  -3.651  1.00 20.00    -0.265 OA
BRANCH   6   8
HETATM    8  O8  UNL     1     -34.452  14.948  -2.818  1.00 20.00    -0.326 OA
HETATM    9  C6  UNL     1     -33.563  16.061  -2.955  1.00 20.00     0.213 C 
ENDBRANCH   6   8
ENDBRANCH   4   6
TORSDOF 2
ENDMDL
MODEL 4
REMARK VINA RESULT:      -3.6     11.576     12.246
REMARK  2 active torsions:
REMARK  status: ('A' for Active; 'I' for Inactive)
REMARK    1  A    between atoms: C3_3  and  C5_5 
REMARK    2  A    between atoms: C3_3  and  O8_8 
ROOT
HETATM    1  C1  UNL     1     -34.684  13.550  -3.874  1.00 20.00    -0.005 C 
HETATM    2  C2  UNL     1     -34.757  13.191  -5.159  1.00 20.00     0.042 C 
HETATM    3  C4  UNL     1     -35.361  15.680  -4.882  1.00 20.00     0.097 C 
HETATM    4  C5  UNL     1     -34.851  15.012  -3.603  1.00 20.00     0.118 C 
HETATM    5  S9  UNL     1     -35.033  14.506  -6.246  1.00 20.00    -0.141 SA
ENDROOT
BRANCH   4   6
HETATM    6  C3  UNL     1     -33.508  15.541  -3.200  1.00 20.00     0.267 C 
HETATM    7  O7  UNL     1     -32.444  15.061  -3.566  1.00 20.00    -0.265 OA
BRANCH   6   8
HETATM    8  O8  UNL     1     -33.670  16.618  -2.379  1.00 20.00    -0.326 OA
HETATM    9  C6  UNL     1     -34.578  16.427  -1.288  1.00 20.00     0.213 C 
ENDBRANCH   6   8
ENDBRANCH   4   6
TORSDOF 2
ENDMDL
MODEL 5
REMARK VINA RESULT:      -3.6     11.747     12.567
REMARK  2 active torsions:
REMARK  status: ('A' for Active; 'I' for Inactive)
REMARK    1  A    between atoms: C3_3  and  C5_5 
REMARK    2  A    between atoms: C3_3  and  O8_8 
ROOT
HETATM    1  C1  UNL     1     -34.082  13.951  -3.676  1.00 20.00    -0.005 C 
HETATM    2  C2  UNL     1     -35.175  13.474  -4.278  1.00 20.00     0.042 C 
HETATM    3  C4  UNL     1     -35.730  15.625  -2.975  1.00 20.00     0.097 C 
HETATM    4  C5  UNL     1     -34.237  15.289  -3.024  1.00 20.00     0.118 C 
HETATM    5  S9  UNL     1     -36.551  14.513  -4.172  1.00 20.00    -0.141 SA
ENDROOT
BRANCH   4   6
HETATM    6  C3  UNL     1     -33.474  16.276  -3.854  1.00 20.00     0.267 C 
HETATM    7  O7  UNL     1     -32.604  15.968  -4.657  1.00 20.00    -0.265 OA
BRANCH   6   8
HETATM    8  O8  UNL     1     -33.903  17.538  -3.569  1.00 20.00    -0.326 OA
HETATM    9  C6  UNL     1     -33.647  18.518  -4.581  1.00 20.00     0.213 C 
ENDBRANCH   6   8
ENDBRANCH   4   6
TORSDOF 2
ENDMDL
MODEL 6
REMARK VINA RESULT:      -3.5     11.898     12.754
REMARK  2 active torsions:
REMARK  status: ('A' for Active; 'I' for Inactive)
REMARK    1  A    between atoms: C3_3  and  C5_5 
REMARK    2  A    between atoms: C3_3  and  O8_8 
ROOT
HETATM    1  C1  UNL     1     -34.143  14.281  -3.470  1.00 20.00    -0.005 C 
HETATM    2  C2  UNL     1     -33.145  15.152  -3.642  1.00 20.00     0.042 C 
HETATM    3  C4  UNL     1     -34.873  15.373  -5.540  1.00 20.00     0.097 C 
HETATM    4  C5  UNL     1     -35.294  14.424  -4.414  1.00 20.00     0.118 C 
HETATM    5  S9  UNL     1     -33.398  16.270  -4.936  1.00 20.00    -0.141 SA
ENDROOT
BRANCH   4   6
HETATM    6  C3  UNL     1     -36.445  14.974  -3.628  1.00 20.00     0.267 C 
HETATM    7  O7  UNL     1     -36.404  16.018  -2.992  1.00 20.00    -0.265 OA
BRANCH   6   8
HETATM    8  O8  UNL     1     -37.514  14.135  -3.738  1.00 20.00    -0.326 OA
HETATM    9  C6  UNL     1     -38.765  14.768  -4.029  1.00 20.00     0.213 C 
ENDBRANCH   6   8
ENDBRANCH   4   6
TORSDOF 2
ENDMDL
MODEL 7
REMARK VINA RESULT:      -3.5     11.989     12.951
REMARK  2 active torsions:
REMARK  status: ('A' for Active; 'I' for Inactive)
REMARK    1  A    between atoms: C3_3  and  C5_5 
REMARK    2  A    between atoms: C3_3  and  O8_8 
ROOT
HETATM    1  C1  UNL     1     -36.110  15.370  -5.132  1.00 20.00    -0.005 C 
HETATM    2  C2  UNL     1     -36.886  15.254  -6.213  1.00 20.00     0.042 C 
HETATM    3  C4  UNL     1     -34.415  14.870  -6.832  1.00 20.00     0.097 C 
HETATM    4  C5  UNL     1     -34.672  15.005  -5.329  1.00 20.00     0.118 C 
HETATM    5  S9  UNL     1     -36.055  14.703  -7.625  1.00 20.00    -0.141 SA
ENDROOT
BRANCH   4   6
HETATM    6  C3  UNL     1     -34.443  13.710  -4.609  1.00 20.00     0.267 C 
HETATM    7  O7  UNL     1     -34.855  12.627  -5.000  1.00 20.00    -0.265 OA
BRANCH   6   8
HETATM    8  O8  UNL     1     -33.718  13.940  -3.477  1.00 20.00    -0.326 OA
HETATM    9  C6  UNL     1     -32.721  14.961  -3.583  1.00 20.00     0.213 C 
ENDBRANCH   6   8
ENDBRANCH   4   6
TORSDOF 2
ENDMDL
MODEL 8
REMARK VINA RESULT:      -3.4     11.602     12.460
REMARK  2 active torsions:
REMARK  status: ('A' for Active; 'I' for Inactive)
REMARK    1  A    between atoms: C3_3  and  C5_5 
REMARK    2  A    between atoms: C3_3  and  O8_8 
ROOT
HETATM    1  C1  UNL     1     -33.488  16.125  -4.629  1.00 20.00    -0.005 C 
HETATM    2  C2  UNL     1     -34.039  15.587  -5.720  1.00 20.00     0.042 C 
HETATM    3  C4  UNL     1     -33.967  13.867  -3.804  1.00 20.00     0.097 C 
HETATM    4  C5  UNL     1     -33.540  15.279  -3.396  1.00 20.00     0.118 C 
HETATM    5  S9  UNL     1     -34.701  14.010  -5.474  1.00 20.00    -0.141 SA
ENDROOT
BRANCH   4   6
HETATM    6  C3  UNL     1     -34.532  15.912  -2.468  1.00 20.00     0.267 C 
HETATM    7  O7  UNL     1     -35.745  15.792  -2.577  1.00 20.00    -0.265 OA
BRANCH   6   8
HETATM    8  O8  UNL     1     -33.872  16.623  -1.511  1.00 20.00    -0.326 OA
HETATM    9  C6  UNL     1     -34.656  16.997  -0.373  1.00 20.00     0.213 C 
ENDBRANCH   6   8
ENDBRANCH   4   6
TORSDOF 2
ENDMDL
MODEL 9
REMARK VINA RESULT:      -3.4     11.836     12.461
REMARK  2 active torsions:
REMARK  status: ('A' for Active; 'I' for Inactive)
REMARK    1  A    between atoms: C3_3  and  C5_5 
REMARK    2  A    between atoms: C3_3  and  O8_8 
ROOT
HETATM    1  C1  UNL     1     -34.472  16.479  -1.400  1.00 20.00    -0.005 C 
HETATM    2  C2  UNL     1     -34.883  17.748  -1.480  1.00 20.00     0.042 C 
HETATM    3  C4  UNL     1     -33.744  17.028  -3.676  1.00 20.00     0.097 C 
HETATM    4  C5  UNL     1     -33.944  15.891  -2.670  1.00 20.00     0.118 C 
HETATM    5  S9  UNL     1     -34.712  18.448  -3.051  1.00 20.00    -0.141 SA
ENDROOT
BRANCH   4   6
HETATM    6  C3  UNL     1     -34.957  14.897  -3.151  1.00 20.00     0.267 C 
HETATM    7  O7  UNL     1     -36.158  15.121  -3.218  1.00 20.00    -0.265 OA
BRANCH   6   8
HETATM    8  O8  UNL     1     -34.330  13.735  -3.491  1.00 20.00    -0.326 OA
HETATM    9  C6  UNL     1     -34.616  13.244  -4.805  1.00 20.00     0.213 C 
ENDBRANCH   6   8
ENDBRANCH   4   6
TORSDOF 2
ENDMDL
