MODEL 1
REMARK VINA RESULT:      -5.1      0.000      0.000
REMARK  0 active torsions:
REMARK  status: ('A' for Active; 'I' for Inactive)
ROOT
HETATM    1  C1  UNL     1     -33.908   6.492   6.178  1.00 20.00     0.012 C 
HETATM    2  C2  UNL     1     -33.711   7.130   4.799  1.00 20.00     0.077 C 
HETATM    3  C3  UNL     1     -34.557   5.095   6.160  1.00 20.00     0.082 C 
HETATM    4  C4  UNL     1     -33.854   4.792   3.795  1.00 20.00     0.264 A 
HETATM    5  C5  UNL     1     -33.180   6.132   3.825  1.00 20.00     0.237 A 
HETATM    6  C6  UNL     1     -34.957   4.603   4.775  1.00 20.00     0.274 C 
HETATM    7  O7  UNL     1     -34.076   5.765   2.770  1.00 20.00    -0.332 OA
HETATM    8  F8  UNL     1     -31.827   6.165   3.525  1.00 20.00    -0.209 F 
HETATM    9  F9  UNL     1     -36.070   5.267   4.366  1.00 20.00    -0.203 F 
HETATM   10  F10 UNL     1     -35.296   3.291   4.839  1.00 20.00    -0.203 F 
ENDROOT
TORSDOF 0
ENDMDL
MODEL 2
REMARK VINA RESULT:      -5.0      1.298      3.086
REMARK  0 active torsions:
REMARK  status: ('A' for Active; 'I' for Inactive)
ROOT
HETATM    1  C1  UNL     1     -34.423   5.619   6.098  1.00 20.00     0.012 C 
HETATM    2  C2  UNL     1     -34.955   4.674   5.015  1.00 20.00     0.077 C 
HETATM    3  C3  UNL     1     -33.368   6.633   5.613  1.00 20.00     0.082 C 
HETATM    4  C4  UNL     1     -34.181   6.371   3.279  1.00 20.00     0.264 A 
HETATM    5  C5  UNL     1     -35.239   5.420   3.755  1.00 20.00     0.237 A 
HETATM    6  C6  UNL     1     -32.980   6.486   4.148  1.00 20.00     0.274 C 
HETATM    7  O7  UNL     1     -34.389   5.104   2.648  1.00 20.00    -0.332 OA
HETATM    8  F8  UNL     1     -36.556   5.746   3.470  1.00 20.00    -0.209 F 
HETATM    9  F9  UNL     1     -32.184   5.394   4.000  1.00 20.00    -0.203 F 
HETATM   10  F10 UNL     1     -32.236   7.554   3.766  1.00 20.00    -0.203 F 
ENDROOT
TORSDOF 0
ENDMDL
MODEL 3
REMARK VINA RESULT:      -4.7      2.037      3.369
REMARK  0 active torsions:
REMARK  status: ('A' for Active; 'I' for Inactive)
ROOT
HETATM    1  C1  UNL     1     -33.953   5.865   3.464  1.00 20.00     0.012 C 
HETATM    2  C2  UNL     1     -35.199   5.168   4.019  1.00 20.00     0.077 C 
HETATM    3  C3  UNL     1     -33.110   6.617   4.512  1.00 20.00     0.082 C 
HETATM    4  C4  UNL     1     -34.100   5.224   6.317  1.00 20.00     0.264 A 
HETATM    5  C5  UNL     1     -34.886   4.458   5.293  1.00 20.00     0.237 A 
HETATM    6  C6  UNL     1     -33.691   6.598   5.920  1.00 20.00     0.274 C 
HETATM    7  O7  UNL     1     -35.505   4.999   6.466  1.00 20.00    -0.332 OA
HETATM    8  F8  UNL     1     -34.699   3.086   5.251  1.00 20.00    -0.209 F 
HETATM    9  F9  UNL     1     -34.753   7.443   5.980  1.00 20.00    -0.203 F 
HETATM   10  F10 UNL     1     -32.772   7.075   6.797  1.00 20.00    -0.203 F 
ENDROOT
TORSDOF 0
ENDMDL
MODEL 4
REMARK VINA RESULT:      -4.7      1.734      2.363
REMARK  0 active torsions:
REMARK  status: ('A' for Active; 'I' for Inactive)
ROOT
HETATM    1  C1  UNL     1     -34.871   4.066   5.923  1.00 20.00     0.012 C 
HETATM    2  C2  UNL     1     -35.016   5.509   6.415  1.00 20.00     0.077 C 
HETATM    3  C3  UNL     1     -34.635   3.917   4.407  1.00 20.00     0.082 C 
HETATM    4  C4  UNL     1     -33.805   6.257   4.301  1.00 20.00     0.264 A 
HETATM    5  C5  UNL     1     -33.989   6.389   5.784  1.00 20.00     0.237 A 
HETATM    6  C6  UNL     1     -34.650   5.230   3.636  1.00 20.00     0.274 C 
HETATM    7  O7  UNL     1     -34.496   7.371   4.875  1.00 20.00    -0.332 OA
HETATM    8  F8  UNL     1     -32.873   6.732   6.531  1.00 20.00    -0.209 F 
HETATM    9  F9  UNL     1     -35.930   5.672   3.523  1.00 20.00    -0.203 F 
HETATM   10  F10 UNL     1     -34.206   5.018   2.371  1.00 20.00    -0.203 F 
ENDROOT
TORSDOF 0
ENDMDL
MODEL 5
REMARK VINA RESULT:      -4.6     11.880     12.513
REMARK  0 active torsions:
REMARK  status: ('A' for Active; 'I' for Inactive)
ROOT
HETATM    1  C1  UNL     1     -34.030  16.077  -2.633  1.00 20.00     0.012 C 
HETATM    2  C2  UNL     1     -33.204  15.468  -3.770  1.00 20.00     0.077 C 
HETATM    3  C3  UNL     1     -35.526  15.707  -2.647  1.00 20.00     0.082 C 
HETATM    4  C4  UNL     1     -35.022  13.701  -4.026  1.00 20.00     0.264 A 
HETATM    5  C5  UNL     1     -33.560  14.034  -3.973  1.00 20.00     0.237 A 
HETATM    6  C6  UNL     1     -35.951  14.846  -3.830  1.00 20.00     0.274 C 
HETATM    7  O7  UNL     1     -34.218  13.732  -5.209  1.00 20.00    -0.332 OA
HETATM    8  F8  UNL     1     -32.711  13.068  -3.455  1.00 20.00    -0.209 F 
HETATM    9  F9  UNL     1     -35.998  15.613  -4.951  1.00 20.00    -0.203 F 
HETATM   10  F10 UNL     1     -37.211  14.387  -3.627  1.00 20.00    -0.203 F 
ENDROOT
TORSDOF 0
ENDMDL
MODEL 6
REMARK VINA RESULT:      -4.6     12.596     13.729
REMARK  0 active torsions:
REMARK  status: ('A' for Active; 'I' for Inactive)
ROOT
HETATM    1  C1  UNL     1     -34.643  13.373  -4.935  1.00 20.00     0.012 C 
HETATM    2  C2  UNL     1     -34.256  13.964  -3.576  1.00 20.00     0.077 C 
HETATM    3  C3  UNL     1     -34.730  14.395  -6.086  1.00 20.00     0.082 C 
HETATM    4  C4  UNL     1     -33.259  15.950  -4.823  1.00 20.00     0.264 A 
HETATM    5  C5  UNL     1     -33.135  14.938  -3.723  1.00 20.00     0.237 A 
HETATM    6  C6  UNL     1     -34.478  15.837  -5.668  1.00 20.00     0.274 C 
HETATM    7  O7  UNL     1     -33.469  16.303  -3.452  1.00 20.00    -0.332 OA
HETATM    8  F8  UNL     1     -31.856  14.520  -3.390  1.00 20.00    -0.209 F 
HETATM    9  F9  UNL     1     -35.562  16.308  -4.998  1.00 20.00    -0.203 F 
HETATM   10  F10 UNL     1     -34.345  16.614  -6.773  1.00 20.00    -0.203 F 
ENDROOT
TORSDOF 0
ENDMDL
MODEL 7
REMARK VINA RESULT:      -4.5      9.021     10.022
REMARK  0 active torsions:
REMARK  status: ('A' for Active; 'I' for Inactive)
ROOT
HETATM    1  C1  UNL     1     -42.681   5.974  -3.031  1.00 20.00     0.012 C 
HETATM    2  C2  UNL     1     -42.702   4.735  -2.132  1.00 20.00     0.077 C 
HETATM    3  C3  UNL     1     -42.021   7.219  -2.406  1.00 20.00     0.082 C 
HETATM    4  C4  UNL     1     -40.783   5.768  -0.812  1.00 20.00     0.264 A 
HETATM    5  C5  UNL     1     -41.388   4.552  -1.451  1.00 20.00     0.237 A 
HETATM    6  C6  UNL     1     -41.555   7.029  -0.968  1.00 20.00     0.274 C 
HETATM    7  O7  UNL     1     -41.399   4.739  -0.031  1.00 20.00    -0.332 OA
HETATM    8  F8  UNL     1     -40.513   3.604  -1.958  1.00 20.00    -0.209 F 
HETATM    9  F9  UNL     1     -42.634   7.028  -0.142  1.00 20.00    -0.203 F 
HETATM   10  F10 UNL     1     -40.790   8.086  -0.596  1.00 20.00    -0.203 F 
ENDROOT
TORSDOF 0
ENDMDL
MODEL 8
REMARK VINA RESULT:      -4.5     12.147     13.134
REMARK  0 active torsions:
REMARK  status: ('A' for Active; 'I' for Inactive)
ROOT
HETATM    1  C1  UNL     1     -34.554  16.447  -5.078  1.00 20.00     0.012 C 
HETATM    2  C2  UNL     1     -35.723  15.460  -5.152  1.00 20.00     0.077 C 
HETATM    3  C3  UNL     1     -33.297  15.912  -4.364  1.00 20.00     0.082 C 
HETATM    4  C4  UNL     1     -34.043  13.579  -4.787  1.00 20.00     0.264 A 
HETATM    5  C5  UNL     1     -35.243  14.098  -5.524  1.00 20.00     0.237 A 
HETATM    6  C6  UNL     1     -33.448  14.509  -3.791  1.00 20.00     0.274 C 
HETATM    7  O7  UNL     1     -35.362  13.103  -4.501  1.00 20.00    -0.332 OA
HETATM    8  F8  UNL     1     -35.407  13.680  -6.835  1.00 20.00    -0.209 F 
HETATM    9  F9  UNL     1     -34.218  14.559  -2.673  1.00 20.00    -0.203 F 
HETATM   10  F10 UNL     1     -32.234  14.046  -3.398  1.00 20.00    -0.203 F 
ENDROOT
TORSDOF 0
ENDMDL
MODEL 9
REMARK VINA RESULT:      -4.4     12.393     12.994
REMARK  0 active torsions:
REMARK  status: ('A' for Active; 'I' for Inactive)
ROOT
HETATM    1  C1  UNL     1     -36.150  15.391  -3.646  1.00 20.00     0.012 C 
HETATM    2  C2  UNL     1     -35.116  16.515  -3.755  1.00 20.00     0.077 C 
HETATM    3  C3  UNL     1     -35.660  14.009  -4.121  1.00 20.00     0.082 C 
HETATM    4  C4  UNL     1     -33.303  14.724  -3.785  1.00 20.00     0.264 A 
HETATM    5  C5  UNL     1     -33.780  16.053  -3.277  1.00 20.00     0.237 A 
HETATM    6  C6  UNL     1     -34.244  14.002  -4.682  1.00 20.00     0.274 C 
HETATM    7  O7  UNL     1     -32.767  15.954  -4.285  1.00 20.00    -0.332 OA
HETATM    8  F8  UNL     1     -33.373  16.426  -2.006  1.00 20.00    -0.209 F 
HETATM    9  F9  UNL     1     -34.247  14.569  -5.918  1.00 20.00    -0.203 F 
HETATM   10  F10 UNL     1     -33.828  12.722  -4.850  1.00 20.00    -0.203 F 
ENDROOT
TORSDOF 0
ENDMDL
