MODEL 1
REMARK VINA RESULT:      -4.8      0.000      0.000
REMARK  0 active torsions:
REMARK  status: ('A' for Active; 'I' for Inactive)
ROOT
HETATM    1  C1  UNL     1     -31.806   7.649   2.796  1.00 20.00     0.015 C 
HETATM    2  C2  UNL     1     -32.631   7.084   3.462  1.00 20.00    -0.076 C 
HETATM    3  C3  UNL     1     -33.922   5.322   6.515  1.00 20.00     0.004 C 
HETATM    4  C4  UNL     1     -35.254   4.775   6.018  1.00 20.00     0.003 C 
HETATM    5  C5  UNL     1     -33.522   6.581   5.750  1.00 20.00     0.055 C 
HETATM    6  C6  UNL     1     -35.140   4.300   4.571  1.00 20.00     0.042 C 
HETATM    7  C7  UNL     1     -33.616   6.409   4.256  1.00 20.00     0.154 A 
HETATM    8  C8  UNL     1     -34.468   5.290   3.657  1.00 20.00     0.102 A 
HETATM    9  C9  UNL     1     -34.274   4.837   2.239  1.00 20.00     0.050 C 
HETATM   10  O10 UNL     1     -34.956   6.628   3.762  1.00 20.00    -0.350 OA
ENDROOT
TORSDOF 0
ENDMDL
MODEL 2
REMARK VINA RESULT:      -4.7     11.708     13.526
REMARK  0 active torsions:
REMARK  status: ('A' for Active; 'I' for Inactive)
ROOT
HETATM    1  C1  UNL     1     -33.504  18.840  -5.107  1.00 20.00     0.015 C 
HETATM    2  C2  UNL     1     -33.593  17.645  -5.028  1.00 20.00    -0.076 C 
HETATM    3  C3  UNL     1     -34.956  14.262  -5.916  1.00 20.00     0.004 C 
HETATM    4  C4  UNL     1     -34.372  13.392  -4.811  1.00 20.00     0.003 C 
HETATM    5  C5  UNL     1     -34.072  15.476  -6.189  1.00 20.00     0.055 C 
HETATM    6  C6  UNL     1     -34.360  14.140  -3.479  1.00 20.00     0.042 C 
HETATM    7  C7  UNL     1     -33.698  16.218  -4.932  1.00 20.00     0.154 A 
HETATM    8  C8  UNL     1     -33.796  15.533  -3.569  1.00 20.00     0.102 A 
HETATM    9  C9  UNL     1     -33.828  16.329  -2.297  1.00 20.00     0.050 C 
HETATM   10  O10 UNL     1     -32.555  15.632  -4.269  1.00 20.00    -0.350 OA
ENDROOT
TORSDOF 0
ENDMDL
MODEL 3
REMARK VINA RESULT:      -4.6     11.924     13.312
REMARK  0 active torsions:
REMARK  status: ('A' for Active; 'I' for Inactive)
ROOT
HETATM    1  C1  UNL     1     -34.426  16.615  -1.128  1.00 20.00     0.015 C 
HETATM    2  C2  UNL     1     -34.582  16.170  -2.232  1.00 20.00    -0.076 C 
HETATM    3  C3  UNL     1     -34.430  13.527  -4.894  1.00 20.00     0.004 C 
HETATM    4  C4  UNL     1     -34.741  14.332  -6.149  1.00 20.00     0.003 C 
HETATM    5  C5  UNL     1     -35.060  14.165  -3.657  1.00 20.00     0.055 C 
HETATM    6  C6  UNL     1     -34.094  15.714  -6.083  1.00 20.00     0.042 C 
HETATM    7  C7  UNL     1     -34.768  15.640  -3.552  1.00 20.00     0.154 A 
HETATM    8  C8  UNL     1     -34.327  16.434  -4.781  1.00 20.00     0.102 A 
HETATM    9  C9  UNL     1     -33.652  17.767  -4.646  1.00 20.00     0.050 C 
HETATM   10  O10 UNL     1     -35.684  16.437  -4.334  1.00 20.00    -0.350 OA
ENDROOT
TORSDOF 0
ENDMDL
MODEL 4
REMARK VINA RESULT:      -4.6     11.994     13.078
REMARK  0 active torsions:
REMARK  status: ('A' for Active; 'I' for Inactive)
ROOT
HETATM    1  C1  UNL     1     -34.667  16.517  -0.939  1.00 20.00     0.015 C 
HETATM    2  C2  UNL     1     -34.585  16.116  -2.068  1.00 20.00    -0.076 C 
HETATM    3  C3  UNL     1     -33.556  16.279  -5.674  1.00 20.00     0.004 C 
HETATM    4  C4  UNL     1     -34.341  15.120  -6.274  1.00 20.00     0.003 C 
HETATM    5  C5  UNL     1     -33.262  16.041  -4.195  1.00 20.00     0.055 C 
HETATM    6  C6  UNL     1     -35.727  15.017  -5.640  1.00 20.00     0.042 C 
HETATM    7  C7  UNL     1     -34.487  15.638  -3.416  1.00 20.00     0.154 A 
HETATM    8  C8  UNL     1     -35.714  15.077  -4.135  1.00 20.00     0.102 A 
HETATM    9  C9  UNL     1     -37.060  15.048  -3.473  1.00 20.00     0.050 C 
HETATM   10  O10 UNL     1     -34.756  14.221  -3.511  1.00 20.00    -0.350 OA
ENDROOT
TORSDOF 0
ENDMDL
MODEL 5
REMARK VINA RESULT:      -4.6     12.188     13.754
REMARK  0 active torsions:
REMARK  status: ('A' for Active; 'I' for Inactive)
ROOT
HETATM    1  C1  UNL     1     -34.689  14.772  -7.108  1.00 20.00     0.015 C 
HETATM    2  C2  UNL     1     -34.401  15.190  -6.019  1.00 20.00    -0.076 C 
HETATM    3  C3  UNL     1     -34.855  15.672  -2.324  1.00 20.00     0.004 C 
HETATM    4  C4  UNL     1     -33.824  16.752  -2.023  1.00 20.00     0.003 C 
HETATM    5  C5  UNL     1     -34.446  14.841  -3.538  1.00 20.00     0.055 C 
HETATM    6  C6  UNL     1     -33.759  17.773  -3.157  1.00 20.00     0.042 C 
HETATM    7  C7  UNL     1     -34.057  15.691  -4.720  1.00 20.00     0.154 A 
HETATM    8  C8  UNL     1     -33.663  17.155  -4.527  1.00 20.00     0.102 A 
HETATM    9  C9  UNL     1     -33.666  18.121  -5.676  1.00 20.00     0.050 C 
HETATM   10  O10 UNL     1     -32.681  16.127  -4.653  1.00 20.00    -0.350 OA
ENDROOT
TORSDOF 0
ENDMDL
MODEL 6
REMARK VINA RESULT:      -4.5     11.499     13.568
REMARK  0 active torsions:
REMARK  status: ('A' for Active; 'I' for Inactive)
ROOT
HETATM    1  C1  UNL     1     -34.449  16.504  -1.230  1.00 20.00     0.015 C 
HETATM    2  C2  UNL     1     -34.262  16.378  -2.410  1.00 20.00    -0.076 C 
HETATM    3  C3  UNL     1     -34.661  17.264  -6.036  1.00 20.00     0.004 C 
HETATM    4  C4  UNL     1     -34.039  16.054  -6.721  1.00 20.00     0.003 C 
HETATM    5  C5  UNL     1     -34.060  17.484  -4.650  1.00 20.00     0.055 C 
HETATM    6  C6  UNL     1     -34.379  14.769  -5.970  1.00 20.00     0.042 C 
HETATM    7  C7  UNL     1     -34.040  16.227  -3.819  1.00 20.00     0.154 A 
HETATM    8  C8  UNL     1     -34.152  14.856  -4.483  1.00 20.00     0.102 A 
HETATM    9  C9  UNL     1     -34.537  13.637  -3.696  1.00 20.00     0.050 C 
HETATM   10  O10 UNL     1     -32.889  15.401  -4.101  1.00 20.00    -0.350 OA
ENDROOT
TORSDOF 0
ENDMDL
MODEL 7
REMARK VINA RESULT:      -4.3     11.797     13.625
REMARK  0 active torsions:
REMARK  status: ('A' for Active; 'I' for Inactive)
ROOT
HETATM    1  C1  UNL     1     -34.351  18.013  -7.146  1.00 20.00     0.015 C 
HETATM    2  C2  UNL     1     -34.359  17.111  -6.353  1.00 20.00    -0.076 C 
HETATM    3  C3  UNL     1     -32.905  14.902  -3.689  1.00 20.00     0.004 C 
HETATM    4  C4  UNL     1     -33.939  13.787  -3.611  1.00 20.00     0.003 C 
HETATM    5  C5  UNL     1     -33.535  16.209  -4.165  1.00 20.00     0.055 C 
HETATM    6  C6  UNL     1     -34.477  13.446  -4.999  1.00 20.00     0.042 C 
HETATM    7  C7  UNL     1     -34.370  16.033  -5.407  1.00 20.00     0.154 A 
HETATM    8  C8  UNL     1     -34.886  14.651  -5.805  1.00 20.00     0.102 A 
HETATM    9  C9  UNL     1     -35.357  14.367  -7.202  1.00 20.00     0.050 C 
HETATM   10  O10 UNL     1     -35.711  15.585  -5.108  1.00 20.00    -0.350 OA
ENDROOT
TORSDOF 0
ENDMDL
MODEL 8
REMARK VINA RESULT:      -4.3     11.927     13.943
REMARK  0 active torsions:
REMARK  status: ('A' for Active; 'I' for Inactive)
ROOT
HETATM    1  C1  UNL     1     -34.721  18.258  -7.030  1.00 20.00     0.015 C 
HETATM    2  C2  UNL     1     -34.429  17.295  -6.374  1.00 20.00    -0.076 C 
HETATM    3  C3  UNL     1     -34.789  13.760  -5.164  1.00 20.00     0.004 C 
HETATM    4  C4  UNL     1     -33.840  13.741  -3.973  1.00 20.00     0.003 C 
HETATM    5  C5  UNL     1     -34.357  14.796  -6.199  1.00 20.00     0.055 C 
HETATM    6  C6  UNL     1     -33.899  15.063  -3.210  1.00 20.00     0.042 C 
HETATM    7  C7  UNL     1     -34.081  16.146  -5.589  1.00 20.00     0.154 A 
HETATM    8  C8  UNL     1     -33.802  16.279  -4.092  1.00 20.00     0.102 A 
HETATM    9  C9  UNL     1     -33.925  17.601  -3.391  1.00 20.00     0.050 C 
HETATM   10  O10 UNL     1     -32.744  16.241  -5.050  1.00 20.00    -0.350 OA
ENDROOT
TORSDOF 0
ENDMDL
MODEL 9
REMARK VINA RESULT:      -4.2     11.542     12.830
REMARK  0 active torsions:
REMARK  status: ('A' for Active; 'I' for Inactive)
ROOT
HETATM    1  C1  UNL     1     -38.487  14.762  -3.831  1.00 20.00     0.015 C 
HETATM    2  C2  UNL     1     -37.291  14.862  -3.873  1.00 20.00    -0.076 C 
HETATM    3  C3  UNL     1     -33.758  13.606  -3.696  1.00 20.00     0.004 C 
HETATM    4  C4  UNL     1     -32.967  14.908  -3.680  1.00 20.00     0.003 C 
HETATM    5  C5  UNL     1     -35.095  13.782  -4.412  1.00 20.00     0.055 C 
HETATM    6  C6  UNL     1     -33.686  15.971  -2.851  1.00 20.00     0.042 C 
HETATM    7  C7  UNL     1     -35.863  14.983  -3.924  1.00 20.00     0.154 A 
HETATM    8  C8  UNL     1     -35.149  16.110  -3.179  1.00 20.00     0.102 A 
HETATM    9  C9  UNL     1     -35.910  17.096  -2.342  1.00 20.00     0.050 C 
HETATM   10  O10 UNL     1     -35.444  16.203  -4.573  1.00 20.00    -0.350 OA
ENDROOT
TORSDOF 0
ENDMDL
