MODEL 1
REMARK VINA RESULT:      -5.1      0.000      0.000
REMARK  3 active torsions:
REMARK  status: ('A' for Active; 'I' for Inactive)
REMARK    1  A    between atoms: C1_1  and  C2_2 
REMARK    2  A    between atoms: C4_4  and  C9_9 
REMARK    3  A    between atoms: C5_5  and  C9_9 
ROOT
HETATM    1  C2  UNL     1     -32.225   7.310   3.028  1.00 20.00    -0.004 C 
HETATM    2  C4  UNL     1     -33.146   6.360   3.253  1.00 20.00    -0.015 C 
ENDROOT
BRANCH   2   3
HETATM    3  C9  UNL     1     -33.508   5.861   4.627  1.00 20.00     0.073 C 
HETATM    4  C8  UNL     1     -33.585   7.005   5.631  1.00 20.00     0.022 C 
BRANCH   3   5
HETATM    5  C5  UNL     1     -34.851   5.138   4.561  1.00 20.00     0.130 C 
HETATM    6  C7  UNL     1     -35.081   4.050   5.580  1.00 20.00     0.091 C 
HETATM    7  O10 UNL     1     -35.701   5.387   3.706  1.00 20.00    -0.298 OA
ENDBRANCH   3   5
ENDBRANCH   2   3
BRANCH   1   8
HETATM    8  C1  UNL     1     -31.884   7.784   1.706  1.00 20.00    -0.005 C 
HETATM    9  C3  UNL     1     -32.143   9.031   1.285  1.00 20.00    -0.031 C 
HETATM   10  C6  UNL     1     -32.809  10.068   2.127  1.00 20.00     0.036 C 
ENDBRANCH   1   8
TORSDOF 3
ENDMDL
MODEL 2
REMARK VINA RESULT:      -5.1      1.501      1.827
REMARK  3 active torsions:
REMARK  status: ('A' for Active; 'I' for Inactive)
REMARK    1  A    between atoms: C1_1  and  C2_2 
REMARK    2  A    between atoms: C4_4  and  C9_9 
REMARK    3  A    between atoms: C5_5  and  C9_9 
ROOT
HETATM    1  C2  UNL     1     -32.996   7.423   2.889  1.00 20.00    -0.004 C 
HETATM    2  C4  UNL     1     -33.234   6.369   3.685  1.00 20.00    -0.015 C 
ENDROOT
BRANCH   2   3
HETATM    3  C9  UNL     1     -34.508   6.187   4.466  1.00 20.00     0.073 C 
HETATM    4  C8  UNL     1     -35.310   4.997   3.951  1.00 20.00     0.022 C 
BRANCH   3   5
HETATM    5  C5  UNL     1     -34.170   5.984   5.941  1.00 20.00     0.130 C 
HETATM    6  C7  UNL     1     -34.564   4.660   6.546  1.00 20.00     0.091 C 
HETATM    7  O10 UNL     1     -33.639   6.856   6.629  1.00 20.00    -0.298 OA
ENDBRANCH   3   5
ENDBRANCH   2   3
BRANCH   1   8
HETATM    8  C1  UNL     1     -31.770   7.589   2.142  1.00 20.00    -0.005 C 
HETATM    9  C3  UNL     1     -31.538   8.636   1.338  1.00 20.00    -0.031 C 
HETATM   10  C6  UNL     1     -32.512   9.746   1.121  1.00 20.00     0.036 C 
ENDBRANCH   1   8
TORSDOF 3
ENDMDL
MODEL 3
REMARK VINA RESULT:      -4.8     10.308     11.231
REMARK  3 active torsions:
REMARK  status: ('A' for Active; 'I' for Inactive)
REMARK    1  A    between atoms: C1_1  and  C2_2 
REMARK    2  A    between atoms: C4_4  and  C9_9 
REMARK    3  A    between atoms: C5_5  and  C9_9 
ROOT
HETATM    1  C2  UNL     1     -34.726  16.315  -1.517  1.00 20.00    -0.004 C 
HETATM    2  C4  UNL     1     -34.591  15.863  -2.773  1.00 20.00    -0.015 C 
ENDROOT
BRANCH   2   3
HETATM    3  C9  UNL     1     -35.472  14.800  -3.374  1.00 20.00     0.073 C 
HETATM    4  C8  UNL     1     -36.295  15.351  -4.532  1.00 20.00     0.022 C 
BRANCH   3   5
HETATM    5  C5  UNL     1     -34.604  13.642  -3.860  1.00 20.00     0.130 C 
HETATM    6  C7  UNL     1     -33.114  13.795  -3.679  1.00 20.00     0.091 C 
HETATM    7  O10 UNL     1     -35.071  12.644  -4.410  1.00 20.00    -0.298 OA
ENDBRANCH   3   5
ENDBRANCH   2   3
BRANCH   1   8
HETATM    8  C1  UNL     1     -33.876  17.337  -0.948  1.00 20.00    -0.005 C 
HETATM    9  C3  UNL     1     -34.117  17.914   0.238  1.00 20.00    -0.031 C 
HETATM   10  C6  UNL     1     -35.284  17.573   1.104  1.00 20.00     0.036 C 
ENDBRANCH   1   8
TORSDOF 3
ENDMDL
MODEL 4
REMARK VINA RESULT:      -4.7     10.698     11.284
REMARK  3 active torsions:
REMARK  status: ('A' for Active; 'I' for Inactive)
REMARK    1  A    between atoms: C1_1  and  C2_2 
REMARK    2  A    between atoms: C4_4  and  C9_9 
REMARK    3  A    between atoms: C5_5  and  C9_9 
ROOT
HETATM    1  C2  UNL     1     -34.142  16.564  -1.610  1.00 20.00    -0.004 C 
HETATM    2  C4  UNL     1     -34.886  15.719  -2.340  1.00 20.00    -0.015 C 
ENDROOT
BRANCH   2   3
HETATM    3  C9  UNL     1     -34.438  15.139  -3.655  1.00 20.00     0.073 C 
HETATM    4  C8  UNL     1     -33.009  14.614  -3.572  1.00 20.00     0.022 C 
BRANCH   3   5
HETATM    5  C5  UNL     1     -35.383  14.007  -4.054  1.00 20.00     0.130 C 
HETATM    6  C7  UNL     1     -36.846  14.357  -4.156  1.00 20.00     0.091 C 
HETATM    7  O10 UNL     1     -34.997  12.854  -4.247  1.00 20.00    -0.298 OA
ENDBRANCH   3   5
ENDBRANCH   2   3
BRANCH   1   8
HETATM    8  C1  UNL     1     -34.580  17.116  -0.348  1.00 20.00    -0.005 C 
HETATM    9  C3  UNL     1     -33.922  18.094   0.292  1.00 20.00    -0.031 C 
HETATM   10  C6  UNL     1     -32.669  18.724  -0.221  1.00 20.00     0.036 C 
ENDBRANCH   1   8
TORSDOF 3
ENDMDL
MODEL 5
REMARK VINA RESULT:      -4.7      2.008      5.036
REMARK  3 active torsions:
REMARK  status: ('A' for Active; 'I' for Inactive)
REMARK    1  A    between atoms: C1_1  and  C2_2 
REMARK    2  A    between atoms: C4_4  and  C9_9 
REMARK    3  A    between atoms: C5_5  and  C9_9 
ROOT
HETATM    1  C2  UNL     1     -34.033   6.368   3.924  1.00 20.00    -0.004 C 
HETATM    2  C4  UNL     1     -33.076   6.716   3.050  1.00 20.00    -0.015 C 
ENDROOT
BRANCH   2   3
HETATM    3  C9  UNL     1     -32.240   7.961   3.183  1.00 20.00     0.073 C 
HETATM    4  C8  UNL     1     -30.870   7.650   3.774  1.00 20.00     0.022 C 
BRANCH   3   5
HETATM    5  C5  UNL     1     -32.077   8.607   1.809  1.00 20.00     0.130 C 
HETATM    6  C7  UNL     1     -32.655   9.990   1.642  1.00 20.00     0.091 C 
HETATM    7  O10 UNL     1     -31.541   8.031   0.861  1.00 20.00    -0.298 OA
ENDBRANCH   3   5
ENDBRANCH   2   3
BRANCH   1   8
HETATM    8  C1  UNL     1     -34.830   5.170   3.789  1.00 20.00    -0.005 C 
HETATM    9  C3  UNL     1     -35.204   4.417   4.834  1.00 20.00    -0.031 C 
HETATM   10  C6  UNL     1     -34.843   4.726   6.250  1.00 20.00     0.036 C 
ENDBRANCH   1   8
TORSDOF 3
ENDMDL
MODEL 6
REMARK VINA RESULT:      -4.4     11.095     12.114
REMARK  3 active torsions:
REMARK  status: ('A' for Active; 'I' for Inactive)
REMARK    1  A    between atoms: C1_1  and  C2_2 
REMARK    2  A    between atoms: C4_4  and  C9_9 
REMARK    3  A    between atoms: C5_5  and  C9_9 
ROOT
HETATM    1  C2  UNL     1     -34.088  16.337  -2.018  1.00 20.00    -0.004 C 
HETATM    2  C4  UNL     1     -34.445  15.238  -2.700  1.00 20.00    -0.015 C 
ENDROOT
BRANCH   2   3
HETATM    3  C9  UNL     1     -33.729  14.756  -3.934  1.00 20.00     0.073 C 
HETATM    4  C8  UNL     1     -34.344  13.466  -4.465  1.00 20.00     0.022 C 
BRANCH   3   5
HETATM    5  C5  UNL     1     -33.792  15.840  -5.008  1.00 20.00     0.130 C 
HETATM    6  C7  UNL     1     -35.024  15.854  -5.879  1.00 20.00     0.091 C 
HETATM    7  O10 UNL     1     -32.880  16.645  -5.197  1.00 20.00    -0.298 OA
ENDBRANCH   3   5
ENDBRANCH   2   3
BRANCH   1   8
HETATM    8  C1  UNL     1     -34.781  16.792  -0.834  1.00 20.00    -0.005 C 
HETATM    9  C3  UNL     1     -34.282  17.721  -0.005  1.00 20.00    -0.031 C 
HETATM   10  C6  UNL     1     -32.962  18.389  -0.206  1.00 20.00     0.036 C 
ENDBRANCH   1   8
TORSDOF 3
ENDMDL
MODEL 7
REMARK VINA RESULT:      -4.1     10.706     11.718
REMARK  3 active torsions:
REMARK  status: ('A' for Active; 'I' for Inactive)
REMARK    1  A    between atoms: C1_1  and  C2_2 
REMARK    2  A    between atoms: C4_4  and  C9_9 
REMARK    3  A    between atoms: C5_5  and  C9_9 
ROOT
HETATM    1  C2  UNL     1     -34.460  16.205  -2.510  1.00 20.00    -0.004 C 
HETATM    2  C4  UNL     1     -34.460  16.540  -1.211  1.00 20.00    -0.015 C 
ENDROOT
BRANCH   2   3
HETATM    3  C9  UNL     1     -33.596  17.628  -0.632  1.00 20.00     0.073 C 
HETATM    4  C8  UNL     1     -33.487  18.815  -1.582  1.00 20.00     0.022 C 
BRANCH   3   5
HETATM    5  C5  UNL     1     -34.188  18.085   0.700  1.00 20.00     0.130 C 
HETATM    6  C7  UNL     1     -35.667  17.863   0.891  1.00 20.00     0.091 C 
HETATM    7  O10 UNL     1     -33.518  18.642   1.571  1.00 20.00    -0.298 OA
ENDBRANCH   3   5
ENDBRANCH   2   3
BRANCH   1   8
HETATM    8  C1  UNL     1     -35.294  15.159  -3.058  1.00 20.00    -0.005 C 
HETATM    9  C3  UNL     1     -34.799  14.056  -3.638  1.00 20.00    -0.031 C 
HETATM   10  C6  UNL     1     -33.339  13.781  -3.786  1.00 20.00     0.036 C 
ENDBRANCH   1   8
TORSDOF 3
ENDMDL
MODEL 8
REMARK VINA RESULT:      -4.1     10.951     12.218
REMARK  3 active torsions:
REMARK  status: ('A' for Active; 'I' for Inactive)
REMARK    1  A    between atoms: C1_1  and  C2_2 
REMARK    2  A    between atoms: C4_4  and  C9_9 
REMARK    3  A    between atoms: C5_5  and  C9_9 
ROOT
HETATM    1  C2  UNL     1     -35.294  14.819  -3.374  1.00 20.00    -0.004 C 
HETATM    2  C4  UNL     1     -34.431  15.559  -2.660  1.00 20.00    -0.015 C 
ENDROOT
BRANCH   2   3
HETATM    3  C9  UNL     1     -34.789  16.881  -2.034  1.00 20.00     0.073 C 
HETATM    4  C8  UNL     1     -34.632  16.838  -0.519  1.00 20.00     0.022 C 
BRANCH   3   5
HETATM    5  C5  UNL     1     -33.892  17.971  -2.617  1.00 20.00     0.130 C 
HETATM    6  C7  UNL     1     -33.767  18.009  -4.120  1.00 20.00     0.091 C 
HETATM    7  O10 UNL     1     -33.264  18.764  -1.914  1.00 20.00    -0.298 OA
ENDBRANCH   3   5
ENDBRANCH   2   3
BRANCH   1   8
HETATM    8  C1  UNL     1     -34.942  13.550  -3.970  1.00 20.00    -0.005 C 
HETATM    9  C3  UNL     1     -34.695  13.399  -5.280  1.00 20.00    -0.031 C 
HETATM   10  C6  UNL     1     -34.752  14.517  -6.268  1.00 20.00     0.036 C 
ENDBRANCH   1   8
TORSDOF 3
ENDMDL
MODEL 9
REMARK VINA RESULT:      -4.1     10.649     11.864
REMARK  3 active torsions:
REMARK  status: ('A' for Active; 'I' for Inactive)
REMARK    1  A    between atoms: C1_1  and  C2_2 
REMARK    2  A    between atoms: C4_4  and  C9_9 
REMARK    3  A    between atoms: C5_5  and  C9_9 
ROOT
HETATM    1  C2  UNL     1     -34.628  15.178  -3.231  1.00 20.00    -0.004 C 
HETATM    2  C4  UNL     1     -33.680  15.985  -2.728  1.00 20.00    -0.015 C 
ENDROOT
BRANCH   2   3
HETATM    3  C9  UNL     1     -33.913  17.434  -2.393  1.00 20.00     0.073 C 
HETATM    4  C8  UNL     1     -35.305  17.885  -2.820  1.00 20.00     0.022 C 
BRANCH   3   5
HETATM    5  C5  UNL     1     -33.742  17.636  -0.889  1.00 20.00     0.130 C 
HETATM    6  C7  UNL     1     -34.832  17.082  -0.007  1.00 20.00     0.091 C 
HETATM    7  O10 UNL     1     -32.792  18.251  -0.403  1.00 20.00    -0.298 OA
ENDBRANCH   3   5
ENDBRANCH   2   3
BRANCH   1   8
HETATM    8  C1  UNL     1     -34.395  13.787  -3.548  1.00 20.00    -0.005 C 
HETATM    9  C3  UNL     1     -34.573  13.276  -4.776  1.00 20.00    -0.031 C 
HETATM   10  C6  UNL     1     -35.029  14.078  -5.949  1.00 20.00     0.036 C 
ENDBRANCH   1   8
TORSDOF 3
ENDMDL
