MODEL 1
REMARK VINA RESULT:      -5.2      0.000      0.000
REMARK  1 active torsions:
REMARK  status: ('A' for Active; 'I' for Inactive)
REMARK    1  A    between atoms: C3_3  and  C9_9 
ROOT
HETATM    1  C1  UNL     1     -35.628  15.322  -6.342  1.00 20.00    -0.030 C 
HETATM    2  C2  UNL     1     -34.379  14.974  -5.997  1.00 20.00    -0.026 C 
HETATM    3  C4  UNL     1     -36.826  14.982  -5.496  1.00 20.00     0.031 C 
HETATM    4  C5  UNL     1     -33.517  15.098  -3.647  1.00 20.00     0.022 C 
HETATM    5  C6  UNL     1     -35.312  13.438  -4.253  1.00 20.00     0.013 C 
HETATM    6  C7  UNL     1     -35.984  15.653  -3.188  1.00 20.00     0.018 C 
HETATM    7  C8  UNL     1     -34.060  14.173  -4.752  1.00 20.00     0.009 C 
HETATM    8  C9  UNL     1     -34.576  15.491  -2.602  1.00 20.00     0.073 C 
HETATM    9  C10 UNL     1     -36.430  14.475  -4.091  1.00 20.00    -0.010 C 
ENDROOT
BRANCH   8  10
HETATM   10  C3  UNL     1     -34.174  16.766  -1.925  1.00 20.00     0.223 C 
HETATM   11  O11 UNL     1     -33.541  17.638  -2.514  1.00 20.00    -0.279 OA
HETATM   12 CL12 UNL     1     -34.706  16.825  -0.272  1.00 20.00    -0.043 Cl
ENDBRANCH   8  10
TORSDOF 1
ENDMDL
MODEL 2
REMARK VINA RESULT:      -5.1      1.230      1.489
REMARK  1 active torsions:
REMARK  status: ('A' for Active; 'I' for Inactive)
REMARK    1  A    between atoms: C3_3  and  C9_9 
ROOT
HETATM    1  C1  UNL     1     -34.387  15.589  -5.969  1.00 20.00    -0.030 C 
HETATM    2  C2  UNL     1     -33.336  15.936  -5.209  1.00 20.00    -0.026 C 
HETATM    3  C4  UNL     1     -35.390  14.552  -5.539  1.00 20.00     0.031 C 
HETATM    4  C5  UNL     1     -33.472  16.218  -2.723  1.00 20.00     0.022 C 
HETATM    5  C6  UNL     1     -33.755  13.938  -3.757  1.00 20.00     0.013 C 
HETATM    6  C7  UNL     1     -35.829  15.283  -3.139  1.00 20.00     0.018 C 
HETATM    7  C8  UNL     1     -33.037  15.290  -3.873  1.00 20.00     0.009 C 
HETATM    8  C9  UNL     1     -34.834  15.841  -2.114  1.00 20.00     0.073 C 
HETATM    9  C10 UNL     1     -35.242  14.174  -4.048  1.00 20.00    -0.010 C 
ENDROOT
BRANCH   8  10
HETATM   10  C3  UNL     1     -35.438  17.035  -1.440  1.00 20.00     0.223 C 
HETATM   11  O11 UNL     1     -36.226  17.775  -2.020  1.00 20.00    -0.279 OA
HETATM   12 CL12 UNL     1     -34.886  17.209   0.199  1.00 20.00    -0.043 Cl
ENDBRANCH   8  10
TORSDOF 1
ENDMDL
MODEL 3
REMARK VINA RESULT:      -5.1      2.776      4.202
REMARK  1 active torsions:
REMARK  status: ('A' for Active; 'I' for Inactive)
REMARK    1  A    between atoms: C3_3  and  C9_9 
ROOT
HETATM    1  C1  UNL     1     -35.016  18.386  -3.493  1.00 20.00    -0.030 C 
HETATM    2  C2  UNL     1     -36.106  17.629  -3.288  1.00 20.00    -0.026 C 
HETATM    3  C4  UNL     1     -33.663  18.022  -2.944  1.00 20.00     0.031 C 
HETATM    4  C5  UNL     1     -36.072  15.124  -3.366  1.00 20.00     0.022 C 
HETATM    5  C6  UNL     1     -34.860  16.352  -1.530  1.00 20.00     0.013 C 
HETATM    6  C7  UNL     1     -33.547  15.554  -3.562  1.00 20.00     0.018 C 
HETATM    7  C8  UNL     1     -36.086  16.366  -2.453  1.00 20.00     0.009 C 
HETATM    8  C9  UNL     1     -34.672  14.513  -3.547  1.00 20.00     0.073 C 
HETATM    9  C10 UNL     1     -33.617  16.576  -2.400  1.00 20.00    -0.010 C 
ENDROOT
BRANCH   8  10
HETATM   10  C3  UNL     1     -34.625  13.716  -4.815  1.00 20.00     0.223 C 
HETATM   11  O11 UNL     1     -34.737  12.494  -4.814  1.00 20.00    -0.279 OA
HETATM   12 CL12 UNL     1     -34.401  14.724  -6.213  1.00 20.00    -0.043 Cl
ENDBRANCH   8  10
TORSDOF 1
ENDMDL
MODEL 4
REMARK VINA RESULT:      -5.0      1.390      2.634
REMARK  1 active torsions:
REMARK  status: ('A' for Active; 'I' for Inactive)
REMARK    1  A    between atoms: C3_3  and  C9_9 
ROOT
HETATM    1  C1  UNL     1     -34.720  13.364  -4.067  1.00 20.00    -0.030 C 
HETATM    2  C2  UNL     1     -35.650  14.174  -4.597  1.00 20.00    -0.026 C 
HETATM    3  C4  UNL     1     -33.320  13.828  -3.767  1.00 20.00     0.031 C 
HETATM    4  C5  UNL     1     -35.937  16.568  -3.915  1.00 20.00     0.022 C 
HETATM    5  C6  UNL     1     -33.860  15.839  -5.140  1.00 20.00     0.013 C 
HETATM    6  C7  UNL     1     -33.793  16.043  -2.601  1.00 20.00     0.018 C 
HETATM    7  C8  UNL     1     -35.370  15.611  -4.980  1.00 20.00     0.009 C 
HETATM    8  C9  UNL     1     -34.877  17.077  -2.922  1.00 20.00     0.073 C 
HETATM    9  C10 UNL     1     -33.178  15.365  -3.851  1.00 20.00    -0.010 C 
ENDROOT
BRANCH   8  10
HETATM   10  C3  UNL     1     -35.539  17.511  -1.650  1.00 20.00     0.223 C 
HETATM   11  O11 UNL     1     -36.532  18.231  -1.651  1.00 20.00    -0.279 OA
HETATM   12 CL12 UNL     1     -34.736  16.876  -0.246  1.00 20.00    -0.043 Cl
ENDBRANCH   8  10
TORSDOF 1
ENDMDL
MODEL 5
REMARK VINA RESULT:      -5.0      2.457      3.312
REMARK  1 active torsions:
REMARK  status: ('A' for Active; 'I' for Inactive)
REMARK    1  A    between atoms: C3_3  and  C9_9 
ROOT
HETATM    1  C1  UNL     1     -33.561  16.877  -5.277  1.00 20.00    -0.030 C 
HETATM    2  C2  UNL     1     -33.660  16.741  -3.945  1.00 20.00    -0.026 C 
HETATM    3  C4  UNL     1     -33.792  15.732  -6.226  1.00 20.00     0.031 C 
HETATM    4  C5  UNL     1     -35.445  15.379  -2.832  1.00 20.00     0.022 C 
HETATM    5  C6  UNL     1     -33.672  14.252  -4.222  1.00 20.00     0.013 C 
HETATM    6  C7  UNL     1     -35.939  14.749  -5.273  1.00 20.00     0.018 C 
HETATM    7  C8  UNL     1     -33.969  15.420  -3.272  1.00 20.00     0.009 C 
HETATM    8  C9  UNL     1     -36.353  14.605  -3.803  1.00 20.00     0.073 C 
HETATM    9  C10 UNL     1     -34.431  14.508  -5.530  1.00 20.00    -0.010 C 
ENDROOT
BRANCH   8  10
HETATM   10  C3  UNL     1     -37.772  15.058  -3.643  1.00 20.00     0.223 C 
HETATM   11  O11 UNL     1     -38.715  14.282  -3.767  1.00 20.00    -0.279 OA
HETATM   12 CL12 UNL     1     -37.880  16.752  -3.274  1.00 20.00    -0.043 Cl
ENDBRANCH   8  10
TORSDOF 1
ENDMDL
MODEL 6
REMARK VINA RESULT:      -5.0      2.490      3.474
REMARK  1 active torsions:
REMARK  status: ('A' for Active; 'I' for Inactive)
REMARK    1  A    between atoms: C3_3  and  C9_9 
ROOT
HETATM    1  C1  UNL     1     -32.914  15.376  -3.797  1.00 20.00    -0.030 C 
HETATM    2  C2  UNL     1     -33.455  14.148  -3.821  1.00 20.00    -0.026 C 
HETATM    3  C4  UNL     1     -33.256  16.431  -4.815  1.00 20.00     0.031 C 
HETATM    4  C5  UNL     1     -35.866  13.719  -4.352  1.00 20.00     0.022 C 
HETATM    5  C6  UNL     1     -34.312  14.594  -6.131  1.00 20.00     0.013 C 
HETATM    6  C7  UNL     1     -35.795  16.235  -4.867  1.00 20.00     0.018 C 
HETATM    7  C8  UNL     1     -34.424  13.694  -4.892  1.00 20.00     0.009 C 
HETATM    8  C9  UNL     1     -36.656  14.970  -4.772  1.00 20.00     0.073 C 
HETATM    9  C10 UNL     1     -34.484  16.047  -5.671  1.00 20.00    -0.010 C 
ENDROOT
BRANCH   8  10
HETATM   10  C3  UNL     1     -37.780  15.209  -3.810  1.00 20.00     0.223 C 
HETATM   11  O11 UNL     1     -38.614  14.343  -3.564  1.00 20.00    -0.279 OA
HETATM   12 CL12 UNL     1     -37.731  16.807  -3.130  1.00 20.00    -0.043 Cl
ENDBRANCH   8  10
TORSDOF 1
ENDMDL
MODEL 7
REMARK VINA RESULT:      -4.9      2.537      3.629
REMARK  1 active torsions:
REMARK  status: ('A' for Active; 'I' for Inactive)
REMARK    1  A    between atoms: C3_3  and  C9_9 
ROOT
HETATM    1  C1  UNL     1     -33.627  18.188  -4.185  1.00 20.00    -0.030 C 
HETATM    2  C2  UNL     1     -33.780  17.684  -2.950  1.00 20.00    -0.026 C 
HETATM    3  C4  UNL     1     -33.492  17.314  -5.404  1.00 20.00     0.031 C 
HETATM    4  C5  UNL     1     -35.233  15.706  -2.444  1.00 20.00     0.022 C 
HETATM    5  C6  UNL     1     -33.140  15.423  -3.816  1.00 20.00     0.013 C 
HETATM    6  C7  UNL     1     -35.379  15.651  -5.008  1.00 20.00     0.018 C 
HETATM    7  C8  UNL     1     -33.790  16.198  -2.661  1.00 20.00     0.009 C 
HETATM    8  C9  UNL     1     -35.844  15.032  -3.685  1.00 20.00     0.073 C 
HETATM    9  C10 UNL     1     -33.845  15.838  -5.113  1.00 20.00    -0.010 C 
ENDROOT
BRANCH   8  10
HETATM   10  C3  UNL     1     -37.339  15.090  -3.610  1.00 20.00     0.223 C 
HETATM   11  O11 UNL     1     -38.034  14.095  -3.795  1.00 20.00    -0.279 OA
HETATM   12 CL12 UNL     1     -37.915  16.688  -3.243  1.00 20.00    -0.043 Cl
ENDBRANCH   8  10
TORSDOF 1
ENDMDL
MODEL 8
REMARK VINA RESULT:      -4.9      2.936      4.255
REMARK  1 active torsions:
REMARK  status: ('A' for Active; 'I' for Inactive)
REMARK    1  A    between atoms: C3_3  and  C9_9 
ROOT
HETATM    1  C1  UNL     1     -35.115  15.930  -2.459  1.00 20.00    -0.030 C 
HETATM    2  C2  UNL     1     -35.732  14.898  -3.055  1.00 20.00    -0.026 C 
HETATM    3  C4  UNL     1     -33.670  16.264  -2.713  1.00 20.00     0.031 C 
HETATM    4  C5  UNL     1     -35.383  14.292  -5.461  1.00 20.00     0.022 C 
HETATM    5  C6  UNL     1     -33.507  14.026  -3.801  1.00 20.00     0.013 C 
HETATM    6  C7  UNL     1     -33.587  16.117  -5.254  1.00 20.00     0.018 C 
HETATM    7  C8  UNL     1     -35.027  13.950  -4.002  1.00 20.00     0.009 C 
HETATM    8  C9  UNL     1     -34.305  15.125  -6.176  1.00 20.00     0.073 C 
HETATM    9  C10 UNL     1     -33.091  15.497  -3.924  1.00 20.00    -0.010 C 
ENDROOT
BRANCH   8  10
HETATM   10  C3  UNL     1     -34.916  15.869  -7.323  1.00 20.00     0.223 C 
HETATM   11  O11 UNL     1     -34.420  16.904  -7.759  1.00 20.00    -0.279 OA
HETATM   12 CL12 UNL     1     -36.353  15.094  -7.916  1.00 20.00    -0.043 Cl
ENDBRANCH   8  10
TORSDOF 1
ENDMDL
MODEL 9
REMARK VINA RESULT:      -4.8      1.524      1.745
REMARK  1 active torsions:
REMARK  status: ('A' for Active; 'I' for Inactive)
REMARK    1  A    between atoms: C3_3  and  C9_9 
ROOT
HETATM    1  C1  UNL     1     -34.415  15.885  -5.897  1.00 20.00    -0.030 C 
HETATM    2  C2  UNL     1     -33.339  16.155  -5.141  1.00 20.00    -0.026 C 
HETATM    3  C4  UNL     1     -35.442  14.857  -5.504  1.00 20.00     0.031 C 
HETATM    4  C5  UNL     1     -33.416  16.297  -2.641  1.00 20.00     0.022 C 
HETATM    5  C6  UNL     1     -33.793  14.091  -3.797  1.00 20.00     0.013 C 
HETATM    6  C7  UNL     1     -35.810  15.462  -3.058  1.00 20.00     0.018 C 
HETATM    7  C8  UNL     1     -33.034  15.424  -3.851  1.00 20.00     0.009 C 
HETATM    8  C9  UNL     1     -34.777  15.929  -2.025  1.00 20.00     0.073 C 
HETATM    9  C10 UNL     1     -35.278  14.389  -4.040  1.00 20.00    -0.010 C 
ENDROOT
BRANCH   8  10
HETATM   10  C3  UNL     1     -35.328  17.100  -1.271  1.00 20.00     0.223 C 
HETATM   11  O11 UNL     1     -35.091  17.271  -0.079  1.00 20.00    -0.279 OA
HETATM   12 CL12 UNL     1     -36.300  18.130  -2.279  1.00 20.00    -0.043 Cl
ENDBRANCH   8  10
TORSDOF 1
ENDMDL
