MODEL 1
REMARK VINA RESULT:      -4.4      0.000      0.000
REMARK  1 active torsions:
REMARK  status: ('A' for Active; 'I' for Inactive)
REMARK    1  A    between atoms: C1_1  and  C5_5 
ROOT
HETATM    1  C2  UNL     1     -36.116  15.465  -4.182  1.00 20.00     0.015 C 
HETATM    2  C3  UNL     1     -35.761  16.951  -4.186  1.00 20.00     0.026 C 
HETATM    3  C4  UNL     1     -34.157  15.906  -2.767  1.00 20.00     0.038 C 
HETATM    4  C5  UNL     1     -35.155  14.813  -3.179  1.00 20.00     0.074 C 
HETATM    5  C6  UNL     1     -34.273  16.995  -3.841  1.00 20.00     0.034 C 
HETATM    6  C7  UNL     1     -33.820  18.363  -3.349  1.00 20.00     0.032 C 
HETATM    7 CL10 UNL     1     -33.293  16.548  -5.281  1.00 20.00    -0.120 Cl
ENDROOT
BRANCH   4   8
HETATM    8  C1  UNL     1     -34.460  13.627  -3.777  1.00 20.00     0.223 C 
HETATM    9  O8  UNL     1     -35.078  12.751  -4.375  1.00 20.00    -0.279 OA
HETATM   10 CL9  UNL     1     -32.744  13.670  -3.509  1.00 20.00    -0.043 Cl
ENDBRANCH   4   8
TORSDOF 1
ENDMDL
MODEL 2
REMARK VINA RESULT:      -4.3      1.493      2.032
REMARK  1 active torsions:
REMARK  status: ('A' for Active; 'I' for Inactive)
REMARK    1  A    between atoms: C1_1  and  C5_5 
ROOT
HETATM    1  C2  UNL     1     -33.282  15.948  -4.694  1.00 20.00     0.015 C 
HETATM    2  C3  UNL     1     -33.871  17.234  -4.117  1.00 20.00     0.026 C 
HETATM    3  C4  UNL     1     -35.687  15.698  -4.264  1.00 20.00     0.038 C 
HETATM    4  C5  UNL     1     -34.472  15.001  -4.895  1.00 20.00     0.074 C 
HETATM    5  C6  UNL     1     -35.108  16.780  -3.344  1.00 20.00     0.034 C 
HETATM    6  C7  UNL     1     -36.087  17.914  -3.074  1.00 20.00     0.032 C 
HETATM    7 CL10 UNL     1     -34.620  16.056  -1.771  1.00 20.00    -0.120 Cl
ENDROOT
BRANCH   4   8
HETATM    8  C1  UNL     1     -34.218  13.661  -4.274  1.00 20.00     0.223 C 
HETATM    9  O8  UNL     1     -35.029  12.744  -4.363  1.00 20.00    -0.279 OA
HETATM   10 CL9  UNL     1     -32.689  13.601  -3.450  1.00 20.00    -0.043 Cl
ENDBRANCH   4   8
TORSDOF 1
ENDMDL
MODEL 3
REMARK VINA RESULT:      -4.3      1.332      1.656
REMARK  1 active torsions:
REMARK  status: ('A' for Active; 'I' for Inactive)
REMARK    1  A    between atoms: C1_1  and  C5_5 
ROOT
HETATM    1  C2  UNL     1     -36.210  15.888  -4.745  1.00 20.00     0.015 C 
HETATM    2  C3  UNL     1     -35.606  16.973  -3.855  1.00 20.00     0.026 C 
HETATM    3  C4  UNL     1     -34.824  14.901  -2.975  1.00 20.00     0.038 C 
HETATM    4  C5  UNL     1     -35.800  14.554  -4.109  1.00 20.00     0.074 C 
HETATM    5  C6  UNL     1     -34.352  16.332  -3.262  1.00 20.00     0.034 C 
HETATM    6  C7  UNL     1     -33.852  17.052  -2.017  1.00 20.00     0.032 C 
HETATM    7 CL10 UNL     1     -33.033  16.313  -4.484  1.00 20.00    -0.120 Cl
ENDROOT
BRANCH   4   8
HETATM    8  C1  UNL     1     -35.175  13.635  -5.115  1.00 20.00     0.223 C 
HETATM    9  O8  UNL     1     -34.767  12.520  -4.805  1.00 20.00    -0.279 OA
HETATM   10 CL9  UNL     1     -35.116  14.344  -6.700  1.00 20.00    -0.043 Cl
ENDBRANCH   4   8
TORSDOF 1
ENDMDL
MODEL 4
REMARK VINA RESULT:      -4.3      1.840      2.078
REMARK  1 active torsions:
REMARK  status: ('A' for Active; 'I' for Inactive)
REMARK    1  A    between atoms: C1_1  and  C5_5 
ROOT
HETATM    1  C2  UNL     1     -34.197  15.157  -2.814  1.00 20.00     0.015 C 
HETATM    2  C3  UNL     1     -34.093  16.681  -2.822  1.00 20.00     0.026 C 
HETATM    3  C4  UNL     1     -33.372  15.970  -4.980  1.00 20.00     0.038 C 
HETATM    4  C5  UNL     1     -33.625  14.696  -4.160  1.00 20.00     0.074 C 
HETATM    5  C6  UNL     1     -34.197  17.068  -4.297  1.00 20.00     0.034 C 
HETATM    6  C7  UNL     1     -33.670  18.468  -4.580  1.00 20.00     0.032 C 
HETATM    7 CL10 UNL     1     -35.910  16.978  -4.837  1.00 20.00    -0.120 Cl
ENDROOT
BRANCH   4   8
HETATM    8  C1  UNL     1     -34.563  13.762  -4.864  1.00 20.00     0.223 C 
HETATM    9  O8  UNL     1     -35.041  12.781  -4.302  1.00 20.00    -0.279 OA
HETATM   10 CL9  UNL     1     -34.857  14.246  -6.507  1.00 20.00    -0.043 Cl
ENDBRANCH   4   8
TORSDOF 1
ENDMDL
MODEL 5
REMARK VINA RESULT:      -4.2      2.430      3.446
REMARK  1 active torsions:
REMARK  status: ('A' for Active; 'I' for Inactive)
REMARK    1  A    between atoms: C1_1  and  C5_5 
ROOT
HETATM    1  C2  UNL     1     -34.505  14.146  -3.467  1.00 20.00     0.015 C 
HETATM    2  C3  UNL     1     -34.346  13.652  -4.904  1.00 20.00     0.026 C 
HETATM    3  C4  UNL     1     -36.159  15.199  -4.946  1.00 20.00     0.038 C 
HETATM    4  C5  UNL     1     -35.743  15.052  -3.475  1.00 20.00     0.074 C 
HETATM    5  C6  UNL     1     -34.935  14.770  -5.764  1.00 20.00     0.034 C 
HETATM    6  C7  UNL     1     -35.294  14.308  -7.170  1.00 20.00     0.032 C 
HETATM    7 CL10 UNL     1     -33.767  16.132  -5.888  1.00 20.00    -0.120 Cl
ENDROOT
BRANCH   4   8
HETATM    8  C1  UNL     1     -35.454  16.382  -2.846  1.00 20.00     0.223 C 
HETATM    9  O8  UNL     1     -35.781  17.435  -3.384  1.00 20.00    -0.279 OA
HETATM   10 CL9  UNL     1     -34.629  16.221  -1.326  1.00 20.00    -0.043 Cl
ENDBRANCH   4   8
TORSDOF 1
ENDMDL
MODEL 6
REMARK VINA RESULT:      -4.1      1.683      1.722
REMARK  1 active torsions:
REMARK  status: ('A' for Active; 'I' for Inactive)
REMARK    1  A    between atoms: C1_1  and  C5_5 
ROOT
HETATM    1  C2  UNL     1     -35.605  15.542  -3.848  1.00 20.00     0.015 C 
HETATM    2  C3  UNL     1     -35.472  16.858  -4.612  1.00 20.00     0.026 C 
HETATM    3  C4  UNL     1     -33.245  16.155  -4.137  1.00 20.00     0.038 C 
HETATM    4  C5  UNL     1     -34.178  15.151  -3.444  1.00 20.00     0.074 C 
HETATM    5  C6  UNL     1     -34.085  16.796  -5.249  1.00 20.00     0.034 C 
HETATM    6  C7  UNL     1     -33.566  18.165  -5.670  1.00 20.00     0.032 C 
HETATM    7 CL10 UNL     1     -34.118  15.725  -6.694  1.00 20.00    -0.120 Cl
ENDROOT
BRANCH   4   8
HETATM    8  C1  UNL     1     -33.862  13.740  -3.838  1.00 20.00     0.223 C 
HETATM    9  O8  UNL     1     -32.820  13.190  -3.493  1.00 20.00    -0.279 OA
HETATM   10 CL9  UNL     1     -35.121  13.034  -4.806  1.00 20.00    -0.043 Cl
ENDBRANCH   4   8
TORSDOF 1
ENDMDL
MODEL 7
REMARK VINA RESULT:      -4.1      1.776      2.163
REMARK  1 active torsions:
REMARK  status: ('A' for Active; 'I' for Inactive)
REMARK    1  A    between atoms: C1_1  and  C5_5 
ROOT
HETATM    1  C2  UNL     1     -34.550  15.235  -5.872  1.00 20.00     0.015 C 
HETATM    2  C3  UNL     1     -33.689  16.454  -5.547  1.00 20.00     0.026 C 
HETATM    3  C4  UNL     1     -35.705  16.733  -4.306  1.00 20.00     0.038 C 
HETATM    4  C5  UNL     1     -35.890  15.473  -5.165  1.00 20.00     0.074 C 
HETATM    5  C6  UNL     1     -34.188  16.926  -4.182  1.00 20.00     0.034 C 
HETATM    6  C7  UNL     1     -33.797  18.365  -3.874  1.00 20.00     0.032 C 
HETATM    7 CL10 UNL     1     -33.535  15.864  -2.886  1.00 20.00    -0.120 Cl
ENDROOT
BRANCH   4   8
HETATM    8  C1  UNL     1     -36.290  14.291  -4.334  1.00 20.00     0.223 C 
HETATM    9  O8  UNL     1     -37.395  14.218  -3.805  1.00 20.00    -0.279 OA
HETATM   10 CL9  UNL     1     -35.025  13.104  -4.234  1.00 20.00    -0.043 Cl
ENDBRANCH   4   8
TORSDOF 1
ENDMDL
MODEL 8
REMARK VINA RESULT:      -4.0      2.348      3.410
REMARK  1 active torsions:
REMARK  status: ('A' for Active; 'I' for Inactive)
REMARK    1  A    between atoms: C1_1  and  C5_5 
ROOT
HETATM    1  C2  UNL     1     -34.177  13.999  -3.992  1.00 20.00     0.015 C 
HETATM    2  C3  UNL     1     -35.624  13.563  -4.215  1.00 20.00     0.026 C 
HETATM    3  C4  UNL     1     -35.744  15.621  -3.018  1.00 20.00     0.038 C 
HETATM    4  C5  UNL     1     -34.254  15.261  -3.123  1.00 20.00     0.074 C 
HETATM    5  C6  UNL     1     -36.431  14.860  -4.159  1.00 20.00     0.034 C 
HETATM    6  C7  UNL     1     -37.914  14.623  -3.904  1.00 20.00     0.032 C 
HETATM    7 CL10 UNL     1     -36.251  15.766  -5.702  1.00 20.00    -0.120 Cl
ENDROOT
BRANCH   4   8
HETATM    8  C1  UNL     1     -33.454  16.383  -3.713  1.00 20.00     0.223 C 
HETATM    9  O8  UNL     1     -32.730  16.216  -4.690  1.00 20.00    -0.279 OA
HETATM   10 CL9  UNL     1     -33.689  17.876  -2.855  1.00 20.00    -0.043 Cl
ENDBRANCH   4   8
TORSDOF 1
ENDMDL
MODEL 9
REMARK VINA RESULT:      -4.0     11.316     12.782
REMARK  1 active torsions:
REMARK  status: ('A' for Active; 'I' for Inactive)
REMARK    1  A    between atoms: C1_1  and  C5_5 
ROOT
HETATM    1  C2  UNL     1     -41.208   7.284  -1.467  1.00 20.00     0.015 C 
HETATM    2  C3  UNL     1     -40.996   6.279  -0.336  1.00 20.00     0.026 C 
HETATM    3  C4  UNL     1     -43.245   5.974  -1.063  1.00 20.00     0.038 C 
HETATM    4  C5  UNL     1     -42.687   7.166  -1.854  1.00 20.00     0.074 C 
HETATM    5  C6  UNL     1     -42.018   5.175  -0.604  1.00 20.00     0.034 C 
HETATM    6  C7  UNL     1     -42.295   4.316   0.622  1.00 20.00     0.032 C 
HETATM    7 CL10 UNL     1     -41.442   4.110  -1.934  1.00 20.00    -0.120 Cl
ENDROOT
BRANCH   4   8
HETATM    8  C1  UNL     1     -42.854   6.975  -3.332  1.00 20.00     0.223 C 
HETATM    9  O8  UNL     1     -43.392   5.975  -3.797  1.00 20.00    -0.279 OA
HETATM   10 CL9  UNL     1     -42.207   8.308  -4.240  1.00 20.00    -0.043 Cl
ENDBRANCH   4   8
TORSDOF 1
ENDMDL
