MODEL 1
REMARK VINA RESULT:      -4.8      0.000      0.000
REMARK  1 active torsions:
REMARK  status: ('A' for Active; 'I' for Inactive)
REMARK    1  A    between atoms: C3_3  and  C6_6 
ROOT
HETATM    1  C1  UNL     1     -34.056  16.147  -2.165  1.00 20.00    -0.154 C 
HETATM    2  C5  UNL     1     -34.811  16.619  -1.219  1.00 20.00     0.096 C 
HETATM    3  C6  UNL     1     -33.298  15.674  -3.107  1.00 20.00     0.061 C 
ENDROOT
BRANCH   3   4
HETATM    4  C3  UNL     1     -33.762  15.515  -4.452  1.00 20.00    -0.010 A 
HETATM    5  C2  UNL     1     -34.532  14.536  -4.932  1.00 20.00     0.023 A 
HETATM    6  C4  UNL     1     -34.684  14.797  -6.373  1.00 20.00     0.290 A 
HETATM    7  C8  UNL     1     -35.158  13.358  -4.284  1.00 20.00     0.055 C 
HETATM    8  O10 UNL     1     -35.330  14.115  -7.151  1.00 20.00    -0.260 OA
HETATM    9  O11 UNL     1     -33.980  15.918  -6.701  1.00 20.00    -0.308 OA
HETATM   10  C7  UNL     1     -33.374  16.471  -5.523  1.00 20.00     0.162 A 
HETATM   11  C9  UNL     1     -33.907  17.884  -5.329  1.00 20.00     0.045 C 
ENDBRANCH   3   4
TORSDOF 1
ENDMDL
MODEL 2
REMARK VINA RESULT:      -4.8      1.848      2.349
REMARK  1 active torsions:
REMARK  status: ('A' for Active; 'I' for Inactive)
REMARK    1  A    between atoms: C3_3  and  C6_6 
ROOT
HETATM    1  C1  UNL     1     -34.320  16.805  -1.682  1.00 20.00    -0.154 C 
HETATM    2  C5  UNL     1     -34.547  16.976  -0.415  1.00 20.00     0.096 C 
HETATM    3  C6  UNL     1     -34.090  16.638  -2.950  1.00 20.00     0.061 C 
ENDROOT
BRANCH   3   4
HETATM    4  C3  UNL     1     -34.615  15.523  -3.680  1.00 20.00    -0.010 A 
HETATM    5  C2  UNL     1     -34.042  14.332  -3.861  1.00 20.00     0.023 A 
HETATM    6  C4  UNL     1     -34.955  13.559  -4.718  1.00 20.00     0.290 A 
HETATM    7  C8  UNL     1     -32.757  13.766  -3.383  1.00 20.00     0.055 C 
HETATM    8  O10 UNL     1     -34.772  12.413  -5.096  1.00 20.00    -0.260 OA
HETATM    9  O11 UNL     1     -36.035  14.331  -5.032  1.00 20.00    -0.308 OA
HETATM   10  C7  UNL     1     -35.922  15.607  -4.384  1.00 20.00     0.162 A 
HETATM   11  C9  UNL     1     -37.123  15.785  -3.465  1.00 20.00     0.045 C 
ENDBRANCH   3   4
TORSDOF 1
ENDMDL
MODEL 3
REMARK VINA RESULT:      -4.6      1.215      2.420
REMARK  1 active torsions:
REMARK  status: ('A' for Active; 'I' for Inactive)
REMARK    1  A    between atoms: C3_3  and  C6_6 
ROOT
HETATM    1  C1  UNL     1     -34.126  16.492  -2.114  1.00 20.00    -0.154 C 
HETATM    2  C5  UNL     1     -34.619  16.559  -0.914  1.00 20.00     0.096 C 
HETATM    3  C6  UNL     1     -33.630  16.428  -3.313  1.00 20.00     0.061 C 
ENDROOT
BRANCH   3   4
HETATM    4  C3  UNL     1     -34.087  15.474  -4.278  1.00 20.00    -0.010 A 
HETATM    5  C2  UNL     1     -34.412  15.703  -5.551  1.00 20.00     0.023 A 
HETATM    6  C4  UNL     1     -34.865  14.415  -6.101  1.00 20.00     0.290 A 
HETATM    7  C8  UNL     1     -34.393  16.937  -6.374  1.00 20.00     0.055 C 
HETATM    8  O10 UNL     1     -35.238  14.226  -7.247  1.00 20.00    -0.260 OA
HETATM    9  O11 UNL     1     -34.810  13.466  -5.122  1.00 20.00    -0.308 OA
HETATM   10  C7  UNL     1     -34.292  14.047  -3.916  1.00 20.00     0.162 A 
HETATM   11  C9  UNL     1     -33.017  13.304  -3.537  1.00 20.00     0.045 C 
ENDBRANCH   3   4
TORSDOF 1
ENDMDL
MODEL 4
REMARK VINA RESULT:      -4.5      1.916      2.757
REMARK  1 active torsions:
REMARK  status: ('A' for Active; 'I' for Inactive)
REMARK    1  A    between atoms: C3_3  and  C6_6 
ROOT
HETATM    1  C1  UNL     1     -34.356  16.741  -1.228  1.00 20.00    -0.154 C 
HETATM    2  C5  UNL     1     -34.802  17.091  -0.060  1.00 20.00     0.096 C 
HETATM    3  C6  UNL     1     -33.905  16.391  -2.395  1.00 20.00     0.061 C 
ENDROOT
BRANCH   3   4
HETATM    4  C3  UNL     1     -34.702  15.659  -3.333  1.00 20.00    -0.010 A 
HETATM    5  C2  UNL     1     -35.570  16.153  -4.217  1.00 20.00     0.023 A 
HETATM    6  C4  UNL     1     -36.164  14.996  -4.906  1.00 20.00     0.290 A 
HETATM    7  C8  UNL     1     -35.976  17.542  -4.540  1.00 20.00     0.055 C 
HETATM    8  O10 UNL     1     -37.001  15.051  -5.792  1.00 20.00    -0.260 OA
HETATM    9  O11 UNL     1     -35.635  13.848  -4.390  1.00 20.00    -0.308 OA
HETATM   10  C7  UNL     1     -34.660  14.174  -3.388  1.00 20.00     0.162 A 
HETATM   11  C9  UNL     1     -33.318  13.597  -3.823  1.00 20.00     0.045 C 
ENDBRANCH   3   4
TORSDOF 1
ENDMDL
MODEL 5
REMARK VINA RESULT:      -4.5     11.960     13.352
REMARK  1 active torsions:
REMARK  status: ('A' for Active; 'I' for Inactive)
REMARK    1  A    between atoms: C3_3  and  C6_6 
ROOT
HETATM    1  C1  UNL     1     -32.265   7.748   2.682  1.00 20.00    -0.154 C 
HETATM    2  C5  UNL     1     -32.416   8.735   1.852  1.00 20.00     0.096 C 
HETATM    3  C6  UNL     1     -32.110   6.761   3.512  1.00 20.00     0.061 C 
ENDROOT
BRANCH   3   4
HETATM    4  C3  UNL     1     -33.222   6.074   4.098  1.00 20.00    -0.010 A 
HETATM    5  C2  UNL     1     -33.705   6.221   5.333  1.00 20.00     0.023 A 
HETATM    6  C4  UNL     1     -34.812   5.260   5.462  1.00 20.00     0.290 A 
HETATM    7  C8  UNL     1     -33.308   7.106   6.455  1.00 20.00     0.055 C 
HETATM    8  O10 UNL     1     -35.505   5.107   6.454  1.00 20.00    -0.260 OA
HETATM    9  O11 UNL     1     -34.934   4.559   4.297  1.00 20.00    -0.308 OA
HETATM   10  C7  UNL     1     -33.970   5.033   3.345  1.00 20.00     0.162 A 
HETATM   11  C9  UNL     1     -34.720   5.555   2.125  1.00 20.00     0.045 C 
ENDBRANCH   3   4
TORSDOF 1
ENDMDL
MODEL 6
REMARK VINA RESULT:      -4.4      1.191      2.654
REMARK  1 active torsions:
REMARK  status: ('A' for Active; 'I' for Inactive)
REMARK    1  A    between atoms: C3_3  and  C6_6 
ROOT
HETATM    1  C1  UNL     1     -34.181  16.356  -1.751  1.00 20.00    -0.154 C 
HETATM    2  C5  UNL     1     -34.659  16.785  -0.622  1.00 20.00     0.096 C 
HETATM    3  C6  UNL     1     -33.699  15.925  -2.877  1.00 20.00     0.061 C 
ENDROOT
BRANCH   3   4
HETATM    4  C3  UNL     1     -34.501  15.817  -4.059  1.00 20.00    -0.010 A 
HETATM    5  C2  UNL     1     -34.459  16.597  -5.140  1.00 20.00     0.023 A 
HETATM    6  C4  UNL     1     -35.509  16.105  -6.047  1.00 20.00     0.290 A 
HETATM    7  C8  UNL     1     -33.609  17.760  -5.492  1.00 20.00     0.055 C 
HETATM    8  O10 UNL     1     -35.769  16.567  -7.145  1.00 20.00    -0.260 OA
HETATM    9  O11 UNL     1     -36.152  15.055  -5.459  1.00 20.00    -0.308 OA
HETATM   10  C7  UNL     1     -35.554  14.774  -4.184  1.00 20.00     0.162 A 
HETATM   11  C9  UNL     1     -35.026  13.345  -4.209  1.00 20.00     0.045 C 
ENDBRANCH   3   4
TORSDOF 1
ENDMDL
MODEL 7
REMARK VINA RESULT:      -4.3     11.650     13.753
REMARK  1 active torsions:
REMARK  status: ('A' for Active; 'I' for Inactive)
REMARK    1  A    between atoms: C3_3  and  C6_6 
ROOT
HETATM    1  C1  UNL     1     -42.122   3.074  -3.133  1.00 20.00    -0.154 C 
HETATM    2  C5  UNL     1     -41.520   1.991  -3.522  1.00 20.00     0.096 C 
HETATM    3  C6  UNL     1     -42.728   4.156  -2.746  1.00 20.00     0.061 C 
ENDROOT
BRANCH   3   4
HETATM    4  C3  UNL     1     -42.102   5.115  -1.886  1.00 20.00    -0.010 A 
HETATM    5  C2  UNL     1     -41.939   6.420  -2.112  1.00 20.00     0.023 A 
HETATM    6  C4  UNL     1     -41.199   6.951  -0.956  1.00 20.00     0.290 A 
HETATM    7  C8  UNL     1     -42.341   7.289  -3.244  1.00 20.00     0.055 C 
HETATM    8  O10 UNL     1     -40.869   8.115  -0.801  1.00 20.00    -0.260 OA
HETATM    9  O11 UNL     1     -40.932   5.932  -0.089  1.00 20.00    -0.308 OA
HETATM   10  C7  UNL     1     -41.500   4.712  -0.587  1.00 20.00     0.162 A 
HETATM   11  C9  UNL     1     -42.502   4.197   0.438  1.00 20.00     0.045 C 
ENDBRANCH   3   4
TORSDOF 1
ENDMDL
MODEL 8
REMARK VINA RESULT:      -4.3      1.803      3.255
REMARK  1 active torsions:
REMARK  status: ('A' for Active; 'I' for Inactive)
REMARK    1  A    between atoms: C3_3  and  C6_6 
ROOT
HETATM    1  C1  UNL     1     -34.547  17.953  -5.690  1.00 20.00    -0.154 C 
HETATM    2  C5  UNL     1     -33.648  18.712  -6.238  1.00 20.00     0.096 C 
HETATM    3  C6  UNL     1     -35.451  17.196  -5.144  1.00 20.00     0.061 C 
ENDROOT
BRANCH   3   4
HETATM    4  C3  UNL     1     -35.169  15.858  -4.718  1.00 20.00    -0.010 A 
HETATM    5  C2  UNL     1     -35.062  14.770  -5.483  1.00 20.00     0.023 A 
HETATM    6  C4  UNL     1     -34.816  13.643  -4.569  1.00 20.00     0.290 A 
HETATM    7  C8  UNL     1     -35.165  14.575  -6.950  1.00 20.00     0.055 C 
HETATM    8  O10 UNL     1     -34.657  12.481  -4.905  1.00 20.00    -0.260 OA
HETATM    9  O11 UNL     1     -34.804  14.103  -3.285  1.00 20.00    -0.308 OA
HETATM   10  C7  UNL     1     -34.994  15.526  -3.279  1.00 20.00     0.162 A 
HETATM   11  C9  UNL     1     -33.776  16.168  -2.628  1.00 20.00     0.045 C 
ENDBRANCH   3   4
TORSDOF 1
ENDMDL
MODEL 9
REMARK VINA RESULT:      -4.3      1.355      2.592
REMARK  1 active torsions:
REMARK  status: ('A' for Active; 'I' for Inactive)
REMARK    1  A    between atoms: C3_3  and  C6_6 
ROOT
HETATM    1  C1  UNL     1     -33.868  17.919  -4.816  1.00 20.00    -0.154 C 
HETATM    2  C5  UNL     1     -34.396  18.962  -4.251  1.00 20.00     0.096 C 
HETATM    3  C6  UNL     1     -33.335  16.877  -5.381  1.00 20.00     0.061 C 
ENDROOT
BRANCH   3   4
HETATM    4  C3  UNL     1     -34.003  15.612  -5.432  1.00 20.00    -0.010 A 
HETATM    5  C2  UNL     1     -34.300  14.812  -4.406  1.00 20.00     0.023 A 
HETATM    6  C4  UNL     1     -34.936  13.616  -4.984  1.00 20.00     0.290 A 
HETATM    7  C8  UNL     1     -34.083  14.948  -2.946  1.00 20.00     0.055 C 
HETATM    8  O10 UNL     1     -35.353  12.660  -4.352  1.00 20.00    -0.260 OA
HETATM    9  O11 UNL     1     -34.976  13.743  -6.342  1.00 20.00    -0.308 OA
HETATM   10  C7  UNL     1     -34.424  15.012  -6.725  1.00 20.00     0.162 A 
HETATM   11  C9  UNL     1     -35.500  15.798  -7.464  1.00 20.00     0.045 C 
ENDBRANCH   3   4
TORSDOF 1
ENDMDL
