MODEL 1
REMARK VINA RESULT:      -5.5      0.000      0.000
REMARK  0 active torsions:
REMARK  status: ('A' for Active; 'I' for Inactive)
ROOT
HETATM    1  C1  UNL     1     -32.290   5.301   2.978  1.00 20.00     0.012 A 
HETATM    2  C2  UNL     1     -34.117   5.883   6.372  1.00 20.00     0.006 A 
HETATM    3  C3  UNL     1     -32.036   7.436   4.053  1.00 20.00     0.101 C 
HETATM    4  C4  UNL     1     -32.429   6.625   2.871  1.00 20.00     0.016 A 
HETATM    5  C5  UNL     1     -33.716   6.576   5.294  1.00 20.00     0.035 A 
HETATM    6  C6  UNL     1     -34.787   3.699   5.192  1.00 20.00     0.015 A 
HETATM    7  C7  UNL     1     -33.629   5.796   2.874  1.00 20.00     0.017 A 
HETATM    8  C8  UNL     1     -35.142   4.870   6.065  1.00 20.00     0.015 A 
HETATM    9  C9  UNL     1     -34.501   6.103   4.062  1.00 20.00     0.048 A 
HETATM   10  C10 UNL     1     -35.350   4.946   4.560  1.00 20.00     0.004 A 
HETATM   11  N11 UNL     1     -32.650   7.435   5.202  1.00 20.00    -0.269 NA
ENDROOT
TORSDOF 0
ENDMDL
MODEL 2
REMARK VINA RESULT:      -5.0     11.977     13.269
REMARK  0 active torsions:
REMARK  status: ('A' for Active; 'I' for Inactive)
ROOT
HETATM    1  C1  UNL     1     -35.178  16.794  -2.314  1.00 20.00     0.012 A 
HETATM    2  C2  UNL     1     -34.238  15.198  -5.744  1.00 20.00     0.006 A 
HETATM    3  C3  UNL     1     -33.734  18.031  -3.785  1.00 20.00     0.101 C 
HETATM    4  C4  UNL     1     -33.997  17.400  -2.465  1.00 20.00     0.016 A 
HETATM    5  C5  UNL     1     -33.717  16.026  -4.823  1.00 20.00     0.035 A 
HETATM    6  C6  UNL     1     -35.476  13.597  -4.158  1.00 20.00     0.015 A 
HETATM    7  C7  UNL     1     -34.021  15.950  -2.299  1.00 20.00     0.017 A 
HETATM    8  C8  UNL     1     -34.458  13.831  -5.239  1.00 20.00     0.015 A 
HETATM    9  C9  UNL     1     -33.480  15.253  -3.518  1.00 20.00     0.048 A 
HETATM   10  C10 UNL     1     -34.043  13.866  -3.776  1.00 20.00     0.004 A 
HETATM   11  N11 UNL     1     -33.581  17.389  -4.907  1.00 20.00    -0.269 NA
ENDROOT
TORSDOF 0
ENDMDL
MODEL 3
REMARK VINA RESULT:      -4.8     11.888     13.325
REMARK  0 active torsions:
REMARK  status: ('A' for Active; 'I' for Inactive)
ROOT
HETATM    1  C1  UNL     1     -35.720  15.030  -5.935  1.00 20.00     0.012 A 
HETATM    2  C2  UNL     1     -34.193  15.668  -2.405  1.00 20.00     0.006 A 
HETATM    3  C3  UNL     1     -34.724  13.174  -4.775  1.00 20.00     0.101 C 
HETATM    4  C4  UNL     1     -34.804  14.058  -5.968  1.00 20.00     0.016 A 
HETATM    5  C5  UNL     1     -34.008  14.874  -3.472  1.00 20.00     0.035 A 
HETATM    6  C6  UNL     1     -34.878  17.814  -3.644  1.00 20.00     0.015 A 
HETATM    7  C7  UNL     1     -34.350  15.444  -5.928  1.00 20.00     0.017 A 
HETATM    8  C8  UNL     1     -33.962  17.095  -2.695  1.00 20.00     0.015 A 
HETATM    9  C9  UNL     1     -33.569  15.725  -4.672  1.00 20.00     0.048 A 
HETATM   10  C10 UNL     1     -33.630  17.160  -4.178  1.00 20.00     0.004 A 
HETATM   11  N11 UNL     1     -34.331  13.546  -3.591  1.00 20.00    -0.269 NA
ENDROOT
TORSDOF 0
ENDMDL
MODEL 4
REMARK VINA RESULT:      -4.7     12.391     13.940
REMARK  0 active torsions:
REMARK  status: ('A' for Active; 'I' for Inactive)
ROOT
HETATM    1  C1  UNL     1     -34.923  14.048  -3.666  1.00 20.00     0.012 A 
HETATM    2  C2  UNL     1     -34.724  16.910  -6.306  1.00 20.00     0.006 A 
HETATM    3  C3  UNL     1     -32.860  15.266  -3.868  1.00 20.00     0.101 C 
HETATM    4  C4  UNL     1     -33.608  13.981  -3.891  1.00 20.00     0.016 A 
HETATM    5  C5  UNL     1     -33.927  16.003  -5.717  1.00 20.00     0.035 A 
HETATM    6  C6  UNL     1     -36.858  15.485  -6.477  1.00 20.00     0.015 A 
HETATM    7  C7  UNL     1     -34.519  13.642  -4.978  1.00 20.00     0.017 A 
HETATM    8  C8  UNL     1     -35.783  16.304  -7.134  1.00 20.00     0.015 A 
HETATM    9  C9  UNL     1     -34.364  14.592  -6.136  1.00 20.00     0.048 A 
HETATM   10  C10 UNL     1     -35.611  14.800  -6.976  1.00 20.00     0.004 A 
HETATM   11  N11 UNL     1     -32.990  16.224  -4.740  1.00 20.00    -0.269 NA
ENDROOT
TORSDOF 0
ENDMDL
MODEL 5
REMARK VINA RESULT:      -4.7     11.699     13.040
REMARK  0 active torsions:
REMARK  status: ('A' for Active; 'I' for Inactive)
ROOT
HETATM    1  C1  UNL     1     -33.349  13.688  -3.902  1.00 20.00     0.012 A 
HETATM    2  C2  UNL     1     -34.768  17.309  -4.169  1.00 20.00     0.006 A 
HETATM    3  C3  UNL     1     -34.597  14.277  -5.871  1.00 20.00     0.101 C 
HETATM    4  C4  UNL     1     -34.394  13.404  -4.685  1.00 20.00     0.016 A 
HETATM    5  C5  UNL     1     -35.064  16.061  -4.568  1.00 20.00     0.035 A 
HETATM    6  C6  UNL     1     -33.786  16.745  -1.860  1.00 20.00     0.015 A 
HETATM    7  C7  UNL     1     -34.647  13.879  -3.329  1.00 20.00     0.017 A 
HETATM    8  C8  UNL     1     -34.794  17.473  -2.704  1.00 20.00     0.015 A 
HETATM    9  C9  UNL     1     -35.380  15.194  -3.341  1.00 20.00     0.048 A 
HETATM   10  C10 UNL     1     -35.115  16.094  -2.147  1.00 20.00     0.004 A 
HETATM   11  N11 UNL     1     -34.933  15.534  -5.828  1.00 20.00    -0.269 NA
ENDROOT
TORSDOF 0
ENDMDL
MODEL 6
REMARK VINA RESULT:      -4.7      9.511     10.636
REMARK  0 active torsions:
REMARK  status: ('A' for Active; 'I' for Inactive)
ROOT
HETATM    1  C1  UNL     1     -41.695   5.355   0.472  1.00 20.00     0.012 A 
HETATM    2  C2  UNL     1     -43.145   5.430  -3.146  1.00 20.00     0.006 A 
HETATM    3  C3  UNL     1     -41.237   7.279  -0.895  1.00 20.00     0.101 C 
HETATM    4  C4  UNL     1     -40.759   6.139  -0.069  1.00 20.00     0.016 A 
HETATM    5  C5  UNL     1     -42.085   5.886  -2.458  1.00 20.00     0.035 A 
HETATM    6  C6  UNL     1     -43.417   3.163  -1.964  1.00 20.00     0.015 A 
HETATM    7  C7  UNL     1     -40.866   4.759  -0.531  1.00 20.00     0.017 A 
HETATM    8  C8  UNL     1     -43.201   3.959  -3.220  1.00 20.00     0.015 A 
HETATM    9  C9  UNL     1     -41.232   4.698  -1.989  1.00 20.00     0.048 A 
HETATM   10  C10 UNL     1     -42.011   3.465  -2.412  1.00 20.00     0.004 A 
HETATM   11  N11 UNL     1     -41.851   7.171  -2.039  1.00 20.00    -0.269 NA
ENDROOT
TORSDOF 0
ENDMDL
MODEL 7
REMARK VINA RESULT:      -4.7     11.614     12.831
REMARK  0 active torsions:
REMARK  status: ('A' for Active; 'I' for Inactive)
ROOT
HETATM    1  C1  UNL     1     -33.124  15.975  -4.419  1.00 20.00     0.012 A 
HETATM    2  C2  UNL     1     -36.747  14.565  -4.128  1.00 20.00     0.006 A 
HETATM    3  C3  UNL     1     -33.398  13.644  -3.902  1.00 20.00     0.101 C 
HETATM    4  C4  UNL     1     -32.853  14.985  -3.565  1.00 20.00     0.016 A 
HETATM    5  C5  UNL     1     -35.522  14.354  -3.619  1.00 20.00     0.035 A 
HETATM    6  C6  UNL     1     -36.641  17.127  -4.320  1.00 20.00     0.015 A 
HETATM    7  C7  UNL     1     -33.716  16.074  -3.119  1.00 20.00     0.017 A 
HETATM    8  C8  UNL     1     -37.300  15.888  -3.784  1.00 20.00     0.015 A 
HETATM    9  C9  UNL     1     -35.097  15.575  -2.790  1.00 20.00     0.048 A 
HETATM   10  C10 UNL     1     -36.214  16.586  -2.980  1.00 20.00     0.004 A 
HETATM   11  N11 UNL     1     -34.661  13.328  -3.913  1.00 20.00    -0.269 NA
ENDROOT
TORSDOF 0
ENDMDL
MODEL 8
REMARK VINA RESULT:      -4.6     12.431     13.769
REMARK  0 active torsions:
REMARK  status: ('A' for Active; 'I' for Inactive)
ROOT
HETATM    1  C1  UNL     1     -34.518  15.989  -7.204  1.00 20.00     0.012 A 
HETATM    2  C2  UNL     1     -33.269  15.013  -3.643  1.00 20.00     0.006 A 
HETATM    3  C3  UNL     1     -33.602  17.719  -5.808  1.00 20.00     0.101 C 
HETATM    4  C4  UNL     1     -34.720  17.175  -6.623  1.00 20.00     0.016 A 
HETATM    5  C5  UNL     1     -33.806  16.062  -4.287  1.00 20.00     0.035 A 
HETATM    6  C6  UNL     1     -34.543  13.133  -4.848  1.00 20.00     0.015 A 
HETATM    7  C7  UNL     1     -35.512  16.034  -6.174  1.00 20.00     0.017 A 
HETATM    8  C8  UNL     1     -34.167  13.846  -3.580  1.00 20.00     0.015 A 
HETATM    9  C9  UNL     1     -35.234  15.711  -4.731  1.00 20.00     0.048 A 
HETATM   10  C10 UNL     1     -35.417  14.253  -4.346  1.00 20.00     0.004 A 
HETATM   11  N11 UNL     1     -33.172  17.210  -4.690  1.00 20.00    -0.269 NA
ENDROOT
TORSDOF 0
ENDMDL
MODEL 9
REMARK VINA RESULT:      -4.6     12.053     13.422
REMARK  0 active torsions:
REMARK  status: ('A' for Active; 'I' for Inactive)
ROOT
HETATM    1  C1  UNL     1     -34.450  15.102  -6.858  1.00 20.00     0.012 A 
HETATM    2  C2  UNL     1     -35.913  15.956  -3.347  1.00 20.00     0.006 A 
HETATM    3  C3  UNL     1     -36.839  15.255  -6.629  1.00 20.00     0.101 C 
HETATM    4  C4  UNL     1     -35.625  14.484  -7.009  1.00 20.00     0.016 A 
HETATM    5  C5  UNL     1     -36.240  15.265  -4.452  1.00 20.00     0.035 A 
HETATM    6  C6  UNL     1     -33.388  15.473  -3.332  1.00 20.00     0.015 A 
HETATM    7  C7  UNL     1     -34.694  13.976  -6.008  1.00 20.00     0.017 A 
HETATM    8  C8  UNL     1     -34.728  15.419  -2.655  1.00 20.00     0.015 A 
HETATM    9  C9  UNL     1     -35.271  14.086  -4.622  1.00 20.00     0.048 A 
HETATM   10  C10 UNL     1     -34.253  14.252  -3.507  1.00 20.00     0.004 A 
HETATM   11  N11 UNL     1     -37.150  15.615  -5.417  1.00 20.00    -0.269 NA
ENDROOT
TORSDOF 0
ENDMDL
