MODEL 1
REMARK VINA RESULT:      -4.8      0.000      0.000
REMARK  1 active torsions:
REMARK  status: ('A' for Active; 'I' for Inactive)
REMARK    1  A    between atoms: C5_5  and  C6_6 
ROOT
HETATM    1  C1  UNL     1     -34.861  16.674  -0.732  1.00 20.00    -0.003 A 
HETATM    2  C2  UNL     1     -33.720  17.550  -0.881  1.00 20.00    -0.003 A 
HETATM    3  C3  UNL     1     -34.997  15.967  -1.869  1.00 20.00    -0.012 A 
HETATM    4  C4  UNL     1     -33.199  17.349  -2.105  1.00 20.00    -0.012 A 
HETATM    5  C6  UNL     1     -33.269  15.333  -3.737  1.00 20.00     0.073 A 
HETATM    6  C7  UNL     1     -33.961  16.331  -2.854  1.00 20.00     0.013 A 
HETATM    7  C8  UNL     1     -34.195  16.385  -4.347  1.00 20.00    -0.021 A 
HETATM    8  C9  UNL     1     -33.546  17.481  -5.162  1.00 20.00     0.017 C 
HETATM    9  C10 UNL     1     -35.539  15.971  -4.903  1.00 20.00     0.017 C 
ENDROOT
BRANCH   5  10
HETATM   10  C5  UNL     1     -33.647  13.912  -3.726  1.00 20.00     0.237 C 
HETATM   11  O11 UNL     1     -32.833  12.997  -3.671  1.00 20.00    -0.306 OA
ENDBRANCH   5  10
TORSDOF 1
ENDMDL
MODEL 2
REMARK VINA RESULT:      -4.7      1.057      1.076
REMARK  1 active torsions:
REMARK  status: ('A' for Active; 'I' for Inactive)
REMARK    1  A    between atoms: C5_5  and  C6_6 
ROOT
HETATM    1  C1  UNL     1     -35.095  16.613  -1.199  1.00 20.00    -0.003 A 
HETATM    2  C2  UNL     1     -33.717  17.019  -1.365  1.00 20.00    -0.003 A 
HETATM    3  C3  UNL     1     -35.478  15.967  -2.316  1.00 20.00    -0.012 A 
HETATM    4  C4  UNL     1     -33.305  16.608  -2.578  1.00 20.00    -0.012 A 
HETATM    5  C6  UNL     1     -34.095  14.701  -4.150  1.00 20.00     0.073 A 
HETATM    6  C7  UNL     1     -34.382  15.907  -3.303  1.00 20.00     0.013 A 
HETATM    7  C8  UNL     1     -34.586  15.996  -4.799  1.00 20.00    -0.021 A 
HETATM    8  C9  UNL     1     -33.591  16.762  -5.640  1.00 20.00     0.017 C 
HETATM    9  C10 UNL     1     -35.990  16.072  -5.353  1.00 20.00     0.017 C 
ENDROOT
BRANCH   5  10
HETATM   10  C5  UNL     1     -34.955  13.510  -4.100  1.00 20.00     0.237 C 
HETATM   11  O11 UNL     1     -34.769  12.513  -4.790  1.00 20.00    -0.306 OA
ENDBRANCH   5  10
TORSDOF 1
ENDMDL
MODEL 3
REMARK VINA RESULT:      -4.6      2.105      2.884
REMARK  1 active torsions:
REMARK  status: ('A' for Active; 'I' for Inactive)
REMARK    1  A    between atoms: C5_5  and  C6_6 
ROOT
HETATM    1  C1  UNL     1     -34.482  18.193  -3.327  1.00 20.00    -0.003 A 
HETATM    2  C2  UNL     1     -33.816  17.596  -2.190  1.00 20.00    -0.003 A 
HETATM    3  C3  UNL     1     -35.028  17.204  -4.059  1.00 20.00    -0.012 A 
HETATM    4  C4  UNL     1     -33.976  16.262  -2.268  1.00 20.00    -0.012 A 
HETATM    5  C6  UNL     1     -35.762  14.770  -3.417  1.00 20.00     0.073 A 
HETATM    6  C7  UNL     1     -34.754  15.883  -3.463  1.00 20.00     0.013 A 
HETATM    7  C8  UNL     1     -34.500  14.628  -4.269  1.00 20.00    -0.021 A 
HETATM    8  C9  UNL     1     -33.459  13.639  -3.795  1.00 20.00     0.017 C 
HETATM    9  C10 UNL     1     -34.603  14.681  -5.776  1.00 20.00     0.017 C 
ENDROOT
BRANCH   5  10
HETATM   10  C5  UNL     1     -37.083  14.910  -4.045  1.00 20.00     0.237 C 
HETATM   11  O11 UNL     1     -38.040  14.193  -3.771  1.00 20.00    -0.306 OA
ENDBRANCH   5  10
TORSDOF 1
ENDMDL
MODEL 4
REMARK VINA RESULT:      -4.6      2.018      2.447
REMARK  1 active torsions:
REMARK  status: ('A' for Active; 'I' for Inactive)
REMARK    1  A    between atoms: C5_5  and  C6_6 
ROOT
HETATM    1  C1  UNL     1     -35.749  18.053  -2.060  1.00 20.00    -0.003 A 
HETATM    2  C2  UNL     1     -34.949  17.421  -1.034  1.00 20.00    -0.003 A 
HETATM    3  C3  UNL     1     -35.746  17.256  -3.145  1.00 20.00    -0.012 A 
HETATM    4  C4  UNL     1     -34.484  16.258  -1.528  1.00 20.00    -0.012 A 
HETATM    5  C6  UNL     1     -35.333  14.680  -3.404  1.00 20.00     0.073 A 
HETATM    6  C7  UNL     1     -34.937  16.044  -2.916  1.00 20.00     0.013 A 
HETATM    7  C8  UNL     1     -34.099  15.373  -3.981  1.00 20.00    -0.021 A 
HETATM    8  C9  UNL     1     -32.751  14.795  -3.611  1.00 20.00     0.017 C 
HETATM    9  C10 UNL     1     -34.130  15.907  -5.395  1.00 20.00     0.017 C 
ENDROOT
BRANCH   5  10
HETATM   10  C5  UNL     1     -36.537  14.482  -4.224  1.00 20.00     0.237 C 
HETATM   11  O11 UNL     1     -37.632  14.184  -3.755  1.00 20.00    -0.306 OA
ENDBRANCH   5  10
TORSDOF 1
ENDMDL
MODEL 5
REMARK VINA RESULT:      -4.6      2.125      3.708
REMARK  1 active torsions:
REMARK  status: ('A' for Active; 'I' for Inactive)
REMARK    1  A    between atoms: C5_5  and  C6_6 
ROOT
HETATM    1  C1  UNL     1     -33.517  13.664  -3.885  1.00 20.00    -0.003 A 
HETATM    2  C2  UNL     1     -34.893  13.363  -4.213  1.00 20.00    -0.003 A 
HETATM    3  C3  UNL     1     -33.473  14.898  -3.350  1.00 20.00    -0.012 A 
HETATM    4  C4  UNL     1     -35.644  14.425  -3.868  1.00 20.00    -0.012 A 
HETATM    5  C6  UNL     1     -35.306  16.330  -2.139  1.00 20.00     0.073 A 
HETATM    6  C7  UNL     1     -34.817  15.505  -3.294  1.00 20.00     0.013 A 
HETATM    7  C8  UNL     1     -35.090  16.977  -3.507  1.00 20.00    -0.021 A 
HETATM    8  C9  UNL     1     -36.325  17.401  -4.269  1.00 20.00     0.017 C 
HETATM    9  C10 UNL     1     -33.930  17.924  -3.715  1.00 20.00     0.017 C 
ENDROOT
BRANCH   5  10
HETATM   10  C5  UNL     1     -34.427  16.654  -1.006  1.00 20.00     0.237 C 
HETATM   11  O11 UNL     1     -34.845  16.972   0.103  1.00 20.00    -0.306 OA
ENDBRANCH   5  10
TORSDOF 1
ENDMDL
MODEL 6
REMARK VINA RESULT:      -4.6      2.286      4.247
REMARK  1 active torsions:
REMARK  status: ('A' for Active; 'I' for Inactive)
REMARK    1  A    between atoms: C5_5  and  C6_6 
ROOT
HETATM    1  C1  UNL     1     -34.534  15.282  -7.475  1.00 20.00    -0.003 A 
HETATM    2  C2  UNL     1     -34.333  16.667  -7.113  1.00 20.00    -0.003 A 
HETATM    3  C3  UNL     1     -34.866  14.602  -6.362  1.00 20.00    -0.012 A 
HETATM    4  C4  UNL     1     -34.548  16.787  -5.790  1.00 20.00    -0.012 A 
HETATM    5  C6  UNL     1     -35.937  15.389  -4.102  1.00 20.00     0.073 A 
HETATM    6  C7  UNL     1     -34.900  15.488  -5.183  1.00 20.00     0.013 A 
HETATM    7  C8  UNL     1     -34.475  15.066  -3.794  1.00 20.00    -0.021 A 
HETATM    8  C9  UNL     1     -33.725  16.043  -2.917  1.00 20.00     0.017 C 
HETATM    9  C10 UNL     1     -34.058  13.633  -3.550  1.00 20.00     0.017 C 
ENDROOT
BRANCH   5  10
HETATM   10  C5  UNL     1     -36.956  14.329  -4.115  1.00 20.00     0.237 C 
HETATM   11  O11 UNL     1     -38.012  14.400  -3.495  1.00 20.00    -0.306 OA
ENDBRANCH   5  10
TORSDOF 1
ENDMDL
MODEL 7
REMARK VINA RESULT:      -4.5      1.980      4.240
REMARK  1 active torsions:
REMARK  status: ('A' for Active; 'I' for Inactive)
REMARK    1  A    between atoms: C5_5  and  C6_6 
ROOT
HETATM    1  C1  UNL     1     -34.193  15.880  -7.061  1.00 20.00    -0.003 A 
HETATM    2  C2  UNL     1     -35.261  15.085  -7.627  1.00 20.00    -0.003 A 
HETATM    3  C3  UNL     1     -34.211  15.715  -5.725  1.00 20.00    -0.012 A 
HETATM    4  C4  UNL     1     -35.895  14.461  -6.617  1.00 20.00    -0.012 A 
HETATM    5  C6  UNL     1     -35.147  13.776  -4.228  1.00 20.00     0.073 A 
HETATM    6  C7  UNL     1     -35.296  14.805  -5.312  1.00 20.00     0.013 A 
HETATM    7  C8  UNL     1     -36.092  14.962  -4.036  1.00 20.00    -0.021 A 
HETATM    8  C9  UNL     1     -37.575  14.667  -4.045  1.00 20.00     0.017 C 
HETATM    9  C10 UNL     1     -35.728  16.063  -3.066  1.00 20.00     0.017 C 
ENDROOT
BRANCH   5  10
HETATM   10  C5  UNL     1     -33.908  13.667  -3.444  1.00 20.00     0.237 C 
HETATM   11  O11 UNL     1     -32.956  12.969  -3.780  1.00 20.00    -0.306 OA
ENDBRANCH   5  10
TORSDOF 1
ENDMDL
MODEL 8
REMARK VINA RESULT:      -4.4      1.549      3.510
REMARK  1 active torsions:
REMARK  status: ('A' for Active; 'I' for Inactive)
REMARK    1  A    between atoms: C5_5  and  C6_6 
ROOT
HETATM    1  C1  UNL     1     -37.288  15.857  -5.651  1.00 20.00    -0.003 A 
HETATM    2  C2  UNL     1     -38.005  15.814  -4.396  1.00 20.00    -0.003 A 
HETATM    3  C3  UNL     1     -35.998  15.559  -5.407  1.00 20.00    -0.012 A 
HETATM    4  C4  UNL     1     -37.129  15.492  -3.427  1.00 20.00    -0.012 A 
HETATM    5  C6  UNL     1     -34.865  14.224  -3.455  1.00 20.00     0.073 A 
HETATM    6  C7  UNL     1     -35.769  15.306  -3.971  1.00 20.00     0.013 A 
HETATM    7  C8  UNL     1     -34.507  15.694  -3.234  1.00 20.00    -0.021 A 
HETATM    8  C9  UNL     1     -34.605  16.220  -1.820  1.00 20.00     0.017 C 
HETATM    9  C10 UNL     1     -33.360  16.311  -4.001  1.00 20.00     0.017 C 
ENDROOT
BRANCH   5  10
HETATM   10  C5  UNL     1     -34.076  13.387  -4.370  1.00 20.00     0.237 C 
HETATM   11  O11 UNL     1     -34.550  12.453  -5.009  1.00 20.00    -0.306 OA
ENDBRANCH   5  10
TORSDOF 1
ENDMDL
MODEL 9
REMARK VINA RESULT:      -4.4      1.437      3.433
REMARK  1 active torsions:
REMARK  status: ('A' for Active; 'I' for Inactive)
REMARK    1  A    between atoms: C5_5  and  C6_6 
ROOT
HETATM    1  C1  UNL     1     -34.267  17.685  -6.430  1.00 20.00    -0.003 A 
HETATM    2  C2  UNL     1     -35.263  18.301  -5.580  1.00 20.00    -0.003 A 
HETATM    3  C3  UNL     1     -33.918  16.507  -5.880  1.00 20.00    -0.012 A 
HETATM    4  C4  UNL     1     -35.488  17.478  -4.539  1.00 20.00    -0.012 A 
HETATM    5  C6  UNL     1     -35.189  14.920  -4.225  1.00 20.00     0.073 A 
HETATM    6  C7  UNL     1     -34.652  16.264  -4.623  1.00 20.00     0.013 A 
HETATM    7  C8  UNL     1     -34.061  15.565  -3.420  1.00 20.00    -0.021 A 
HETATM    8  C9  UNL     1     -34.402  16.058  -2.032  1.00 20.00     0.017 C 
HETATM    9  C10 UNL     1     -32.661  15.000  -3.504  1.00 20.00     0.017 C 
ENDROOT
BRANCH   5  10
HETATM   10  C5  UNL     1     -34.942  13.725  -5.044  1.00 20.00     0.237 C 
HETATM   11  O11 UNL     1     -34.968  12.583  -4.597  1.00 20.00    -0.306 OA
ENDBRANCH   5  10
TORSDOF 1
ENDMDL
