MODEL 1
REMARK VINA RESULT:      -5.2      0.000      0.000
REMARK  1 active torsions:
REMARK  status: ('A' for Active; 'I' for Inactive)
REMARK    1  A    between atoms: C3_3  and  C5_5 
ROOT
HETATM    1  C1  UNL     1     -33.351   5.910   2.689  1.00 20.00     0.050 A 
HETATM    2  C2  UNL     1     -33.920   5.476   3.907  1.00 20.00    -0.026 A 
HETATM    3  C3  UNL     1     -32.653   7.064   2.985  1.00 20.00     0.113 A 
HETATM    4  C4  UNL     1     -33.521   6.393   4.852  1.00 20.00     0.060 A 
HETATM    5  C6  UNL     1     -34.762   4.301   4.251  1.00 20.00     0.041 C 
HETATM    6  C7  UNL     1     -33.863   6.419   6.290  1.00 20.00     0.066 C 
HETATM    7  C8  UNL     1     -35.426   4.490   5.632  1.00 20.00     0.005 C 
HETATM    8  C9  UNL     1     -34.447   5.048   6.690  1.00 20.00     0.007 C 
HETATM    9  O11 UNL     1     -32.754   7.368   4.310  1.00 20.00    -0.311 OA
ENDROOT
BRANCH   3  10
HETATM   10  C5  UNL     1     -31.886   7.934   2.162  1.00 20.00     0.295 C 
HETATM   11  O10 UNL     1     -32.301   9.026   1.712  1.00 20.00    -0.299 OA
ENDBRANCH   3  10
TORSDOF 1
ENDMDL
MODEL 2
REMARK VINA RESULT:      -4.9      0.816      1.870
REMARK  1 active torsions:
REMARK  status: ('A' for Active; 'I' for Inactive)
REMARK    1  A    between atoms: C3_3  and  C5_5 
ROOT
HETATM    1  C1  UNL     1     -32.505   7.567   4.341  1.00 20.00     0.050 A 
HETATM    2  C2  UNL     1     -33.373   6.606   4.905  1.00 20.00    -0.026 A 
HETATM    3  C3  UNL     1     -32.471   7.302   2.987  1.00 20.00     0.113 A 
HETATM    4  C4  UNL     1     -33.805   5.833   3.852  1.00 20.00     0.060 A 
HETATM    5  C6  UNL     1     -33.830   6.371   6.299  1.00 20.00     0.041 C 
HETATM    6  C7  UNL     1     -34.714   4.667   3.898  1.00 20.00     0.066 C 
HETATM    7  C8  UNL     1     -34.472   4.974   6.436  1.00 20.00     0.005 C 
HETATM    8  C9  UNL     1     -35.425   4.640   5.267  1.00 20.00     0.007 C 
HETATM    9  O11 UNL     1     -33.265   6.237   2.679  1.00 20.00    -0.311 OA
ENDROOT
BRANCH   3  10
HETATM   10  C5  UNL     1     -31.772   7.936   1.923  1.00 20.00     0.295 C 
HETATM   11  O10 UNL     1     -32.154   8.983   1.353  1.00 20.00    -0.299 OA
ENDBRANCH   3  10
TORSDOF 1
ENDMDL
MODEL 3
REMARK VINA RESULT:      -4.8     10.802     11.736
REMARK  1 active torsions:
REMARK  status: ('A' for Active; 'I' for Inactive)
REMARK    1  A    between atoms: C3_3  and  C5_5 
ROOT
HETATM    1  C1  UNL     1     -41.901   3.012  -2.597  1.00 20.00     0.050 A 
HETATM    2  C2  UNL     1     -41.668   4.264  -1.986  1.00 20.00    -0.026 A 
HETATM    3  C3  UNL     1     -42.815   3.245  -3.606  1.00 20.00     0.113 A 
HETATM    4  C4  UNL     1     -42.452   5.164  -2.671  1.00 20.00     0.060 A 
HETATM    5  C6  UNL     1     -40.787   4.677  -0.864  1.00 20.00     0.041 C 
HETATM    6  C7  UNL     1     -42.599   6.613  -2.418  1.00 20.00     0.066 C 
HETATM    7  C8  UNL     1     -41.180   6.078  -0.346  1.00 20.00     0.005 C 
HETATM    8  C9  UNL     1     -41.457   7.078  -1.490  1.00 20.00     0.007 C 
HETATM    9  O11 UNL     1     -43.159   4.563  -3.656  1.00 20.00    -0.311 OA
ENDROOT
BRANCH   3  10
HETATM   10  C5  UNL     1     -43.417   2.366  -4.548  1.00 20.00     0.295 C 
HETATM   11  O10 UNL     1     -42.906   2.051  -5.645  1.00 20.00    -0.299 OA
ENDBRANCH   3  10
TORSDOF 1
ENDMDL
MODEL 4
REMARK VINA RESULT:      -4.7     11.558     12.651
REMARK  1 active torsions:
REMARK  status: ('A' for Active; 'I' for Inactive)
REMARK    1  A    between atoms: C3_3  and  C5_5 
ROOT
HETATM    1  C1  UNL     1     -33.857  16.161  -4.552  1.00 20.00     0.050 A 
HETATM    2  C2  UNL     1     -33.926  16.979  -3.402  1.00 20.00    -0.026 A 
HETATM    3  C3  UNL     1     -34.244  14.900  -4.146  1.00 20.00     0.113 A 
HETATM    4  C4  UNL     1     -34.355  16.157  -2.386  1.00 20.00     0.060 A 
HETATM    5  C6  UNL     1     -33.651  18.423  -3.188  1.00 20.00     0.041 C 
HETATM    6  C7  UNL     1     -34.572  16.508  -0.967  1.00 20.00     0.066 C 
HETATM    7  C8  UNL     1     -33.515  18.737  -1.682  1.00 20.00     0.005 C 
HETATM    8  C9  UNL     1     -34.603  18.045  -0.831  1.00 20.00     0.007 C 
HETATM    9  O11 UNL     1     -34.550  14.889  -2.817  1.00 20.00    -0.311 OA
ENDROOT
BRANCH   3  10
HETATM   10  C5  UNL     1     -34.366  13.679  -4.865  1.00 20.00     0.295 C 
HETATM   11  O10 UNL     1     -34.964  12.666  -4.437  1.00 20.00    -0.299 OA
ENDBRANCH   3  10
TORSDOF 1
ENDMDL
MODEL 5
REMARK VINA RESULT:      -4.7     11.236     12.428
REMARK  1 active torsions:
REMARK  status: ('A' for Active; 'I' for Inactive)
REMARK    1  A    between atoms: C3_3  and  C5_5 
ROOT
HETATM    1  C1  UNL     1     -36.738  15.913  -3.145  1.00 20.00     0.050 A 
HETATM    2  C2  UNL     1     -35.428  15.409  -3.308  1.00 20.00    -0.026 A 
HETATM    3  C3  UNL     1     -37.578  14.983  -3.721  1.00 20.00     0.113 A 
HETATM    4  C4  UNL     1     -35.571  14.209  -3.966  1.00 20.00     0.060 A 
HETATM    5  C6  UNL     1     -34.100  15.932  -2.895  1.00 20.00     0.041 C 
HETATM    6  C7  UNL     1     -34.504  13.284  -4.403  1.00 20.00     0.066 C 
HETATM    7  C8  UNL     1     -32.966  15.194  -3.640  1.00 20.00     0.005 C 
HETATM    8  C9  UNL     1     -33.188  13.666  -3.694  1.00 20.00     0.007 C 
HETATM    9  O11 UNL     1     -36.870  13.935  -4.230  1.00 20.00    -0.311 OA
ENDROOT
BRANCH   3  10
HETATM   10  C5  UNL     1     -38.994  14.953  -3.858  1.00 20.00     0.295 C 
HETATM   11  O10 UNL     1     -39.624  14.068  -4.479  1.00 20.00    -0.299 OA
ENDBRANCH   3  10
TORSDOF 1
ENDMDL
MODEL 6
REMARK VINA RESULT:      -4.6     11.303     12.732
REMARK  1 active torsions:
REMARK  status: ('A' for Active; 'I' for Inactive)
REMARK    1  A    between atoms: C3_3  and  C5_5 
ROOT
HETATM    1  C1  UNL     1     -34.680  14.788  -2.797  1.00 20.00     0.050 A 
HETATM    2  C2  UNL     1     -34.442  16.092  -2.307  1.00 20.00    -0.026 A 
HETATM    3  C3  UNL     1     -34.445  14.843  -4.156  1.00 20.00     0.113 A 
HETATM    4  C4  UNL     1     -34.076  16.839  -3.403  1.00 20.00     0.060 A 
HETATM    5  C6  UNL     1     -34.509  16.672  -0.942  1.00 20.00     0.041 C 
HETATM    6  C7  UNL     1     -33.741  18.279  -3.447  1.00 20.00     0.066 C 
HETATM    7  C8  UNL     1     -34.524  18.215  -1.002  1.00 20.00     0.005 C 
HETATM    8  C9  UNL     1     -33.497  18.779  -2.009  1.00 20.00     0.007 C 
HETATM    9  O11 UNL     1     -34.076  16.099  -4.536  1.00 20.00    -0.311 OA
ENDROOT
BRANCH   3  10
HETATM   10  C5  UNL     1     -34.526  13.842  -5.163  1.00 20.00     0.295 C 
HETATM   11  O10 UNL     1     -34.716  12.626  -4.936  1.00 20.00    -0.299 OA
ENDBRANCH   3  10
TORSDOF 1
ENDMDL
MODEL 7
REMARK VINA RESULT:      -4.5     11.687     12.957
REMARK  1 active torsions:
REMARK  status: ('A' for Active; 'I' for Inactive)
REMARK    1  A    between atoms: C3_3  and  C5_5 
ROOT
HETATM    1  C1  UNL     1     -34.379  16.216  -1.806  1.00 20.00     0.050 A 
HETATM    2  C2  UNL     1     -34.380  15.573  -3.064  1.00 20.00    -0.026 A 
HETATM    3  C3  UNL     1     -33.829  17.464  -2.016  1.00 20.00     0.113 A 
HETATM    4  C4  UNL     1     -33.836  16.480  -3.945  1.00 20.00     0.060 A 
HETATM    5  C6  UNL     1     -34.850  14.233  -3.499  1.00 20.00     0.041 C 
HETATM    6  C7  UNL     1     -33.586  16.299  -5.391  1.00 20.00     0.066 C 
HETATM    7  C8  UNL     1     -34.283  13.879  -4.891  1.00 20.00     0.005 C 
HETATM    8  C9  UNL     1     -34.363  15.061  -5.882  1.00 20.00     0.007 C 
HETATM    9  O11 UNL     1     -33.491  17.633  -3.326  1.00 20.00    -0.311 OA
ENDROOT
BRANCH   3  10
HETATM   10  C5  UNL     1     -33.575  18.541  -1.123  1.00 20.00     0.295 C 
HETATM   11  O10 UNL     1     -32.553  19.263  -1.161  1.00 20.00    -0.299 OA
ENDBRANCH   3  10
TORSDOF 1
ENDMDL
MODEL 8
REMARK VINA RESULT:      -4.5     11.547     12.443
REMARK  1 active torsions:
REMARK  status: ('A' for Active; 'I' for Inactive)
REMARK    1  A    between atoms: C3_3  and  C5_5 
ROOT
HETATM    1  C1  UNL     1     -33.974  15.056  -3.014  1.00 20.00     0.050 A 
HETATM    2  C2  UNL     1     -34.568  16.116  -2.292  1.00 20.00    -0.026 A 
HETATM    3  C3  UNL     1     -34.857  14.743  -4.027  1.00 20.00     0.113 A 
HETATM    4  C4  UNL     1     -35.764  16.370  -2.923  1.00 20.00     0.060 A 
HETATM    5  C6  UNL     1     -34.114  16.895  -1.112  1.00 20.00     0.041 C 
HETATM    6  C7  UNL     1     -36.787  17.371  -2.553  1.00 20.00     0.066 C 
HETATM    7  C8  UNL     1     -35.290  17.680  -0.489  1.00 20.00     0.005 C 
HETATM    8  C9  UNL     1     -36.171  18.372  -1.553  1.00 20.00     0.007 C 
HETATM    9  O11 UNL     1     -35.960  15.544  -3.977  1.00 20.00    -0.311 OA
ENDROOT
BRANCH   3  10
HETATM   10  C5  UNL     1     -34.795  13.766  -5.059  1.00 20.00     0.295 C 
HETATM   11  O10 UNL     1     -34.792  12.531  -4.860  1.00 20.00    -0.299 OA
ENDBRANCH   3  10
TORSDOF 1
ENDMDL
MODEL 9
REMARK VINA RESULT:      -4.3     11.386     12.640
REMARK  1 active torsions:
REMARK  status: ('A' for Active; 'I' for Inactive)
REMARK    1  A    between atoms: C3_3  and  C5_5 
ROOT
HETATM    1  C1  UNL     1     -33.717  17.170  -3.218  1.00 20.00     0.050 A 
HETATM    2  C2  UNL     1     -34.012  16.150  -4.151  1.00 20.00    -0.026 A 
HETATM    3  C3  UNL     1     -34.174  16.714  -1.998  1.00 20.00     0.113 A 
HETATM    4  C4  UNL     1     -34.621  15.150  -3.428  1.00 20.00     0.060 A 
HETATM    5  C6  UNL     1     -33.762  16.032  -5.610  1.00 20.00     0.041 C 
HETATM    6  C7  UNL     1     -35.151  13.865  -3.930  1.00 20.00     0.066 C 
HETATM    7  C8  UNL     1     -34.609  14.894  -6.220  1.00 20.00     0.005 C 
HETATM    8  C9  UNL     1     -34.602  13.617  -5.350  1.00 20.00     0.007 C 
HETATM    9  O11 UNL     1     -34.732  15.476  -2.119  1.00 20.00    -0.311 OA
ENDROOT
BRANCH   3  10
HETATM   10  C5  UNL     1     -34.153  17.307  -0.706  1.00 20.00     0.295 C 
HETATM   11  O10 UNL     1     -34.934  17.002   0.223  1.00 20.00    -0.299 OA
ENDBRANCH   3  10
TORSDOF 1
ENDMDL
