MODEL 1
REMARK VINA RESULT:      -5.0      0.000      0.000
REMARK  1 active torsions:
REMARK  status: ('A' for Active; 'I' for Inactive)
REMARK    1  A    between atoms: C3_3  and  C9_9 
ROOT
HETATM    1  C1  UNL     1     -34.598  16.515  -0.905  1.00 20.00     0.013 C 
HETATM    2  C2  UNL     1     -34.433  16.406  -2.089  1.00 20.00    -0.099 C 
HETATM    3  C4  UNL     1     -34.844  13.438  -4.272  1.00 20.00     0.000 C 
HETATM    4  C5  UNL     1     -33.550  13.801  -3.553  1.00 20.00     0.002 C 
HETATM    5  C6  UNL     1     -35.958  14.425  -3.947  1.00 20.00     0.002 C 
HETATM    6  C7  UNL     1     -33.118  15.237  -3.856  1.00 20.00     0.030 C 
HETATM    7  C8  UNL     1     -35.547  15.865  -4.254  1.00 20.00     0.030 C 
HETATM    8  C9  UNL     1     -34.224  16.270  -3.577  1.00 20.00     0.083 C 
ENDROOT
BRANCH   8   9
HETATM    9  C3  UNL     1     -33.800  17.593  -4.076  1.00 20.00     0.143 C 
HETATM   10  C10 UNL     1     -33.599  17.725  -5.562  1.00 20.00     0.093 C 
HETATM   11  O11 UNL     1     -33.621  18.544  -3.315  1.00 20.00    -0.297 OA
ENDBRANCH   8   9
TORSDOF 1
ENDMDL
MODEL 2
REMARK VINA RESULT:      -4.9      2.413      3.959
REMARK  1 active torsions:
REMARK  status: ('A' for Active; 'I' for Inactive)
REMARK    1  A    between atoms: C3_3  and  C9_9 
ROOT
HETATM    1  C1  UNL     1     -35.369  14.369  -7.407  1.00 20.00     0.013 C 
HETATM    2  C2  UNL     1     -35.500  14.597  -6.236  1.00 20.00    -0.099 C 
HETATM    3  C4  UNL     1     -32.922  15.035  -3.608  1.00 20.00     0.000 C 
HETATM    4  C5  UNL     1     -33.534  13.694  -3.994  1.00 20.00     0.002 C 
HETATM    5  C6  UNL     1     -33.472  16.167  -4.468  1.00 20.00     0.002 C 
HETATM    6  C7  UNL     1     -35.062  13.732  -3.939  1.00 20.00     0.030 C 
HETATM    7  C8  UNL     1     -34.999  16.227  -4.416  1.00 20.00     0.030 C 
HETATM    8  C9  UNL     1     -35.666  14.883  -4.764  1.00 20.00     0.083 C 
ENDROOT
BRANCH   8   9
HETATM    9  C3  UNL     1     -37.116  14.970  -4.502  1.00 20.00     0.143 C 
HETATM   10  C10 UNL     1     -37.857  16.105  -5.158  1.00 20.00     0.093 C 
HETATM   11  O11 UNL     1     -37.693  14.154  -3.784  1.00 20.00    -0.297 OA
ENDBRANCH   8   9
TORSDOF 1
ENDMDL
MODEL 3
REMARK VINA RESULT:      -4.7      2.437      4.166
REMARK  1 active torsions:
REMARK  status: ('A' for Active; 'I' for Inactive)
REMARK    1  A    between atoms: C3_3  and  C9_9 
ROOT
HETATM    1  C1  UNL     1     -34.793  14.768  -7.605  1.00 20.00     0.013 C 
HETATM    2  C2  UNL     1     -34.649  14.894  -6.420  1.00 20.00    -0.099 C 
HETATM    3  C4  UNL     1     -34.861  17.944  -4.323  1.00 20.00     0.000 C 
HETATM    4  C5  UNL     1     -33.585  17.454  -4.997  1.00 20.00     0.002 C 
HETATM    5  C6  UNL     1     -36.048  17.046  -4.655  1.00 20.00     0.002 C 
HETATM    6  C7  UNL     1     -33.285  15.996  -4.647  1.00 20.00     0.030 C 
HETATM    7  C8  UNL     1     -35.768  15.585  -4.301  1.00 20.00     0.030 C 
HETATM    8  C9  UNL     1     -34.468  15.052  -4.931  1.00 20.00     0.083 C 
ENDROOT
BRANCH   8   9
HETATM    9  C3  UNL     1     -34.171  13.712  -4.388  1.00 20.00     0.143 C 
HETATM   10  C10 UNL     1     -32.949  13.588  -3.516  1.00 20.00     0.093 C 
HETATM   11  O11 UNL     1     -34.887  12.742  -4.633  1.00 20.00    -0.297 OA
ENDBRANCH   8   9
TORSDOF 1
ENDMDL
MODEL 4
REMARK VINA RESULT:      -4.7      2.011      3.572
REMARK  1 active torsions:
REMARK  status: ('A' for Active; 'I' for Inactive)
REMARK    1  A    between atoms: C3_3  and  C9_9 
ROOT
HETATM    1  C1  UNL     1     -34.671  16.262  -1.536  1.00 20.00     0.013 C 
HETATM    2  C2  UNL     1     -34.586  15.806  -2.643  1.00 20.00    -0.099 C 
HETATM    3  C4  UNL     1     -35.058  17.464  -5.926  1.00 20.00     0.000 C 
HETATM    4  C5  UNL     1     -36.178  16.804  -5.129  1.00 20.00     0.002 C 
HETATM    5  C6  UNL     1     -33.729  17.393  -5.183  1.00 20.00     0.002 C 
HETATM    6  C7  UNL     1     -35.833  15.362  -4.757  1.00 20.00     0.030 C 
HETATM    7  C8  UNL     1     -33.364  15.956  -4.812  1.00 20.00     0.030 C 
HETATM    8  C9  UNL     1     -34.480  15.233  -4.035  1.00 20.00     0.083 C 
ENDROOT
BRANCH   8   9
HETATM    9  C3  UNL     1     -34.133  13.805  -3.888  1.00 20.00     0.143 C 
HETATM   10  C10 UNL     1     -32.738  13.491  -3.417  1.00 20.00     0.093 C 
HETATM   11  O11 UNL     1     -34.945  12.915  -4.136  1.00 20.00    -0.297 OA
ENDBRANCH   8   9
TORSDOF 1
ENDMDL
MODEL 5
REMARK VINA RESULT:      -4.7      2.293      3.805
REMARK  1 active torsions:
REMARK  status: ('A' for Active; 'I' for Inactive)
REMARK    1  A    between atoms: C3_3  and  C9_9 
ROOT
HETATM    1  C1  UNL     1     -37.926  14.829  -3.746  1.00 20.00     0.013 C 
HETATM    2  C2  UNL     1     -36.756  14.876  -4.011  1.00 20.00    -0.099 C 
HETATM    3  C4  UNL     1     -34.171  17.284  -2.887  1.00 20.00     0.000 C 
HETATM    4  C5  UNL     1     -35.039  17.473  -4.126  1.00 20.00     0.002 C 
HETATM    5  C6  UNL     1     -34.530  16.003  -2.146  1.00 20.00     0.002 C 
HETATM    6  C7  UNL     1     -34.967  16.262  -5.057  1.00 20.00     0.030 C 
HETATM    7  C8  UNL     1     -34.453  14.779  -3.060  1.00 20.00     0.030 C 
HETATM    8  C9  UNL     1     -35.286  14.935  -4.346  1.00 20.00     0.083 C 
ENDROOT
BRANCH   8   9
HETATM    9  C3  UNL     1     -35.005  13.807  -5.255  1.00 20.00     0.143 C 
HETATM   10  C10 UNL     1     -35.013  14.107  -6.730  1.00 20.00     0.093 C 
HETATM   11  O11 UNL     1     -34.773  12.676  -4.829  1.00 20.00    -0.297 OA
ENDBRANCH   8   9
TORSDOF 1
ENDMDL
MODEL 6
REMARK VINA RESULT:      -4.7      2.367      3.727
REMARK  1 active torsions:
REMARK  status: ('A' for Active; 'I' for Inactive)
REMARK    1  A    between atoms: C3_3  and  C9_9 
ROOT
HETATM    1  C1  UNL     1     -35.666  16.427  -6.451  1.00 20.00     0.013 C 
HETATM    2  C2  UNL     1     -35.768  15.816  -5.423  1.00 20.00    -0.099 C 
HETATM    3  C4  UNL     1     -33.233  13.820  -3.597  1.00 20.00     0.000 C 
HETATM    4  C5  UNL     1     -34.148  13.260  -4.680  1.00 20.00     0.002 C 
HETATM    5  C6  UNL     1     -33.461  15.312  -3.391  1.00 20.00     0.002 C 
HETATM    6  C7  UNL     1     -35.620  13.553  -4.384  1.00 20.00     0.030 C 
HETATM    7  C8  UNL     1     -34.926  15.623  -3.083  1.00 20.00     0.030 C 
HETATM    8  C9  UNL     1     -35.897  15.047  -4.132  1.00 20.00     0.083 C 
ENDROOT
BRANCH   8   9
HETATM    9  C3  UNL     1     -37.286  15.218  -3.664  1.00 20.00     0.143 C 
HETATM   10  C10 UNL     1     -37.700  16.609  -3.262  1.00 20.00     0.093 C 
HETATM   11  O11 UNL     1     -38.070  14.271  -3.606  1.00 20.00    -0.297 OA
ENDBRANCH   8   9
TORSDOF 1
ENDMDL
MODEL 7
REMARK VINA RESULT:      -4.6      2.705      4.150
REMARK  1 active torsions:
REMARK  status: ('A' for Active; 'I' for Inactive)
REMARK    1  A    between atoms: C3_3  and  C9_9 
ROOT
HETATM    1  C1  UNL     1     -37.391  15.388  -4.186  1.00 20.00     0.013 C 
HETATM    2  C2  UNL     1     -36.339  15.095  -4.684  1.00 20.00    -0.099 C 
HETATM    3  C4  UNL     1     -34.607  16.586  -7.603  1.00 20.00     0.000 C 
HETATM    4  C5  UNL     1     -35.611  15.443  -7.694  1.00 20.00     0.002 C 
HETATM    5  C6  UNL     1     -34.437  17.067  -6.167  1.00 20.00     0.002 C 
HETATM    6  C7  UNL     1     -35.235  14.285  -6.768  1.00 20.00     0.030 C 
HETATM    7  C8  UNL     1     -34.050  15.923  -5.229  1.00 20.00     0.030 C 
HETATM    8  C9  UNL     1     -35.016  14.726  -5.310  1.00 20.00     0.083 C 
ENDROOT
BRANCH   8   9
HETATM    9  C3  UNL     1     -34.470  13.598  -4.530  1.00 20.00     0.143 C 
HETATM   10  C10 UNL     1     -33.228  13.870  -3.723  1.00 20.00     0.093 C 
HETATM   11  O11 UNL     1     -35.003  12.489  -4.537  1.00 20.00    -0.297 OA
ENDBRANCH   8   9
TORSDOF 1
ENDMDL
MODEL 8
REMARK VINA RESULT:      -4.6      0.680      2.824
REMARK  1 active torsions:
REMARK  status: ('A' for Active; 'I' for Inactive)
REMARK    1  A    between atoms: C3_3  and  C9_9 
ROOT
HETATM    1  C1  UNL     1     -33.691  17.458  -5.575  1.00 20.00     0.013 C 
HETATM    2  C2  UNL     1     -33.967  16.861  -4.571  1.00 20.00    -0.099 C 
HETATM    3  C4  UNL     1     -35.177  13.383  -4.144  1.00 20.00     0.000 C 
HETATM    4  C5  UNL     1     -36.087  14.588  -4.352  1.00 20.00     0.002 C 
HETATM    5  C6  UNL     1     -33.706  13.782  -4.176  1.00 20.00     0.002 C 
HETATM    6  C7  UNL     1     -35.797  15.698  -3.340  1.00 20.00     0.030 C 
HETATM    7  C8  UNL     1     -33.397  14.884  -3.162  1.00 20.00     0.030 C 
HETATM    8  C9  UNL     1     -34.315  16.112  -3.309  1.00 20.00     0.083 C 
ENDROOT
BRANCH   8   9
HETATM    9  C3  UNL     1     -34.085  17.037  -2.181  1.00 20.00     0.143 C 
HETATM   10  C10 UNL     1     -34.622  16.616  -0.839  1.00 20.00     0.093 C 
HETATM   11  O11 UNL     1     -33.482  18.099  -2.330  1.00 20.00    -0.297 OA
ENDBRANCH   8   9
TORSDOF 1
ENDMDL
MODEL 9
REMARK VINA RESULT:      -4.6      1.398      2.757
REMARK  1 active torsions:
REMARK  status: ('A' for Active; 'I' for Inactive)
REMARK    1  A    between atoms: C3_3  and  C9_9 
ROOT
HETATM    1  C1  UNL     1     -34.678  16.524  -1.012  1.00 20.00     0.013 C 
HETATM    2  C2  UNL     1     -34.736  16.170  -2.157  1.00 20.00    -0.099 C 
HETATM    3  C4  UNL     1     -37.609  16.201  -4.500  1.00 20.00     0.000 C 
HETATM    4  C5  UNL     1     -37.275  15.042  -3.567  1.00 20.00     0.002 C 
HETATM    5  C6  UNL     1     -36.639  17.362  -4.316  1.00 20.00     0.002 C 
HETATM    6  C7  UNL     1     -35.827  14.579  -3.737  1.00 20.00     0.030 C 
HETATM    7  C8  UNL     1     -35.186  16.918  -4.493  1.00 20.00     0.030 C 
HETATM    8  C9  UNL     1     -34.808  15.724  -3.596  1.00 20.00     0.083 C 
ENDROOT
BRANCH   8   9
HETATM    9  C3  UNL     1     -33.465  15.237  -3.965  1.00 20.00     0.143 C 
HETATM   10  C10 UNL     1     -33.174  13.784  -3.699  1.00 20.00     0.093 C 
HETATM   11  O11 UNL     1     -32.623  15.981  -4.468  1.00 20.00    -0.297 OA
ENDBRANCH   8   9
TORSDOF 1
ENDMDL
