MODEL 1
REMARK VINA RESULT:      -4.5      0.000      0.000
REMARK  2 active torsions:
REMARK  status: ('A' for Active; 'I' for Inactive)
REMARK    1  A    between atoms: C3_3  and  C7_7 
REMARK    2  A    between atoms: C6_6  and  O11_11 
ROOT
HETATM    1  C1  UNL     1     -33.098  16.196  -4.616  1.00 20.00    -0.028 C 
HETATM    2  C2  UNL     1     -33.423  15.728  -3.404  1.00 20.00     0.002 C 
HETATM    3  C4  UNL     1     -34.064  16.263  -5.758  1.00 20.00     0.028 C 
HETATM    4  C5  UNL     1     -35.521  16.021  -5.343  1.00 20.00     0.023 C 
HETATM    5  C6  UNL     1     -34.782  15.184  -3.060  1.00 20.00     0.158 C 
HETATM    6  C7  UNL     1     -35.665  14.895  -4.302  1.00 20.00     0.039 C 
HETATM    7  C8  UNL     1     -37.144  14.727  -3.921  1.00 20.00     0.026 C 
ENDROOT
BRANCH   6   8
HETATM    8  C3  UNL     1     -35.248  13.580  -4.923  1.00 20.00     0.243 C 
HETATM    9  O10 UNL     1     -34.904  12.602  -4.268  1.00 20.00    -0.306 OA
ENDBRANCH   6   8
BRANCH   5  10
HETATM   10  O11 UNL     1     -35.428  16.125  -2.201  1.00 20.00    -0.386 OA
HETATM   11  C9  UNL     1     -34.575  16.522  -1.139  1.00 20.00     0.202 C 
ENDBRANCH   5  10
TORSDOF 2
ENDMDL
MODEL 2
REMARK VINA RESULT:      -4.5      1.506      2.724
REMARK  2 active torsions:
REMARK  status: ('A' for Active; 'I' for Inactive)
REMARK    1  A    between atoms: C3_3  and  C7_7 
REMARK    2  A    between atoms: C6_6  and  O11_11 
ROOT
HETATM    1  C1  UNL     1     -34.824  15.932  -2.325  1.00 20.00    -0.028 C 
HETATM    2  C2  UNL     1     -35.926  15.665  -3.038  1.00 20.00     0.002 C 
HETATM    3  C4  UNL     1     -33.445  15.916  -2.906  1.00 20.00     0.028 C 
HETATM    4  C5  UNL     1     -33.426  15.854  -4.439  1.00 20.00     0.023 C 
HETATM    5  C6  UNL     1     -35.903  15.286  -4.493  1.00 20.00     0.158 C 
HETATM    6  C7  UNL     1     -34.493  14.899  -5.010  1.00 20.00     0.039 C 
HETATM    7  C8  UNL     1     -34.427  14.907  -6.545  1.00 20.00     0.026 C 
ENDROOT
BRANCH   6   8
HETATM    8  C3  UNL     1     -34.173  13.482  -4.591  1.00 20.00     0.243 C 
HETATM    9  O10 UNL     1     -35.025  12.610  -4.451  1.00 20.00    -0.306 OA
ENDBRANCH   6   8
BRANCH   5  10
HETATM   10  O11 UNL     1     -36.419  16.388  -5.242  1.00 20.00    -0.386 OA
HETATM   11  C9  UNL     1     -37.623  16.878  -4.673  1.00 20.00     0.202 C 
ENDBRANCH   5  10
TORSDOF 2
ENDMDL
MODEL 3
REMARK VINA RESULT:      -4.2      1.869      2.780
REMARK  2 active torsions:
REMARK  status: ('A' for Active; 'I' for Inactive)
REMARK    1  A    between atoms: C3_3  and  C7_7 
REMARK    2  A    between atoms: C6_6  and  O11_11 
ROOT
HETATM    1  C1  UNL     1     -33.157  14.940  -3.546  1.00 20.00    -0.028 C 
HETATM    2  C2  UNL     1     -33.627  16.147  -3.886  1.00 20.00     0.002 C 
HETATM    3  C4  UNL     1     -33.753  13.656  -4.035  1.00 20.00     0.028 C 
HETATM    4  C5  UNL     1     -34.759  13.844  -5.178  1.00 20.00     0.023 C 
HETATM    5  C6  UNL     1     -34.828  16.351  -4.768  1.00 20.00     0.158 C 
HETATM    6  C7  UNL     1     -35.673  15.067  -4.972  1.00 20.00     0.039 C 
HETATM    7  C8  UNL     1     -36.635  15.202  -6.163  1.00 20.00     0.026 C 
ENDROOT
BRANCH   6   8
HETATM    8  C3  UNL     1     -36.548  14.841  -3.759  1.00 20.00     0.243 C 
HETATM    9  O10 UNL     1     -37.560  14.146  -3.775  1.00 20.00    -0.306 OA
ENDBRANCH   6   8
BRANCH   5  10
HETATM   10  O11 UNL     1     -34.369  16.847  -6.027  1.00 20.00    -0.386 OA
HETATM   11  C9  UNL     1     -33.746  18.114  -5.885  1.00 20.00     0.202 C 
ENDBRANCH   5  10
TORSDOF 2
ENDMDL
MODEL 4
REMARK VINA RESULT:      -4.2      1.502      3.065
REMARK  2 active torsions:
REMARK  status: ('A' for Active; 'I' for Inactive)
REMARK    1  A    between atoms: C3_3  and  C7_7 
REMARK    2  A    between atoms: C6_6  and  O11_11 
ROOT
HETATM    1  C1  UNL     1     -36.551  16.256  -4.736  1.00 20.00    -0.028 C 
HETATM    2  C2  UNL     1     -35.485  16.558  -5.489  1.00 20.00     0.002 C 
HETATM    3  C4  UNL     1     -36.478  15.393  -3.515  1.00 20.00     0.028 C 
HETATM    4  C5  UNL     1     -35.045  15.124  -3.039  1.00 20.00     0.023 C 
HETATM    5  C6  UNL     1     -34.101  16.037  -5.215  1.00 20.00     0.158 C 
HETATM    6  C7  UNL     1     -34.070  14.863  -4.204  1.00 20.00     0.039 C 
HETATM    7  C8  UNL     1     -32.655  14.624  -3.652  1.00 20.00     0.026 C 
ENDROOT
BRANCH   6   8
HETATM    8  C3  UNL     1     -34.460  13.581  -4.906  1.00 20.00     0.243 C 
HETATM    9  O10 UNL     1     -34.930  12.608  -4.325  1.00 20.00    -0.306 OA
ENDBRANCH   6   8
BRANCH   5  10
HETATM   10  O11 UNL     1     -33.310  17.126  -4.735  1.00 20.00    -0.386 OA
HETATM   11  C9  UNL     1     -33.561  18.310  -5.474  1.00 20.00     0.202 C 
ENDBRANCH   5  10
TORSDOF 2
ENDMDL
MODEL 5
REMARK VINA RESULT:      -4.2      1.707      2.087
REMARK  2 active torsions:
REMARK  status: ('A' for Active; 'I' for Inactive)
REMARK    1  A    between atoms: C3_3  and  C7_7 
REMARK    2  A    between atoms: C6_6  and  O11_11 
ROOT
HETATM    1  C1  UNL     1     -34.390  13.485  -4.832  1.00 20.00    -0.028 C 
HETATM    2  C2  UNL     1     -34.598  13.937  -3.588  1.00 20.00     0.002 C 
HETATM    3  C4  UNL     1     -34.925  14.164  -6.054  1.00 20.00     0.028 C 
HETATM    4  C5  UNL     1     -35.481  15.568  -5.781  1.00 20.00     0.023 C 
HETATM    5  C6  UNL     1     -35.420  15.156  -3.274  1.00 20.00     0.158 C 
HETATM    6  C7  UNL     1     -36.281  15.647  -4.466  1.00 20.00     0.039 C 
HETATM    7  C8  UNL     1     -36.785  17.083  -4.252  1.00 20.00     0.026 C 
ENDROOT
BRANCH   6   8
HETATM    8  C3  UNL     1     -37.521  14.787  -4.581  1.00 20.00     0.243 C 
HETATM    9  O10 UNL     1     -38.076  14.270  -3.617  1.00 20.00    -0.306 OA
ENDBRANCH   6   8
BRANCH   5  10
HETATM   10  O11 UNL     1     -34.528  16.189  -2.849  1.00 20.00    -0.386 OA
HETATM   11  C9  UNL     1     -34.550  16.339  -1.439  1.00 20.00     0.202 C 
ENDBRANCH   5  10
TORSDOF 2
ENDMDL
MODEL 6
REMARK VINA RESULT:      -4.1      1.700      3.279
REMARK  2 active torsions:
REMARK  status: ('A' for Active; 'I' for Inactive)
REMARK    1  A    between atoms: C3_3  and  C7_7 
REMARK    2  A    between atoms: C6_6  and  O11_11 
ROOT
HETATM    1  C1  UNL     1     -35.264  13.945  -5.854  1.00 20.00    -0.028 C 
HETATM    2  C2  UNL     1     -35.792  15.158  -5.649  1.00 20.00     0.002 C 
HETATM    3  C4  UNL     1     -34.408  13.239  -4.849  1.00 20.00     0.028 C 
HETATM    4  C5  UNL     1     -34.425  13.894  -3.462  1.00 20.00     0.023 C 
HETATM    5  C6  UNL     1     -35.558  15.966  -4.403  1.00 20.00     0.158 C 
HETATM    6  C7  UNL     1     -34.393  15.433  -3.529  1.00 20.00     0.039 C 
HETATM    7  C8  UNL     1     -34.434  16.015  -2.107  1.00 20.00     0.026 C 
ENDROOT
BRANCH   6   8
HETATM    8  C3  UNL     1     -33.074  15.881  -4.119  1.00 20.00     0.243 C 
HETATM    9  O10 UNL     1     -32.966  16.827  -4.893  1.00 20.00    -0.306 OA
ENDBRANCH   6   8
BRANCH   5  10
HETATM   10  O11 UNL     1     -36.774  15.977  -3.652  1.00 20.00    -0.386 OA
HETATM   11  C9  UNL     1     -37.888  16.261  -4.482  1.00 20.00     0.202 C 
ENDBRANCH   5  10
TORSDOF 2
ENDMDL
MODEL 7
REMARK VINA RESULT:      -4.1      1.581      2.649
REMARK  2 active torsions:
REMARK  status: ('A' for Active; 'I' for Inactive)
REMARK    1  A    between atoms: C3_3  and  C7_7 
REMARK    2  A    between atoms: C6_6  and  O11_11 
ROOT
HETATM    1  C1  UNL     1     -34.452  15.159  -6.767  1.00 20.00    -0.028 C 
HETATM    2  C2  UNL     1     -33.764  16.174  -6.227  1.00 20.00     0.002 C 
HETATM    3  C4  UNL     1     -35.279  14.205  -5.963  1.00 20.00     0.028 C 
HETATM    4  C5  UNL     1     -35.504  14.659  -4.515  1.00 20.00     0.023 C 
HETATM    5  C6  UNL     1     -33.716  16.450  -4.750  1.00 20.00     0.158 C 
HETATM    6  C7  UNL     1     -34.242  15.278  -3.882  1.00 20.00     0.039 C 
HETATM    7  C8  UNL     1     -34.549  15.726  -2.445  1.00 20.00     0.026 C 
ENDROOT
BRANCH   6   8
HETATM    8  C3  UNL     1     -33.170  14.218  -3.762  1.00 20.00     0.243 C 
HETATM    9  O10 UNL     1     -33.407  13.044  -3.493  1.00 20.00    -0.306 OA
ENDBRANCH   6   8
BRANCH   5  10
HETATM   10  O11 UNL     1     -34.478  17.633  -4.499  1.00 20.00    -0.386 OA
HETATM   11  C9  UNL     1     -33.663  18.792  -4.553  1.00 20.00     0.202 C 
ENDBRANCH   5  10
TORSDOF 2
ENDMDL
MODEL 8
REMARK VINA RESULT:      -4.0      1.803      3.273
REMARK  2 active torsions:
REMARK  status: ('A' for Active; 'I' for Inactive)
REMARK    1  A    between atoms: C3_3  and  C7_7 
REMARK    2  A    between atoms: C6_6  and  O11_11 
ROOT
HETATM    1  C1  UNL     1     -34.590  17.554  -3.771  1.00 20.00    -0.028 C 
HETATM    2  C2  UNL     1     -34.927  17.101  -4.986  1.00 20.00     0.002 C 
HETATM    3  C4  UNL     1     -34.393  16.662  -2.586  1.00 20.00     0.028 C 
HETATM    4  C5  UNL     1     -34.325  15.172  -2.945  1.00 20.00     0.023 C 
HETATM    5  C6  UNL     1     -35.179  15.650  -5.290  1.00 20.00     0.158 C 
HETATM    6  C7  UNL     1     -35.350  14.772  -4.024  1.00 20.00     0.039 C 
HETATM    7  C8  UNL     1     -35.208  13.276  -4.345  1.00 20.00     0.026 C 
ENDROOT
BRANCH   6   8
HETATM    8  C3  UNL     1     -36.749  14.945  -3.476  1.00 20.00     0.243 C 
HETATM    9  O10 UNL     1     -37.694  14.230  -3.796  1.00 20.00    -0.306 OA
ENDBRANCH   6   8
BRANCH   5  10
HETATM   10  O11 UNL     1     -34.089  15.172  -6.081  1.00 20.00    -0.386 OA
HETATM   11  C9  UNL     1     -34.459  15.043  -7.444  1.00 20.00     0.202 C 
ENDBRANCH   5  10
TORSDOF 2
ENDMDL
MODEL 9
REMARK VINA RESULT:      -3.9      1.743      3.285
REMARK  2 active torsions:
REMARK  status: ('A' for Active; 'I' for Inactive)
REMARK    1  A    between atoms: C3_3  and  C7_7 
REMARK    2  A    between atoms: C6_6  and  O11_11 
ROOT
HETATM    1  C1  UNL     1     -34.276  13.271  -4.431  1.00 20.00    -0.028 C 
HETATM    2  C2  UNL     1     -35.524  13.639  -4.746  1.00 20.00     0.002 C 
HETATM    3  C4  UNL     1     -33.329  14.142  -3.665  1.00 20.00     0.028 C 
HETATM    4  C5  UNL     1     -34.002  15.365  -3.027  1.00 20.00     0.023 C 
HETATM    5  C6  UNL     1     -36.107  14.981  -4.399  1.00 20.00     0.158 C 
HETATM    6  C7  UNL     1     -35.046  16.020  -3.952  1.00 20.00     0.039 C 
HETATM    7  C8  UNL     1     -35.689  17.220  -3.239  1.00 20.00     0.026 C 
ENDROOT
BRANCH   6   8
HETATM    8  C3  UNL     1     -34.352  16.588  -5.170  1.00 20.00     0.243 C 
HETATM    9  O10 UNL     1     -33.393  17.352  -5.107  1.00 20.00    -0.306 OA
ENDBRANCH   6   8
BRANCH   5  10
HETATM   10  O11 UNL     1     -37.074  14.786  -3.366  1.00 20.00    -0.386 OA
HETATM   11  C9  UNL     1     -38.393  14.778  -3.890  1.00 20.00     0.202 C 
ENDBRANCH   5  10
TORSDOF 2
ENDMDL
