MODEL 1
REMARK VINA RESULT:      -5.3      0.000      0.000
REMARK  1 active torsions:
REMARK  status: ('A' for Active; 'I' for Inactive)
REMARK    1  A    between atoms: C3_3  and  C8_8 
ROOT
HETATM    1  C1  UNL     1     -34.550  14.632  -5.512  1.00 20.00    -0.079 C 
HETATM    2  C2  UNL     1     -35.169  14.323  -6.654  1.00 20.00    -0.028 C 
HETATM    3  C4  UNL     1     -33.618  15.797  -5.293  1.00 20.00     0.039 C 
HETATM    4  C5  UNL     1     -33.155  14.039  -3.748  1.00 20.00     0.014 C 
HETATM    5  C6  UNL     1     -34.449  15.861  -2.909  1.00 20.00     0.019 C 
HETATM    6  C7  UNL     1     -34.599  13.845  -4.217  1.00 20.00     0.027 C 
HETATM    7  C8  UNL     1     -35.366  14.649  -3.151  1.00 20.00     0.081 C 
HETATM    8  C9  UNL     1     -33.233  15.568  -3.818  1.00 20.00    -0.009 C 
HETATM    9  C10 UNL     1     -35.030  15.106  -7.918  1.00 20.00     0.036 C 
ENDROOT
BRANCH   7  10
HETATM   10  C3  UNL     1     -36.754  15.033  -3.568  1.00 20.00     0.223 C 
HETATM   11  O11 UNL     1     -37.633  14.191  -3.732  1.00 20.00    -0.279 OA
HETATM   12 CL12 UNL     1     -36.924  16.749  -3.775  1.00 20.00    -0.043 Cl
ENDBRANCH   7  10
TORSDOF 1
ENDMDL
MODEL 2
REMARK VINA RESULT:      -5.1      2.152      3.982
REMARK  1 active torsions:
REMARK  status: ('A' for Active; 'I' for Inactive)
REMARK    1  A    between atoms: C3_3  and  C8_8 
ROOT
HETATM    1  C1  UNL     1     -34.022  15.863  -2.661  1.00 20.00    -0.079 C 
HETATM    2  C2  UNL     1     -33.850  16.822  -1.748  1.00 20.00    -0.028 C 
HETATM    3  C4  UNL     1     -35.168  14.885  -2.718  1.00 20.00     0.039 C 
HETATM    4  C5  UNL     1     -33.235  13.990  -3.793  1.00 20.00     0.014 C 
HETATM    5  C6  UNL     1     -34.907  14.906  -5.229  1.00 20.00     0.019 C 
HETATM    6  C7  UNL     1     -33.073  15.513  -3.791  1.00 20.00     0.027 C 
HETATM    7  C8  UNL     1     -33.718  15.880  -5.140  1.00 20.00     0.081 C 
HETATM    8  C9  UNL     1     -34.758  14.053  -3.950  1.00 20.00    -0.009 C 
HETATM    9  C10 UNL     1     -34.792  17.078  -0.618  1.00 20.00     0.036 C 
ENDROOT
BRANCH   7  10
HETATM   10  C3  UNL     1     -34.124  17.319  -5.243  1.00 20.00     0.223 C 
HETATM   11  O11 UNL     1     -33.293  18.222  -5.263  1.00 20.00    -0.279 OA
HETATM   12 CL12 UNL     1     -35.848  17.509  -5.324  1.00 20.00    -0.043 Cl
ENDBRANCH   7  10
TORSDOF 1
ENDMDL
MODEL 3
REMARK VINA RESULT:      -4.9      1.853      3.589
REMARK  1 active torsions:
REMARK  status: ('A' for Active; 'I' for Inactive)
REMARK    1  A    between atoms: C3_3  and  C8_8 
ROOT
HETATM    1  C1  UNL     1     -34.888  16.683  -3.464  1.00 20.00    -0.079 C 
HETATM    2  C2  UNL     1     -35.216  16.776  -2.173  1.00 20.00    -0.028 C 
HETATM    3  C4  UNL     1     -33.489  16.614  -4.023  1.00 20.00     0.039 C 
HETATM    4  C5  UNL     1     -35.005  17.493  -5.641  1.00 20.00     0.014 C 
HETATM    5  C6  UNL     1     -34.429  15.190  -5.884  1.00 20.00     0.019 C 
HETATM    6  C7  UNL     1     -35.843  16.691  -4.641  1.00 20.00     0.027 C 
HETATM    7  C8  UNL     1     -35.852  15.304  -5.310  1.00 20.00     0.081 C 
HETATM    8  C9  UNL     1     -33.798  16.556  -5.532  1.00 20.00    -0.009 C 
HETATM    9  C10 UNL     1     -34.222  16.827  -1.060  1.00 20.00     0.036 C 
ENDROOT
BRANCH   7  10
HETATM   10  C3  UNL     1     -36.204  14.186  -4.376  1.00 20.00     0.223 C 
HETATM   11  O11 UNL     1     -37.325  14.087  -3.885  1.00 20.00    -0.279 OA
HETATM   12 CL12 UNL     1     -34.866  13.113  -4.106  1.00 20.00    -0.043 Cl
ENDBRANCH   7  10
TORSDOF 1
ENDMDL
MODEL 4
REMARK VINA RESULT:      -4.8      2.107      2.692
REMARK  1 active torsions:
REMARK  status: ('A' for Active; 'I' for Inactive)
REMARK    1  A    between atoms: C3_3  and  C8_8 
ROOT
HETATM    1  C1  UNL     1     -34.313  16.219  -5.393  1.00 20.00    -0.079 C 
HETATM    2  C2  UNL     1     -34.061  15.800  -6.636  1.00 20.00    -0.028 C 
HETATM    3  C4  UNL     1     -35.599  16.837  -4.907  1.00 20.00     0.039 C 
HETATM    4  C5  UNL     1     -33.761  17.533  -3.555  1.00 20.00     0.014 C 
HETATM    5  C6  UNL     1     -35.120  15.785  -2.663  1.00 20.00     0.019 C 
HETATM    6  C7  UNL     1     -33.343  16.223  -4.228  1.00 20.00     0.027 C 
HETATM    7  C8  UNL     1     -33.794  15.193  -3.175  1.00 20.00     0.081 C 
HETATM    8  C9  UNL     1     -35.232  17.118  -3.437  1.00 20.00    -0.009 C 
HETATM    9  C10 UNL     1     -35.041  15.881  -7.760  1.00 20.00     0.036 C 
ENDROOT
BRANCH   7  10
HETATM   10  C3  UNL     1     -33.938  13.803  -3.714  1.00 20.00     0.223 C 
HETATM   11  O11 UNL     1     -32.969  13.059  -3.845  1.00 20.00    -0.279 OA
HETATM   12 CL12 UNL     1     -35.586  13.420  -4.107  1.00 20.00    -0.043 Cl
ENDBRANCH   7  10
TORSDOF 1
ENDMDL
MODEL 5
REMARK VINA RESULT:      -4.8      2.627      4.413
REMARK  1 active torsions:
REMARK  status: ('A' for Active; 'I' for Inactive)
REMARK    1  A    between atoms: C3_3  and  C8_8 
ROOT
HETATM    1  C1  UNL     1     -35.320  16.160  -2.379  1.00 20.00    -0.079 C 
HETATM    2  C2  UNL     1     -34.599  16.315  -1.265  1.00 20.00    -0.028 C 
HETATM    3  C4  UNL     1     -36.312  17.148  -2.940  1.00 20.00     0.039 C 
HETATM    4  C5  UNL     1     -36.828  14.930  -3.652  1.00 20.00     0.014 C 
HETATM    5  C6  UNL     1     -35.679  16.301  -5.233  1.00 20.00     0.019 C 
HETATM    6  C7  UNL     1     -35.344  14.938  -3.275  1.00 20.00     0.027 C 
HETATM    7  C8  UNL     1     -34.698  15.279  -4.631  1.00 20.00     0.081 C 
HETATM    8  C9  UNL     1     -36.805  16.370  -4.176  1.00 20.00    -0.009 C 
HETATM    9  C10 UNL     1     -34.667  17.521  -0.387  1.00 20.00     0.036 C 
ENDROOT
BRANCH   7  10
HETATM   10  C3  UNL     1     -33.298  15.801  -4.518  1.00 20.00     0.223 C 
HETATM   11  O11 UNL     1     -32.963  16.863  -5.033  1.00 20.00    -0.279 OA
HETATM   12 CL12 UNL     1     -32.275  14.737  -3.601  1.00 20.00    -0.043 Cl
ENDBRANCH   7  10
TORSDOF 1
ENDMDL
MODEL 6
REMARK VINA RESULT:      -4.7      2.100      3.098
REMARK  1 active torsions:
REMARK  status: ('A' for Active; 'I' for Inactive)
REMARK    1  A    between atoms: C3_3  and  C8_8 
ROOT
HETATM    1  C1  UNL     1     -35.944  14.945  -3.996  1.00 20.00    -0.079 C 
HETATM    2  C2  UNL     1     -37.137  15.098  -3.414  1.00 20.00    -0.028 C 
HETATM    3  C4  UNL     1     -35.631  15.174  -5.453  1.00 20.00     0.039 C 
HETATM    4  C5  UNL     1     -34.093  13.626  -4.488  1.00 20.00     0.014 C 
HETATM    5  C6  UNL     1     -33.316  15.870  -4.724  1.00 20.00     0.019 C 
HETATM    6  C7  UNL     1     -34.675  14.448  -3.334  1.00 20.00     0.027 C 
HETATM    7  C8  UNL     1     -33.653  15.597  -3.247  1.00 20.00     0.081 C 
HETATM    8  C9  UNL     1     -34.136  14.797  -5.475  1.00 20.00    -0.009 C 
HETATM    9  C10 UNL     1     -38.369  15.532  -4.136  1.00 20.00     0.036 C 
ENDROOT
BRANCH   7  10
HETATM   10  C3  UNL     1     -34.165  16.805  -2.524  1.00 20.00     0.223 C 
HETATM   11  O11 UNL     1     -34.209  17.907  -3.063  1.00 20.00    -0.279 OA
HETATM   12 CL12 UNL     1     -34.657  16.437  -0.900  1.00 20.00    -0.043 Cl
ENDBRANCH   7  10
TORSDOF 1
ENDMDL
MODEL 7
REMARK VINA RESULT:      -4.7      1.342      3.219
REMARK  1 active torsions:
REMARK  status: ('A' for Active; 'I' for Inactive)
REMARK    1  A    between atoms: C3_3  and  C8_8 
ROOT
HETATM    1  C1  UNL     1     -34.825  15.993  -3.208  1.00 20.00    -0.079 C 
HETATM    2  C2  UNL     1     -35.100  16.820  -2.196  1.00 20.00    -0.028 C 
HETATM    3  C4  UNL     1     -34.026  14.718  -3.120  1.00 20.00     0.039 C 
HETATM    4  C5  UNL     1     -33.942  15.621  -5.327  1.00 20.00     0.014 C 
HETATM    5  C6  UNL     1     -35.473  13.822  -4.985  1.00 20.00     0.019 C 
HETATM    6  C7  UNL     1     -35.198  16.193  -4.663  1.00 20.00     0.027 C 
HETATM    7  C8  UNL     1     -36.251  15.147  -5.075  1.00 20.00     0.081 C 
HETATM    8  C9  UNL     1     -34.048  14.277  -4.598  1.00 20.00    -0.009 C 
HETATM    9  C10 UNL     1     -34.649  16.599  -0.789  1.00 20.00     0.036 C 
ENDROOT
BRANCH   7  10
HETATM   10  C3  UNL     1     -37.485  15.167  -4.225  1.00 20.00     0.223 C 
HETATM   11  O11 UNL     1     -37.893  14.157  -3.659  1.00 20.00    -0.279 OA
HETATM   12 CL12 UNL     1     -38.213  16.743  -4.164  1.00 20.00    -0.043 Cl
ENDBRANCH   7  10
TORSDOF 1
ENDMDL
MODEL 8
REMARK VINA RESULT:      -4.6      2.036      3.235
REMARK  1 active torsions:
REMARK  status: ('A' for Active; 'I' for Inactive)
REMARK    1  A    between atoms: C3_3  and  C8_8 
ROOT
HETATM    1  C1  UNL     1     -35.818  16.070  -3.945  1.00 20.00    -0.079 C 
HETATM    2  C2  UNL     1     -37.091  16.128  -4.346  1.00 20.00    -0.028 C 
HETATM    3  C4  UNL     1     -35.340  15.895  -2.526  1.00 20.00     0.039 C 
HETATM    4  C5  UNL     1     -33.689  17.001  -3.846  1.00 20.00     0.014 C 
HETATM    5  C6  UNL     1     -33.347  14.668  -3.473  1.00 20.00     0.019 C 
HETATM    6  C7  UNL     1     -34.589  16.232  -4.818  1.00 20.00     0.027 C 
HETATM    7  C8  UNL     1     -33.841  14.890  -4.914  1.00 20.00     0.081 C 
HETATM    8  C9  UNL     1     -33.815  15.947  -2.741  1.00 20.00    -0.009 C 
HETATM    9  C10 UNL     1     -38.262  16.023  -3.426  1.00 20.00     0.036 C 
ENDROOT
BRANCH   7  10
HETATM   10  C3  UNL     1     -34.686  13.764  -5.428  1.00 20.00     0.223 C 
HETATM   11  O11 UNL     1     -34.825  12.722  -4.795  1.00 20.00    -0.279 OA
HETATM   12 CL12 UNL     1     -35.398  14.132  -6.969  1.00 20.00    -0.043 Cl
ENDBRANCH   7  10
TORSDOF 1
ENDMDL
MODEL 9
REMARK VINA RESULT:      -4.5      2.111      3.574
REMARK  1 active torsions:
REMARK  status: ('A' for Active; 'I' for Inactive)
REMARK    1  A    between atoms: C3_3  and  C8_8 
ROOT
HETATM    1  C1  UNL     1     -36.699  15.523  -5.417  1.00 20.00    -0.079 C 
HETATM    2  C2  UNL     1     -37.701  15.017  -4.694  1.00 20.00    -0.028 C 
HETATM    3  C4  UNL     1     -36.144  16.921  -5.309  1.00 20.00     0.039 C 
HETATM    4  C5  UNL     1     -35.747  16.016  -7.480  1.00 20.00     0.014 C 
HETATM    5  C6  UNL     1     -33.905  15.955  -5.964  1.00 20.00     0.019 C 
HETATM    6  C7  UNL     1     -35.954  14.827  -6.538  1.00 20.00     0.027 C 
HETATM    7  C8  UNL     1     -34.505  14.544  -6.098  1.00 20.00     0.081 C 
HETATM    8  C9  UNL     1     -35.065  16.874  -6.409  1.00 20.00    -0.009 C 
HETATM    9  C10 UNL     1     -38.441  15.777  -3.642  1.00 20.00     0.036 C 
ENDROOT
BRANCH   7  10
HETATM   10  C3  UNL     1     -34.403  13.737  -4.840  1.00 20.00     0.223 C 
HETATM   11  O11 UNL     1     -34.785  12.571  -4.790  1.00 20.00    -0.279 OA
HETATM   12 CL12 UNL     1     -33.704  14.644  -3.534  1.00 20.00    -0.043 Cl
ENDBRANCH   7  10
TORSDOF 1
ENDMDL
