MODEL 1
REMARK VINA RESULT:      -5.0      0.000      0.000
REMARK  1 active torsions:
REMARK  status: ('A' for Active; 'I' for Inactive)
REMARK    1  A    between atoms: C1_1  and  C3_3 
ROOT
HETATM    1  C1  UNL     1     -36.459  15.603  -3.518  1.00 20.00    -0.010 C 
HETATM    2  C2  UNL     1     -35.317  14.924  -3.337  1.00 20.00    -0.066 C 
HETATM    3  C4  UNL     1     -36.596  17.032  -3.080  1.00 20.00     0.042 C 
HETATM    4  C5  UNL     1     -34.911  13.615  -3.963  1.00 20.00     0.035 C 
HETATM    5  C6  UNL     1     -35.246  17.753  -3.134  1.00 20.00     0.005 C 
HETATM    6  C7  UNL     1     -33.379  13.641  -3.902  1.00 20.00     0.005 C 
HETATM    7  C8  UNL     1     -34.185  17.013  -2.321  1.00 20.00     0.009 C 
HETATM    8  C9  UNL     1     -33.006  15.084  -3.564  1.00 20.00     0.009 C 
HETATM    9  C10 UNL     1     -34.125  15.512  -2.622  1.00 20.00     0.015 C 
ENDROOT
BRANCH   1  10
HETATM   10  C3  UNL     1     -37.579  15.000  -4.248  1.00 20.00     0.152 C 
HETATM   11  C11 UNL     1     -37.770  15.383  -5.693  1.00 20.00     0.096 C 
HETATM   12  O12 UNL     1     -38.341  14.211  -3.685  1.00 20.00    -0.293 OA
ENDBRANCH   1  10
TORSDOF 1
ENDMDL
MODEL 2
REMARK VINA RESULT:      -4.9      0.760      2.724
REMARK  1 active torsions:
REMARK  status: ('A' for Active; 'I' for Inactive)
REMARK    1  A    between atoms: C1_1  and  C3_3 
ROOT
HETATM    1  C1  UNL     1     -35.880  14.975  -4.218  1.00 20.00    -0.010 C 
HETATM    2  C2  UNL     1     -35.413  16.001  -3.490  1.00 20.00    -0.066 C 
HETATM    3  C4  UNL     1     -34.968  13.896  -4.723  1.00 20.00     0.042 C 
HETATM    4  C5  UNL     1     -36.203  16.988  -2.672  1.00 20.00     0.035 C 
HETATM    5  C6  UNL     1     -33.775  13.703  -3.782  1.00 20.00     0.005 C 
HETATM    6  C7  UNL     1     -35.192  17.493  -1.635  1.00 20.00     0.005 C 
HETATM    7  C8  UNL     1     -33.026  15.015  -3.554  1.00 20.00     0.009 C 
HETATM    8  C9  UNL     1     -34.010  16.527  -1.711  1.00 20.00     0.009 C 
HETATM    9  C10 UNL     1     -33.945  16.186  -3.194  1.00 20.00     0.015 C 
ENDROOT
BRANCH   1  10
HETATM   10  C3  UNL     1     -37.320  14.820  -4.452  1.00 20.00     0.152 C 
HETATM   11  C11 UNL     1     -37.915  15.493  -5.662  1.00 20.00     0.096 C 
HETATM   12  O12 UNL     1     -38.014  14.165  -3.673  1.00 20.00    -0.293 OA
ENDBRANCH   1  10
TORSDOF 1
ENDMDL
MODEL 3
REMARK VINA RESULT:      -4.9      2.638      3.538
REMARK  1 active torsions:
REMARK  status: ('A' for Active; 'I' for Inactive)
REMARK    1  A    between atoms: C1_1  and  C3_3 
ROOT
HETATM    1  C1  UNL     1     -33.733  15.337  -4.032  1.00 20.00    -0.010 C 
HETATM    2  C2  UNL     1     -33.729  16.000  -5.199  1.00 20.00    -0.066 C 
HETATM    3  C4  UNL     1     -33.660  16.064  -2.721  1.00 20.00     0.042 C 
HETATM    4  C5  UNL     1     -34.086  15.470  -6.563  1.00 20.00     0.035 C 
HETATM    5  C6  UNL     1     -34.296  17.453  -2.829  1.00 20.00     0.005 C 
HETATM    6  C7  UNL     1     -34.490  16.724  -7.347  1.00 20.00     0.005 C 
HETATM    7  C8  UNL     1     -33.671  18.267  -3.961  1.00 20.00     0.009 C 
HETATM    8  C9  UNL     1     -34.664  17.825  -6.300  1.00 20.00     0.009 C 
HETATM    9  C10 UNL     1     -33.577  17.499  -5.282  1.00 20.00     0.015 C 
ENDROOT
BRANCH   1  10
HETATM   10  C3  UNL     1     -33.916  13.883  -4.000  1.00 20.00     0.152 C 
HETATM   11  C11 UNL     1     -35.307  13.340  -4.197  1.00 20.00     0.096 C 
HETATM   12  O12 UNL     1     -32.954  13.135  -3.809  1.00 20.00    -0.293 OA
ENDBRANCH   1  10
TORSDOF 1
ENDMDL
MODEL 4
REMARK VINA RESULT:      -4.6      1.725      2.396
REMARK  1 active torsions:
REMARK  status: ('A' for Active; 'I' for Inactive)
REMARK    1  A    between atoms: C1_1  and  C3_3 
ROOT
HETATM    1  C1  UNL     1     -36.105  15.221  -3.817  1.00 20.00    -0.010 C 
HETATM    2  C2  UNL     1     -35.548  15.024  -5.022  1.00 20.00    -0.066 C 
HETATM    3  C4  UNL     1     -35.268  15.536  -2.611  1.00 20.00     0.042 C 
HETATM    4  C5  UNL     1     -36.234  14.994  -6.362  1.00 20.00     0.035 C 
HETATM    5  C6  UNL     1     -33.992  16.284  -3.011  1.00 20.00     0.005 C 
HETATM    6  C7  UNL     1     -35.116  15.347  -7.351  1.00 20.00     0.005 C 
HETATM    7  C8  UNL     1     -33.198  15.512  -4.063  1.00 20.00     0.009 C 
HETATM    8  C9  UNL     1     -33.967  15.882  -6.498  1.00 20.00     0.009 C 
HETATM    9  C10 UNL     1     -34.054  15.029  -5.238  1.00 20.00     0.015 C 
ENDROOT
BRANCH   1  10
HETATM   10  C3  UNL     1     -37.563  15.239  -3.662  1.00 20.00     0.152 C 
HETATM   11  C11 UNL     1     -38.240  16.575  -3.494  1.00 20.00     0.096 C 
HETATM   12  O12 UNL     1     -38.205  14.188  -3.663  1.00 20.00    -0.293 OA
ENDBRANCH   1  10
TORSDOF 1
ENDMDL
MODEL 5
REMARK VINA RESULT:      -4.6      1.970      4.287
REMARK  1 active torsions:
REMARK  status: ('A' for Active; 'I' for Inactive)
REMARK    1  A    between atoms: C1_1  and  C3_3 
ROOT
HETATM    1  C1  UNL     1     -34.715  15.644  -2.732  1.00 20.00    -0.010 C 
HETATM    2  C2  UNL     1     -35.967  15.566  -3.208  1.00 20.00    -0.066 C 
HETATM    3  C4  UNL     1     -33.691  14.593  -3.047  1.00 20.00     0.042 C 
HETATM    4  C5  UNL     1     -37.013  16.649  -3.240  1.00 20.00     0.035 C 
HETATM    5  C6  UNL     1     -33.966  13.954  -4.412  1.00 20.00     0.005 C 
HETATM    6  C7  UNL     1     -37.945  16.222  -4.380  1.00 20.00     0.005 C 
HETATM    7  C8  UNL     1     -35.387  13.400  -4.494  1.00 20.00     0.009 C 
HETATM    8  C9  UNL     1     -37.194  15.125  -5.135  1.00 20.00     0.009 C 
HETATM    9  C10 UNL     1     -36.455  14.392  -4.023  1.00 20.00     0.015 C 
ENDROOT
BRANCH   1  10
HETATM   10  C3  UNL     1     -34.278  16.820  -1.972  1.00 20.00     0.152 C 
HETATM   11  C11 UNL     1     -34.605  16.873  -0.502  1.00 20.00     0.096 C 
HETATM   12  O12 UNL     1     -33.669  17.735  -2.529  1.00 20.00    -0.293 OA
ENDBRANCH   1  10
TORSDOF 1
ENDMDL
MODEL 6
REMARK VINA RESULT:      -4.6      2.511      3.472
REMARK  1 active torsions:
REMARK  status: ('A' for Active; 'I' for Inactive)
REMARK    1  A    between atoms: C1_1  and  C3_3 
ROOT
HETATM    1  C1  UNL     1     -34.919  14.884  -5.812  1.00 20.00    -0.010 C 
HETATM    2  C2  UNL     1     -34.170  15.996  -5.774  1.00 20.00    -0.066 C 
HETATM    3  C4  UNL     1     -34.841  13.852  -4.724  1.00 20.00     0.042 C 
HETATM    4  C5  UNL     1     -34.329  17.245  -6.601  1.00 20.00     0.035 C 
HETATM    5  C6  UNL     1     -34.471  14.497  -3.384  1.00 20.00     0.005 C 
HETATM    6  C7  UNL     1     -33.657  18.331  -5.753  1.00 20.00     0.005 C 
HETATM    7  C8  UNL     1     -33.178  15.303  -3.491  1.00 20.00     0.009 C 
HETATM    8  C9  UNL     1     -33.464  17.712  -4.369  1.00 20.00     0.009 C 
HETATM    9  C10 UNL     1     -33.152  16.255  -4.690  1.00 20.00     0.015 C 
ENDROOT
BRANCH   1  10
HETATM   10  C3  UNL     1     -35.918  14.691  -6.868  1.00 20.00     0.152 C 
HETATM   11  C11 UNL     1     -37.313  15.205  -6.624  1.00 20.00     0.096 C 
HETATM   12  O12 UNL     1     -35.617  14.118  -7.917  1.00 20.00    -0.293 OA
ENDBRANCH   1  10
TORSDOF 1
ENDMDL
MODEL 7
REMARK VINA RESULT:      -4.6      2.196      3.513
REMARK  1 active torsions:
REMARK  status: ('A' for Active; 'I' for Inactive)
REMARK    1  A    between atoms: C1_1  and  C3_3 
ROOT
HETATM    1  C1  UNL     1     -34.801  15.528  -5.786  1.00 20.00    -0.010 C 
HETATM    2  C2  UNL     1     -34.149  16.121  -4.774  1.00 20.00    -0.066 C 
HETATM    3  C4  UNL     1     -34.865  14.034  -5.905  1.00 20.00     0.042 C 
HETATM    4  C5  UNL     1     -34.229  17.561  -4.342  1.00 20.00     0.035 C 
HETATM    5  C6  UNL     1     -34.804  13.371  -4.525  1.00 20.00     0.005 C 
HETATM    6  C7  UNL     1     -33.806  17.523  -2.869  1.00 20.00     0.005 C 
HETATM    7  C8  UNL     1     -33.571  13.823  -3.744  1.00 20.00     0.009 C 
HETATM    8  C9  UNL     1     -33.842  16.048  -2.469  1.00 20.00     0.009 C 
HETATM    9  C10 UNL     1     -33.377  15.342  -3.737  1.00 20.00     0.015 C 
ENDROOT
BRANCH   1  10
HETATM   10  C3  UNL     1     -35.563  16.326  -6.752  1.00 20.00     0.152 C 
HETATM   11  C11 UNL     1     -34.820  16.924  -7.918  1.00 20.00     0.096 C 
HETATM   12  O12 UNL     1     -36.774  16.503  -6.601  1.00 20.00    -0.293 OA
ENDBRANCH   1  10
TORSDOF 1
ENDMDL
MODEL 8
REMARK VINA RESULT:      -4.6      1.921      3.317
REMARK  1 active torsions:
REMARK  status: ('A' for Active; 'I' for Inactive)
REMARK    1  A    between atoms: C1_1  and  C3_3 
ROOT
HETATM    1  C1  UNL     1     -34.586  15.732  -4.149  1.00 20.00    -0.010 C 
HETATM    2  C2  UNL     1     -34.670  16.521  -3.067  1.00 20.00    -0.066 C 
HETATM    3  C4  UNL     1     -34.297  16.299  -5.508  1.00 20.00     0.042 C 
HETATM    4  C5  UNL     1     -34.658  16.106  -1.619  1.00 20.00     0.035 C 
HETATM    5  C6  UNL     1     -33.445  17.569  -5.402  1.00 20.00     0.005 C 
HETATM    6  C7  UNL     1     -34.173  17.362  -0.884  1.00 20.00     0.005 C 
HETATM    7  C8  UNL     1     -34.097  18.603  -4.486  1.00 20.00     0.009 C 
HETATM    8  C9  UNL     1     -33.622  18.286  -1.970  1.00 20.00     0.009 C 
HETATM    9  C10 UNL     1     -34.558  18.024  -3.145  1.00 20.00     0.015 C 
ENDROOT
BRANCH   1  10
HETATM   10  C3  UNL     1     -34.670  14.274  -4.019  1.00 20.00     0.152 C 
HETATM   11  C11 UNL     1     -33.392  13.509  -3.793  1.00 20.00     0.096 C 
HETATM   12  O12 UNL     1     -35.758  13.700  -4.101  1.00 20.00    -0.293 OA
ENDBRANCH   1  10
TORSDOF 1
ENDMDL
MODEL 9
REMARK VINA RESULT:      -4.5      1.696      2.694
REMARK  1 active torsions:
REMARK  status: ('A' for Active; 'I' for Inactive)
REMARK    1  A    between atoms: C1_1  and  C3_3 
ROOT
HETATM    1  C1  UNL     1     -36.560  15.478  -4.931  1.00 20.00    -0.010 C 
HETATM    2  C2  UNL     1     -35.468  15.930  -4.296  1.00 20.00    -0.066 C 
HETATM    3  C4  UNL     1     -36.519  15.099  -6.383  1.00 20.00     0.042 C 
HETATM    4  C5  UNL     1     -35.255  16.072  -2.812  1.00 20.00     0.035 C 
HETATM    5  C6  UNL     1     -35.125  14.601  -6.779  1.00 20.00     0.005 C 
HETATM    6  C7  UNL     1     -33.730  16.030  -2.658  1.00 20.00     0.005 C 
HETATM    7  C8  UNL     1     -34.046  15.625  -6.433  1.00 20.00     0.009 C 
HETATM    8  C9  UNL     1     -33.195  15.532  -4.000  1.00 20.00     0.009 C 
HETATM    9  C10 UNL     1     -34.154  16.162  -5.002  1.00 20.00     0.015 C 
ENDROOT
BRANCH   1  10
HETATM   10  C3  UNL     1     -37.806  15.238  -4.196  1.00 20.00     0.152 C 
HETATM   11  C11 UNL     1     -38.754  16.396  -4.016  1.00 20.00     0.096 C 
HETATM   12  O12 UNL     1     -38.057  14.123  -3.736  1.00 20.00    -0.293 OA
ENDBRANCH   1  10
TORSDOF 1
ENDMDL
