MODEL 1
REMARK VINA RESULT:      -4.6      0.000      0.000
REMARK  1 active torsions:
REMARK  status: ('A' for Active; 'I' for Inactive)
REMARK    1  A    between atoms: C3_3  and  N9_9 
ROOT
HETATM    1  C1  UNL     1     -33.739   6.801   6.514  1.00 20.00     0.096 C 
HETATM    2  C2  UNL     1     -34.280   5.740   5.734  1.00 20.00     0.040 A 
HETATM    3  C3  UNL     1     -34.239   5.465   4.411  1.00 20.00     0.005 A 
HETATM    4  C4  UNL     1     -35.095   4.528   6.096  1.00 20.00     0.057 A 
HETATM    5  C5  UNL     1     -35.072   4.194   4.599  1.00 20.00     0.057 A 
HETATM    6  N8  UNL     1     -33.298   7.666   7.150  1.00 20.00    -0.192 NA
ENDROOT
BRANCH   3   7
HETATM    7  N9  UNL     1     -33.745   5.966   3.296  1.00 20.00    -0.283 NA
HETATM    8  C6  UNL     1     -32.843   7.122   3.421  1.00 20.00     0.110 A 
HETATM    9  C7  UNL     1     -32.303   5.789   3.062  1.00 20.00     0.110 A 
ENDBRANCH   3   7
TORSDOF 1
ENDMDL
MODEL 2
REMARK VINA RESULT:      -4.5     11.924     13.608
REMARK  1 active torsions:
REMARK  status: ('A' for Active; 'I' for Inactive)
REMARK    1  A    between atoms: C3_3  and  N9_9 
ROOT
HETATM    1  C1  UNL     1     -34.605  13.936  -3.735  1.00 20.00     0.096 C 
HETATM    2  C2  UNL     1     -34.318  15.231  -3.219  1.00 20.00     0.040 A 
HETATM    3  C3  UNL     1     -33.689  16.306  -3.746  1.00 20.00     0.005 A 
HETATM    4  C4  UNL     1     -34.613  15.885  -1.896  1.00 20.00     0.057 A 
HETATM    5  C5  UNL     1     -33.898  17.118  -2.464  1.00 20.00     0.057 A 
HETATM    6  N8  UNL     1     -34.840  12.880  -4.156  1.00 20.00    -0.192 NA
ENDROOT
BRANCH   3   7
HETATM    7  N9  UNL     1     -33.090  16.673  -4.861  1.00 20.00    -0.283 NA
HETATM    8  C6  UNL     1     -33.903  16.679  -6.089  1.00 20.00     0.110 A 
HETATM    9  C7  UNL     1     -33.501  17.956  -5.453  1.00 20.00     0.110 A 
ENDBRANCH   3   7
TORSDOF 1
ENDMDL
MODEL 3
REMARK VINA RESULT:      -4.3     12.644     14.500
REMARK  1 active torsions:
REMARK  status: ('A' for Active; 'I' for Inactive)
REMARK    1  A    between atoms: C3_3  and  N9_9 
ROOT
HETATM    1  C1  UNL     1     -34.714  13.605  -5.044  1.00 20.00     0.096 C 
HETATM    2  C2  UNL     1     -34.603  14.664  -5.988  1.00 20.00     0.040 A 
HETATM    3  C3  UNL     1     -33.934  15.839  -5.970  1.00 20.00     0.005 A 
HETATM    4  C4  UNL     1     -35.188  14.866  -7.360  1.00 20.00     0.057 A 
HETATM    5  C5  UNL     1     -34.445  16.208  -7.366  1.00 20.00     0.057 A 
HETATM    6  N8  UNL     1     -34.804  12.741  -4.274  1.00 20.00    -0.192 NA
ENDROOT
BRANCH   3   7
HETATM    7  N9  UNL     1     -33.139  16.530  -5.177  1.00 20.00    -0.283 NA
HETATM    8  C6  UNL     1     -33.500  17.934  -4.923  1.00 20.00     0.110 A 
HETATM    9  C7  UNL     1     -33.673  16.915  -3.861  1.00 20.00     0.110 A 
ENDBRANCH   3   7
TORSDOF 1
ENDMDL
MODEL 4
REMARK VINA RESULT:      -4.2     12.356     13.671
REMARK  1 active torsions:
REMARK  status: ('A' for Active; 'I' for Inactive)
REMARK    1  A    between atoms: C3_3  and  N9_9 
ROOT
HETATM    1  C1  UNL     1     -34.542  13.768  -4.730  1.00 20.00     0.096 C 
HETATM    2  C2  UNL     1     -34.093  15.112  -4.867  1.00 20.00     0.040 A 
HETATM    3  C3  UNL     1     -33.675  16.033  -3.970  1.00 20.00     0.005 A 
HETATM    4  C4  UNL     1     -33.914  16.004  -6.066  1.00 20.00     0.057 A 
HETATM    5  C5  UNL     1     -33.442  17.072  -5.070  1.00 20.00     0.057 A 
HETATM    6  N8  UNL     1     -34.907  12.672  -4.617  1.00 20.00    -0.192 NA
ENDROOT
BRANCH   3   7
HETATM    7  N9  UNL     1     -33.488  16.157  -2.671  1.00 20.00    -0.283 NA
HETATM    8  C6  UNL     1     -33.891  17.431  -2.053  1.00 20.00     0.110 A 
HETATM    9  C7  UNL     1     -34.689  16.204  -1.821  1.00 20.00     0.110 A 
ENDBRANCH   3   7
TORSDOF 1
ENDMDL
MODEL 5
REMARK VINA RESULT:      -4.1     12.271     12.865
REMARK  1 active torsions:
REMARK  status: ('A' for Active; 'I' for Inactive)
REMARK    1  A    between atoms: C3_3  and  N9_9 
ROOT
HETATM    1  C1  UNL     1     -36.931  14.413  -3.862  1.00 20.00     0.096 C 
HETATM    2  C2  UNL     1     -35.508  14.452  -3.816  1.00 20.00     0.040 A 
HETATM    3  C3  UNL     1     -34.637  15.100  -3.011  1.00 20.00     0.005 A 
HETATM    4  C4  UNL     1     -34.447  13.782  -4.647  1.00 20.00     0.057 A 
HETATM    5  C5  UNL     1     -33.435  14.510  -3.754  1.00 20.00     0.057 A 
HETATM    6  N8  UNL     1     -38.090  14.381  -3.899  1.00 20.00    -0.192 NA
ENDROOT
BRANCH   3   7
HETATM    7  N9  UNL     1     -34.642  15.925  -1.983  1.00 20.00    -0.283 NA
HETATM    8  C6  UNL     1     -33.795  17.125  -2.080  1.00 20.00     0.110 A 
HETATM    9  C7  UNL     1     -35.269  17.242  -2.182  1.00 20.00     0.110 A 
ENDBRANCH   3   7
TORSDOF 1
ENDMDL
MODEL 6
REMARK VINA RESULT:      -4.0     12.606     13.410
REMARK  1 active torsions:
REMARK  status: ('A' for Active; 'I' for Inactive)
REMARK    1  A    between atoms: C3_3  and  N9_9 
ROOT
HETATM    1  C1  UNL     1     -36.977  14.604  -3.749  1.00 20.00     0.096 C 
HETATM    2  C2  UNL     1     -35.582  14.885  -3.760  1.00 20.00     0.040 A 
HETATM    3  C3  UNL     1     -34.621  14.712  -4.696  1.00 20.00     0.005 A 
HETATM    4  C4  UNL     1     -34.659  15.485  -2.733  1.00 20.00     0.057 A 
HETATM    5  C5  UNL     1     -33.547  15.295  -3.772  1.00 20.00     0.057 A 
HETATM    6  N8  UNL     1     -38.115  14.374  -3.741  1.00 20.00    -0.192 NA
ENDROOT
BRANCH   3   7
HETATM    7  N9  UNL     1     -34.487  14.254  -5.924  1.00 20.00    -0.283 NA
HETATM    8  C6  UNL     1     -35.571  14.551  -6.874  1.00 20.00     0.110 A 
HETATM    9  C7  UNL     1     -34.267  15.245  -6.990  1.00 20.00     0.110 A 
ENDBRANCH   3   7
TORSDOF 1
ENDMDL
MODEL 7
REMARK VINA RESULT:      -4.0     11.980     12.818
REMARK  1 active torsions:
REMARK  status: ('A' for Active; 'I' for Inactive)
REMARK    1  A    between atoms: C3_3  and  N9_9 
ROOT
HETATM    1  C1  UNL     1     -34.457  16.649  -1.295  1.00 20.00     0.096 C 
HETATM    2  C2  UNL     1     -34.101  16.468  -2.661  1.00 20.00     0.040 A 
HETATM    3  C3  UNL     1     -34.084  15.381  -3.465  1.00 20.00     0.005 A 
HETATM    4  C4  UNL     1     -33.614  17.422  -3.718  1.00 20.00     0.057 A 
HETATM    5  C5  UNL     1     -33.578  16.206  -4.652  1.00 20.00     0.057 A 
HETATM    6  N8  UNL     1     -34.749  16.796  -0.181  1.00 20.00    -0.192 NA
ENDROOT
BRANCH   3   7
HETATM    7  N9  UNL     1     -34.352  14.091  -3.417  1.00 20.00    -0.283 NA
HETATM    8  C6  UNL     1     -35.530  13.621  -4.164  1.00 20.00     0.110 A 
HETATM    9  C7  UNL     1     -34.165  13.320  -4.657  1.00 20.00     0.110 A 
ENDBRANCH   3   7
TORSDOF 1
ENDMDL
MODEL 8
REMARK VINA RESULT:      -4.0     12.165     12.647
REMARK  1 active torsions:
REMARK  status: ('A' for Active; 'I' for Inactive)
REMARK    1  A    between atoms: C3_3  and  N9_9 
ROOT
HETATM    1  C1  UNL     1     -34.632  15.728  -2.219  1.00 20.00     0.096 C 
HETATM    2  C2  UNL     1     -34.743  14.752  -3.248  1.00 20.00     0.040 A 
HETATM    3  C3  UNL     1     -35.807  14.205  -3.879  1.00 20.00     0.005 A 
HETATM    4  C4  UNL     1     -33.715  13.968  -4.019  1.00 20.00     0.057 A 
HETATM    5  C5  UNL     1     -34.902  13.325  -4.748  1.00 20.00     0.057 A 
HETATM    6  N8  UNL     1     -34.543  16.525  -1.380  1.00 20.00    -0.192 NA
ENDROOT
BRANCH   3   7
HETATM    7  N9  UNL     1     -37.123  14.276  -3.875  1.00 20.00    -0.283 NA
HETATM    8  C6  UNL     1     -37.723  15.589  -3.589  1.00 20.00     0.110 A 
HETATM    9  C7  UNL     1     -37.757  15.037  -4.963  1.00 20.00     0.110 A 
ENDBRANCH   3   7
TORSDOF 1
ENDMDL
MODEL 9
REMARK VINA RESULT:      -4.0     12.039     12.944
REMARK  1 active torsions:
REMARK  status: ('A' for Active; 'I' for Inactive)
REMARK    1  A    between atoms: C3_3  and  N9_9 
ROOT
HETATM    1  C1  UNL     1     -35.332  13.715  -4.154  1.00 20.00     0.096 C 
HETATM    2  C2  UNL     1     -35.844  14.944  -3.652  1.00 20.00     0.040 A 
HETATM    3  C3  UNL     1     -35.406  15.796  -2.698  1.00 20.00     0.005 A 
HETATM    4  C4  UNL     1     -37.064  15.754  -4.002  1.00 20.00     0.057 A 
HETATM    5  C5  UNL     1     -36.596  16.735  -2.920  1.00 20.00     0.057 A 
HETATM    6  N8  UNL     1     -34.913  12.713  -4.563  1.00 20.00    -0.192 NA
ENDROOT
BRANCH   3   7
HETATM    7  N9  UNL     1     -34.410  15.922  -1.844  1.00 20.00    -0.283 NA
HETATM    8  C6  UNL     1     -33.741  17.232  -1.781  1.00 20.00     0.110 A 
HETATM    9  C7  UNL     1     -34.630  16.795  -0.679  1.00 20.00     0.110 A 
ENDBRANCH   3   7
TORSDOF 1
ENDMDL
