MODEL 1
REMARK VINA RESULT:      -4.4      0.000      0.000
REMARK  2 active torsions:
REMARK  status: ('A' for Active; 'I' for Inactive)
REMARK    1  A    between atoms: C2_2  and  C3_3 
REMARK    2  A    between atoms: C3_3  and  C6_6 
ROOT
HETATM    1  C3  UNL     1     -33.943   6.098   4.882  1.00 20.00     0.170 C 
HETATM    2  O7  UNL     1     -33.476   6.782   5.784  1.00 20.00    -0.291 OA
ENDROOT
BRANCH   1   3
HETATM    3  C2  UNL     1     -33.422   6.159   3.482  1.00 20.00     0.047 C 
HETATM    4  C1  UNL     1     -33.955   5.441   2.485  1.00 20.00     0.035 C 
HETATM    5 BR8  UNL     1     -31.951   7.278   3.173  1.00 20.00    -0.048 Br
ENDBRANCH   1   3
BRANCH   1   6
HETATM    6  C6  UNL     1     -35.061   5.156   5.180  1.00 20.00     0.061 A 
HETATM    7  C4  UNL     1     -34.735   3.728   5.463  1.00 20.00     0.013 A 
HETATM    8  C5  UNL     1     -35.194   4.628   6.570  1.00 20.00     0.013 A 
ENDBRANCH   1   6
TORSDOF 2
ENDMDL
MODEL 2
REMARK VINA RESULT:      -4.4      2.037      3.469
REMARK  2 active torsions:
REMARK  status: ('A' for Active; 'I' for Inactive)
REMARK    1  A    between atoms: C2_2  and  C3_3 
REMARK    2  A    between atoms: C3_3  and  C6_6 
ROOT
HETATM    1  C3  UNL     1     -34.763   5.594   3.858  1.00 20.00     0.170 C 
HETATM    2  O7  UNL     1     -35.903   5.748   3.437  1.00 20.00    -0.291 OA
ENDROOT
BRANCH   1   3
HETATM    3  C2  UNL     1     -34.478   5.239   5.282  1.00 20.00     0.047 C 
HETATM    4  C1  UNL     1     -34.609   3.991   5.751  1.00 20.00     0.035 C 
HETATM    5 BR8  UNL     1     -33.947   6.634   6.414  1.00 20.00    -0.048 Br
ENDBRANCH   1   3
BRANCH   1   6
HETATM    6  C6  UNL     1     -33.611   5.749   2.923  1.00 20.00     0.061 A 
HETATM    7  C4  UNL     1     -32.916   7.068   2.859  1.00 20.00     0.013 A 
HETATM    8  C5  UNL     1     -32.241   5.892   3.499  1.00 20.00     0.013 A 
ENDBRANCH   1   6
TORSDOF 2
ENDMDL
MODEL 3
REMARK VINA RESULT:      -4.3      2.454      3.923
REMARK  2 active torsions:
REMARK  status: ('A' for Active; 'I' for Inactive)
REMARK    1  A    between atoms: C2_2  and  C3_3 
REMARK    2  A    between atoms: C3_3  and  C6_6 
ROOT
HETATM    1  C3  UNL     1     -33.881   6.075   3.969  1.00 20.00     0.170 C 
HETATM    2  O7  UNL     1     -34.794   6.110   3.152  1.00 20.00    -0.291 OA
ENDROOT
BRANCH   1   3
HETATM    3  C2  UNL     1     -34.119   5.825   5.423  1.00 20.00     0.047 C 
HETATM    4  C1  UNL     1     -33.804   6.721   6.367  1.00 20.00     0.035 C 
HETATM    5 BR8  UNL     1     -34.864   4.169   5.887  1.00 20.00    -0.048 Br
ENDBRANCH   1   3
BRANCH   1   6
HETATM    6  C6  UNL     1     -32.477   6.273   3.505  1.00 20.00     0.061 A 
HETATM    7  C4  UNL     1     -32.218   7.254   2.411  1.00 20.00     0.013 A 
HETATM    8  C5  UNL     1     -31.800   7.567   3.816  1.00 20.00     0.013 A 
ENDBRANCH   1   6
TORSDOF 2
ENDMDL
MODEL 4
REMARK VINA RESULT:      -4.2      2.245      3.585
REMARK  2 active torsions:
REMARK  status: ('A' for Active; 'I' for Inactive)
REMARK    1  A    between atoms: C2_2  and  C3_3 
REMARK    2  A    between atoms: C3_3  and  C6_6 
ROOT
HETATM    1  C3  UNL     1     -33.435   6.305   4.620  1.00 20.00     0.170 C 
HETATM    2  O7  UNL     1     -33.224   6.963   5.631  1.00 20.00    -0.291 OA
ENDROOT
BRANCH   1   3
HETATM    3  C2  UNL     1     -34.635   5.426   4.475  1.00 20.00     0.047 C 
HETATM    4  C1  UNL     1     -35.484   5.533   3.445  1.00 20.00     0.035 C 
HETATM    5 BR8  UNL     1     -34.927   4.161   5.826  1.00 20.00    -0.048 Br
ENDBRANCH   1   3
BRANCH   1   6
HETATM    6  C6  UNL     1     -32.477   6.389   3.479  1.00 20.00     0.061 A 
HETATM    7  C4  UNL     1     -32.548   7.572   2.572  1.00 20.00     0.013 A 
HETATM    8  C5  UNL     1     -31.402   7.424   3.527  1.00 20.00     0.013 A 
ENDBRANCH   1   6
TORSDOF 2
ENDMDL
MODEL 5
REMARK VINA RESULT:      -3.9     11.904     12.753
REMARK  2 active torsions:
REMARK  status: ('A' for Active; 'I' for Inactive)
REMARK    1  A    between atoms: C2_2  and  C3_3 
REMARK    2  A    between atoms: C3_3  and  C6_6 
ROOT
HETATM    1  C3  UNL     1     -33.358  14.914  -3.449  1.00 20.00     0.170 C 
HETATM    2  O7  UNL     1     -32.173  14.684  -3.653  1.00 20.00    -0.291 OA
ENDROOT
BRANCH   1   3
HETATM    3  C2  UNL     1     -33.861  16.283  -3.121  1.00 20.00     0.047 C 
HETATM    4  C1  UNL     1     -33.786  17.303  -3.986  1.00 20.00     0.035 C 
HETATM    5 BR8  UNL     1     -34.590  16.530  -1.412  1.00 20.00    -0.048 Br
ENDBRANCH   1   3
BRANCH   1   6
HETATM    6  C6  UNL     1     -34.347  13.801  -3.545  1.00 20.00     0.061 A 
HETATM    7  C4  UNL     1     -35.669  14.073  -4.180  1.00 20.00     0.013 A 
HETATM    8  C5  UNL     1     -34.651  13.233  -4.891  1.00 20.00     0.013 A 
ENDBRANCH   1   6
TORSDOF 2
ENDMDL
MODEL 6
REMARK VINA RESULT:      -3.9     12.588     13.302
REMARK  2 active torsions:
REMARK  status: ('A' for Active; 'I' for Inactive)
REMARK    1  A    between atoms: C2_2  and  C3_3 
REMARK    2  A    between atoms: C3_3  and  C6_6 
ROOT
HETATM    1  C3  UNL     1     -34.551  13.738  -4.834  1.00 20.00     0.170 C 
HETATM    2  O7  UNL     1     -34.826  12.547  -4.754  1.00 20.00    -0.291 OA
ENDROOT
BRANCH   1   3
HETATM    3  C2  UNL     1     -35.108  14.617  -5.907  1.00 20.00     0.047 C 
HETATM    4  C1  UNL     1     -34.456  14.854  -7.053  1.00 20.00     0.035 C 
HETATM    5 BR8  UNL     1     -36.773  15.410  -5.573  1.00 20.00    -0.048 Br
ENDBRANCH   1   3
BRANCH   1   6
HETATM    6  C6  UNL     1     -33.641  14.348  -3.821  1.00 20.00     0.061 A 
HETATM    7  C4  UNL     1     -33.298  15.795  -3.949  1.00 20.00     0.013 A 
HETATM    8  C5  UNL     1     -34.210  15.331  -2.853  1.00 20.00     0.013 A 
ENDBRANCH   1   6
TORSDOF 2
ENDMDL
MODEL 7
REMARK VINA RESULT:      -3.8     12.845     13.284
REMARK  2 active torsions:
REMARK  status: ('A' for Active; 'I' for Inactive)
REMARK    1  A    between atoms: C2_2  and  C3_3 
REMARK    2  A    between atoms: C3_3  and  C6_6 
ROOT
HETATM    1  C3  UNL     1     -33.607  15.474  -4.315  1.00 20.00     0.170 C 
HETATM    2  O7  UNL     1     -32.815  16.310  -4.732  1.00 20.00    -0.291 OA
ENDROOT
BRANCH   1   3
HETATM    3  C2  UNL     1     -34.281  14.491  -5.217  1.00 20.00     0.047 C 
HETATM    4  C1  UNL     1     -34.646  13.270  -4.805  1.00 20.00     0.035 C 
HETATM    5 BR8  UNL     1     -34.578  15.032  -6.987  1.00 20.00    -0.048 Br
ENDBRANCH   1   3
BRANCH   1   6
HETATM    6  C6  UNL     1     -33.906  15.414  -2.854  1.00 20.00     0.061 A 
HETATM    7  C4  UNL     1     -33.822  16.672  -2.056  1.00 20.00     0.013 A 
HETATM    8  C5  UNL     1     -35.156  16.060  -2.356  1.00 20.00     0.013 A 
ENDBRANCH   1   6
TORSDOF 2
ENDMDL
MODEL 8
REMARK VINA RESULT:      -3.8     12.049     13.354
REMARK  2 active torsions:
REMARK  status: ('A' for Active; 'I' for Inactive)
REMARK    1  A    between atoms: C2_2  and  C3_3 
REMARK    2  A    between atoms: C3_3  and  C6_6 
ROOT
HETATM    1  C3  UNL     1     -34.686  13.756  -4.792  1.00 20.00     0.170 C 
HETATM    2  O7  UNL     1     -34.811  12.541  -4.890  1.00 20.00    -0.291 OA
ENDROOT
BRANCH   1   3
HETATM    3  C2  UNL     1     -33.882  14.393  -3.705  1.00 20.00     0.047 C 
HETATM    4  C1  UNL     1     -32.620  14.031  -3.439  1.00 20.00     0.035 C 
HETATM    5 BR8  UNL     1     -34.730  15.721  -2.691  1.00 20.00    -0.048 Br
ENDBRANCH   1   3
BRANCH   1   6
HETATM    6  C6  UNL     1     -35.343  14.642  -5.798  1.00 20.00     0.061 A 
HETATM    7  C4  UNL     1     -34.485  15.523  -6.642  1.00 20.00     0.013 A 
HETATM    8  C5  UNL     1     -35.164  14.330  -7.246  1.00 20.00     0.013 A 
ENDBRANCH   1   6
TORSDOF 2
ENDMDL
MODEL 9
REMARK VINA RESULT:      -3.8     12.434     13.428
REMARK  2 active torsions:
REMARK  status: ('A' for Active; 'I' for Inactive)
REMARK    1  A    between atoms: C2_2  and  C3_3 
REMARK    2  A    between atoms: C3_3  and  C6_6 
ROOT
HETATM    1  C3  UNL     1     -35.146  13.825  -4.613  1.00 20.00     0.170 C 
HETATM    2  O7  UNL     1     -35.074  12.623  -4.388  1.00 20.00    -0.291 OA
ENDROOT
BRANCH   1   3
HETATM    3  C2  UNL     1     -35.825  14.774  -3.680  1.00 20.00     0.047 C 
HETATM    4  C1  UNL     1     -37.156  14.923  -3.650  1.00 20.00     0.035 C 
HETATM    5 BR8  UNL     1     -34.724  15.787  -2.551  1.00 20.00    -0.048 Br
ENDBRANCH   1   3
BRANCH   1   6
HETATM    6  C6  UNL     1     -34.523  14.375  -5.853  1.00 20.00     0.061 A 
HETATM    7  C4  UNL     1     -35.331  14.403  -7.106  1.00 20.00     0.013 A 
HETATM    8  C5  UNL     1     -35.022  15.678  -6.382  1.00 20.00     0.013 A 
ENDBRANCH   1   6
TORSDOF 2
ENDMDL
