MODEL 1
REMARK VINA RESULT:      -3.5      0.000      0.000
REMARK  1 active torsions:
REMARK  status: ('A' for Active; 'I' for Inactive)
REMARK    1  A    between atoms: C1_1  and  C3_3 
ROOT
HETATM    1  C2  UNL     1     -32.804  14.817  -3.644  1.00 20.00     0.103 A 
HETATM    2  C3  UNL     1     -34.279  15.042  -3.411  1.00 20.00     0.073 A 
HETATM    3  C5  UNL     1     -34.679  15.820  -2.186  1.00 20.00     0.036 C 
HETATM    4  S7  UNL     1     -33.533  15.975  -4.685  1.00 20.00    -0.149 SA
ENDROOT
BRANCH   2   5
HETATM    5  C1  UNL     1     -35.211  14.006  -3.900  1.00 20.00     0.142 C 
HETATM    6  C4  UNL     1     -36.644  14.420  -4.095  1.00 20.00     0.092 C 
HETATM    7  O6  UNL     1     -34.832  12.860  -4.140  1.00 20.00    -0.297 OA
ENDBRANCH   2   5
TORSDOF 1
ENDMDL
MODEL 2
REMARK VINA RESULT:      -3.4     12.111     12.358
REMARK  1 active torsions:
REMARK  status: ('A' for Active; 'I' for Inactive)
REMARK    1  A    between atoms: C1_1  and  C3_3 
ROOT
HETATM    1  C2  UNL     1     -33.510   7.333   3.673  1.00 20.00     0.103 A 
HETATM    2  C3  UNL     1     -34.171   6.068   4.163  1.00 20.00     0.073 A 
HETATM    3  C5  UNL     1     -35.324   5.529   3.359  1.00 20.00     0.036 C 
HETATM    4  S7  UNL     1     -32.596   5.898   3.427  1.00 20.00    -0.149 SA
ENDROOT
BRANCH   2   5
HETATM    5  C1  UNL     1     -34.176   5.823   5.620  1.00 20.00     0.142 C 
HETATM    6  C4  UNL     1     -34.674   4.479   6.079  1.00 20.00     0.092 C 
HETATM    7  O6  UNL     1     -33.790   6.676   6.418  1.00 20.00    -0.297 OA
ENDBRANCH   2   5
TORSDOF 1
ENDMDL
MODEL 3
REMARK VINA RESULT:      -3.3      1.595      1.942
REMARK  1 active torsions:
REMARK  status: ('A' for Active; 'I' for Inactive)
REMARK    1  A    between atoms: C1_1  and  C3_3 
ROOT
HETATM    1  C2  UNL     1     -33.899  16.090  -4.356  1.00 20.00     0.103 A 
HETATM    2  C3  UNL     1     -33.863  14.617  -4.030  1.00 20.00     0.073 A 
HETATM    3  C5  UNL     1     -32.586  14.061  -3.458  1.00 20.00     0.036 C 
HETATM    4  S7  UNL     1     -34.787  15.637  -2.956  1.00 20.00    -0.149 SA
ENDROOT
BRANCH   2   5
HETATM    5  C1  UNL     1     -34.693  13.717  -4.857  1.00 20.00     0.142 C 
HETATM    6  C4  UNL     1     -35.066  14.209  -6.229  1.00 20.00     0.092 C 
HETATM    7  O6  UNL     1     -35.059  12.617  -4.444  1.00 20.00    -0.297 OA
ENDBRANCH   2   5
TORSDOF 1
ENDMDL
MODEL 4
REMARK VINA RESULT:      -3.3      1.788      2.521
REMARK  1 active torsions:
REMARK  status: ('A' for Active; 'I' for Inactive)
REMARK    1  A    between atoms: C1_1  and  C3_3 
ROOT
HETATM    1  C2  UNL     1     -34.107  15.812  -5.854  1.00 20.00     0.103 A 
HETATM    2  C3  UNL     1     -35.089  14.801  -5.310  1.00 20.00     0.073 A 
HETATM    3  C5  UNL     1     -36.472  15.288  -4.972  1.00 20.00     0.036 C 
HETATM    4  S7  UNL     1     -34.722  14.702  -7.015  1.00 20.00    -0.149 SA
ENDROOT
BRANCH   2   5
HETATM    5  C1  UNL     1     -34.542  13.681  -4.517  1.00 20.00     0.142 C 
HETATM    6  C4  UNL     1     -33.281  13.950  -3.743  1.00 20.00     0.092 C 
HETATM    7  O6  UNL     1     -35.095  12.582  -4.489  1.00 20.00    -0.297 OA
ENDBRANCH   2   5
TORSDOF 1
ENDMDL
MODEL 5
REMARK VINA RESULT:      -3.3      2.287      2.982
REMARK  1 active torsions:
REMARK  status: ('A' for Active; 'I' for Inactive)
REMARK    1  A    between atoms: C1_1  and  C3_3 
ROOT
HETATM    1  C2  UNL     1     -35.426  14.327  -7.102  1.00 20.00     0.103 A 
HETATM    2  C3  UNL     1     -34.737  14.796  -5.843  1.00 20.00     0.073 A 
HETATM    3  C5  UNL     1     -33.808  15.975  -5.956  1.00 20.00     0.036 C 
HETATM    4  S7  UNL     1     -36.438  15.161  -5.990  1.00 20.00    -0.149 SA
ENDROOT
BRANCH   2   5
HETATM    5  C1  UNL     1     -34.433  13.779  -4.816  1.00 20.00     0.142 C 
HETATM    6  C4  UNL     1     -33.699  14.252  -3.591  1.00 20.00     0.092 C 
HETATM    7  O6  UNL     1     -34.767  12.602  -4.954  1.00 20.00    -0.297 OA
ENDBRANCH   2   5
TORSDOF 1
ENDMDL
MODEL 6
REMARK VINA RESULT:      -3.3     12.256     12.529
REMARK  1 active torsions:
REMARK  status: ('A' for Active; 'I' for Inactive)
REMARK    1  A    between atoms: C1_1  and  C3_3 
ROOT
HETATM    1  C2  UNL     1     -35.622   4.974   4.832  1.00 20.00     0.103 A 
HETATM    2  C3  UNL     1     -34.253   5.608   4.881  1.00 20.00     0.073 A 
HETATM    3  C5  UNL     1     -33.965   6.557   6.014  1.00 20.00     0.036 C 
HETATM    4  S7  UNL     1     -34.354   3.921   5.319  1.00 20.00    -0.149 SA
ENDROOT
BRANCH   2   5
HETATM    5  C1  UNL     1     -33.569   5.849   3.594  1.00 20.00     0.142 C 
HETATM    6  C4  UNL     1     -32.328   6.698   3.635  1.00 20.00     0.092 C 
HETATM    7  O6  UNL     1     -33.993   5.376   2.540  1.00 20.00    -0.297 OA
ENDBRANCH   2   5
TORSDOF 1
ENDMDL
MODEL 7
REMARK VINA RESULT:      -3.1      1.629      2.237
REMARK  1 active torsions:
REMARK  status: ('A' for Active; 'I' for Inactive)
REMARK    1  A    between atoms: C1_1  and  C3_3 
ROOT
HETATM    1  C2  UNL     1     -34.896  16.450  -4.859  1.00 20.00     0.103 A 
HETATM    2  C3  UNL     1     -34.730  15.012  -5.287  1.00 20.00     0.073 A 
HETATM    3  C5  UNL     1     -34.458  14.747  -6.744  1.00 20.00     0.036 C 
HETATM    4  S7  UNL     1     -33.410  15.722  -4.392  1.00 20.00    -0.149 SA
ENDROOT
BRANCH   2   5
HETATM    5  C1  UNL     1     -35.478  13.987  -4.532  1.00 20.00     0.142 C 
HETATM    6  C4  UNL     1     -36.785  14.414  -3.921  1.00 20.00     0.092 C 
HETATM    7  O6  UNL     1     -35.054  12.838  -4.411  1.00 20.00    -0.297 OA
ENDBRANCH   2   5
TORSDOF 1
ENDMDL
MODEL 8
REMARK VINA RESULT:      -3.1      1.232      1.635
REMARK  1 active torsions:
REMARK  status: ('A' for Active; 'I' for Inactive)
REMARK    1  A    between atoms: C1_1  and  C3_3 
ROOT
HETATM    1  C2  UNL     1     -33.803  15.857  -2.688  1.00 20.00     0.103 A 
HETATM    2  C3  UNL     1     -34.686  15.051  -3.609  1.00 20.00     0.073 A 
HETATM    3  C5  UNL     1     -36.173  15.125  -3.389  1.00 20.00     0.036 C 
HETATM    4  S7  UNL     1     -33.951  16.486  -4.281  1.00 20.00    -0.149 SA
ENDROOT
BRANCH   2   5
HETATM    5  C1  UNL     1     -34.134  13.791  -4.150  1.00 20.00     0.142 C 
HETATM    6  C4  UNL     1     -34.872  13.169  -5.304  1.00 20.00     0.092 C 
HETATM    7  O6  UNL     1     -33.119  13.278  -3.681  1.00 20.00    -0.297 OA
ENDBRANCH   2   5
TORSDOF 1
ENDMDL
MODEL 9
REMARK VINA RESULT:      -3.1      2.334      3.223
REMARK  1 active torsions:
REMARK  status: ('A' for Active; 'I' for Inactive)
REMARK    1  A    between atoms: C1_1  and  C3_3 
ROOT
HETATM    1  C2  UNL     1     -34.760  13.258  -4.558  1.00 20.00     0.103 A 
HETATM    2  C3  UNL     1     -34.497  14.608  -5.179  1.00 20.00     0.073 A 
HETATM    3  C5  UNL     1     -34.682  14.738  -6.668  1.00 20.00     0.036 C 
HETATM    4  S7  UNL     1     -35.966  14.445  -4.249  1.00 20.00    -0.149 SA
ENDROOT
BRANCH   2   5
HETATM    5  C1  UNL     1     -33.478  15.465  -4.538  1.00 20.00     0.142 C 
HETATM    6  C4  UNL     1     -33.362  16.876  -5.047  1.00 20.00     0.092 C 
HETATM    7  O6  UNL     1     -32.763  15.046  -3.629  1.00 20.00    -0.297 OA
ENDBRANCH   2   5
TORSDOF 1
ENDMDL
