MODEL 1
REMARK VINA RESULT:      -4.9      0.000      0.000
REMARK  1 active torsions:
REMARK  status: ('A' for Active; 'I' for Inactive)
REMARK    1  A    between atoms: C2_2  and  C3_3 
ROOT
HETATM    1  C1  UNL     1     -35.098  15.904  -1.977  1.00 20.00    -0.009 C 
HETATM    2  C2  UNL     1     -33.861  16.161  -2.499  1.00 20.00    -0.007 C 
HETATM    3  C4  UNL     1     -33.882  18.541   0.367  1.00 20.00     0.002 C 
HETATM    4  C5  UNL     1     -35.201  17.765   0.098  1.00 20.00     0.009 C 
HETATM    5  C6  UNL     1     -32.885  18.055  -0.733  1.00 20.00     0.015 C 
HETATM    6  C7  UNL     1     -34.663  16.642  -0.741  1.00 20.00     0.021 C 
HETATM    7  C8  UNL     1     -33.832  17.499  -1.785  1.00 20.00    -0.007 C 
HETATM    8  C10 UNL     1     -34.394  18.630  -2.672  1.00 20.00     0.021 C 
ENDROOT
BRANCH   2   9
HETATM    9  C3  UNL     1     -33.256  15.586  -3.692  1.00 20.00     0.152 C 
HETATM   10  C9  UNL     1     -33.231  14.080  -3.831  1.00 20.00     0.096 C 
HETATM   11  O11 UNL     1     -32.766  16.310  -4.570  1.00 20.00    -0.293 OA
ENDBRANCH   2   9
TORSDOF 1
ENDMDL
MODEL 2
REMARK VINA RESULT:      -4.8      1.926      4.478
REMARK  1 active torsions:
REMARK  status: ('A' for Active; 'I' for Inactive)
REMARK    1  A    between atoms: C2_2  and  C3_3 
ROOT
HETATM    1  C1  UNL     1     -33.917  17.085  -3.748  1.00 20.00    -0.009 C 
HETATM    2  C2  UNL     1     -34.053  16.419  -2.561  1.00 20.00    -0.007 C 
HETATM    3  C4  UNL     1     -34.377  13.584  -4.956  1.00 20.00     0.002 C 
HETATM    4  C5  UNL     1     -34.286  15.008  -5.572  1.00 20.00     0.009 C 
HETATM    5  C6  UNL     1     -34.309  13.798  -3.411  1.00 20.00     0.015 C 
HETATM    6  C7  UNL     1     -33.703  15.748  -4.404  1.00 20.00     0.021 C 
HETATM    7  C8  UNL     1     -34.712  15.258  -3.282  1.00 20.00    -0.007 C 
HETATM    8  C10 UNL     1     -36.248  15.412  -3.322  1.00 20.00     0.021 C 
ENDROOT
BRANCH   2   9
HETATM    9  C3  UNL     1     -34.077  16.981  -1.219  1.00 20.00     0.152 C 
HETATM   10  C9  UNL     1     -33.214  18.189  -0.929  1.00 20.00     0.096 C 
HETATM   11  O11 UNL     1     -34.779  16.479  -0.330  1.00 20.00    -0.293 OA
ENDBRANCH   2   9
TORSDOF 1
ENDMDL
MODEL 3
REMARK VINA RESULT:      -4.7      3.167      4.798
REMARK  1 active torsions:
REMARK  status: ('A' for Active; 'I' for Inactive)
REMARK    1  A    between atoms: C2_2  and  C3_3 
ROOT
HETATM    1  C1  UNL     1     -35.876  16.306  -2.991  1.00 20.00    -0.009 C 
HETATM    2  C2  UNL     1     -36.631  15.258  -3.439  1.00 20.00    -0.007 C 
HETATM    3  C4  UNL     1     -33.214  13.816  -3.793  1.00 20.00     0.002 C 
HETATM    4  C5  UNL     1     -33.299  15.308  -3.366  1.00 20.00     0.009 C 
HETATM    5  C6  UNL     1     -34.695  13.351  -3.963  1.00 20.00     0.015 C 
HETATM    6  C7  UNL     1     -34.720  15.349  -2.885  1.00 20.00     0.021 C 
HETATM    7  C8  UNL     1     -35.418  14.677  -4.140  1.00 20.00    -0.007 C 
HETATM    8  C10 UNL     1     -35.315  15.169  -5.600  1.00 20.00     0.021 C 
ENDROOT
BRANCH   2   9
HETATM    9  C3  UNL     1     -38.076  15.204  -3.605  1.00 20.00     0.152 C 
HETATM   10  C9  UNL     1     -38.872  16.472  -3.394  1.00 20.00     0.096 C 
HETATM   11  O11 UNL     1     -38.643  14.144  -3.905  1.00 20.00    -0.293 OA
ENDBRANCH   2   9
TORSDOF 1
ENDMDL
MODEL 4
REMARK VINA RESULT:      -4.6      1.926      2.438
REMARK  1 active torsions:
REMARK  status: ('A' for Active; 'I' for Inactive)
REMARK    1  A    between atoms: C2_2  and  C3_3 
ROOT
HETATM    1  C1  UNL     1     -36.212  15.450  -3.916  1.00 20.00    -0.009 C 
HETATM    2  C2  UNL     1     -35.130  14.827  -3.358  1.00 20.00    -0.007 C 
HETATM    3  C4  UNL     1     -35.472  17.746  -1.068  1.00 20.00     0.002 C 
HETATM    4  C5  UNL     1     -36.417  17.715  -2.302  1.00 20.00     0.009 C 
HETATM    5  C6  UNL     1     -34.602  16.455  -1.183  1.00 20.00     0.015 C 
HETATM    6  C7  UNL     1     -36.322  16.259  -2.653  1.00 20.00     0.021 C 
HETATM    7  C8  UNL     1     -34.742  16.116  -2.659  1.00 20.00    -0.007 C 
HETATM    8  C10 UNL     1     -33.765  16.954  -3.511  1.00 20.00     0.021 C 
ENDROOT
BRANCH   2   9
HETATM    9  C3  UNL     1     -34.445  13.632  -3.829  1.00 20.00     0.152 C 
HETATM   10  C9  UNL     1     -32.949  13.535  -3.629  1.00 20.00     0.096 C 
HETATM   11  O11 UNL     1     -35.068  12.719  -4.387  1.00 20.00    -0.293 OA
ENDBRANCH   2   9
TORSDOF 1
ENDMDL
MODEL 5
REMARK VINA RESULT:      -4.5      2.224      2.904
REMARK  1 active torsions:
REMARK  status: ('A' for Active; 'I' for Inactive)
REMARK    1  A    between atoms: C2_2  and  C3_3 
ROOT
HETATM    1  C1  UNL     1     -35.636  16.820  -4.284  1.00 20.00    -0.009 C 
HETATM    2  C2  UNL     1     -35.751  15.682  -3.535  1.00 20.00    -0.007 C 
HETATM    3  C4  UNL     1     -33.938  17.879  -1.133  1.00 20.00     0.002 C 
HETATM    4  C5  UNL     1     -34.164  18.447  -2.562  1.00 20.00     0.009 C 
HETATM    5  C6  UNL     1     -34.579  16.455  -1.150  1.00 20.00     0.015 C 
HETATM    6  C7  UNL     1     -35.274  17.545  -3.017  1.00 20.00     0.021 C 
HETATM    7  C8  UNL     1     -34.620  16.150  -2.639  1.00 20.00    -0.007 C 
HETATM    8  C10 UNL     1     -33.252  15.634  -3.133  1.00 20.00     0.021 C 
ENDROOT
BRANCH   2   9
HETATM    9  C3  UNL     1     -36.327  14.405  -3.931  1.00 20.00     0.152 C 
HETATM   10  C9  UNL     1     -35.410  13.352  -4.511  1.00 20.00     0.096 C 
HETATM   11  O11 UNL     1     -37.539  14.186  -3.805  1.00 20.00    -0.293 OA
ENDBRANCH   2   9
TORSDOF 1
ENDMDL
MODEL 6
REMARK VINA RESULT:      -4.5      2.099      4.396
REMARK  1 active torsions:
REMARK  status: ('A' for Active; 'I' for Inactive)
REMARK    1  A    between atoms: C2_2  and  C3_3 
ROOT
HETATM    1  C1  UNL     1     -35.437  15.235  -2.973  1.00 20.00    -0.009 C 
HETATM    2  C2  UNL     1     -34.568  16.263  -2.733  1.00 20.00    -0.007 C 
HETATM    3  C4  UNL     1     -33.944  15.699  -6.362  1.00 20.00     0.002 C 
HETATM    4  C5  UNL     1     -34.901  14.698  -5.657  1.00 20.00     0.009 C 
HETATM    5  C6  UNL     1     -33.500  16.699  -5.248  1.00 20.00     0.015 C 
HETATM    6  C7  UNL     1     -35.255  15.505  -4.442  1.00 20.00     0.021 C 
HETATM    7  C8  UNL     1     -33.790  15.905  -3.985  1.00 20.00    -0.007 C 
HETATM    8  C10 UNL     1     -32.641  14.920  -3.678  1.00 20.00     0.021 C 
ENDROOT
BRANCH   2   9
HETATM    9  C3  UNL     1     -34.286  16.917  -1.464  1.00 20.00     0.152 C 
HETATM   10  C9  UNL     1     -33.423  18.160  -1.471  1.00 20.00     0.096 C 
HETATM   11  O11 UNL     1     -34.733  16.466  -0.400  1.00 20.00    -0.293 OA
ENDBRANCH   2   9
TORSDOF 1
ENDMDL
MODEL 7
REMARK VINA RESULT:      -4.5      2.287      3.658
REMARK  1 active torsions:
REMARK  status: ('A' for Active; 'I' for Inactive)
REMARK    1  A    between atoms: C2_2  and  C3_3 
ROOT
HETATM    1  C1  UNL     1     -33.324  16.388  -5.084  1.00 20.00    -0.009 C 
HETATM    2  C2  UNL     1     -34.492  15.729  -5.351  1.00 20.00    -0.007 C 
HETATM    3  C4  UNL     1     -34.815  16.190  -1.668  1.00 20.00     0.002 C 
HETATM    4  C5  UNL     1     -33.471  16.634  -2.310  1.00 20.00     0.009 C 
HETATM    5  C6  UNL     1     -35.674  15.638  -2.850  1.00 20.00     0.015 C 
HETATM    6  C7  UNL     1     -33.904  16.746  -3.743  1.00 20.00     0.021 C 
HETATM    7  C8  UNL     1     -34.608  15.333  -3.891  1.00 20.00    -0.007 C 
HETATM    8  C10 UNL     1     -33.949  13.964  -3.619  1.00 20.00     0.021 C 
ENDROOT
BRANCH   2   9
HETATM    9  C3  UNL     1     -34.950  15.204  -6.629  1.00 20.00     0.152 C 
HETATM   10  C9  UNL     1     -36.438  15.048  -6.850  1.00 20.00     0.096 C 
HETATM   11  O11 UNL     1     -34.143  14.884  -7.513  1.00 20.00    -0.293 OA
ENDBRANCH   2   9
TORSDOF 1
ENDMDL
MODEL 8
REMARK VINA RESULT:      -4.5      2.226      3.112
REMARK  1 active torsions:
REMARK  status: ('A' for Active; 'I' for Inactive)
REMARK    1  A    between atoms: C2_2  and  C3_3 
ROOT
HETATM    1  C1  UNL     1     -34.392  14.807  -2.935  1.00 20.00    -0.009 C 
HETATM    2  C2  UNL     1     -34.435  14.882  -4.300  1.00 20.00    -0.007 C 
HETATM    3  C4  UNL     1     -33.646  18.426  -3.461  1.00 20.00     0.002 C 
HETATM    4  C5  UNL     1     -33.932  17.475  -2.266  1.00 20.00     0.009 C 
HETATM    5  C6  UNL     1     -33.799  17.540  -4.738  1.00 20.00     0.015 C 
HETATM    6  C7  UNL     1     -33.719  16.152  -2.942  1.00 20.00     0.021 C 
HETATM    7  C8  UNL     1     -34.636  16.384  -4.215  1.00 20.00    -0.007 C 
HETATM    8  C10 UNL     1     -36.134  16.756  -4.191  1.00 20.00     0.021 C 
ENDROOT
BRANCH   2   9
HETATM    9  C3  UNL     1     -34.760  13.824  -5.244  1.00 20.00     0.152 C 
HETATM   10  C9  UNL     1     -35.089  14.207  -6.670  1.00 20.00     0.096 C 
HETATM   11  O11 UNL     1     -34.774  12.637  -4.890  1.00 20.00    -0.293 OA
ENDBRANCH   2   9
TORSDOF 1
ENDMDL
MODEL 9
REMARK VINA RESULT:      -4.5      1.823      4.338
REMARK  1 active torsions:
REMARK  status: ('A' for Active; 'I' for Inactive)
REMARK    1  A    between atoms: C2_2  and  C3_3 
ROOT
HETATM    1  C1  UNL     1     -32.975  15.430  -3.226  1.00 20.00    -0.009 C 
HETATM    2  C2  UNL     1     -34.023  16.063  -2.618  1.00 20.00    -0.007 C 
HETATM    3  C4  UNL     1     -35.862  13.577  -4.698  1.00 20.00     0.002 C 
HETATM    4  C5  UNL     1     -34.321  13.646  -4.894  1.00 20.00     0.009 C 
HETATM    5  C6  UNL     1     -36.187  14.657  -3.618  1.00 20.00     0.015 C 
HETATM    6  C7  UNL     1     -33.938  14.345  -3.622  1.00 20.00     0.021 C 
HETATM    7  C8  UNL     1     -34.962  15.554  -3.696  1.00 20.00    -0.007 C 
HETATM    8  C10 UNL     1     -35.088  16.558  -4.861  1.00 20.00     0.021 C 
ENDROOT
BRANCH   2   9
HETATM    9  C3  UNL     1     -33.976  17.195  -1.706  1.00 20.00     0.152 C 
HETATM   10  C9  UNL     1     -34.619  17.050  -0.345  1.00 20.00     0.096 C 
HETATM   11  O11 UNL     1     -33.431  18.257  -2.036  1.00 20.00    -0.293 OA
ENDBRANCH   2   9
TORSDOF 1
ENDMDL
