MODEL 1
REMARK VINA RESULT:      -5.4      0.000      0.000
REMARK  3 active torsions:
REMARK  status: ('A' for Active; 'I' for Inactive)
REMARK    1  A    between atoms: C2_2  and  C6_6 
REMARK    2  A    between atoms: C3_3  and  C7_7 
REMARK    3  A    between atoms: C6_6  and  C7_7 
ROOT
HETATM    1  C7  UNL     1     -34.816   5.378   3.829  1.00 20.00     0.242 C 
HETATM    2  F9  UNL     1     -36.079   5.691   3.417  1.00 20.00    -0.241 F 
ENDROOT
BRANCH   1   3
HETATM    3  C3  UNL     1     -34.851   4.700   5.185  1.00 20.00     0.157 C 
HETATM    4  C5  UNL     1     -34.565   5.548   6.396  1.00 20.00     0.094 C 
HETATM    5  O8  UNL     1     -35.099   3.499   5.293  1.00 20.00    -0.295 OA
ENDBRANCH   1   3
BRANCH   1   6
HETATM    6  C6  UNL     1     -33.971   6.649   3.798  1.00 20.00     0.072 C 
BRANCH   6   7
HETATM    7  C2  UNL     1     -32.525   6.381   3.485  1.00 20.00    -0.028 C 
HETATM    8  C1  UNL     1     -31.772   7.168   2.703  1.00 20.00    -0.035 C 
HETATM    9  C4  UNL     1     -32.274   8.409   2.044  1.00 20.00     0.036 C 
ENDBRANCH   6   7
ENDBRANCH   1   6
TORSDOF 3
ENDMDL
MODEL 2
REMARK VINA RESULT:      -5.3      2.529      4.586
REMARK  3 active torsions:
REMARK  status: ('A' for Active; 'I' for Inactive)
REMARK    1  A    between atoms: C2_2  and  C6_6 
REMARK    2  A    between atoms: C3_3  and  C7_7 
REMARK    3  A    between atoms: C6_6  and  C7_7 
ROOT
HETATM    1  C7  UNL     1     -32.736   6.410   2.940  1.00 20.00     0.242 C 
HETATM    2  F9  UNL     1     -31.943   5.362   3.308  1.00 20.00    -0.241 F 
ENDROOT
BRANCH   1   3
HETATM    3  C3  UNL     1     -31.925   7.690   2.865  1.00 20.00     0.157 C 
HETATM    4  C5  UNL     1     -32.102   8.556   1.645  1.00 20.00     0.094 C 
HETATM    5  O8  UNL     1     -31.146   8.007   3.763  1.00 20.00    -0.295 OA
ENDBRANCH   1   3
BRANCH   1   6
HETATM    6  C6  UNL     1     -33.915   6.484   3.908  1.00 20.00     0.072 C 
BRANCH   6   7
HETATM    7  C2  UNL     1     -34.864   5.327   3.759  1.00 20.00    -0.028 C 
HETATM    8  C1  UNL     1     -35.248   4.543   4.776  1.00 20.00    -0.035 C 
HETATM    9  C4  UNL     1     -34.782   4.717   6.183  1.00 20.00     0.036 C 
ENDBRANCH   6   7
ENDBRANCH   1   6
TORSDOF 3
ENDMDL
MODEL 3
REMARK VINA RESULT:      -4.9      1.321      1.415
REMARK  3 active torsions:
REMARK  status: ('A' for Active; 'I' for Inactive)
REMARK    1  A    between atoms: C2_2  and  C6_6 
REMARK    2  A    between atoms: C3_3  and  C7_7 
REMARK    3  A    between atoms: C6_6  and  C7_7 
ROOT
HETATM    1  C7  UNL     1     -34.097   5.667   4.036  1.00 20.00     0.242 C 
HETATM    2  F9  UNL     1     -35.217   5.387   3.307  1.00 20.00    -0.241 F 
ENDROOT
BRANCH   1   3
HETATM    3  C3  UNL     1     -34.383   5.540   5.520  1.00 20.00     0.157 C 
HETATM    4  C5  UNL     1     -35.049   4.275   5.995  1.00 20.00     0.094 C 
HETATM    5  O8  UNL     1     -34.087   6.439   6.307  1.00 20.00    -0.295 OA
ENDBRANCH   1   3
BRANCH   1   6
HETATM    6  C6  UNL     1     -33.587   7.045   3.623  1.00 20.00     0.072 C 
BRANCH   6   7
HETATM    7  C2  UNL     1     -32.250   6.990   2.937  1.00 20.00    -0.028 C 
HETATM    8  C1  UNL     1     -31.795   7.944   2.112  1.00 20.00    -0.035 C 
HETATM    9  C4  UNL     1     -32.557   9.180   1.769  1.00 20.00     0.036 C 
ENDBRANCH   6   7
ENDBRANCH   1   6
TORSDOF 3
ENDMDL
MODEL 4
REMARK VINA RESULT:      -4.8      2.704      4.488
REMARK  3 active torsions:
REMARK  status: ('A' for Active; 'I' for Inactive)
REMARK    1  A    between atoms: C2_2  and  C6_6 
REMARK    2  A    between atoms: C3_3  and  C7_7 
REMARK    3  A    between atoms: C6_6  and  C7_7 
ROOT
HETATM    1  C7  UNL     1     -32.831   6.358   2.917  1.00 20.00     0.242 C 
HETATM    2  F9  UNL     1     -32.033   5.312   3.283  1.00 20.00    -0.241 F 
ENDROOT
BRANCH   1   3
HETATM    3  C3  UNL     1     -32.015   7.631   2.791  1.00 20.00     0.157 C 
HETATM    4  C5  UNL     1     -31.108   7.993   3.937  1.00 20.00     0.094 C 
HETATM    5  O8  UNL     1     -32.096   8.345   1.792  1.00 20.00    -0.295 OA
ENDBRANCH   1   3
BRANCH   1   6
HETATM    6  C6  UNL     1     -33.980   6.459   3.917  1.00 20.00     0.072 C 
BRANCH   6   7
HETATM    7  C2  UNL     1     -34.924   5.291   3.840  1.00 20.00    -0.028 C 
HETATM    8  C1  UNL     1     -35.196   4.482   4.874  1.00 20.00    -0.035 C 
HETATM    9  C4  UNL     1     -34.597   4.638   6.232  1.00 20.00     0.036 C 
ENDBRANCH   6   7
ENDBRANCH   1   6
TORSDOF 3
ENDMDL
MODEL 5
REMARK VINA RESULT:      -4.6     11.352     12.145
REMARK  3 active torsions:
REMARK  status: ('A' for Active; 'I' for Inactive)
REMARK    1  A    between atoms: C2_2  and  C6_6 
REMARK    2  A    between atoms: C3_3  and  C7_7 
REMARK    3  A    between atoms: C6_6  and  C7_7 
ROOT
HETATM    1  C7  UNL     1     -33.905  14.124  -3.434  1.00 20.00     0.242 C 
HETATM    2  F9  UNL     1     -32.586  14.445  -3.586  1.00 20.00    -0.241 F 
ENDROOT
BRANCH   1   3
HETATM    3  C3  UNL     1     -34.484  13.621  -4.742  1.00 20.00     0.157 C 
HETATM    4  C5  UNL     1     -34.541  14.587  -5.896  1.00 20.00     0.094 C 
HETATM    5  O8  UNL     1     -34.898  12.467  -4.856  1.00 20.00    -0.295 OA
ENDBRANCH   1   3
BRANCH   1   6
HETATM    6  C6  UNL     1     -34.633  15.339  -2.864  1.00 20.00     0.072 C 
BRANCH   6   7
HETATM    7  C2  UNL     1     -33.702  16.473  -2.532  1.00 20.00    -0.028 C 
HETATM    8  C1  UNL     1     -33.762  17.177  -1.393  1.00 20.00    -0.035 C 
HETATM    9  C4  UNL     1     -34.759  16.926  -0.311  1.00 20.00     0.036 C 
ENDBRANCH   6   7
ENDBRANCH   1   6
TORSDOF 3
ENDMDL
MODEL 6
REMARK VINA RESULT:      -4.6      1.852      4.000
REMARK  3 active torsions:
REMARK  status: ('A' for Active; 'I' for Inactive)
REMARK    1  A    between atoms: C2_2  and  C6_6 
REMARK    2  A    between atoms: C3_3  and  C7_7 
REMARK    3  A    between atoms: C6_6  and  C7_7 
ROOT
HETATM    1  C7  UNL     1     -33.965   5.922   2.726  1.00 20.00     0.242 C 
HETATM    2  F9  UNL     1     -33.487   4.678   2.427  1.00 20.00    -0.241 F 
ENDROOT
BRANCH   1   3
HETATM    3  C3  UNL     1     -32.851   6.809   3.247  1.00 20.00     0.157 C 
HETATM    4  C5  UNL     1     -32.205   7.760   2.273  1.00 20.00     0.094 C 
HETATM    5  O8  UNL     1     -32.483   6.751   4.420  1.00 20.00    -0.295 OA
ENDBRANCH   1   3
BRANCH   1   6
HETATM    6  C6  UNL     1     -35.134   5.766   3.696  1.00 20.00     0.072 C 
BRANCH   6   7
HETATM    7  C2  UNL     1     -35.104   4.460   4.440  1.00 20.00    -0.028 C 
HETATM    8  C1  UNL     1     -34.868   4.356   5.755  1.00 20.00    -0.035 C 
HETATM    9  C4  UNL     1     -34.604   5.522   6.648  1.00 20.00     0.036 C 
ENDBRANCH   6   7
ENDBRANCH   1   6
TORSDOF 3
ENDMDL
MODEL 7
REMARK VINA RESULT:      -4.5      1.807      2.372
REMARK  3 active torsions:
REMARK  status: ('A' for Active; 'I' for Inactive)
REMARK    1  A    between atoms: C2_2  and  C6_6 
REMARK    2  A    between atoms: C3_3  and  C7_7 
REMARK    3  A    between atoms: C6_6  and  C7_7 
ROOT
HETATM    1  C7  UNL     1     -32.777   6.102   3.647  1.00 20.00     0.242 C 
HETATM    2  F9  UNL     1     -33.045   5.452   2.477  1.00 20.00    -0.241 F 
ENDROOT
BRANCH   1   3
HETATM    3  C3  UNL     1     -33.972   6.033   4.579  1.00 20.00     0.157 C 
HETATM    4  C5  UNL     1     -35.221   5.370   4.062  1.00 20.00     0.094 C 
HETATM    5  O8  UNL     1     -33.925   6.507   5.714  1.00 20.00    -0.295 OA
ENDBRANCH   1   3
BRANCH   1   6
HETATM    6  C6  UNL     1     -32.335   7.525   3.316  1.00 20.00     0.072 C 
BRANCH   6   7
HETATM    7  C2  UNL     1     -31.883   7.678   1.890  1.00 20.00    -0.028 C 
HETATM    8  C1  UNL     1     -32.026   8.805   1.179  1.00 20.00    -0.035 C 
HETATM    9  C4  UNL     1     -32.653  10.051   1.712  1.00 20.00     0.036 C 
ENDBRANCH   6   7
ENDBRANCH   1   6
TORSDOF 3
ENDMDL
MODEL 8
REMARK VINA RESULT:      -4.4      1.811      4.141
REMARK  3 active torsions:
REMARK  status: ('A' for Active; 'I' for Inactive)
REMARK    1  A    between atoms: C2_2  and  C6_6 
REMARK    2  A    between atoms: C3_3  and  C7_7 
REMARK    3  A    between atoms: C6_6  and  C7_7 
ROOT
HETATM    1  C7  UNL     1     -33.667   6.920   4.059  1.00 20.00     0.242 C 
HETATM    2  F9  UNL     1     -34.793   6.285   3.620  1.00 20.00    -0.241 F 
ENDROOT
BRANCH   1   3
HETATM    3  C3  UNL     1     -32.554   6.797   3.036  1.00 20.00     0.157 C 
HETATM    4  C5  UNL     1     -32.154   8.041   2.288  1.00 20.00     0.094 C 
HETATM    5  O8  UNL     1     -32.001   5.718   2.819  1.00 20.00    -0.295 OA
ENDBRANCH   1   3
BRANCH   1   6
HETATM    6  C6  UNL     1     -33.305   6.363   5.433  1.00 20.00     0.072 C 
BRANCH   6   7
HETATM    7  C2  UNL     1     -34.513   6.074   6.281  1.00 20.00    -0.028 C 
HETATM    8  C1  UNL     1     -35.136   4.887   6.311  1.00 20.00    -0.035 C 
HETATM    9  C4  UNL     1     -34.711   3.704   5.508  1.00 20.00     0.036 C 
ENDBRANCH   6   7
ENDBRANCH   1   6
TORSDOF 3
ENDMDL
MODEL 9
REMARK VINA RESULT:      -4.3     11.104     11.826
REMARK  3 active torsions:
REMARK  status: ('A' for Active; 'I' for Inactive)
REMARK    1  A    between atoms: C2_2  and  C6_6 
REMARK    2  A    between atoms: C3_3  and  C7_7 
REMARK    3  A    between atoms: C6_6  and  C7_7 
ROOT
HETATM    1  C7  UNL     1     -35.095  15.092  -3.575  1.00 20.00     0.242 C 
HETATM    2  F9  UNL     1     -36.314  14.917  -2.986  1.00 20.00    -0.241 F 
ENDROOT
BRANCH   1   3
HETATM    3  C3  UNL     1     -34.430  13.752  -3.827  1.00 20.00     0.157 C 
HETATM    4  C5  UNL     1     -32.945  13.657  -3.591  1.00 20.00     0.094 C 
HETATM    5  O8  UNL     1     -35.077  12.780  -4.216  1.00 20.00    -0.295 OA
ENDBRANCH   1   3
BRANCH   1   6
HETATM    6  C6  UNL     1     -34.270  16.036  -2.704  1.00 20.00     0.072 C 
BRANCH   6   7
HETATM    7  C2  UNL     1     -34.872  16.246  -1.342  1.00 20.00    -0.028 C 
HETATM    8  C1  UNL     1     -34.425  17.153  -0.461  1.00 20.00    -0.035 C 
HETATM    9  C4  UNL     1     -33.274  18.067  -0.720  1.00 20.00     0.036 C 
ENDBRANCH   6   7
ENDBRANCH   1   6
TORSDOF 3
ENDMDL
