MODEL 1
REMARK VINA RESULT:      -5.5      0.000      0.000
REMARK  0 active torsions:
REMARK  status: ('A' for Active; 'I' for Inactive)
ROOT
HETATM    1  C1  UNL     1     -34.380  16.846  -0.871  1.00 20.00     0.012 C 
HETATM    2  C2  UNL     1     -34.687  16.171  -1.815  1.00 20.00    -0.111 C 
HETATM    3  C3  UNL     1     -34.742  13.699  -4.552  1.00 20.00     0.132 C 
HETATM    4  C4  UNL     1     -35.300  14.891  -5.305  1.00 20.00     0.084 C 
HETATM    5  C5  UNL     1     -32.799  14.859  -3.695  1.00 20.00     0.014 C 
HETATM    6  C6  UNL     1     -33.294  16.128  -4.420  1.00 20.00     0.007 C 
HETATM    7  C7  UNL     1     -35.061  15.347  -2.968  1.00 20.00     0.080 C 
HETATM    8  C8  UNL     1     -34.107  14.183  -3.260  1.00 20.00     0.071 C 
HETATM    9  C9  UNL     1     -34.835  16.008  -4.338  1.00 20.00     0.009 C 
HETATM   10  O10 UNL     1     -34.770  12.541  -4.940  1.00 20.00    -0.298 OA
ENDROOT
TORSDOF 0
ENDMDL
MODEL 2
REMARK VINA RESULT:      -5.1      1.127      2.706
REMARK  0 active torsions:
REMARK  status: ('A' for Active; 'I' for Inactive)
ROOT
HETATM    1  C1  UNL     1     -33.668  18.265  -5.553  1.00 20.00     0.012 C 
HETATM    2  C2  UNL     1     -33.640  17.091  -5.303  1.00 20.00    -0.111 C 
HETATM    3  C3  UNL     1     -34.489  13.656  -4.261  1.00 20.00     0.132 C 
HETATM    4  C4  UNL     1     -33.114  13.757  -3.629  1.00 20.00     0.084 C 
HETATM    5  C5  UNL     1     -35.336  15.707  -3.295  1.00 20.00     0.014 C 
HETATM    6  C6  UNL     1     -33.963  15.901  -2.618  1.00 20.00     0.007 C 
HETATM    7  C7  UNL     1     -33.607  15.658  -4.996  1.00 20.00     0.080 C 
HETATM    8  C8  UNL     1     -34.966  15.049  -4.633  1.00 20.00     0.071 C 
HETATM    9  C9  UNL     1     -32.971  15.299  -3.643  1.00 20.00     0.009 C 
HETATM   10  O10 UNL     1     -35.122  12.623  -4.414  1.00 20.00    -0.298 OA
ENDROOT
TORSDOF 0
ENDMDL
MODEL 3
REMARK VINA RESULT:      -4.8      1.036      1.493
REMARK  0 active torsions:
REMARK  status: ('A' for Active; 'I' for Inactive)
ROOT
HETATM    1  C1  UNL     1     -34.612  16.557  -0.840  1.00 20.00     0.012 C 
HETATM    2  C2  UNL     1     -34.684  16.406  -2.029  1.00 20.00    -0.111 C 
HETATM    3  C3  UNL     1     -35.021  14.993  -5.420  1.00 20.00     0.132 C 
HETATM    4  C4  UNL     1     -33.865  15.939  -5.677  1.00 20.00     0.084 C 
HETATM    5  C5  UNL     1     -34.013  13.915  -3.502  1.00 20.00     0.014 C 
HETATM    6  C6  UNL     1     -32.795  14.845  -3.678  1.00 20.00     0.007 C 
HETATM    7  C7  UNL     1     -34.772  16.220  -3.480  1.00 20.00     0.080 C 
HETATM    8  C8  UNL     1     -35.188  14.811  -3.921  1.00 20.00     0.071 C 
HETATM    9  C9  UNL     1     -33.420  16.157  -4.209  1.00 20.00     0.009 C 
HETATM   10  O10 UNL     1     -35.688  14.441  -6.281  1.00 20.00    -0.298 OA
ENDROOT
TORSDOF 0
ENDMDL
MODEL 4
REMARK VINA RESULT:      -4.7      1.400      2.321
REMARK  0 active torsions:
REMARK  status: ('A' for Active; 'I' for Inactive)
ROOT
HETATM    1  C1  UNL     1     -34.542  16.544  -1.247  1.00 20.00     0.012 C 
HETATM    2  C2  UNL     1     -34.374  15.932  -2.267  1.00 20.00    -0.111 C 
HETATM    3  C3  UNL     1     -34.435  14.768  -5.766  1.00 20.00     0.132 C 
HETATM    4  C4  UNL     1     -34.631  13.433  -5.074  1.00 20.00     0.084 C 
HETATM    5  C5  UNL     1     -36.223  15.899  -4.592  1.00 20.00     0.014 C 
HETATM    6  C6  UNL     1     -36.490  14.586  -3.828  1.00 20.00     0.007 C 
HETATM    7  C7  UNL     1     -34.171  15.186  -3.511  1.00 20.00     0.080 C 
HETATM    8  C8  UNL     1     -34.698  15.884  -4.770  1.00 20.00     0.071 C 
HETATM    9  C9  UNL     1     -35.082  13.960  -3.688  1.00 20.00     0.009 C 
HETATM   10  O10 UNL     1     -34.146  14.918  -6.943  1.00 20.00    -0.298 OA
ENDROOT
TORSDOF 0
ENDMDL
MODEL 5
REMARK VINA RESULT:      -4.7      1.797      2.757
REMARK  0 active torsions:
REMARK  status: ('A' for Active; 'I' for Inactive)
ROOT
HETATM    1  C1  UNL     1     -34.992  17.291   0.281  1.00 20.00     0.012 C 
HETATM    2  C2  UNL     1     -34.516  16.853  -0.731  1.00 20.00    -0.111 C 
HETATM    3  C3  UNL     1     -33.482  16.312  -4.230  1.00 20.00     0.132 C 
HETATM    4  C4  UNL     1     -33.893  14.894  -3.887  1.00 20.00     0.084 C 
HETATM    5  C5  UNL     1     -35.541  17.336  -3.477  1.00 20.00     0.014 C 
HETATM    6  C6  UNL     1     -36.043  15.930  -3.085  1.00 20.00     0.007 C 
HETATM    7  C7  UNL     1     -33.936  16.320  -1.967  1.00 20.00     0.080 C 
HETATM    8  C8  UNL     1     -34.037  17.256  -3.177  1.00 20.00     0.071 C 
HETATM    9  C9  UNL     1     -34.753  15.202  -2.636  1.00 20.00     0.009 C 
HETATM   10  O10 UNL     1     -32.837  16.644  -5.212  1.00 20.00    -0.298 OA
ENDROOT
TORSDOF 0
ENDMDL
MODEL 6
REMARK VINA RESULT:      -4.6      1.045      1.428
REMARK  0 active torsions:
REMARK  status: ('A' for Active; 'I' for Inactive)
ROOT
HETATM    1  C1  UNL     1     -34.928  18.031  -1.589  1.00 20.00     0.012 C 
HETATM    2  C2  UNL     1     -34.845  16.913  -2.019  1.00 20.00    -0.111 C 
HETATM    3  C3  UNL     1     -33.762  13.839  -3.745  1.00 20.00     0.132 C 
HETATM    4  C4  UNL     1     -35.236  13.792  -4.091  1.00 20.00     0.084 C 
HETATM    5  C5  UNL     1     -33.421  16.113  -4.499  1.00 20.00     0.014 C 
HETATM    6  C6  UNL     1     -34.916  16.163  -4.875  1.00 20.00     0.007 C 
HETATM    7  C7  UNL     1     -34.742  15.549  -2.544  1.00 20.00     0.080 C 
HETATM    8  C8  UNL     1     -33.415  15.230  -3.243  1.00 20.00     0.071 C 
HETATM    9  C9  UNL     1     -35.585  15.273  -3.800  1.00 20.00     0.009 C 
HETATM   10  O10 UNL     1     -32.974  12.915  -3.880  1.00 20.00    -0.298 OA
ENDROOT
TORSDOF 0
ENDMDL
MODEL 7
REMARK VINA RESULT:      -4.6      2.051      3.257
REMARK  0 active torsions:
REMARK  status: ('A' for Active; 'I' for Inactive)
ROOT
HETATM    1  C1  UNL     1     -38.207  14.634  -3.902  1.00 20.00     0.012 C 
HETATM    2  C2  UNL     1     -37.036  14.894  -3.835  1.00 20.00    -0.111 C 
HETATM    3  C3  UNL     1     -33.534  15.749  -4.615  1.00 20.00     0.132 C 
HETATM    4  C4  UNL     1     -33.284  14.666  -3.585  1.00 20.00     0.084 C 
HETATM    5  C5  UNL     1     -35.033  14.426  -5.978  1.00 20.00     0.014 C 
HETATM    6  C6  UNL     1     -34.849  13.268  -4.976  1.00 20.00     0.007 C 
HETATM    7  C7  UNL     1     -35.608  15.211  -3.756  1.00 20.00     0.080 C 
HETATM    8  C8  UNL     1     -34.979  15.668  -5.078  1.00 20.00     0.071 C 
HETATM    9  C9  UNL     1     -34.679  13.993  -3.619  1.00 20.00     0.009 C 
HETATM   10  O10 UNL     1     -32.698  16.536  -5.031  1.00 20.00    -0.298 OA
ENDROOT
TORSDOF 0
ENDMDL
MODEL 8
REMARK VINA RESULT:      -4.5      1.826      3.626
REMARK  0 active torsions:
REMARK  status: ('A' for Active; 'I' for Inactive)
ROOT
HETATM    1  C1  UNL     1     -36.319  14.789  -7.795  1.00 20.00     0.012 C 
HETATM    2  C2  UNL     1     -35.459  14.705  -6.962  1.00 20.00    -0.111 C 
HETATM    3  C3  UNL     1     -33.423  13.754  -4.037  1.00 20.00     0.132 C 
HETATM    4  C4  UNL     1     -33.276  15.260  -3.942  1.00 20.00     0.084 C 
HETATM    5  C5  UNL     1     -35.839  13.768  -4.169  1.00 20.00     0.014 C 
HETATM    6  C6  UNL     1     -35.789  15.308  -4.088  1.00 20.00     0.007 C 
HETATM    7  C7  UNL     1     -34.410  14.601  -5.943  1.00 20.00     0.080 C 
HETATM    8  C8  UNL     1     -34.575  13.427  -4.971  1.00 20.00     0.071 C 
HETATM    9  C9  UNL     1     -34.479  15.662  -4.832  1.00 20.00     0.009 C 
HETATM   10  O10 UNL     1     -32.745  12.938  -3.432  1.00 20.00    -0.298 OA
ENDROOT
TORSDOF 0
ENDMDL
MODEL 9
REMARK VINA RESULT:      -4.5      2.019      3.630
REMARK  0 active torsions:
REMARK  status: ('A' for Active; 'I' for Inactive)
ROOT
HETATM    1  C1  UNL     1     -34.435  14.896  -7.382  1.00 20.00     0.012 C 
HETATM    2  C2  UNL     1     -34.568  15.301  -6.259  1.00 20.00    -0.111 C 
HETATM    3  C3  UNL     1     -34.087  16.131  -2.697  1.00 20.00     0.132 C 
HETATM    4  C4  UNL     1     -35.534  15.683  -2.638  1.00 20.00     0.084 C 
HETATM    5  C5  UNL     1     -33.282  14.155  -3.839  1.00 20.00     0.014 C 
HETATM    6  C6  UNL     1     -34.729  13.620  -3.835  1.00 20.00     0.007 C 
HETATM    7  C7  UNL     1     -34.730  15.795  -4.889  1.00 20.00     0.080 C 
HETATM    8  C8  UNL     1     -33.480  15.668  -4.010  1.00 20.00     0.071 C 
HETATM    9  C9  UNL     1     -35.585  14.902  -3.975  1.00 20.00     0.009 C 
HETATM   10  O10 UNL     1     -33.497  16.737  -1.816  1.00 20.00    -0.298 OA
ENDROOT
TORSDOF 0
ENDMDL
