MODEL 1
REMARK VINA RESULT:      -4.3      0.000      0.000
REMARK  1 active torsions:
REMARK  status: ('A' for Active; 'I' for Inactive)
REMARK    1  A    between atoms: C1_1  and  C3_3 
REMARK       I    between atoms: C3_3  and  N8_8 
ROOT
HETATM    1  C3  UNL     1     -33.475  15.634  -3.498  1.00 20.00     0.223 C 
HETATM    2  C4  UNL     1     -34.394  15.550  -5.786  1.00 20.00     0.119 A 
HETATM    3  C5  UNL     1     -35.196  14.600  -4.980  1.00 20.00     0.075 A 
HETATM    4  C7  UNL     1     -34.748  13.197  -4.771  1.00 20.00     0.028 C 
HETATM    5  N8  UNL     1     -34.544  15.718  -4.367  1.00 20.00    -0.243 NA
HETATM    6  O9  UNL     1     -32.455  14.966  -3.617  1.00 20.00    -0.275 OA
ENDROOT
BRANCH   1   7
HETATM    7  C1  UNL     1     -33.676  16.499  -2.322  1.00 20.00     0.064 C 
HETATM    8  C2  UNL     1     -34.628  16.289  -1.404  1.00 20.00    -0.026 C 
HETATM    9  C6  UNL     1     -34.838  17.165  -0.212  1.00 20.00     0.036 C 
ENDBRANCH   1   7
TORSDOF 1
ENDMDL
MODEL 2
REMARK VINA RESULT:      -4.0      1.827      2.330
REMARK  1 active torsions:
REMARK  status: ('A' for Active; 'I' for Inactive)
REMARK    1  A    between atoms: C1_1  and  C3_3 
REMARK       I    between atoms: C3_3  and  N8_8 
ROOT
HETATM    1  C3  UNL     1     -34.732  15.820  -2.444  1.00 20.00     0.223 C 
HETATM    2  C4  UNL     1     -33.022  14.675  -3.804  1.00 20.00     0.119 A 
HETATM    3  C5  UNL     1     -33.146  16.043  -4.359  1.00 20.00     0.075 A 
HETATM    4  C7  UNL     1     -34.184  16.371  -5.374  1.00 20.00     0.028 C 
HETATM    5  N8  UNL     1     -33.464  15.771  -2.989  1.00 20.00    -0.243 NA
HETATM    6  O9  UNL     1     -35.766  15.340  -2.893  1.00 20.00    -0.275 OA
ENDROOT
BRANCH   1   7
HETATM    7  C1  UNL     1     -34.733  16.550  -1.164  1.00 20.00     0.064 C 
HETATM    8  C2  UNL     1     -33.820  17.474  -0.839  1.00 20.00    -0.026 C 
HETATM    9  C6  UNL     1     -33.815  18.213   0.459  1.00 20.00     0.036 C 
ENDBRANCH   1   7
TORSDOF 1
ENDMDL
MODEL 3
REMARK VINA RESULT:      -4.0      1.638      1.964
REMARK  1 active torsions:
REMARK  status: ('A' for Active; 'I' for Inactive)
REMARK    1  A    between atoms: C1_1  and  C3_3 
REMARK       I    between atoms: C3_3  and  N8_8 
ROOT
HETATM    1  C3  UNL     1     -35.111  15.144  -3.340  1.00 20.00     0.223 C 
HETATM    2  C4  UNL     1     -34.508  13.173  -4.696  1.00 20.00     0.119 A 
HETATM    3  C5  UNL     1     -34.525  14.328  -5.625  1.00 20.00     0.075 A 
HETATM    4  C7  UNL     1     -35.786  14.779  -6.271  1.00 20.00     0.028 C 
HETATM    5  N8  UNL     1     -34.265  14.509  -4.228  1.00 20.00    -0.243 NA
HETATM    6  O9  UNL     1     -36.319  14.991  -3.207  1.00 20.00    -0.275 OA
ENDROOT
BRANCH   1   7
HETATM    7  C1  UNL     1     -34.372  16.090  -2.485  1.00 20.00     0.064 C 
HETATM    8  C2  UNL     1     -34.778  16.455  -1.262  1.00 20.00    -0.026 C 
HETATM    9  C6  UNL     1     -34.034  17.416  -0.394  1.00 20.00     0.036 C 
ENDBRANCH   1   7
TORSDOF 1
ENDMDL
MODEL 4
REMARK VINA RESULT:      -3.8     11.937     12.699
REMARK  1 active torsions:
REMARK  status: ('A' for Active; 'I' for Inactive)
REMARK    1  A    between atoms: C1_1  and  C3_3 
REMARK       I    between atoms: C3_3  and  N8_8 
ROOT
HETATM    1  C3  UNL     1     -34.097   6.078   3.955  1.00 20.00     0.223 C 
HETATM    2  C4  UNL     1     -34.453   6.258   6.389  1.00 20.00     0.119 A 
HETATM    3  C5  UNL     1     -33.940   4.890   6.145  1.00 20.00     0.075 A 
HETATM    4  C7  UNL     1     -34.857   3.778   5.776  1.00 20.00     0.028 C 
HETATM    5  N8  UNL     1     -33.630   5.965   5.250  1.00 20.00    -0.243 NA
HETATM    6  O9  UNL     1     -35.242   5.925   3.549  1.00 20.00    -0.275 OA
ENDROOT
BRANCH   1   7
HETATM    7  C1  UNL     1     -33.010   6.441   3.028  1.00 20.00     0.064 C 
HETATM    8  C2  UNL     1     -32.740   7.701   2.663  1.00 20.00    -0.026 C 
HETATM    9  C6  UNL     1     -31.642   8.074   1.721  1.00 20.00     0.036 C 
ENDBRANCH   1   7
TORSDOF 1
ENDMDL
MODEL 5
REMARK VINA RESULT:      -3.8     12.316     14.105
REMARK  1 active torsions:
REMARK  status: ('A' for Active; 'I' for Inactive)
REMARK    1  A    between atoms: C1_1  and  C3_3 
REMARK       I    between atoms: C3_3  and  N8_8 
ROOT
HETATM    1  C3  UNL     1     -41.545   4.349  -1.599  1.00 20.00     0.223 C 
HETATM    2  C4  UNL     1     -42.490   5.436   0.405  1.00 20.00     0.119 A 
HETATM    3  C5  UNL     1     -42.451   6.474  -0.652  1.00 20.00     0.075 A 
HETATM    4  C7  UNL     1     -41.225   7.280  -0.895  1.00 20.00     0.028 C 
HETATM    5  N8  UNL     1     -42.541   5.084  -0.987  1.00 20.00    -0.243 NA
HETATM    6  O9  UNL     1     -40.352   4.317  -1.322  1.00 20.00    -0.275 OA
ENDROOT
BRANCH   1   7
HETATM    7  C1  UNL     1     -42.087   3.529  -2.696  1.00 20.00     0.064 C 
HETATM    8  C2  UNL     1     -41.454   2.464  -3.205  1.00 20.00    -0.026 C 
HETATM    9  C6  UNL     1     -41.997   1.631  -4.320  1.00 20.00     0.036 C 
ENDBRANCH   1   7
TORSDOF 1
ENDMDL
MODEL 6
REMARK VINA RESULT:      -3.7     10.839     11.499
REMARK  1 active torsions:
REMARK  status: ('A' for Active; 'I' for Inactive)
REMARK    1  A    between atoms: C1_1  and  C3_3 
REMARK       I    between atoms: C3_3  and  N8_8 
ROOT
HETATM    1  C3  UNL     1     -32.593   6.521   3.326  1.00 20.00     0.223 C 
HETATM    2  C4  UNL     1     -34.792   5.411   3.457  1.00 20.00     0.119 A 
HETATM    3  C5  UNL     1     -34.604   6.115   4.748  1.00 20.00     0.075 A 
HETATM    4  C7  UNL     1     -33.865   5.478   5.871  1.00 20.00     0.028 C 
HETATM    5  N8  UNL     1     -33.953   6.573   3.556  1.00 20.00    -0.243 NA
HETATM    6  O9  UNL     1     -31.831   5.580   3.511  1.00 20.00    -0.275 OA
ENDROOT
BRANCH   1   7
HETATM    7  C1  UNL     1     -32.097   7.797   2.781  1.00 20.00     0.064 C 
HETATM    8  C2  UNL     1     -32.651   8.418   1.732  1.00 20.00    -0.026 C 
HETATM    9  C6  UNL     1     -32.150   9.710   1.173  1.00 20.00     0.036 C 
ENDBRANCH   1   7
TORSDOF 1
ENDMDL
MODEL 7
REMARK VINA RESULT:      -3.7     12.489     14.262
REMARK  1 active torsions:
REMARK  status: ('A' for Active; 'I' for Inactive)
REMARK    1  A    between atoms: C1_1  and  C3_3 
REMARK       I    between atoms: C3_3  and  N8_8 
ROOT
HETATM    1  C3  UNL     1     -41.986   4.386  -2.132  1.00 20.00     0.223 C 
HETATM    2  C4  UNL     1     -41.132   6.566  -1.355  1.00 20.00     0.119 A 
HETATM    3  C5  UNL     1     -41.219   5.702  -0.154  1.00 20.00     0.075 A 
HETATM    4  C7  UNL     1     -42.488   5.572   0.611  1.00 20.00     0.028 C 
HETATM    5  N8  UNL     1     -41.042   5.136  -1.459  1.00 20.00    -0.243 NA
HETATM    6  O9  UNL     1     -43.178   4.626  -2.279  1.00 20.00    -0.275 OA
ENDROOT
BRANCH   1   7
HETATM    7  C1  UNL     1     -41.382   3.177  -2.720  1.00 20.00     0.064 C 
HETATM    8  C2  UNL     1     -42.079   2.261  -3.405  1.00 20.00    -0.026 C 
HETATM    9  C6  UNL     1     -41.473   1.032  -3.999  1.00 20.00     0.036 C 
ENDBRANCH   1   7
TORSDOF 1
ENDMDL
MODEL 8
REMARK VINA RESULT:      -3.7      3.588      5.009
REMARK  1 active torsions:
REMARK  status: ('A' for Active; 'I' for Inactive)
REMARK    1  A    between atoms: C1_1  and  C3_3 
REMARK       I    between atoms: C3_3  and  N8_8 
ROOT
HETATM    1  C3  UNL     1     -32.867  18.844  -0.384  1.00 20.00     0.223 C 
HETATM    2  C4  UNL     1     -35.269  18.284  -0.368  1.00 20.00     0.119 A 
HETATM    3  C5  UNL     1     -34.544  16.998  -0.501  1.00 20.00     0.075 A 
HETATM    4  C7  UNL     1     -34.114  16.491  -1.832  1.00 20.00     0.028 C 
HETATM    5  N8  UNL     1     -33.931  18.129   0.130  1.00 20.00    -0.243 NA
HETATM    6  O9  UNL     1     -32.719  19.263  -1.525  1.00 20.00    -0.275 OA
ENDROOT
BRANCH   1   7
HETATM    7  C1  UNL     1     -31.845  19.090   0.648  1.00 20.00     0.064 C 
HETATM    8  C2  UNL     1     -32.051  18.890   1.956  1.00 20.00    -0.026 C 
HETATM    9  C6  UNL     1     -31.019  19.142   3.007  1.00 20.00     0.036 C 
ENDBRANCH   1   7
TORSDOF 1
ENDMDL
MODEL 9
REMARK VINA RESULT:      -3.6      1.705      4.227
REMARK  1 active torsions:
REMARK  status: ('A' for Active; 'I' for Inactive)
REMARK    1  A    between atoms: C1_1  and  C3_3 
REMARK       I    between atoms: C3_3  and  N8_8 
ROOT
HETATM    1  C3  UNL     1     -33.578  16.131  -5.285  1.00 20.00     0.223 C 
HETATM    2  C4  UNL     1     -32.529  14.760  -3.522  1.00 20.00     0.119 A 
HETATM    3  C5  UNL     1     -33.871  15.133  -3.016  1.00 20.00     0.075 A 
HETATM    4  C7  UNL     1     -34.097  16.425  -2.314  1.00 20.00     0.028 C 
HETATM    5  N8  UNL     1     -33.609  15.054  -4.422  1.00 20.00    -0.243 NA
HETATM    6  O9  UNL     1     -33.012  17.207  -5.130  1.00 20.00    -0.275 OA
ENDROOT
BRANCH   1   7
HETATM    7  C1  UNL     1     -34.336  15.849  -6.517  1.00 20.00     0.064 C 
HETATM    8  C2  UNL     1     -35.125  14.778  -6.670  1.00 20.00    -0.026 C 
HETATM    9  C6  UNL     1     -35.892  14.485  -7.918  1.00 20.00     0.036 C 
ENDBRANCH   1   7
TORSDOF 1
ENDMDL
