MODEL 1
REMARK VINA RESULT:      -4.5      0.000      0.000
REMARK  1 active torsions:
REMARK  status: ('A' for Active; 'I' for Inactive)
REMARK    1  A    between atoms: C1_1  and  C2_2 
ROOT
HETATM    1  C2  UNL     1     -33.262   5.764   4.514  1.00 20.00     0.084 A 
HETATM    2  C3  UNL     1     -34.076   6.701   5.374  1.00 20.00     0.018 A 
HETATM    3  C4  UNL     1     -34.673   5.380   4.924  1.00 20.00     0.048 A 
HETATM    4  C6  UNL     1     -33.678   6.960   6.788  1.00 20.00     0.012 C 
HETATM    5  C7  UNL     1     -34.858   4.246   5.889  1.00 20.00     0.034 C 
HETATM    6 CL9  UNL     1     -35.978   5.502   3.715  1.00 20.00    -0.118 Cl
ENDROOT
BRANCH   1   7
HETATM    7  C1  UNL     1     -32.950   6.151   3.132  1.00 20.00     0.129 C 
HETATM    8  C5  UNL     1     -32.140   7.405   2.946  1.00 20.00     0.091 C 
HETATM    9  O8  UNL     1     -33.331   5.481   2.173  1.00 20.00    -0.298 OA
ENDBRANCH   1   7
TORSDOF 1
ENDMDL
MODEL 2
REMARK VINA RESULT:      -4.5     11.889     12.649
REMARK  1 active torsions:
REMARK  status: ('A' for Active; 'I' for Inactive)
REMARK    1  A    between atoms: C1_1  and  C2_2 
ROOT
HETATM    1  C2  UNL     1     -34.811  15.005  -3.356  1.00 20.00     0.084 A 
HETATM    2  C3  UNL     1     -33.994  15.932  -2.490  1.00 20.00     0.018 A 
HETATM    3  C4  UNL     1     -34.478  16.401  -3.850  1.00 20.00     0.048 A 
HETATM    4  C6  UNL     1     -34.558  16.460  -1.214  1.00 20.00     0.012 C 
HETATM    5  C7  UNL     1     -35.587  17.405  -3.973  1.00 20.00     0.034 C 
HETATM    6 CL9  UNL     1     -33.210  16.591  -5.091  1.00 20.00    -0.118 Cl
ENDROOT
BRANCH   1   7
HETATM    7  C1  UNL     1     -34.169  13.818  -3.938  1.00 20.00     0.129 C 
HETATM    8  C5  UNL     1     -34.793  13.254  -5.185  1.00 20.00     0.091 C 
HETATM    9  O8  UNL     1     -33.170  13.312  -3.430  1.00 20.00    -0.298 OA
ENDBRANCH   1   7
TORSDOF 1
ENDMDL
MODEL 3
REMARK VINA RESULT:      -4.2     11.970     12.800
REMARK  1 active torsions:
REMARK  status: ('A' for Active; 'I' for Inactive)
REMARK    1  A    between atoms: C1_1  and  C2_2 
ROOT
HETATM    1  C2  UNL     1     -34.253  14.829  -4.200  1.00 20.00     0.084 A 
HETATM    2  C3  UNL     1     -34.585  16.257  -4.562  1.00 20.00     0.018 A 
HETATM    3  C4  UNL     1     -35.192  15.633  -3.319  1.00 20.00     0.048 A 
HETATM    4  C6  UNL     1     -33.533  17.312  -4.495  1.00 20.00     0.012 C 
HETATM    5  C7  UNL     1     -34.729  16.030  -1.948  1.00 20.00     0.034 C 
HETATM    6 CL9  UNL     1     -36.943  15.300  -3.407  1.00 20.00    -0.118 Cl
ENDROOT
BRANCH   1   7
HETATM    7  C1  UNL     1     -34.752  13.741  -5.052  1.00 20.00     0.129 C 
HETATM    8  C5  UNL     1     -35.138  14.106  -6.460  1.00 20.00     0.091 C 
HETATM    9  O8  UNL     1     -34.849  12.588  -4.634  1.00 20.00    -0.298 OA
ENDBRANCH   1   7
TORSDOF 1
ENDMDL
MODEL 4
REMARK VINA RESULT:      -4.1     11.930     12.804
REMARK  1 active torsions:
REMARK  status: ('A' for Active; 'I' for Inactive)
REMARK    1  A    between atoms: C1_1  and  C2_2 
ROOT
HETATM    1  C2  UNL     1     -35.701  15.731  -3.954  1.00 20.00     0.084 A 
HETATM    2  C3  UNL     1     -35.040  15.284  -2.672  1.00 20.00     0.018 A 
HETATM    3  C4  UNL     1     -34.316  15.109  -3.995  1.00 20.00     0.048 A 
HETATM    4  C6  UNL     1     -34.617  16.290  -1.655  1.00 20.00     0.012 C 
HETATM    5  C7  UNL     1     -33.148  15.977  -4.359  1.00 20.00     0.034 C 
HETATM    6 CL9  UNL     1     -34.151  13.425  -4.560  1.00 20.00    -0.118 Cl
ENDROOT
BRANCH   1   7
HETATM    7  C1  UNL     1     -36.878  15.000  -4.443  1.00 20.00     0.129 C 
HETATM    8  C5  UNL     1     -37.331  15.307  -5.845  1.00 20.00     0.091 C 
HETATM    9  O8  UNL     1     -37.464  14.178  -3.741  1.00 20.00    -0.298 OA
ENDBRANCH   1   7
TORSDOF 1
ENDMDL
MODEL 5
REMARK VINA RESULT:      -4.0     11.686     13.444
REMARK  1 active torsions:
REMARK  status: ('A' for Active; 'I' for Inactive)
REMARK    1  A    between atoms: C1_1  and  C2_2 
ROOT
HETATM    1  C2  UNL     1     -34.527  14.673  -5.504  1.00 20.00     0.084 A 
HETATM    2  C3  UNL     1     -35.664  14.525  -6.486  1.00 20.00     0.018 A 
HETATM    3  C4  UNL     1     -35.772  15.530  -5.353  1.00 20.00     0.048 A 
HETATM    4  C6  UNL     1     -35.487  14.939  -7.908  1.00 20.00     0.012 C 
HETATM    5  C7  UNL     1     -35.666  17.004  -5.613  1.00 20.00     0.034 C 
HETATM    6 CL9  UNL     1     -36.945  15.118  -4.073  1.00 20.00    -0.118 Cl
ENDROOT
BRANCH   1   7
HETATM    7  C1  UNL     1     -34.241  13.575  -4.570  1.00 20.00     0.129 C 
HETATM    8  C5  UNL     1     -33.123  13.794  -3.589  1.00 20.00     0.091 C 
HETATM    9  O8  UNL     1     -34.887  12.528  -4.590  1.00 20.00    -0.298 OA
ENDBRANCH   1   7
TORSDOF 1
ENDMDL
MODEL 6
REMARK VINA RESULT:      -4.0     12.262     12.835
REMARK  1 active torsions:
REMARK  status: ('A' for Active; 'I' for Inactive)
REMARK    1  A    between atoms: C1_1  and  C2_2 
ROOT
HETATM    1  C2  UNL     1     -35.474  14.873  -3.316  1.00 20.00     0.084 A 
HETATM    2  C3  UNL     1     -34.306  15.656  -3.865  1.00 20.00     0.018 A 
HETATM    3  C4  UNL     1     -35.158  16.249  -2.758  1.00 20.00     0.048 A 
HETATM    4  C6  UNL     1     -32.911  15.183  -3.636  1.00 20.00     0.012 C 
HETATM    5  C7  UNL     1     -34.638  16.354  -1.354  1.00 20.00     0.034 C 
HETATM    6 CL9  UNL     1     -36.188  17.625  -3.237  1.00 20.00    -0.118 Cl
ENDROOT
BRANCH   1   7
HETATM    7  C1  UNL     1     -36.650  14.650  -4.169  1.00 20.00     0.129 C 
HETATM    8  C5  UNL     1     -36.498  14.975  -5.630  1.00 20.00     0.091 C 
HETATM    9  O8  UNL     1     -37.706  14.216  -3.710  1.00 20.00    -0.298 OA
ENDBRANCH   1   7
TORSDOF 1
ENDMDL
MODEL 7
REMARK VINA RESULT:      -4.0     12.087     13.249
REMARK  1 active torsions:
REMARK  status: ('A' for Active; 'I' for Inactive)
REMARK    1  A    between atoms: C1_1  and  C2_2 
ROOT
HETATM    1  C2  UNL     1     -33.561  16.206  -3.350  1.00 20.00     0.084 A 
HETATM    2  C3  UNL     1     -34.292  14.890  -3.469  1.00 20.00     0.018 A 
HETATM    3  C4  UNL     1     -34.545  15.989  -4.486  1.00 20.00     0.048 A 
HETATM    4  C6  UNL     1     -33.545  13.644  -3.804  1.00 20.00     0.012 C 
HETATM    5  C7  UNL     1     -34.015  15.882  -5.886  1.00 20.00     0.034 C 
HETATM    6 CL9  UNL     1     -36.147  16.766  -4.392  1.00 20.00    -0.118 Cl
ENDROOT
BRANCH   1   7
HETATM    7  C1  UNL     1     -33.878  17.102  -2.230  1.00 20.00     0.129 C 
HETATM    8  C5  UNL     1     -34.620  16.499  -1.069  1.00 20.00     0.091 C 
HETATM    9  O8  UNL     1     -33.552  18.288  -2.241  1.00 20.00    -0.298 OA
ENDBRANCH   1   7
TORSDOF 1
ENDMDL
MODEL 8
REMARK VINA RESULT:      -4.0     11.688     13.120
REMARK  1 active torsions:
REMARK  status: ('A' for Active; 'I' for Inactive)
REMARK    1  A    between atoms: C1_1  and  C2_2 
ROOT
HETATM    1  C2  UNL     1     -36.009  14.509  -4.727  1.00 20.00     0.084 A 
HETATM    2  C3  UNL     1     -35.008  15.539  -5.193  1.00 20.00     0.018 A 
HETATM    3  C4  UNL     1     -34.739  14.742  -3.929  1.00 20.00     0.048 A 
HETATM    4  C6  UNL     1     -34.241  15.324  -6.453  1.00 20.00     0.012 C 
HETATM    5  C7  UNL     1     -33.697  13.663  -3.902  1.00 20.00     0.034 C 
HETATM    6 CL9  UNL     1     -34.843  15.666  -2.406  1.00 20.00    -0.118 Cl
ENDROOT
BRANCH   1   7
HETATM    7  C1  UNL     1     -37.316  14.957  -4.227  1.00 20.00     0.129 C 
HETATM    8  C5  UNL     1     -37.691  16.388  -4.499  1.00 20.00     0.091 C 
HETATM    9  O8  UNL     1     -38.067  14.198  -3.616  1.00 20.00    -0.298 OA
ENDBRANCH   1   7
TORSDOF 1
ENDMDL
MODEL 9
REMARK VINA RESULT:      -4.0     11.917     13.440
REMARK  1 active torsions:
REMARK  status: ('A' for Active; 'I' for Inactive)
REMARK    1  A    between atoms: C1_1  and  C2_2 
ROOT
HETATM    1  C2  UNL     1     -35.541  14.787  -4.641  1.00 20.00     0.084 A 
HETATM    2  C3  UNL     1     -34.943  16.162  -4.816  1.00 20.00     0.018 A 
HETATM    3  C4  UNL     1     -35.551  15.446  -6.009  1.00 20.00     0.048 A 
HETATM    4  C6  UNL     1     -35.586  17.347  -4.181  1.00 20.00     0.012 C 
HETATM    5  C7  UNL     1     -36.864  15.884  -6.587  1.00 20.00     0.034 C 
HETATM    6 CL9  UNL     1     -34.388  14.883  -7.239  1.00 20.00    -0.118 Cl
ENDROOT
BRANCH   1   7
HETATM    7  C1  UNL     1     -34.654  13.653  -4.349  1.00 20.00     0.129 C 
HETATM    8  C5  UNL     1     -33.321  13.977  -3.731  1.00 20.00     0.091 C 
HETATM    9  O8  UNL     1     -34.985  12.495  -4.597  1.00 20.00    -0.298 OA
ENDBRANCH   1   7
TORSDOF 1
ENDMDL
