MODEL 1
REMARK VINA RESULT:      -4.5      0.000      0.000
REMARK  1 active torsions:
REMARK  status: ('A' for Active; 'I' for Inactive)
REMARK    1  A    between atoms: C3_3  and  C7_7 
ROOT
HETATM    1  C1  UNL     1     -34.298  16.193  -2.306  1.00 20.00    -0.007 C 
HETATM    2  C2  UNL     1     -33.812  17.268  -2.942  1.00 20.00     0.008 C 
HETATM    3  C4  UNL     1     -34.612  14.905  -3.010  1.00 20.00     0.042 C 
HETATM    4  C5  UNL     1     -33.565  17.318  -4.420  1.00 20.00     0.051 C 
HETATM    5  C6  UNL     1     -34.236  16.163  -5.170  1.00 20.00     0.019 C 
HETATM    6  C7  UNL     1     -34.044  14.836  -4.434  1.00 20.00     0.076 C 
HETATM    7 CL9  UNL     1     -33.450  18.716  -2.070  1.00 20.00    -0.089 Cl
ENDROOT
BRANCH   6   8
HETATM    8  C3  UNL     1     -34.697  13.720  -5.193  1.00 20.00     0.223 C 
HETATM    9  O8  UNL     1     -34.778  12.586  -4.730  1.00 20.00    -0.279 OA
HETATM   10 CL10 UNL     1     -35.289  14.241  -6.741  1.00 20.00    -0.043 Cl
ENDBRANCH   6   8
TORSDOF 1
ENDMDL
MODEL 2
REMARK VINA RESULT:      -4.4      2.506      3.105
REMARK  1 active torsions:
REMARK  status: ('A' for Active; 'I' for Inactive)
REMARK    1  A    between atoms: C3_3  and  C7_7 
ROOT
HETATM    1  C1  UNL     1     -34.445  16.268  -7.129  1.00 20.00    -0.007 C 
HETATM    2  C2  UNL     1     -34.017  17.359  -6.479  1.00 20.00     0.008 C 
HETATM    3  C4  UNL     1     -34.546  14.920  -6.477  1.00 20.00     0.042 C 
HETATM    4  C5  UNL     1     -33.561  17.350  -5.050  1.00 20.00     0.051 C 
HETATM    5  C6  UNL     1     -33.306  15.934  -4.521  1.00 20.00     0.019 C 
HETATM    6  C7  UNL     1     -34.416  14.973  -4.948  1.00 20.00     0.076 C 
HETATM    7 CL9  UNL     1     -33.944  18.888  -7.281  1.00 20.00    -0.089 Cl
ENDROOT
BRANCH   6   8
HETATM    8  C3  UNL     1     -34.152  13.599  -4.408  1.00 20.00     0.223 C 
HETATM    9  O8  UNL     1     -34.903  12.658  -4.643  1.00 20.00    -0.279 OA
HETATM   10 CL10 UNL     1     -32.702  13.541  -3.452  1.00 20.00    -0.043 Cl
ENDBRANCH   6   8
TORSDOF 1
ENDMDL
MODEL 3
REMARK VINA RESULT:      -4.4      0.358      1.630
REMARK  1 active torsions:
REMARK  status: ('A' for Active; 'I' for Inactive)
REMARK    1  A    between atoms: C3_3  and  C7_7 
ROOT
HETATM    1  C1  UNL     1     -33.740  17.291  -4.386  1.00 20.00    -0.007 C 
HETATM    2  C2  UNL     1     -33.872  17.253  -3.052  1.00 20.00     0.008 C 
HETATM    3  C4  UNL     1     -34.108  16.137  -5.272  1.00 20.00     0.042 C 
HETATM    4  C5  UNL     1     -34.364  16.052  -2.300  1.00 20.00     0.051 C 
HETATM    5  C6  UNL     1     -34.369  14.781  -3.155  1.00 20.00     0.019 C 
HETATM    6  C7  UNL     1     -34.925  15.054  -4.554  1.00 20.00     0.076 C 
HETATM    7 CL9  UNL     1     -33.450  18.623  -2.088  1.00 20.00    -0.089 Cl
ENDROOT
BRANCH   6   8
HETATM    8  C3  UNL     1     -34.932  13.794  -5.366  1.00 20.00     0.223 C 
HETATM    9  O8  UNL     1     -34.746  12.695  -4.853  1.00 20.00    -0.279 OA
HETATM   10 CL10 UNL     1     -35.228  14.103  -7.050  1.00 20.00    -0.043 Cl
ENDBRANCH   6   8
TORSDOF 1
ENDMDL
MODEL 4
REMARK VINA RESULT:      -4.2      1.579      1.969
REMARK  1 active torsions:
REMARK  status: ('A' for Active; 'I' for Inactive)
REMARK    1  A    between atoms: C3_3  and  C7_7 
ROOT
HETATM    1  C1  UNL     1     -36.490  16.821  -3.081  1.00 20.00    -0.007 C 
HETATM    2  C2  UNL     1     -35.620  17.071  -2.092  1.00 20.00     0.008 C 
HETATM    3  C4  UNL     1     -36.324  15.678  -4.040  1.00 20.00     0.042 C 
HETATM    4  C5  UNL     1     -34.377  16.266  -1.856  1.00 20.00     0.051 C 
HETATM    5  C6  UNL     1     -34.022  15.365  -3.043  1.00 20.00     0.019 C 
HETATM    6  C7  UNL     1     -35.263  14.662  -3.597  1.00 20.00     0.076 C 
HETATM    7 CL9  UNL     1     -35.879  18.391  -1.008  1.00 20.00    -0.089 Cl
ENDROOT
BRANCH   6   8
HETATM    8  C3  UNL     1     -34.888  13.777  -4.748  1.00 20.00     0.223 C 
HETATM    9  O8  UNL     1     -34.893  12.553  -4.649  1.00 20.00    -0.279 OA
HETATM   10 CL10 UNL     1     -34.470  14.690  -6.166  1.00 20.00    -0.043 Cl
ENDBRANCH   6   8
TORSDOF 1
ENDMDL
MODEL 5
REMARK VINA RESULT:      -4.2      1.415      1.811
REMARK  1 active torsions:
REMARK  status: ('A' for Active; 'I' for Inactive)
REMARK    1  A    between atoms: C3_3  and  C7_7 
ROOT
HETATM    1  C1  UNL     1     -33.596  15.892  -2.548  1.00 20.00    -0.007 C 
HETATM    2  C2  UNL     1     -34.761  16.277  -2.008  1.00 20.00     0.008 C 
HETATM    3  C4  UNL     1     -33.513  15.103  -3.823  1.00 20.00     0.042 C 
HETATM    4  C5  UNL     1     -36.100  15.936  -2.591  1.00 20.00     0.051 C 
HETATM    5  C6  UNL     1     -36.020  14.831  -3.650  1.00 20.00     0.019 C 
HETATM    6  C7  UNL     1     -34.838  15.053  -4.595  1.00 20.00     0.076 C 
HETATM    7 CL9  UNL     1     -34.790  17.202  -0.549  1.00 20.00    -0.089 Cl
ENDROOT
BRANCH   6   8
HETATM    8  C3  UNL     1     -34.788  13.968  -5.629  1.00 20.00     0.223 C 
HETATM    9  O8  UNL     1     -34.832  12.781  -5.320  1.00 20.00    -0.279 OA
HETATM   10 CL10 UNL     1     -34.666  14.605  -7.241  1.00 20.00    -0.043 Cl
ENDBRANCH   6   8
TORSDOF 1
ENDMDL
MODEL 6
REMARK VINA RESULT:      -4.2      2.480      4.658
REMARK  1 active torsions:
REMARK  status: ('A' for Active; 'I' for Inactive)
REMARK    1  A    between atoms: C3_3  and  C7_7 
ROOT
HETATM    1  C1  UNL     1     -33.981  16.276  -5.143  1.00 20.00    -0.007 C 
HETATM    2  C2  UNL     1     -34.529  15.060  -5.010  1.00 20.00     0.008 C 
HETATM    3  C4  UNL     1     -33.672  17.161  -3.971  1.00 20.00     0.042 C 
HETATM    4  C5  UNL     1     -34.924  14.467  -3.690  1.00 20.00     0.051 C 
HETATM    5  C6  UNL     1     -34.963  15.505  -2.564  1.00 20.00     0.019 C 
HETATM    6  C7  UNL     1     -33.748  16.433  -2.621  1.00 20.00     0.076 C 
HETATM    7 CL9  UNL     1     -34.841  14.081  -6.398  1.00 20.00    -0.089 Cl
ENDROOT
BRANCH   6   8
HETATM    8  C3  UNL     1     -33.802  17.430  -1.503  1.00 20.00     0.223 C 
HETATM    9  O8  UNL     1     -33.210  18.503  -1.566  1.00 20.00    -0.279 OA
HETATM   10 CL10 UNL     1     -34.774  16.871  -0.175  1.00 20.00    -0.043 Cl
ENDBRANCH   6   8
TORSDOF 1
ENDMDL
MODEL 7
REMARK VINA RESULT:      -4.1      2.066      4.489
REMARK  1 active torsions:
REMARK  status: ('A' for Active; 'I' for Inactive)
REMARK    1  A    between atoms: C3_3  and  C7_7 
ROOT
HETATM    1  C1  UNL     1     -33.781  16.737  -4.982  1.00 20.00    -0.007 C 
HETATM    2  C2  UNL     1     -34.221  15.486  -5.177  1.00 20.00     0.008 C 
HETATM    3  C4  UNL     1     -33.655  17.352  -3.618  1.00 20.00     0.042 C 
HETATM    4  C5  UNL     1     -34.668  14.580  -4.068  1.00 20.00     0.051 C 
HETATM    5  C6  UNL     1     -34.899  15.329  -2.751  1.00 20.00     0.019 C 
HETATM    6  C7  UNL     1     -33.777  16.332  -2.478  1.00 20.00     0.076 C 
HETATM    7 CL9  UNL     1     -34.322  14.828  -6.771  1.00 20.00    -0.089 Cl
ENDROOT
BRANCH   6   8
HETATM    8  C3  UNL     1     -34.018  17.041  -1.179  1.00 20.00     0.223 C 
HETATM    9  O8  UNL     1     -34.771  16.584  -0.324  1.00 20.00    -0.279 OA
HETATM   10 CL10 UNL     1     -33.122  18.526  -1.069  1.00 20.00    -0.043 Cl
ENDBRANCH   6   8
TORSDOF 1
ENDMDL
MODEL 8
REMARK VINA RESULT:      -4.1      2.463      3.135
REMARK  1 active torsions:
REMARK  status: ('A' for Active; 'I' for Inactive)
REMARK    1  A    between atoms: C3_3  and  C7_7 
ROOT
HETATM    1  C1  UNL     1     -34.722  16.641  -0.560  1.00 20.00    -0.007 C 
HETATM    2  C2  UNL     1     -34.137  17.778  -0.155  1.00 20.00     0.008 C 
HETATM    3  C4  UNL     1     -34.642  16.145  -1.974  1.00 20.00     0.042 C 
HETATM    4  C5  UNL     1     -33.374  18.690  -1.069  1.00 20.00     0.051 C 
HETATM    5  C6  UNL     1     -33.620  18.384  -2.550  1.00 20.00     0.019 C 
HETATM    6  C7  UNL     1     -33.590  16.878  -2.818  1.00 20.00     0.076 C 
HETATM    7 CL9  UNL     1     -34.248  18.284   1.493  1.00 20.00    -0.089 Cl
ENDROOT
BRANCH   6   8
HETATM    8  C3  UNL     1     -33.820  16.604  -4.274  1.00 20.00     0.223 C 
HETATM    9  O8  UNL     1     -32.887  16.504  -5.066  1.00 20.00    -0.279 OA
HETATM   10 CL10 UNL     1     -35.509  16.458  -4.654  1.00 20.00    -0.043 Cl
ENDBRANCH   6   8
TORSDOF 1
ENDMDL
MODEL 9
REMARK VINA RESULT:      -4.1     12.549     13.858
REMARK  1 active torsions:
REMARK  status: ('A' for Active; 'I' for Inactive)
REMARK    1  A    between atoms: C3_3  and  C7_7 
ROOT
HETATM    1  C1  UNL     1     -42.494   6.045  -2.516  1.00 20.00    -0.007 C 
HETATM    2  C2  UNL     1     -41.576   6.202  -1.552  1.00 20.00     0.008 C 
HETATM    3  C4  UNL     1     -42.869   4.702  -3.071  1.00 20.00     0.042 C 
HETATM    4  C5  UNL     1     -40.803   5.068  -0.948  1.00 20.00     0.051 C 
HETATM    5  C6  UNL     1     -40.909   3.778  -1.770  1.00 20.00     0.019 C 
HETATM    6  C7  UNL     1     -42.346   3.529  -2.230  1.00 20.00     0.076 C 
HETATM    7 CL9  UNL     1     -41.204   7.775  -0.941  1.00 20.00    -0.089 Cl
ENDROOT
BRANCH   6   8
HETATM    8  C3  UNL     1     -42.426   2.257  -3.019  1.00 20.00     0.223 C 
HETATM    9  O8  UNL     1     -43.417   1.533  -2.977  1.00 20.00    -0.279 OA
HETATM   10 CL10 UNL     1     -40.988   1.974  -3.952  1.00 20.00    -0.043 Cl
ENDBRANCH   6   8
TORSDOF 1
ENDMDL
