MODEL 1
REMARK VINA RESULT:      -4.3      0.000      0.000
REMARK  3 active torsions:
REMARK  status: ('A' for Active; 'I' for Inactive)
REMARK    1  A    between atoms: C1_1  and  C2_2 
REMARK    2  A    between atoms: C1_1  and  O10_10 
REMARK    3  A    between atoms: C7_7  and  O10_10 
ROOT
HETATM    1  C1  UNL     1     -36.144  14.711  -3.555  1.00 20.00     0.291 C 
HETATM    2  O8  UNL     1     -37.270  14.243  -3.655  1.00 20.00    -0.262 OA
ENDROOT
BRANCH   1   3
HETATM    3  C2  UNL     1     -34.918  13.950  -3.794  1.00 20.00     0.250 A 
HETATM    4  C3  UNL     1     -34.413  13.675  -5.187  1.00 20.00     0.157 A 
HETATM    5  C4  UNL     1     -35.103  14.169  -6.407  1.00 20.00     0.042 C 
HETATM    6  O9  UNL     1     -35.143  12.690  -4.449  1.00 20.00    -0.365 OA
ENDBRANCH   1   3
BRANCH   1   7
HETATM    7  O10 UNL     1     -35.827  15.991  -3.212  1.00 20.00    -0.315 OA
BRANCH   7   8
HETATM    8  C7  UNL     1     -34.541  16.164  -2.605  1.00 20.00     0.123 C 
HETATM    9  C5  UNL     1     -33.794  17.277  -3.326  1.00 20.00     0.040 C 
HETATM   10  C6  UNL     1     -34.723  16.469  -1.126  1.00 20.00     0.040 C 
ENDBRANCH   7   8
ENDBRANCH   1   7
TORSDOF 3
ENDMDL
MODEL 2
REMARK VINA RESULT:      -4.1      1.288      1.850
REMARK  3 active torsions:
REMARK  status: ('A' for Active; 'I' for Inactive)
REMARK    1  A    between atoms: C1_1  and  C2_2 
REMARK    2  A    between atoms: C1_1  and  O10_10 
REMARK    3  A    between atoms: C7_7  and  O10_10 
ROOT
HETATM    1  C1  UNL     1     -34.328  13.946  -3.831  1.00 20.00     0.291 C 
HETATM    2  O8  UNL     1     -33.219  13.459  -3.660  1.00 20.00    -0.262 OA
ENDROOT
BRANCH   1   3
HETATM    3  C2  UNL     1     -35.247  13.536  -4.892  1.00 20.00     0.250 A 
HETATM    4  C3  UNL     1     -35.203  14.156  -6.265  1.00 20.00     0.157 A 
HETATM    5  C4  UNL     1     -34.219  15.204  -6.645  1.00 20.00     0.042 C 
HETATM    6  O9  UNL     1     -36.165  14.569  -5.289  1.00 20.00    -0.365 OA
ENDBRANCH   1   3
BRANCH   1   7
HETATM    7  O10 UNL     1     -34.902  14.935  -3.088  1.00 20.00    -0.315 OA
BRANCH   7   8
HETATM    8  C7  UNL     1     -33.993  15.890  -2.530  1.00 20.00     0.123 C 
HETATM    9  C5  UNL     1     -33.734  16.989  -3.551  1.00 20.00     0.040 C 
HETATM   10  C6  UNL     1     -34.577  16.442  -1.239  1.00 20.00     0.040 C 
ENDBRANCH   7   8
ENDBRANCH   1   7
TORSDOF 3
ENDMDL
MODEL 3
REMARK VINA RESULT:      -4.0      1.483      2.049
REMARK  3 active torsions:
REMARK  status: ('A' for Active; 'I' for Inactive)
REMARK    1  A    between atoms: C1_1  and  C2_2 
REMARK    2  A    between atoms: C1_1  and  O10_10 
REMARK    3  A    between atoms: C7_7  and  O10_10 
ROOT
HETATM    1  C1  UNL     1     -33.540  14.837  -3.666  1.00 20.00     0.291 C 
HETATM    2  O8  UNL     1     -32.721  15.642  -4.089  1.00 20.00    -0.262 OA
ENDROOT
BRANCH   1   3
HETATM    3  C2  UNL     1     -33.751  13.507  -4.236  1.00 20.00     0.250 A 
HETATM    4  C3  UNL     1     -34.709  13.275  -5.376  1.00 20.00     0.157 A 
HETATM    5  C4  UNL     1     -35.487  14.371  -6.012  1.00 20.00     0.042 C 
HETATM    6  O9  UNL     1     -35.076  12.994  -4.022  1.00 20.00    -0.365 OA
ENDBRANCH   1   3
BRANCH   1   7
HETATM    7  O10 UNL     1     -34.386  15.022  -2.613  1.00 20.00    -0.315 OA
BRANCH   7   8
HETATM    8  C7  UNL     1     -34.739  16.382  -2.340  1.00 20.00     0.123 C 
HETATM    9  C5  UNL     1     -36.129  16.659  -2.892  1.00 20.00     0.040 C 
HETATM   10  C6  UNL     1     -34.666  16.626  -0.840  1.00 20.00     0.040 C 
ENDBRANCH   7   8
ENDBRANCH   1   7
TORSDOF 3
ENDMDL
MODEL 4
REMARK VINA RESULT:      -4.0      1.696      2.227
REMARK  3 active torsions:
REMARK  status: ('A' for Active; 'I' for Inactive)
REMARK    1  A    between atoms: C1_1  and  C2_2 
REMARK    2  A    between atoms: C1_1  and  O10_10 
REMARK    3  A    between atoms: C7_7  and  O10_10 
ROOT
HETATM    1  C1  UNL     1     -33.451  15.924  -4.047  1.00 20.00     0.291 C 
HETATM    2  O8  UNL     1     -32.791  16.489  -4.910  1.00 20.00    -0.262 OA
ENDROOT
BRANCH   1   3
HETATM    3  C2  UNL     1     -33.400  14.486  -3.789  1.00 20.00     0.250 A 
HETATM    4  C3  UNL     1     -34.175  13.501  -4.627  1.00 20.00     0.157 A 
HETATM    5  C4  UNL     1     -35.021  13.912  -5.779  1.00 20.00     0.042 C 
HETATM    6  O9  UNL     1     -34.655  13.936  -3.351  1.00 20.00    -0.365 OA
ENDBRANCH   1   3
BRANCH   1   7
HETATM    7  O10 UNL     1     -34.332  16.511  -3.188  1.00 20.00    -0.315 OA
BRANCH   7   8
HETATM    8  C7  UNL     1     -33.763  17.016  -1.975  1.00 20.00     0.123 C 
HETATM    9  C5  UNL     1     -33.618  18.527  -2.082  1.00 20.00     0.040 C 
HETATM   10  C6  UNL     1     -34.646  16.614  -0.803  1.00 20.00     0.040 C 
ENDBRANCH   7   8
ENDBRANCH   1   7
TORSDOF 3
ENDMDL
MODEL 5
REMARK VINA RESULT:      -4.0      1.651      3.964
REMARK  3 active torsions:
REMARK  status: ('A' for Active; 'I' for Inactive)
REMARK    1  A    between atoms: C1_1  and  C2_2 
REMARK    2  A    between atoms: C1_1  and  O10_10 
REMARK    3  A    between atoms: C7_7  and  O10_10 
ROOT
HETATM    1  C1  UNL     1     -34.211  13.854  -4.610  1.00 20.00     0.291 C 
HETATM    2  O8  UNL     1     -34.804  12.855  -4.223  1.00 20.00    -0.262 OA
ENDROOT
BRANCH   1   3
HETATM    3  C2  UNL     1     -33.259  14.607  -3.794  1.00 20.00     0.250 A 
HETATM    4  C3  UNL     1     -33.713  15.624  -2.779  1.00 20.00     0.157 A 
HETATM    5  C4  UNL     1     -35.147  15.918  -2.518  1.00 20.00     0.042 C 
HETATM    6  O9  UNL     1     -33.251  16.017  -4.075  1.00 20.00    -0.365 OA
ENDBRANCH   1   3
BRANCH   1   7
HETATM    7  O10 UNL     1     -34.322  14.437  -5.837  1.00 20.00    -0.315 OA
BRANCH   7   8
HETATM    8  C7  UNL     1     -35.637  14.435  -6.401  1.00 20.00     0.123 C 
HETATM    9  C5  UNL     1     -36.417  15.622  -5.854  1.00 20.00     0.040 C 
HETATM   10  C6  UNL     1     -35.532  14.477  -7.918  1.00 20.00     0.040 C 
ENDBRANCH   7   8
ENDBRANCH   1   7
TORSDOF 3
ENDMDL
MODEL 6
REMARK VINA RESULT:      -3.8      2.055      3.037
REMARK  3 active torsions:
REMARK  status: ('A' for Active; 'I' for Inactive)
REMARK    1  A    between atoms: C1_1  and  C2_2 
REMARK    2  A    between atoms: C1_1  and  O10_10 
REMARK    3  A    between atoms: C7_7  and  O10_10 
ROOT
HETATM    1  C1  UNL     1     -35.316  14.629  -5.823  1.00 20.00     0.291 C 
HETATM    2  O8  UNL     1     -35.101  13.975  -6.834  1.00 20.00    -0.262 OA
ENDROOT
BRANCH   1   3
HETATM    3  C2  UNL     1     -35.611  14.043  -4.516  1.00 20.00     0.250 A 
HETATM    4  C3  UNL     1     -34.524  13.736  -3.519  1.00 20.00     0.157 A 
HETATM    5  C4  UNL     1     -33.088  14.025  -3.777  1.00 20.00     0.042 C 
HETATM    6  O9  UNL     1     -35.085  12.715  -4.350  1.00 20.00    -0.365 OA
ENDBRANCH   1   3
BRANCH   1   7
HETATM    7  O10 UNL     1     -35.322  15.989  -5.724  1.00 20.00    -0.315 OA
BRANCH   7   8
HETATM    8  C7  UNL     1     -34.170  16.649  -6.261  1.00 20.00     0.123 C 
HETATM    9  C5  UNL     1     -34.594  17.514  -7.439  1.00 20.00     0.040 C 
HETATM   10  C6  UNL     1     -33.507  17.469  -5.165  1.00 20.00     0.040 C 
ENDBRANCH   7   8
ENDBRANCH   1   7
TORSDOF 3
ENDMDL
MODEL 7
REMARK VINA RESULT:      -3.8      2.075      3.110
REMARK  3 active torsions:
REMARK  status: ('A' for Active; 'I' for Inactive)
REMARK    1  A    between atoms: C1_1  and  C2_2 
REMARK    2  A    between atoms: C1_1  and  O10_10 
REMARK    3  A    between atoms: C7_7  and  O10_10 
ROOT
HETATM    1  C1  UNL     1     -33.404  15.421  -3.901  1.00 20.00     0.291 C 
HETATM    2  O8  UNL     1     -33.502  15.799  -2.742  1.00 20.00    -0.262 OA
ENDROOT
BRANCH   1   3
HETATM    3  C2  UNL     1     -33.654  14.048  -4.338  1.00 20.00     0.250 A 
HETATM    4  C3  UNL     1     -35.050  13.490  -4.445  1.00 20.00     0.157 A 
HETATM    5  C4  UNL     1     -36.264  14.291  -4.140  1.00 20.00     0.042 C 
HETATM    6  O9  UNL     1     -34.220  13.213  -3.313  1.00 20.00    -0.365 OA
ENDBRANCH   1   3
BRANCH   1   7
HETATM    7  O10 UNL     1     -33.053  16.184  -4.975  1.00 20.00    -0.315 OA
BRANCH   7   8
HETATM    8  C7  UNL     1     -34.079  17.048  -5.476  1.00 20.00     0.123 C 
HETATM    9  C5  UNL     1     -33.595  18.489  -5.411  1.00 20.00     0.040 C 
HETATM   10  C6  UNL     1     -34.434  16.633  -6.896  1.00 20.00     0.040 C 
ENDBRANCH   7   8
ENDBRANCH   1   7
TORSDOF 3
ENDMDL
MODEL 8
REMARK VINA RESULT:      -3.8      1.515      1.944
REMARK  3 active torsions:
REMARK  status: ('A' for Active; 'I' for Inactive)
REMARK    1  A    between atoms: C1_1  and  C2_2 
REMARK    2  A    between atoms: C1_1  and  O10_10 
REMARK    3  A    between atoms: C7_7  and  O10_10 
ROOT
HETATM    1  C1  UNL     1     -36.343  14.692  -3.646  1.00 20.00     0.291 C 
HETATM    2  O8  UNL     1     -37.416  14.122  -3.791  1.00 20.00    -0.262 OA
ENDROOT
BRANCH   1   3
HETATM    3  C2  UNL     1     -35.043  14.038  -3.787  1.00 20.00     0.250 A 
HETATM    4  C3  UNL     1     -34.433  13.767  -5.138  1.00 20.00     0.157 A 
HETATM    5  C4  UNL     1     -35.089  14.160  -6.413  1.00 20.00     0.042 C 
HETATM    6  O9  UNL     1     -35.116  12.743  -4.409  1.00 20.00    -0.365 OA
ENDBRANCH   1   3
BRANCH   1   7
HETATM    7  O10 UNL     1     -36.161  16.007  -3.335  1.00 20.00    -0.315 OA
BRANCH   7   8
HETATM    8  C7  UNL     1     -36.484  16.935  -4.375  1.00 20.00     0.123 C 
HETATM    9  C5  UNL     1     -37.557  17.891  -3.877  1.00 20.00     0.040 C 
HETATM   10  C6  UNL     1     -35.222  17.672  -4.799  1.00 20.00     0.040 C 
ENDBRANCH   7   8
ENDBRANCH   1   7
TORSDOF 3
ENDMDL
MODEL 9
REMARK VINA RESULT:      -3.8      1.793      3.045
REMARK  3 active torsions:
REMARK  status: ('A' for Active; 'I' for Inactive)
REMARK    1  A    between atoms: C1_1  and  C2_2 
REMARK    2  A    between atoms: C1_1  and  O10_10 
REMARK    3  A    between atoms: C7_7  and  O10_10 
ROOT
HETATM    1  C1  UNL     1     -35.225  13.520  -4.180  1.00 20.00     0.291 C 
HETATM    2  O8  UNL     1     -34.747  12.697  -4.947  1.00 20.00    -0.262 OA
ENDROOT
BRANCH   1   3
HETATM    3  C2  UNL     1     -34.432  14.462  -3.391  1.00 20.00     0.250 A 
HETATM    4  C3  UNL     1     -33.672  15.594  -4.034  1.00 20.00     0.157 A 
HETATM    5  C4  UNL     1     -33.690  15.847  -5.499  1.00 20.00     0.042 C 
HETATM    6  O9  UNL     1     -33.020  14.380  -3.648  1.00 20.00    -0.365 OA
ENDBRANCH   1   3
BRANCH   1   7
HETATM    7  O10 UNL     1     -36.550  13.711  -3.920  1.00 20.00    -0.315 OA
BRANCH   7   8
HETATM    8  C7  UNL     1     -37.061  15.006  -4.256  1.00 20.00     0.123 C 
HETATM    9  C5  UNL     1     -37.219  15.104  -5.767  1.00 20.00     0.040 C 
HETATM   10  C6  UNL     1     -38.382  15.226  -3.534  1.00 20.00     0.040 C 
ENDBRANCH   7   8
ENDBRANCH   1   7
TORSDOF 3
ENDMDL
