MODEL 1
REMARK VINA RESULT:      -4.8      0.000      0.000
REMARK  0 active torsions:
REMARK  status: ('A' for Active; 'I' for Inactive)
ROOT
HETATM    1  C1  UNL     1     -34.053   5.456   2.801  1.00 20.00     0.110 A 
HETATM    2  C2  UNL     1     -34.445   5.320   4.122  1.00 20.00     0.007 A 
HETATM    3  C3  UNL     1     -33.692   6.167   4.970  1.00 20.00     0.002 A 
HETATM    4  C4  UNL     1     -32.855   6.803   4.144  1.00 20.00     0.048 A 
HETATM    5  C5  UNL     1     -35.367   4.601   4.928  1.00 20.00     0.124 A 
HETATM    6  C6  UNL     1     -31.834   7.667   3.645  1.00 20.00     0.048 A 
HETATM    7  C7  UNL     1     -32.113   7.191   2.397  1.00 20.00     0.099 A 
HETATM    8  C8  UNL     1     -34.152   5.976   6.341  1.00 20.00     0.190 A 
HETATM    9  N9  UNL     1     -35.254   4.925   6.189  1.00 20.00    -0.296 NA
HETATM   10  N10 UNL     1     -33.081   6.380   2.907  1.00 20.00    -0.331 N 
ENDROOT
TORSDOF 0
ENDMDL
MODEL 2
REMARK VINA RESULT:      -4.6     11.258     12.061
REMARK  0 active torsions:
REMARK  status: ('A' for Active; 'I' for Inactive)
ROOT
HETATM    1  C1  UNL     1     -36.430  15.592  -3.266  1.00 20.00     0.110 A 
HETATM    2  C2  UNL     1     -35.585  14.602  -3.736  1.00 20.00     0.007 A 
HETATM    3  C3  UNL     1     -34.277  14.755  -3.217  1.00 20.00     0.002 A 
HETATM    4  C4  UNL     1     -34.355  15.839  -2.439  1.00 20.00     0.048 A 
HETATM    5  C5  UNL     1     -35.589  13.461  -4.582  1.00 20.00     0.124 A 
HETATM    6  C6  UNL     1     -34.009  16.899  -1.547  1.00 20.00     0.048 A 
HETATM    7  C7  UNL     1     -35.302  17.325  -1.634  1.00 20.00     0.099 A 
HETATM    8  C8  UNL     1     -33.440  13.685  -3.749  1.00 20.00     0.190 A 
HETATM    9  N9  UNL     1     -34.411  12.898  -4.632  1.00 20.00    -0.296 NA
HETATM   10  N10 UNL     1     -35.598  16.302  -2.483  1.00 20.00    -0.331 N 
ENDROOT
TORSDOF 0
ENDMDL
MODEL 3
REMARK VINA RESULT:      -4.3     11.648     13.437
REMARK  0 active torsions:
REMARK  status: ('A' for Active; 'I' for Inactive)
ROOT
HETATM    1  C1  UNL     1     -33.274  16.131  -3.799  1.00 20.00     0.110 A 
HETATM    2  C2  UNL     1     -33.845  14.929  -4.177  1.00 20.00     0.007 A 
HETATM    3  C3  UNL     1     -34.452  15.027  -5.451  1.00 20.00     0.002 A 
HETATM    4  C4  UNL     1     -34.236  16.293  -5.824  1.00 20.00     0.048 A 
HETATM    5  C5  UNL     1     -34.030  13.601  -3.706  1.00 20.00     0.124 A 
HETATM    6  C6  UNL     1     -34.229  17.504  -6.579  1.00 20.00     0.048 A 
HETATM    7  C7  UNL     1     -33.535  18.078  -5.554  1.00 20.00     0.099 A 
HETATM    8  C8  UNL     1     -35.032  13.732  -5.789  1.00 20.00     0.190 A 
HETATM    9  N9  UNL     1     -34.692  12.876  -4.568  1.00 20.00    -0.296 NA
HETATM   10  N10 UNL     1     -33.560  16.906  -4.861  1.00 20.00    -0.331 N 
ENDROOT
TORSDOF 0
ENDMDL
MODEL 4
REMARK VINA RESULT:      -4.2     11.797     12.748
REMARK  0 active torsions:
REMARK  status: ('A' for Active; 'I' for Inactive)
ROOT
HETATM    1  C1  UNL     1     -33.596  16.798  -4.323  1.00 20.00     0.110 A 
HETATM    2  C2  UNL     1     -34.175  15.597  -4.695  1.00 20.00     0.007 A 
HETATM    3  C3  UNL     1     -34.795  14.963  -3.593  1.00 20.00     0.002 A 
HETATM    4  C4  UNL     1     -34.581  15.795  -2.569  1.00 20.00     0.048 A 
HETATM    5  C5  UNL     1     -34.358  14.769  -5.835  1.00 20.00     0.124 A 
HETATM    6  C6  UNL     1     -34.579  16.369  -1.261  1.00 20.00     0.048 A 
HETATM    7  C7  UNL     1     -33.871  17.415  -1.777  1.00 20.00     0.099 A 
HETATM    8  C8  UNL     1     -35.382  13.708  -4.050  1.00 20.00     0.190 A 
HETATM    9  N9  UNL     1     -35.031  13.689  -5.539  1.00 20.00    -0.296 NA
HETATM   10  N10 UNL     1     -33.892  16.839  -3.011  1.00 20.00    -0.331 N 
ENDROOT
TORSDOF 0
ENDMDL
MODEL 5
REMARK VINA RESULT:      -4.2     11.670     13.337
REMARK  0 active torsions:
REMARK  status: ('A' for Active; 'I' for Inactive)
ROOT
HETATM    1  C1  UNL     1     -34.325  15.540  -6.691  1.00 20.00     0.110 A 
HETATM    2  C2  UNL     1     -34.471  14.609  -5.678  1.00 20.00     0.007 A 
HETATM    3  C3  UNL     1     -34.223  15.186  -4.410  1.00 20.00     0.002 A 
HETATM    4  C4  UNL     1     -33.931  16.463  -4.679  1.00 20.00     0.048 A 
HETATM    5  C5  UNL     1     -34.792  13.239  -5.479  1.00 20.00     0.124 A 
HETATM    6  C6  UNL     1     -33.579  17.837  -4.524  1.00 20.00     0.048 A 
HETATM    7  C7  UNL     1     -33.662  17.958  -5.881  1.00 20.00     0.099 A 
HETATM    8  C8  UNL     1     -34.392  14.156  -3.391  1.00 20.00     0.190 A 
HETATM    9  N9  UNL     1     -34.765  12.920  -4.212  1.00 20.00    -0.296 NA
HETATM   10  N10 UNL     1     -33.996  16.642  -5.992  1.00 20.00    -0.331 N 
ENDROOT
TORSDOF 0
ENDMDL
MODEL 6
REMARK VINA RESULT:      -4.1     11.618     12.714
REMARK  0 active torsions:
REMARK  status: ('A' for Active; 'I' for Inactive)
ROOT
HETATM    1  C1  UNL     1     -33.696  16.471  -4.664  1.00 20.00     0.110 A 
HETATM    2  C2  UNL     1     -33.893  16.916  -3.369  1.00 20.00     0.007 A 
HETATM    3  C3  UNL     1     -34.417  15.890  -2.547  1.00 20.00     0.002 A 
HETATM    4  C4  UNL     1     -34.528  14.836  -3.364  1.00 20.00     0.048 A 
HETATM    5  C5  UNL     1     -33.743  18.081  -2.570  1.00 20.00     0.124 A 
HETATM    6  C6  UNL     1     -34.798  13.527  -3.863  1.00 20.00     0.048 A 
HETATM    7  C7  UNL     1     -34.356  13.954  -5.080  1.00 20.00     0.099 A 
HETATM    8  C8  UNL     1     -34.601  16.422  -1.201  1.00 20.00     0.190 A 
HETATM    9  N9  UNL     1     -34.124  17.869  -1.339  1.00 20.00    -0.296 NA
HETATM   10  N10 UNL     1     -34.108  15.193  -4.571  1.00 20.00    -0.331 N 
ENDROOT
TORSDOF 0
ENDMDL
MODEL 7
REMARK VINA RESULT:      -4.0     11.345     12.692
REMARK  0 active torsions:
REMARK  status: ('A' for Active; 'I' for Inactive)
ROOT
HETATM    1  C1  UNL     1     -32.911  15.680  -3.875  1.00 20.00     0.110 A 
HETATM    2  C2  UNL     1     -33.836  14.666  -4.051  1.00 20.00     0.007 A 
HETATM    3  C3  UNL     1     -35.159  15.149  -3.919  1.00 20.00     0.002 A 
HETATM    4  C4  UNL     1     -35.012  16.454  -3.664  1.00 20.00     0.048 A 
HETATM    5  C5  UNL     1     -33.904  13.274  -4.325  1.00 20.00     0.124 A 
HETATM    6  C6  UNL     1     -35.296  17.824  -3.385  1.00 20.00     0.048 A 
HETATM    7  C7  UNL     1     -33.951  18.049  -3.376  1.00 20.00     0.099 A 
HETATM    8  C8  UNL     1     -36.081  14.035  -4.114  1.00 20.00     0.190 A 
HETATM    9  N9  UNL     1     -35.141  12.857  -4.374  1.00 20.00    -0.296 NA
HETATM   10  N10 UNL     1     -33.715  16.735  -3.644  1.00 20.00    -0.331 N 
ENDROOT
TORSDOF 0
ENDMDL
MODEL 8
REMARK VINA RESULT:      -4.0     11.355     12.254
REMARK  0 active torsions:
REMARK  status: ('A' for Active; 'I' for Inactive)
ROOT
HETATM    1  C1  UNL     1     -36.378  15.270  -3.667  1.00 20.00     0.110 A 
HETATM    2  C2  UNL     1     -35.777  16.181  -2.816  1.00 20.00     0.007 A 
HETATM    3  C3  UNL     1     -34.429  15.834  -2.562  1.00 20.00     0.002 A 
HETATM    4  C4  UNL     1     -34.236  14.714  -3.266  1.00 20.00     0.048 A 
HETATM    5  C5  UNL     1     -36.064  17.372  -2.097  1.00 20.00     0.124 A 
HETATM    6  C6  UNL     1     -33.627  13.559  -3.842  1.00 20.00     0.048 A 
HETATM    7  C7  UNL     1     -34.817  13.300  -4.457  1.00 20.00     0.099 A 
HETATM    8  C8  UNL     1     -33.856  16.830  -1.662  1.00 20.00     0.190 A 
HETATM    9  N9  UNL     1     -35.024  17.789  -1.427  1.00 20.00    -0.296 NA
HETATM   10  N10 UNL     1     -35.367  14.411  -3.891  1.00 20.00    -0.331 N 
ENDROOT
TORSDOF 0
ENDMDL
MODEL 9
REMARK VINA RESULT:      -4.0      9.654     10.899
REMARK  0 active torsions:
REMARK  status: ('A' for Active; 'I' for Inactive)
ROOT
HETATM    1  C1  UNL     1     -40.818   4.385  -1.325  1.00 20.00     0.110 A 
HETATM    2  C2  UNL     1     -41.290   5.686  -1.325  1.00 20.00     0.007 A 
HETATM    3  C3  UNL     1     -42.385   5.835  -2.208  1.00 20.00     0.002 A 
HETATM    4  C4  UNL     1     -42.559   4.616  -2.729  1.00 20.00     0.048 A 
HETATM    5  C5  UNL     1     -41.038   6.948  -0.725  1.00 20.00     0.124 A 
HETATM    6  C6  UNL     1     -43.071   3.526  -3.496  1.00 20.00     0.048 A 
HETATM    7  C7  UNL     1     -42.112   2.741  -2.926  1.00 20.00     0.099 A 
HETATM    8  C8  UNL     1     -42.833   7.223  -2.161  1.00 20.00     0.190 A 
HETATM    9  N9  UNL     1     -41.873   7.857  -1.153  1.00 20.00    -0.296 NA
HETATM   10  N10 UNL     1     -41.649   3.802  -2.208  1.00 20.00    -0.331 N 
ENDROOT
TORSDOF 0
ENDMDL
