MODEL 1
REMARK VINA RESULT:      -4.2      0.000      0.000
REMARK  3 active torsions:
REMARK  status: ('A' for Active; 'I' for Inactive)
REMARK    1  A    between atoms: C1_1  and  C3_3 
REMARK    2  A    between atoms: C2_2  and  N8_8 
REMARK    3  A    between atoms: C4_4  and  C5_5 
ROOT
HETATM    1  C1  UNL     1     -33.971   5.892   3.574  1.00 20.00    -0.056 C 
HETATM    2  C2  UNL     1     -33.041   6.599   3.294  1.00 20.00     0.012 C 
ENDROOT
BRANCH   1   3
HETATM    3  C3  UNL     1     -35.074   5.060   3.908  1.00 20.00     0.069 C 
HETATM    4  C4  UNL     1     -35.290   4.666   5.167  1.00 20.00     0.050 C 
BRANCH   4   5
HETATM    5  C5  UNL     1     -34.359   5.109   6.224  1.00 20.00     0.259 C 
HETATM    6  O9  UNL     1     -34.417   6.232   6.709  1.00 20.00    -0.302 OA
ENDBRANCH   4   5
ENDBRANCH   1   3
BRANCH   2   7
HETATM    7  N8  UNL     1     -31.929   7.445   2.959  1.00 20.00    -0.350 N 
HETATM    8  C6  UNL     1     -31.040   7.862   4.034  1.00 20.00     0.159 C 
HETATM    9  C7  UNL     1     -32.066   8.334   1.815  1.00 20.00     0.159 C 
ENDBRANCH   2   7
TORSDOF 3
ENDMDL
MODEL 2
REMARK VINA RESULT:      -4.0     11.842     12.744
REMARK  3 active torsions:
REMARK  status: ('A' for Active; 'I' for Inactive)
REMARK    1  A    between atoms: C1_1  and  C3_3 
REMARK    2  A    between atoms: C2_2  and  N8_8 
REMARK    3  A    between atoms: C4_4  and  C5_5 
ROOT
HETATM    1  C1  UNL     1     -34.037  16.774  -1.453  1.00 20.00    -0.056 C 
HETATM    2  C2  UNL     1     -33.723  16.257  -2.489  1.00 20.00     0.012 C 
ENDROOT
BRANCH   1   3
HETATM    3  C3  UNL     1     -34.406  17.385  -0.223  1.00 20.00     0.069 C 
HETATM    4  C4  UNL     1     -33.729  18.430   0.263  1.00 20.00     0.050 C 
BRANCH   4   5
HETATM    5  C5  UNL     1     -32.578  18.952  -0.499  1.00 20.00     0.259 C 
HETATM    6  O9  UNL     1     -31.521  19.248   0.046  1.00 20.00    -0.302 OA
ENDBRANCH   4   5
ENDBRANCH   1   3
BRANCH   2   7
HETATM    7  N8  UNL     1     -33.345  15.638  -3.730  1.00 20.00    -0.350 N 
HETATM    8  C6  UNL     1     -33.296  16.471  -4.923  1.00 20.00     0.159 C 
HETATM    9  C7  UNL     1     -33.643  14.224  -3.908  1.00 20.00     0.159 C 
ENDBRANCH   2   7
TORSDOF 3
ENDMDL
MODEL 3
REMARK VINA RESULT:      -3.8     11.447     12.027
REMARK  3 active torsions:
REMARK  status: ('A' for Active; 'I' for Inactive)
REMARK    1  A    between atoms: C1_1  and  C3_3 
REMARK    2  A    between atoms: C2_2  and  N8_8 
REMARK    3  A    between atoms: C4_4  and  C5_5 
ROOT
HETATM    1  C1  UNL     1     -34.242  15.070  -2.942  1.00 20.00    -0.056 C 
HETATM    2  C2  UNL     1     -34.113  16.055  -2.269  1.00 20.00     0.012 C 
ENDROOT
BRANCH   1   3
HETATM    3  C3  UNL     1     -34.389  13.903  -3.740  1.00 20.00     0.069 C 
HETATM    4  C4  UNL     1     -35.545  13.618  -4.348  1.00 20.00     0.050 C 
BRANCH   4   5
HETATM    5  C5  UNL     1     -36.686  14.540  -4.180  1.00 20.00     0.259 C 
HETATM    6  O9  UNL     1     -37.757  14.166  -3.716  1.00 20.00    -0.302 OA
ENDBRANCH   4   5
ENDBRANCH   1   3
BRANCH   2   7
HETATM    7  N8  UNL     1     -33.959  17.235  -1.463  1.00 20.00    -0.350 N 
HETATM    8  C6  UNL     1     -34.616  17.268  -0.165  1.00 20.00     0.159 C 
HETATM    9  C7  UNL     1     -33.747  18.505  -2.143  1.00 20.00     0.159 C 
ENDBRANCH   2   7
TORSDOF 3
ENDMDL
MODEL 4
REMARK VINA RESULT:      -3.7     11.644     13.528
REMARK  3 active torsions:
REMARK  status: ('A' for Active; 'I' for Inactive)
REMARK    1  A    between atoms: C1_1  and  C3_3 
REMARK    2  A    between atoms: C2_2  and  N8_8 
REMARK    3  A    between atoms: C4_4  and  C5_5 
ROOT
HETATM    1  C1  UNL     1     -33.241  16.042  -4.585  1.00 20.00    -0.056 C 
HETATM    2  C2  UNL     1     -33.603  16.848  -5.398  1.00 20.00     0.012 C 
ENDROOT
BRANCH   1   3
HETATM    3  C3  UNL     1     -32.815  15.084  -3.625  1.00 20.00     0.069 C 
HETATM    4  C4  UNL     1     -33.271  13.828  -3.648  1.00 20.00     0.050 C 
BRANCH   4   5
HETATM    5  C5  UNL     1     -34.236  13.437  -4.694  1.00 20.00     0.259 C 
HETATM    6  O9  UNL     1     -35.120  12.615  -4.485  1.00 20.00    -0.302 OA
ENDBRANCH   4   5
ENDBRANCH   1   3
BRANCH   2   7
HETATM    7  N8  UNL     1     -34.038  17.812  -6.371  1.00 20.00    -0.350 N 
HETATM    8  C6  UNL     1     -33.766  19.218  -6.108  1.00 20.00     0.159 C 
HETATM    9  C7  UNL     1     -35.206  17.491  -7.178  1.00 20.00     0.159 C 
ENDBRANCH   2   7
TORSDOF 3
ENDMDL
MODEL 5
REMARK VINA RESULT:      -3.6     11.884     12.854
REMARK  3 active torsions:
REMARK  status: ('A' for Active; 'I' for Inactive)
REMARK    1  A    between atoms: C1_1  and  C3_3 
REMARK    2  A    between atoms: C2_2  and  N8_8 
REMARK    3  A    between atoms: C4_4  and  C5_5 
ROOT
HETATM    1  C1  UNL     1     -33.944  16.267  -4.499  1.00 20.00    -0.056 C 
HETATM    2  C2  UNL     1     -33.868  16.734  -3.396  1.00 20.00     0.012 C 
ENDROOT
BRANCH   1   3
HETATM    3  C3  UNL     1     -34.033  15.720  -5.808  1.00 20.00     0.069 C 
HETATM    4  C4  UNL     1     -34.613  14.536  -6.027  1.00 20.00     0.050 C 
BRANCH   4   5
HETATM    5  C5  UNL     1     -35.167  13.788  -4.881  1.00 20.00     0.259 C 
HETATM    6  O9  UNL     1     -34.835  12.634  -4.639  1.00 20.00    -0.302 OA
ENDBRANCH   4   5
ENDBRANCH   1   3
BRANCH   2   7
HETATM    7  N8  UNL     1     -33.777  17.293  -2.075  1.00 20.00    -0.350 N 
HETATM    8  C6  UNL     1     -34.520  16.643  -1.005  1.00 20.00     0.159 C 
HETATM    9  C7  UNL     1     -33.530  18.722  -1.953  1.00 20.00     0.159 C 
ENDBRANCH   2   7
TORSDOF 3
ENDMDL
MODEL 6
REMARK VINA RESULT:      -3.6     11.487     11.844
REMARK  3 active torsions:
REMARK  status: ('A' for Active; 'I' for Inactive)
REMARK    1  A    between atoms: C1_1  and  C3_3 
REMARK    2  A    between atoms: C2_2  and  N8_8 
REMARK    3  A    between atoms: C4_4  and  C5_5 
ROOT
HETATM    1  C1  UNL     1     -35.347  15.571  -2.585  1.00 20.00    -0.056 C 
HETATM    2  C2  UNL     1     -34.864  16.271  -1.738  1.00 20.00     0.012 C 
ENDROOT
BRANCH   1   3
HETATM    3  C3  UNL     1     -35.917  14.746  -3.592  1.00 20.00     0.069 C 
HETATM    4  C4  UNL     1     -35.155  13.957  -4.356  1.00 20.00     0.050 C 
BRANCH   4   5
HETATM    5  C5  UNL     1     -33.694  13.951  -4.144  1.00 20.00     0.259 C 
HETATM    6  O9  UNL     1     -33.114  12.986  -3.661  1.00 20.00    -0.302 OA
ENDBRANCH   4   5
ENDBRANCH   1   3
BRANCH   2   7
HETATM    7  N8  UNL     1     -34.285  17.109  -0.724  1.00 20.00    -0.350 N 
HETATM    8  C6  UNL     1     -35.069  17.372   0.475  1.00 20.00     0.159 C 
HETATM    9  C7  UNL     1     -33.328  18.124  -1.139  1.00 20.00     0.159 C 
ENDBRANCH   2   7
TORSDOF 3
ENDMDL
MODEL 7
REMARK VINA RESULT:      -3.6     11.861     12.697
REMARK  3 active torsions:
REMARK  status: ('A' for Active; 'I' for Inactive)
REMARK    1  A    between atoms: C1_1  and  C3_3 
REMARK    2  A    between atoms: C2_2  and  N8_8 
REMARK    3  A    between atoms: C4_4  and  C5_5 
ROOT
HETATM    1  C1  UNL     1     -34.749  16.036  -1.983  1.00 20.00    -0.056 C 
HETATM    2  C2  UNL     1     -34.710  15.526  -3.069  1.00 20.00     0.012 C 
ENDROOT
BRANCH   1   3
HETATM    3  C3  UNL     1     -34.790  16.639  -0.697  1.00 20.00     0.069 C 
HETATM    4  C4  UNL     1     -34.183  17.805  -0.456  1.00 20.00     0.050 C 
BRANCH   4   5
HETATM    5  C5  UNL     1     -33.457  18.472  -1.555  1.00 20.00     0.259 C 
HETATM    6  O9  UNL     1     -32.546  19.263  -1.342  1.00 20.00    -0.302 OA
ENDBRANCH   4   5
ENDBRANCH   1   3
BRANCH   2   7
HETATM    7  N8  UNL     1     -34.662  14.915  -4.369  1.00 20.00    -0.350 N 
HETATM    8  C6  UNL     1     -35.545  15.436  -5.402  1.00 20.00     0.159 C 
HETATM    9  C7  UNL     1     -34.284  13.512  -4.452  1.00 20.00     0.159 C 
ENDBRANCH   2   7
TORSDOF 3
ENDMDL
MODEL 8
REMARK VINA RESULT:      -3.5     11.819     12.593
REMARK  3 active torsions:
REMARK  status: ('A' for Active; 'I' for Inactive)
REMARK    1  A    between atoms: C1_1  and  C3_3 
REMARK    2  A    between atoms: C2_2  and  N8_8 
REMARK    3  A    between atoms: C4_4  and  C5_5 
ROOT
HETATM    1  C1  UNL     1     -34.458  14.598  -3.352  1.00 20.00    -0.056 C 
HETATM    2  C2  UNL     1     -34.285  15.583  -2.688  1.00 20.00     0.012 C 
ENDROOT
BRANCH   1   3
HETATM    3  C3  UNL     1     -34.668  13.431  -4.136  1.00 20.00     0.069 C 
HETATM    4  C4  UNL     1     -34.886  13.508  -5.452  1.00 20.00     0.050 C 
BRANCH   4   5
HETATM    5  C5  UNL     1     -34.909  14.837  -6.095  1.00 20.00     0.259 C 
HETATM    6  O9  UNL     1     -34.103  15.150  -6.963  1.00 20.00    -0.302 OA
ENDBRANCH   4   5
ENDBRANCH   1   3
BRANCH   2   7
HETATM    7  N8  UNL     1     -34.078  16.762  -1.893  1.00 20.00    -0.350 N 
HETATM    8  C6  UNL     1     -34.666  16.801  -0.562  1.00 20.00     0.159 C 
HETATM    9  C7  UNL     1     -33.892  18.030  -2.584  1.00 20.00     0.159 C 
ENDBRANCH   2   7
TORSDOF 3
ENDMDL
MODEL 9
REMARK VINA RESULT:      -3.5     11.142     11.964
REMARK  3 active torsions:
REMARK  status: ('A' for Active; 'I' for Inactive)
REMARK    1  A    between atoms: C1_1  and  C3_3 
REMARK    2  A    between atoms: C2_2  and  N8_8 
REMARK    3  A    between atoms: C4_4  and  C5_5 
ROOT
HETATM    1  C1  UNL     1     -34.066  16.698  -1.693  1.00 20.00    -0.056 C 
HETATM    2  C2  UNL     1     -34.562  15.817  -2.338  1.00 20.00     0.012 C 
ENDROOT
BRANCH   1   3
HETATM    3  C3  UNL     1     -33.480  17.745  -0.930  1.00 20.00     0.069 C 
HETATM    4  C4  UNL     1     -33.981  18.104   0.256  1.00 20.00     0.050 C 
BRANCH   4   5
HETATM    5  C5  UNL     1     -35.166  17.394   0.775  1.00 20.00     0.259 C 
HETATM    6  O9  UNL     1     -35.449  17.392   1.967  1.00 20.00    -0.302 OA
ENDBRANCH   4   5
ENDBRANCH   1   3
BRANCH   2   7
HETATM    7  N8  UNL     1     -35.158  14.762  -3.112  1.00 20.00    -0.350 N 
HETATM    8  C6  UNL     1     -34.272  13.808  -3.764  1.00 20.00     0.159 C 
HETATM    9  C7  UNL     1     -36.449  15.015  -3.734  1.00 20.00     0.159 C 
ENDBRANCH   2   7
TORSDOF 3
ENDMDL
