MODEL 1
REMARK VINA RESULT:      -5.3      0.000      0.000
REMARK  1 active torsions:
REMARK  status: ('A' for Active; 'I' for Inactive)
REMARK    1  A    between atoms: C3_3  and  C4_4 
ROOT
HETATM    1  C1  UNL     1     -34.798   5.197   3.562  1.00 20.00     0.061 C 
HETATM    2  C2  UNL     1     -35.161   4.355   4.535  1.00 20.00     0.087 C 
HETATM    3  C4  UNL     1     -34.092   6.381   4.139  1.00 20.00     0.376 C 
HETATM    4  C5  UNL     1     -34.736   4.897   5.857  1.00 20.00     0.463 C 
HETATM    5  C6  UNL     1     -33.390   6.867   6.493  1.00 20.00     0.324 C 
HETATM    6  N7  UNL     1     -34.353   6.287   5.582  1.00 20.00     0.211 N 
HETATM    7  F9  UNL     1     -34.596   7.546   3.658  1.00 20.00    -0.195 F 
HETATM    8  F10 UNL     1     -35.739   4.861   6.769  1.00 20.00    -0.169 F 
HETATM    9  F11 UNL     1     -33.701   4.181   6.366  1.00 20.00    -0.169 F 
ENDROOT
BRANCH   3  10
HETATM   10  C3  UNL     1     -32.644   6.228   3.802  1.00 20.00     0.312 C 
HETATM   11  O8  UNL     1     -31.982   7.102   3.250  1.00 20.00    -0.301 OA
ENDBRANCH   3  10
TORSDOF 1
ENDMDL
MODEL 2
REMARK VINA RESULT:      -4.6     12.475     13.877
REMARK  1 active torsions:
REMARK  status: ('A' for Active; 'I' for Inactive)
REMARK    1  A    between atoms: C3_3  and  C4_4 
ROOT
HETATM    1  C1  UNL     1     -33.688  14.796  -3.326  1.00 20.00     0.061 C 
HETATM    2  C2  UNL     1     -32.874  15.494  -4.125  1.00 20.00     0.087 C 
HETATM    3  C4  UNL     1     -35.115  15.044  -3.697  1.00 20.00     0.376 C 
HETATM    4  C5  UNL     1     -33.678  16.278  -5.105  1.00 20.00     0.463 C 
HETATM    5  C6  UNL     1     -36.097  16.352  -5.593  1.00 20.00     0.324 C 
HETATM    6  N7  UNL     1     -35.054  16.201  -4.601  1.00 20.00     0.211 N 
HETATM    7  F9  UNL     1     -35.867  15.354  -2.609  1.00 20.00    -0.195 F 
HETATM    8  F10 UNL     1     -33.277  17.573  -5.172  1.00 20.00    -0.169 F 
HETATM    9  F11 UNL     1     -33.568  15.756  -6.352  1.00 20.00    -0.169 F 
ENDROOT
BRANCH   3  10
HETATM   10  C3  UNL     1     -35.608  13.806  -4.373  1.00 20.00     0.312 C 
HETATM   11  O8  UNL     1     -35.030  12.725  -4.309  1.00 20.00    -0.301 OA
ENDBRANCH   3  10
TORSDOF 1
ENDMDL
MODEL 3
REMARK VINA RESULT:      -4.6     12.456     13.723
REMARK  1 active torsions:
REMARK  status: ('A' for Active; 'I' for Inactive)
REMARK    1  A    between atoms: C3_3  and  C4_4 
ROOT
HETATM    1  C1  UNL     1     -34.176  13.665  -4.003  1.00 20.00     0.061 C 
HETATM    2  C2  UNL     1     -34.745  13.628  -5.213  1.00 20.00     0.087 C 
HETATM    3  C4  UNL     1     -33.517  14.988  -3.782  1.00 20.00     0.376 C 
HETATM    4  C5  UNL     1     -34.517  14.920  -5.918  1.00 20.00     0.463 C 
HETATM    5  C6  UNL     1     -33.499  17.052  -5.199  1.00 20.00     0.324 C 
HETATM    6  N7  UNL     1     -33.500  15.607  -5.115  1.00 20.00     0.211 N 
HETATM    7  F9  UNL     1     -32.246  14.842  -3.329  1.00 20.00    -0.195 F 
HETATM    8  F10 UNL     1     -34.067  14.737  -7.185  1.00 20.00    -0.169 F 
HETATM    9  F11 UNL     1     -35.665  15.639  -5.998  1.00 20.00    -0.169 F 
ENDROOT
BRANCH   3  10
HETATM   10  C3  UNL     1     -34.367  15.737  -2.807  1.00 20.00     0.312 C 
HETATM   11  O8  UNL     1     -33.916  16.320  -1.825  1.00 20.00    -0.301 OA
ENDBRANCH   3  10
TORSDOF 1
ENDMDL
MODEL 4
REMARK VINA RESULT:      -4.5     12.407     13.794
REMARK  1 active torsions:
REMARK  status: ('A' for Active; 'I' for Inactive)
REMARK    1  A    between atoms: C3_3  and  C4_4 
ROOT
HETATM    1  C1  UNL     1     -35.128  13.494  -4.154  1.00 20.00     0.061 C 
HETATM    2  C2  UNL     1     -34.853  13.447  -5.462  1.00 20.00     0.087 C 
HETATM    3  C4  UNL     1     -35.384  14.904  -3.730  1.00 20.00     0.376 C 
HETATM    4  C5  UNL     1     -34.895  14.821  -6.037  1.00 20.00     0.463 C 
HETATM    5  C6  UNL     1     -35.536  17.006  -5.082  1.00 20.00     0.324 C 
HETATM    6  N7  UNL     1     -34.927  15.711  -4.871  1.00 20.00     0.211 N 
HETATM    7  F9  UNL     1     -34.668  15.231  -2.624  1.00 20.00    -0.195 F 
HETATM    8  F10 UNL     1     -33.805  15.088  -6.799  1.00 20.00    -0.169 F 
HETATM    9  F11 UNL     1     -35.988  14.985  -6.825  1.00 20.00    -0.169 F 
ENDROOT
BRANCH   3  10
HETATM   10  C3  UNL     1     -36.854  15.024  -3.489  1.00 20.00     0.312 C 
HETATM   11  O8  UNL     1     -37.657  14.134  -3.754  1.00 20.00    -0.301 OA
ENDBRANCH   3  10
TORSDOF 1
ENDMDL
MODEL 5
REMARK VINA RESULT:      -4.5     12.182     13.293
REMARK  1 active torsions:
REMARK  status: ('A' for Active; 'I' for Inactive)
REMARK    1  A    between atoms: C3_3  and  C4_4 
ROOT
HETATM    1  C1  UNL     1     -32.757  14.805  -3.699  1.00 20.00     0.061 C 
HETATM    2  C2  UNL     1     -33.423  13.647  -3.761  1.00 20.00     0.087 C 
HETATM    3  C4  UNL     1     -33.531  15.884  -4.384  1.00 20.00     0.376 C 
HETATM    4  C5  UNL     1     -34.703  13.839  -4.499  1.00 20.00     0.463 C 
HETATM    5  C6  UNL     1     -35.820  15.850  -5.397  1.00 20.00     0.324 C 
HETATM    6  N7  UNL     1     -34.577  15.162  -5.122  1.00 20.00     0.211 N 
HETATM    7  F9  UNL     1     -32.754  16.578  -5.256  1.00 20.00    -0.195 F 
HETATM    8  F10 UNL     1     -34.891  12.891  -5.451  1.00 20.00    -0.169 F 
HETATM    9  F11 UNL     1     -35.764  13.779  -3.655  1.00 20.00    -0.169 F 
ENDROOT
BRANCH   3  10
HETATM   10  C3  UNL     1     -34.083  16.769  -3.313  1.00 20.00     0.312 C 
HETATM   11  O8  UNL     1     -33.703  16.735  -2.147  1.00 20.00    -0.301 OA
ENDBRANCH   3  10
TORSDOF 1
ENDMDL
MODEL 6
REMARK VINA RESULT:      -4.5     12.439     13.688
REMARK  1 active torsions:
REMARK  status: ('A' for Active; 'I' for Inactive)
REMARK    1  A    between atoms: C3_3  and  C4_4 
ROOT
HETATM    1  C1  UNL     1     -35.216  14.301  -5.986  1.00 20.00     0.061 C 
HETATM    2  C2  UNL     1     -34.353  15.290  -6.239  1.00 20.00     0.087 C 
HETATM    3  C4  UNL     1     -35.479  14.207  -4.517  1.00 20.00     0.376 C 
HETATM    4  C5  UNL     1     -33.953  15.950  -4.964  1.00 20.00     0.463 C 
HETATM    5  C6  UNL     1     -34.715  15.667  -2.633  1.00 20.00     0.324 C 
HETATM    6  N7  UNL     1     -34.439  15.050  -3.912  1.00 20.00     0.211 N 
HETATM    7  F9  UNL     1     -35.352  12.931  -4.069  1.00 20.00    -0.195 F 
HETATM    8  F10 UNL     1     -32.608  16.098  -4.867  1.00 20.00    -0.169 F 
HETATM    9  F11 UNL     1     -34.504  17.186  -4.863  1.00 20.00    -0.169 F 
ENDROOT
BRANCH   3  10
HETATM   10  C3  UNL     1     -36.858  14.736  -4.290  1.00 20.00     0.312 C 
HETATM   11  O8  UNL     1     -37.748  14.090  -3.744  1.00 20.00    -0.301 OA
ENDBRANCH   3  10
TORSDOF 1
ENDMDL
MODEL 7
REMARK VINA RESULT:      -4.5     12.508     13.814
REMARK  1 active torsions:
REMARK  status: ('A' for Active; 'I' for Inactive)
REMARK    1  A    between atoms: C3_3  and  C4_4 
ROOT
HETATM    1  C1  UNL     1     -33.709  16.313  -5.698  1.00 20.00     0.061 C 
HETATM    2  C2  UNL     1     -33.036  16.208  -4.547  1.00 20.00     0.087 C 
HETATM    3  C4  UNL     1     -34.565  15.106  -5.909  1.00 20.00     0.376 C 
HETATM    4  C5  UNL     1     -33.374  14.919  -3.880  1.00 20.00     0.463 C 
HETATM    5  C6  UNL     1     -35.009  13.147  -4.414  1.00 20.00     0.324 C 
HETATM    6  N7  UNL     1     -34.084  14.145  -4.905  1.00 20.00     0.211 N 
HETATM    7  F9  UNL     1     -34.399  14.588  -7.153  1.00 20.00    -0.195 F 
HETATM    8  F10 UNL     1     -32.266  14.249  -3.474  1.00 20.00    -0.169 F 
HETATM    9  F11 UNL     1     -34.145  15.127  -2.782  1.00 20.00    -0.169 F 
ENDROOT
BRANCH   3  10
HETATM   10  C3  UNL     1     -35.978  15.530  -5.673  1.00 20.00     0.312 C 
HETATM   11  O8  UNL     1     -36.343  16.702  -5.688  1.00 20.00    -0.301 OA
ENDBRANCH   3  10
TORSDOF 1
ENDMDL
MODEL 8
REMARK VINA RESULT:      -4.5     12.557     13.382
REMARK  1 active torsions:
REMARK  status: ('A' for Active; 'I' for Inactive)
REMARK    1  A    between atoms: C3_3  and  C4_4 
ROOT
HETATM    1  C1  UNL     1     -35.492  15.866  -2.765  1.00 20.00     0.061 C 
HETATM    2  C2  UNL     1     -34.201  15.567  -2.583  1.00 20.00     0.087 C 
HETATM    3  C4  UNL     1     -35.899  15.563  -4.171  1.00 20.00     0.376 C 
HETATM    4  C5  UNL     1     -33.621  15.040  -3.850  1.00 20.00     0.463 C 
HETATM    5  C6  UNL     1     -34.626  14.481  -6.035  1.00 20.00     0.324 C 
HETATM    6  N7  UNL     1     -34.627  15.344  -4.874  1.00 20.00     0.211 N 
HETATM    7  F9  UNL     1     -36.558  16.608  -4.735  1.00 20.00    -0.195 F 
HETATM    8  F10 UNL     1     -32.444  15.640  -4.160  1.00 20.00    -0.169 F 
HETATM    9  F11 UNL     1     -33.382  13.707  -3.759  1.00 20.00    -0.169 F 
ENDROOT
BRANCH   3  10
HETATM   10  C3  UNL     1     -36.752  14.337  -4.121  1.00 20.00     0.312 C 
HETATM   11  O8  UNL     1     -37.872  14.312  -3.619  1.00 20.00    -0.301 OA
ENDBRANCH   3  10
TORSDOF 1
ENDMDL
MODEL 9
REMARK VINA RESULT:      -4.5      9.258     10.228
REMARK  1 active torsions:
REMARK  status: ('A' for Active; 'I' for Inactive)
REMARK    1  A    between atoms: C3_3  and  C4_4 
ROOT
HETATM    1  C1  UNL     1     -40.886   7.168  -0.793  1.00 20.00     0.061 C 
HETATM    2  C2  UNL     1     -40.417   6.060  -0.209  1.00 20.00     0.087 C 
HETATM    3  C4  UNL     1     -41.851   6.812  -1.877  1.00 20.00     0.376 C 
HETATM    4  C5  UNL     1     -41.019   4.857  -0.849  1.00 20.00     0.463 C 
HETATM    5  C6  UNL     1     -42.773   4.589  -2.568  1.00 20.00     0.324 C 
HETATM    6  N7  UNL     1     -41.660   5.367  -2.067  1.00 20.00     0.211 N 
HETATM    7  F9  UNL     1     -41.566   7.466  -3.033  1.00 20.00    -0.195 F 
HETATM    8  F10 UNL     1     -40.084   3.927  -1.168  1.00 20.00    -0.169 F 
HETATM    9  F11 UNL     1     -41.915   4.263  -0.021  1.00 20.00    -0.169 F 
ENDROOT
BRANCH   3  10
HETATM   10  C3  UNL     1     -43.215   7.154  -1.372  1.00 20.00     0.312 C 
HETATM   11  O8  UNL     1     -43.417   7.927  -0.441  1.00 20.00    -0.301 OA
ENDBRANCH   3  10
TORSDOF 1
ENDMDL
