MODEL 1
REMARK VINA RESULT:      -4.6      0.000      0.000
REMARK  1 active torsions:
REMARK  status: ('A' for Active; 'I' for Inactive)
REMARK    1  A    between atoms: C4_4  and  C10_10 
ROOT
HETATM    1  C1  UNL     1     -35.730  17.747  -2.726  1.00 20.00     0.174 C 
HETATM    2  C2  UNL     1     -34.402  18.072  -2.139  1.00 20.00     0.025 A 
HETATM    3  C3  UNL     1     -33.704  16.782  -1.923  1.00 20.00     0.030 A 
HETATM    4  C4  UNL     1     -34.636  15.705  -2.380  1.00 20.00     0.130 C 
HETATM    5  C5  UNL     1     -33.979  17.687  -0.734  1.00 20.00    -0.035 A 
HETATM    6  C6  UNL     1     -32.800  18.424  -0.148  1.00 20.00     0.016 C 
HETATM    7  C7  UNL     1     -35.009  17.302   0.296  1.00 20.00     0.016 C 
HETATM    8  O11 UNL     1     -35.919  16.325  -2.608  1.00 20.00    -0.385 OA
ENDROOT
BRANCH   4   9
HETATM    9  C10 UNL     1     -34.180  15.056  -3.679  1.00 20.00     0.007 C 
HETATM   10  C8  UNL     1     -32.656  14.932  -3.716  1.00 20.00     0.012 C 
HETATM   11  C9  UNL     1     -34.830  13.684  -3.858  1.00 20.00     0.012 C 
ENDBRANCH   4   9
TORSDOF 1
ENDMDL
MODEL 2
REMARK VINA RESULT:      -4.4      1.313      1.769
REMARK  1 active torsions:
REMARK  status: ('A' for Active; 'I' for Inactive)
REMARK    1  A    between atoms: C4_4  and  C10_10 
ROOT
HETATM    1  C1  UNL     1     -33.859  17.588  -3.967  1.00 20.00     0.174 C 
HETATM    2  C2  UNL     1     -33.784  17.178  -2.538  1.00 20.00     0.025 A 
HETATM    3  C3  UNL     1     -34.437  15.852  -2.440  1.00 20.00     0.030 A 
HETATM    4  C4  UNL     1     -34.902  15.496  -3.817  1.00 20.00     0.130 C 
HETATM    5  C5  UNL     1     -34.993  17.016  -1.637  1.00 20.00    -0.035 A 
HETATM    6  C6  UNL     1     -34.741  17.003  -0.150  1.00 20.00     0.016 C 
HETATM    7  C7  UNL     1     -36.313  17.641  -2.011  1.00 20.00     0.016 C 
HETATM    8  O11 UNL     1     -34.755  16.679  -4.631  1.00 20.00    -0.385 OA
ENDROOT
BRANCH   4   9
HETATM    9  C10 UNL     1     -34.073  14.381  -4.438  1.00 20.00     0.007 C 
HETATM   10  C8  UNL     1     -32.964  13.935  -3.484  1.00 20.00     0.012 C 
HETATM   11  C9  UNL     1     -34.958  13.194  -4.818  1.00 20.00     0.012 C 
ENDBRANCH   4   9
TORSDOF 1
ENDMDL
MODEL 3
REMARK VINA RESULT:      -4.4      1.662      2.539
REMARK  1 active torsions:
REMARK  status: ('A' for Active; 'I' for Inactive)
REMARK    1  A    between atoms: C4_4  and  C10_10 
ROOT
HETATM    1  C1  UNL     1     -33.311  16.504  -4.413  1.00 20.00     0.174 C 
HETATM    2  C2  UNL     1     -33.646  16.140  -3.009  1.00 20.00     0.025 A 
HETATM    3  C3  UNL     1     -35.044  15.648  -3.018  1.00 20.00     0.030 A 
HETATM    4  C4  UNL     1     -35.524  15.736  -4.433  1.00 20.00     0.130 C 
HETATM    5  C5  UNL     1     -34.687  16.859  -2.172  1.00 20.00    -0.035 A 
HETATM    6  C6  UNL     1     -34.625  16.655  -0.678  1.00 20.00     0.016 C 
HETATM    7  C7  UNL     1     -35.167  18.232  -2.564  1.00 20.00     0.016 C 
HETATM    8  O11 UNL     1     -34.536  16.489  -5.167  1.00 20.00    -0.385 OA
ENDROOT
BRANCH   4   9
HETATM    9  C10 UNL     1     -35.664  14.367  -5.083  1.00 20.00     0.007 C 
HETATM   10  C8  UNL     1     -35.062  14.371  -6.489  1.00 20.00     0.012 C 
HETATM   11  C9  UNL     1     -35.004  13.288  -4.224  1.00 20.00     0.012 C 
ENDBRANCH   4   9
TORSDOF 1
ENDMDL
MODEL 4
REMARK VINA RESULT:      -4.4      1.349      2.109
REMARK  1 active torsions:
REMARK  status: ('A' for Active; 'I' for Inactive)
REMARK    1  A    between atoms: C4_4  and  C10_10 
ROOT
HETATM    1  C1  UNL     1     -33.379  18.672  -1.810  1.00 20.00     0.174 C 
HETATM    2  C2  UNL     1     -33.724  17.947  -0.557  1.00 20.00     0.025 A 
HETATM    3  C3  UNL     1     -34.469  16.732  -0.959  1.00 20.00     0.030 A 
HETATM    4  C4  UNL     1     -34.564  16.757  -2.452  1.00 20.00     0.130 C 
HETATM    5  C5  UNL     1     -35.141  17.750  -0.053  1.00 20.00    -0.035 A 
HETATM    6  C6  UNL     1     -35.305  17.372   1.398  1.00 20.00     0.016 C 
HETATM    7  C7  UNL     1     -36.263  18.611  -0.573  1.00 20.00     0.016 C 
HETATM    8  O11 UNL     1     -34.121  18.061  -2.881  1.00 20.00    -0.385 OA
ENDROOT
BRANCH   4   9
HETATM    9  C10 UNL     1     -33.677  15.709  -3.107  1.00 20.00     0.007 C 
HETATM   10  C8  UNL     1     -34.429  14.388  -3.272  1.00 20.00     0.012 C 
HETATM   11  C9  UNL     1     -33.163  16.202  -4.460  1.00 20.00     0.012 C 
ENDBRANCH   4   9
TORSDOF 1
ENDMDL
MODEL 5
REMARK VINA RESULT:      -4.3      2.599      4.032
REMARK  1 active torsions:
REMARK  status: ('A' for Active; 'I' for Inactive)
REMARK    1  A    between atoms: C4_4  and  C10_10 
ROOT
HETATM    1  C1  UNL     1     -35.114  13.316  -4.333  1.00 20.00     0.174 C 
HETATM    2  C2  UNL     1     -35.138  14.546  -3.495  1.00 20.00     0.025 A 
HETATM    3  C3  UNL     1     -34.878  15.686  -4.404  1.00 20.00     0.030 A 
HETATM    4  C4  UNL     1     -34.693  15.114  -5.774  1.00 20.00     0.130 C 
HETATM    5  C5  UNL     1     -33.929  15.427  -3.246  1.00 20.00    -0.035 A 
HETATM    6  C6  UNL     1     -34.003  16.376  -2.076  1.00 20.00     0.016 C 
HETATM    7  C7  UNL     1     -32.538  14.905  -3.501  1.00 20.00     0.016 C 
HETATM    8  O11 UNL     1     -34.592  13.682  -5.623  1.00 20.00    -0.385 OA
ENDROOT
BRANCH   4   9
HETATM    9  C10 UNL     1     -35.867  15.418  -6.693  1.00 20.00     0.007 C 
HETATM   10  C8  UNL     1     -35.853  16.885  -7.123  1.00 20.00     0.012 C 
HETATM   11  C9  UNL     1     -35.849  14.503  -7.917  1.00 20.00     0.012 C 
ENDBRANCH   4   9
TORSDOF 1
ENDMDL
MODEL 6
REMARK VINA RESULT:      -4.3      2.141      4.816
REMARK  1 active torsions:
REMARK  status: ('A' for Active; 'I' for Inactive)
REMARK    1  A    between atoms: C4_4  and  C10_10 
ROOT
HETATM    1  C1  UNL     1     -35.229  13.609  -4.071  1.00 20.00     0.174 C 
HETATM    2  C2  UNL     1     -34.562  14.098  -5.308  1.00 20.00     0.025 A 
HETATM    3  C3  UNL     1     -34.496  15.575  -5.202  1.00 20.00     0.030 A 
HETATM    4  C4  UNL     1     -35.137  15.944  -3.902  1.00 20.00     0.130 C 
HETATM    5  C5  UNL     1     -35.247  14.945  -6.364  1.00 20.00    -0.035 A 
HETATM    6  C6  UNL     1     -34.589  15.012  -7.720  1.00 20.00     0.016 C 
HETATM    7  C7  UNL     1     -36.751  15.015  -6.429  1.00 20.00     0.016 C 
HETATM    8  O11 UNL     1     -35.779  14.755  -3.395  1.00 20.00    -0.385 OA
ENDROOT
BRANCH   4   9
HETATM    9  C10 UNL     1     -34.124  16.418  -2.870  1.00 20.00     0.007 C 
HETATM   10  C8  UNL     1     -33.719  17.869  -3.136  1.00 20.00     0.012 C 
HETATM   11  C9  UNL     1     -34.681  16.271  -1.454  1.00 20.00     0.012 C 
ENDBRANCH   4   9
TORSDOF 1
ENDMDL
MODEL 7
REMARK VINA RESULT:      -4.2      1.123      4.056
REMARK  1 active torsions:
REMARK  status: ('A' for Active; 'I' for Inactive)
REMARK    1  A    between atoms: C4_4  and  C10_10 
ROOT
HETATM    1  C1  UNL     1     -35.525  17.753  -3.476  1.00 20.00     0.174 C 
HETATM    2  C2  UNL     1     -35.330  16.319  -3.131  1.00 20.00     0.025 A 
HETATM    3  C3  UNL     1     -34.193  16.260  -2.183  1.00 20.00     0.030 A 
HETATM    4  C4  UNL     1     -33.721  17.666  -1.985  1.00 20.00     0.130 C 
HETATM    5  C5  UNL     1     -34.098  15.516  -3.505  1.00 20.00    -0.035 A 
HETATM    6  C6  UNL     1     -34.220  14.013  -3.454  1.00 20.00     0.016 C 
HETATM    7  C7  UNL     1     -33.171  16.001  -4.589  1.00 20.00     0.016 C 
HETATM    8  O11 UNL     1     -34.387  18.477  -2.976  1.00 20.00    -0.385 OA
ENDROOT
BRANCH   4   9
HETATM    9  C10 UNL     1     -34.071  18.206  -0.607  1.00 20.00     0.007 C 
HETATM   10  C8  UNL     1     -34.840  17.163   0.205  1.00 20.00     0.012 C 
HETATM   11  C9  UNL     1     -32.811  18.642   0.142  1.00 20.00     0.012 C 
ENDBRANCH   4   9
TORSDOF 1
ENDMDL
MODEL 8
REMARK VINA RESULT:      -4.2      1.925      4.141
REMARK  1 active torsions:
REMARK  status: ('A' for Active; 'I' for Inactive)
REMARK    1  A    between atoms: C4_4  and  C10_10 
ROOT
HETATM    1  C1  UNL     1     -33.142  14.979  -3.733  1.00 20.00     0.174 C 
HETATM    2  C2  UNL     1     -33.114  16.197  -4.587  1.00 20.00     0.025 A 
HETATM    3  C3  UNL     1     -33.964  17.208  -3.916  1.00 20.00     0.030 A 
HETATM    4  C4  UNL     1     -34.494  16.569  -2.671  1.00 20.00     0.130 C 
HETATM    5  C5  UNL     1     -34.324  16.748  -5.319  1.00 20.00    -0.035 A 
HETATM    6  C6  UNL     1     -34.060  17.717  -6.445  1.00 20.00     0.016 C 
HETATM    7  C7  UNL     1     -35.535  15.882  -5.551  1.00 20.00     0.016 C 
HETATM    8  O11 UNL     1     -34.176  15.164  -2.750  1.00 20.00    -0.385 OA
ENDROOT
BRANCH   4   9
HETATM    9  C10 UNL     1     -33.855  17.136  -1.412  1.00 20.00     0.007 C 
HETATM   10  C8  UNL     1     -33.431  18.589  -1.626  1.00 20.00     0.012 C 
HETATM   11  C9  UNL     1     -34.811  17.029  -0.223  1.00 20.00     0.012 C 
ENDBRANCH   4   9
TORSDOF 1
ENDMDL
MODEL 9
REMARK VINA RESULT:      -4.2      1.692      4.636
REMARK  1 active torsions:
REMARK  status: ('A' for Active; 'I' for Inactive)
REMARK    1  A    between atoms: C4_4  and  C10_10 
ROOT
HETATM    1  C1  UNL     1     -32.853  15.662  -4.273  1.00 20.00     0.174 C 
HETATM    2  C2  UNL     1     -34.023  15.744  -5.189  1.00 20.00     0.025 A 
HETATM    3  C3  UNL     1     -35.234  15.734  -4.335  1.00 20.00     0.030 A 
HETATM    4  C4  UNL     1     -34.763  15.636  -2.918  1.00 20.00     0.130 C 
HETATM    5  C5  UNL     1     -35.042  14.634  -5.365  1.00 20.00    -0.035 A 
HETATM    6  C6  UNL     1     -35.910  14.692  -6.598  1.00 20.00     0.016 C 
HETATM    7  C7  UNL     1     -34.721  13.227  -4.930  1.00 20.00     0.016 C 
HETATM    8  O11 UNL     1     -33.351  15.340  -2.962  1.00 20.00    -0.385 OA
ENDROOT
BRANCH   4   9
HETATM    9  C10 UNL     1     -34.957  16.936  -2.152  1.00 20.00     0.007 C 
HETATM   10  C8  UNL     1     -36.369  17.484  -2.362  1.00 20.00     0.012 C 
HETATM   11  C9  UNL     1     -34.680  16.735  -0.662  1.00 20.00     0.012 C 
ENDBRANCH   4   9
TORSDOF 1
ENDMDL
