MODEL 1
REMARK VINA RESULT:      -5.4      0.000      0.000
REMARK  2 active torsions:
REMARK  status: ('A' for Active; 'I' for Inactive)
REMARK    1  A    between atoms: C1_1  and  C5_5 
REMARK    2  A    between atoms: C5_5  and  C6_6 
ROOT
HETATM    1  C2  UNL     1     -32.580   7.058   2.794  1.00 20.00     0.003 C 
HETATM    2  C3  UNL     1     -33.765   7.573   3.629  1.00 20.00     0.029 C 
HETATM    3  C4  UNL     1     -32.387   5.948   3.840  1.00 20.00     0.029 C 
HETATM    4  C5  UNL     1     -33.869   6.160   4.285  1.00 20.00     0.149 C 
ENDROOT
BRANCH   4   5
HETATM    5  C1  UNL     1     -34.106   6.158   5.821  1.00 20.00     0.316 C 
HETATM    6  O7  UNL     1     -34.907   5.445   6.406  1.00 20.00    -0.259 OA
HETATM    7  F8  UNL     1     -33.347   6.971   6.568  1.00 20.00    -0.163 F 
ENDBRANCH   4   5
BRANCH   4   8
HETATM    8  C6  UNL     1     -34.857   5.230   3.577  1.00 20.00     0.404 C 
HETATM    9  F9  UNL     1     -34.919   4.056   4.221  1.00 20.00    -0.170 F 
HETATM   10  F10 UNL     1     -36.075   5.786   3.563  1.00 20.00    -0.170 F 
HETATM   11  F11 UNL     1     -34.458   5.017   2.315  1.00 20.00    -0.170 F 
ENDBRANCH   4   8
TORSDOF 2
ENDMDL
MODEL 2
REMARK VINA RESULT:      -5.1      1.858      2.330
REMARK  2 active torsions:
REMARK  status: ('A' for Active; 'I' for Inactive)
REMARK    1  A    between atoms: C1_1  and  C5_5 
REMARK    2  A    between atoms: C5_5  and  C6_6 
ROOT
HETATM    1  C2  UNL     1     -34.420   5.537   2.936  1.00 20.00     0.003 C 
HETATM    2  C3  UNL     1     -35.341   6.057   4.052  1.00 20.00     0.029 C 
HETATM    3  C4  UNL     1     -33.267   5.540   3.953  1.00 20.00     0.029 C 
HETATM    4  C5  UNL     1     -34.326   5.502   5.100  1.00 20.00     0.149 C 
ENDROOT
BRANCH   4   5
HETATM    5  C1  UNL     1     -34.033   6.441   6.303  1.00 20.00     0.316 C 
HETATM    6  O7  UNL     1     -33.076   7.196   6.387  1.00 20.00    -0.259 OA
HETATM    7  F8  UNL     1     -34.917   6.455   7.309  1.00 20.00    -0.163 F 
ENDBRANCH   4   5
BRANCH   4   8
HETATM    8  C6  UNL     1     -34.656   4.086   5.578  1.00 20.00     0.404 C 
HETATM    9  F9  UNL     1     -35.660   4.128   6.465  1.00 20.00    -0.170 F 
HETATM   10  F10 UNL     1     -35.024   3.328   4.536  1.00 20.00    -0.170 F 
HETATM   11  F11 UNL     1     -33.580   3.538   6.160  1.00 20.00    -0.170 F 
ENDBRANCH   4   8
TORSDOF 2
ENDMDL
MODEL 3
REMARK VINA RESULT:      -5.0      1.941      2.936
REMARK  2 active torsions:
REMARK  status: ('A' for Active; 'I' for Inactive)
REMARK    1  A    between atoms: C1_1  and  C5_5 
REMARK    2  A    between atoms: C5_5  and  C6_6 
ROOT
HETATM    1  C2  UNL     1     -34.468   5.792   6.498  1.00 20.00     0.003 C 
HETATM    2  C3  UNL     1     -33.437   5.005   5.672  1.00 20.00     0.029 C 
HETATM    3  C4  UNL     1     -34.419   6.890   5.423  1.00 20.00     0.029 C 
HETATM    4  C5  UNL     1     -33.863   5.832   4.418  1.00 20.00     0.149 C 
ENDROOT
BRANCH   4   5
HETATM    5  C1  UNL     1     -32.695   6.322   3.518  1.00 20.00     0.316 C 
HETATM    6  O7  UNL     1     -32.627   7.425   2.997  1.00 20.00    -0.259 OA
HETATM    7  F8  UNL     1     -31.665   5.487   3.328  1.00 20.00    -0.163 F 
ENDBRANCH   4   5
BRANCH   4   8
HETATM    8  C6  UNL     1     -34.952   5.154   3.582  1.00 20.00     0.404 C 
HETATM    9  F9  UNL     1     -34.518   4.976   2.327  1.00 20.00    -0.170 F 
HETATM   10  F10 UNL     1     -35.258   3.962   4.113  1.00 20.00    -0.170 F 
HETATM   11  F11 UNL     1     -36.053   5.919   3.561  1.00 20.00    -0.170 F 
ENDBRANCH   4   8
TORSDOF 2
ENDMDL
MODEL 4
REMARK VINA RESULT:      -5.0     11.737     12.792
REMARK  2 active torsions:
REMARK  status: ('A' for Active; 'I' for Inactive)
REMARK    1  A    between atoms: C1_1  and  C5_5 
REMARK    2  A    between atoms: C5_5  and  C6_6 
ROOT
HETATM    1  C2  UNL     1     -35.124  16.632  -2.387  1.00 20.00     0.003 C 
HETATM    2  C3  UNL     1     -35.783  15.491  -3.182  1.00 20.00     0.029 C 
HETATM    3  C4  UNL     1     -33.775  15.919  -2.576  1.00 20.00     0.029 C 
HETATM    4  C5  UNL     1     -34.386  15.162  -3.797  1.00 20.00     0.149 C 
ENDROOT
BRANCH   4   5
HETATM    5  C1  UNL     1     -34.038  13.649  -3.881  1.00 20.00     0.316 C 
HETATM    6  O7  UNL     1     -34.829  12.762  -4.163  1.00 20.00    -0.259 OA
HETATM    7  F8  UNL     1     -32.765  13.292  -3.666  1.00 20.00    -0.163 F 
ENDBRANCH   4   5
BRANCH   4   8
HETATM    8  C6  UNL     1     -34.131  15.858  -5.136  1.00 20.00     0.404 C 
HETATM    9  F9  UNL     1     -35.124  16.719  -5.398  1.00 20.00    -0.170 F 
HETATM   10  F10 UNL     1     -32.972  16.527  -5.088  1.00 20.00    -0.170 F 
HETATM   11  F11 UNL     1     -34.070  14.948  -6.119  1.00 20.00    -0.170 F 
ENDBRANCH   4   8
TORSDOF 2
ENDMDL
MODEL 5
REMARK VINA RESULT:      -4.9      1.311      3.052
REMARK  2 active torsions:
REMARK  status: ('A' for Active; 'I' for Inactive)
REMARK    1  A    between atoms: C1_1  and  C5_5 
REMARK    2  A    between atoms: C5_5  and  C6_6 
ROOT
HETATM    1  C2  UNL     1     -32.533   6.936   3.681  1.00 20.00     0.003 C 
HETATM    2  C3  UNL     1     -32.742   5.433   3.933  1.00 20.00     0.029 C 
HETATM    3  C4  UNL     1     -34.039   7.136   3.920  1.00 20.00     0.029 C 
HETATM    4  C5  UNL     1     -34.060   5.780   4.695  1.00 20.00     0.149 C 
ENDROOT
BRANCH   4   5
HETATM    5  C1  UNL     1     -35.270   4.857   4.383  1.00 20.00     0.316 C 
HETATM    6  O7  UNL     1     -35.373   3.692   4.737  1.00 20.00    -0.259 OA
HETATM    7  F8  UNL     1     -36.297   5.387   3.706  1.00 20.00    -0.163 F 
ENDBRANCH   4   5
BRANCH   4   8
HETATM    8  C6  UNL     1     -33.867   5.939   6.206  1.00 20.00     0.404 C 
HETATM    9  F9  UNL     1     -35.051   6.148   6.796  1.00 20.00    -0.170 F 
HETATM   10  F10 UNL     1     -33.314   4.829   6.713  1.00 20.00    -0.170 F 
HETATM   11  F11 UNL     1     -33.063   6.982   6.455  1.00 20.00    -0.170 F 
ENDBRANCH   4   8
TORSDOF 2
ENDMDL
MODEL 6
REMARK VINA RESULT:      -4.8     11.588     12.583
REMARK  2 active torsions:
REMARK  status: ('A' for Active; 'I' for Inactive)
REMARK    1  A    between atoms: C1_1  and  C5_5 
REMARK    2  A    between atoms: C5_5  and  C6_6 
ROOT
HETATM    1  C2  UNL     1     -34.083  16.749  -5.672  1.00 20.00     0.003 C 
HETATM    2  C3  UNL     1     -33.186  16.038  -4.645  1.00 20.00     0.029 C 
HETATM    3  C4  UNL     1     -34.975  15.497  -5.688  1.00 20.00     0.029 C 
HETATM    4  C5  UNL     1     -34.388  15.105  -4.296  1.00 20.00     0.149 C 
ENDROOT
BRANCH   4   5
HETATM    5  C1  UNL     1     -34.033  13.601  -4.126  1.00 20.00     0.316 C 
HETATM    6  O7  UNL     1     -34.757  12.669  -4.443  1.00 20.00    -0.259 OA
HETATM    7  F8  UNL     1     -32.825  13.300  -3.631  1.00 20.00    -0.163 F 
ENDBRANCH   4   5
BRANCH   4   8
HETATM    8  C6  UNL     1     -35.226  15.606  -3.117  1.00 20.00     0.404 C 
HETATM    9  F9  UNL     1     -34.538  15.464  -1.976  1.00 20.00    -0.170 F 
HETATM   10  F10 UNL     1     -35.527  16.900  -3.290  1.00 20.00    -0.170 F 
HETATM   11  F11 UNL     1     -36.363  14.900  -3.034  1.00 20.00    -0.170 F 
ENDBRANCH   4   8
TORSDOF 2
ENDMDL
MODEL 7
REMARK VINA RESULT:      -4.7     11.892     12.788
REMARK  2 active torsions:
REMARK  status: ('A' for Active; 'I' for Inactive)
REMARK    1  A    between atoms: C1_1  and  C5_5 
REMARK    2  A    between atoms: C5_5  and  C6_6 
ROOT
HETATM    1  C2  UNL     1     -35.930  16.707  -3.500  1.00 20.00     0.003 C 
HETATM    2  C3  UNL     1     -35.361  16.278  -4.863  1.00 20.00     0.029 C 
HETATM    3  C4  UNL     1     -35.746  15.257  -3.021  1.00 20.00     0.029 C 
HETATM    4  C5  UNL     1     -34.698  15.052  -4.159  1.00 20.00     0.149 C 
ENDROOT
BRANCH   4   5
HETATM    5  C1  UNL     1     -34.809  13.706  -4.928  1.00 20.00     0.316 C 
HETATM    6  O7  UNL     1     -35.024  12.619  -4.412  1.00 20.00    -0.259 OA
HETATM    7  F8  UNL     1     -34.699  13.741  -6.262  1.00 20.00    -0.163 F 
ENDBRANCH   4   5
BRANCH   4   8
HETATM    8  C6  UNL     1     -33.256  15.312  -3.714  1.00 20.00     0.404 C 
HETATM    9  F9  UNL     1     -32.593  14.151  -3.620  1.00 20.00    -0.170 F 
HETATM   10  F10 UNL     1     -32.639  16.098  -4.606  1.00 20.00    -0.170 F 
HETATM   11  F11 UNL     1     -33.251  15.917  -2.518  1.00 20.00    -0.170 F 
ENDBRANCH   4   8
TORSDOF 2
ENDMDL
MODEL 8
REMARK VINA RESULT:      -4.7     12.168     13.206
REMARK  2 active torsions:
REMARK  status: ('A' for Active; 'I' for Inactive)
REMARK    1  A    between atoms: C1_1  and  C5_5 
REMARK    2  A    between atoms: C5_5  and  C6_6 
ROOT
HETATM    1  C2  UNL     1     -35.350  16.122  -6.648  1.00 20.00     0.003 C 
HETATM    2  C3  UNL     1     -34.364  14.943  -6.591  1.00 20.00     0.029 C 
HETATM    3  C4  UNL     1     -35.781  15.769  -5.215  1.00 20.00     0.029 C 
HETATM    4  C5  UNL     1     -34.426  15.013  -5.032  1.00 20.00     0.149 C 
ENDROOT
BRANCH   4   5
HETATM    5  C1  UNL     1     -34.525  13.641  -4.309  1.00 20.00     0.316 C 
HETATM    6  O7  UNL     1     -34.711  12.568  -4.864  1.00 20.00    -0.259 OA
HETATM    7  F8  UNL     1     -34.356  13.625  -2.981  1.00 20.00    -0.163 F 
ENDBRANCH   4   5
BRANCH   4   8
HETATM    8  C6  UNL     1     -33.324  15.879  -4.417  1.00 20.00     0.404 C 
HETATM    9  F9  UNL     1     -33.807  16.548  -3.362  1.00 20.00    -0.170 F 
HETATM   10  F10 UNL     1     -32.307  15.104  -4.017  1.00 20.00    -0.170 F 
HETATM   11  F11 UNL     1     -32.874  16.757  -5.324  1.00 20.00    -0.170 F 
ENDBRANCH   4   8
TORSDOF 2
ENDMDL
MODEL 9
REMARK VINA RESULT:      -4.7     11.968     12.950
REMARK  2 active torsions:
REMARK  status: ('A' for Active; 'I' for Inactive)
REMARK    1  A    between atoms: C1_1  and  C5_5 
REMARK    2  A    between atoms: C5_5  and  C6_6 
ROOT
HETATM    1  C2  UNL     1     -35.927  14.823  -6.807  1.00 20.00     0.003 C 
HETATM    2  C3  UNL     1     -35.965  15.411  -5.386  1.00 20.00     0.029 C 
HETATM    3  C4  UNL     1     -34.392  14.887  -6.740  1.00 20.00     0.029 C 
HETATM    4  C5  UNL     1     -34.497  14.921  -5.182  1.00 20.00     0.149 C 
ENDROOT
BRANCH   4   5
HETATM    5  C1  UNL     1     -33.551  15.932  -4.476  1.00 20.00     0.316 C 
HETATM    6  O7  UNL     1     -32.825  16.731  -5.049  1.00 20.00    -0.259 OA
HETATM    7  F8  UNL     1     -33.560  15.960  -3.137  1.00 20.00    -0.163 F 
ENDBRANCH   4   5
BRANCH   4   8
HETATM    8  C6  UNL     1     -34.401  13.537  -4.535  1.00 20.00     0.404 C 
HETATM    9  F9  UNL     1     -34.754  12.595  -5.420  1.00 20.00    -0.170 F 
HETATM   10  F10 UNL     1     -33.144  13.310  -4.130  1.00 20.00    -0.170 F 
HETATM   11  F11 UNL     1     -35.220  13.472  -3.476  1.00 20.00    -0.170 F 
ENDBRANCH   4   8
TORSDOF 2
ENDMDL
