MODEL 1
REMARK VINA RESULT:      -4.0      0.000      0.000
REMARK  3 active torsions:
REMARK  status: ('A' for Active; 'I' for Inactive)
REMARK    1  A    between atoms: C1_1  and  C4_4 
REMARK    2  A    between atoms: C2_2  and  C8_8 
REMARK    3  A    between atoms: C8_8  and  O10_10 
ROOT
HETATM    1  C1  UNL     1     -34.222  14.818  -3.244  1.00 20.00    -0.069 C 
HETATM    2  C2  UNL     1     -34.450  15.765  -2.541  1.00 20.00    -0.066 C 
ENDROOT
BRANCH   2   3
HETATM    3  C8  UNL     1     -34.728  16.928  -1.680  1.00 20.00     0.116 C 
HETATM    4  C5  UNL     1     -36.081  17.545  -2.031  1.00 20.00     0.060 C 
HETATM    5  C6  UNL     1     -33.614  17.964  -1.813  1.00 20.00     0.060 C 
BRANCH   3   6
HETATM    6  O10 UNL     1     -34.761  16.511  -0.314  1.00 20.00    -0.373 OA
HETATM    7  C7  UNL     1     -35.146  17.576   0.540  1.00 20.00     0.204 C 
ENDBRANCH   3   6
ENDBRANCH   2   3
BRANCH   1   8
HETATM    8  C4  UNL     1     -33.945  13.665  -4.098  1.00 20.00     0.224 A 
HETATM    9  C3  UNL     1     -34.730  13.498  -5.351  1.00 20.00     0.214 A 
HETATM   10  O9  UNL     1     -35.051  12.772  -4.157  1.00 20.00    -0.368 OA
ENDBRANCH   1   8
TORSDOF 3
ENDMDL
MODEL 2
REMARK VINA RESULT:      -4.0      1.117      1.948
REMARK  3 active torsions:
REMARK  status: ('A' for Active; 'I' for Inactive)
REMARK    1  A    between atoms: C1_1  and  C4_4 
REMARK    2  A    between atoms: C2_2  and  C8_8 
REMARK    3  A    between atoms: C8_8  and  O10_10 
ROOT
HETATM    1  C1  UNL     1     -34.192  14.845  -3.318  1.00 20.00    -0.069 C 
HETATM    2  C2  UNL     1     -34.413  15.852  -2.700  1.00 20.00    -0.066 C 
ENDROOT
BRANCH   2   3
HETATM    3  C8  UNL     1     -34.684  17.085  -1.941  1.00 20.00     0.116 C 
HETATM    4  C5  UNL     1     -34.672  16.805  -0.439  1.00 20.00     0.060 C 
HETATM    5  C6  UNL     1     -36.024  17.685  -2.365  1.00 20.00     0.060 C 
BRANCH   3   6
HETATM    6  O10 UNL     1     -33.674  18.053  -2.231  1.00 20.00    -0.373 OA
HETATM    7  C7  UNL     1     -33.839  18.596  -3.530  1.00 20.00     0.204 C 
ENDBRANCH   3   6
ENDBRANCH   2   3
BRANCH   1   8
HETATM    8  C4  UNL     1     -33.924  13.622  -4.071  1.00 20.00     0.224 A 
HETATM    9  C3  UNL     1     -34.661  13.388  -5.342  1.00 20.00     0.214 A 
HETATM   10  O9  UNL     1     -35.059  12.766  -4.113  1.00 20.00    -0.368 OA
ENDBRANCH   1   8
TORSDOF 3
ENDMDL
MODEL 3
REMARK VINA RESULT:      -3.9      1.935      4.807
REMARK  3 active torsions:
REMARK  status: ('A' for Active; 'I' for Inactive)
REMARK    1  A    between atoms: C1_1  and  C4_4 
REMARK    2  A    between atoms: C2_2  and  C8_8 
REMARK    3  A    between atoms: C8_8  and  O10_10 
ROOT
HETATM    1  C1  UNL     1     -34.436  16.398  -1.538  1.00 20.00    -0.069 C 
HETATM    2  C2  UNL     1     -34.164  15.912  -2.602  1.00 20.00    -0.066 C 
ENDROOT
BRANCH   2   3
HETATM    3  C8  UNL     1     -33.831  15.313  -3.906  1.00 20.00     0.116 C 
HETATM    4  C5  UNL     1     -35.064  15.269  -4.808  1.00 20.00     0.060 C 
HETATM    5  C6  UNL     1     -33.257  13.910  -3.714  1.00 20.00     0.060 C 
BRANCH   3   6
HETATM    6  O10 UNL     1     -32.827  16.100  -4.548  1.00 20.00    -0.373 OA
HETATM    7  C7  UNL     1     -33.396  17.219  -5.209  1.00 20.00     0.204 C 
ENDBRANCH   3   6
ENDBRANCH   2   3
BRANCH   1   8
HETATM    8  C4  UNL     1     -34.766  16.992  -0.244  1.00 20.00     0.224 A 
HETATM    9  C3  UNL     1     -35.103  18.440  -0.186  1.00 20.00     0.214 A 
HETATM   10  O9  UNL     1     -33.800  17.955   0.160  1.00 20.00    -0.368 OA
ENDBRANCH   1   8
TORSDOF 3
ENDMDL
MODEL 4
REMARK VINA RESULT:      -3.9      1.436      4.852
REMARK  3 active torsions:
REMARK  status: ('A' for Active; 'I' for Inactive)
REMARK    1  A    between atoms: C1_1  and  C4_4 
REMARK    2  A    between atoms: C2_2  and  C8_8 
REMARK    3  A    between atoms: C8_8  and  O10_10 
ROOT
HETATM    1  C1  UNL     1     -34.492  16.413  -1.473  1.00 20.00    -0.069 C 
HETATM    2  C2  UNL     1     -34.259  15.911  -2.539  1.00 20.00    -0.066 C 
ENDROOT
BRANCH   2   3
HETATM    3  C8  UNL     1     -33.974  15.293  -3.846  1.00 20.00     0.116 C 
HETATM    4  C5  UNL     1     -33.202  13.987  -3.666  1.00 20.00     0.060 C 
HETATM    5  C6  UNL     1     -33.190  16.262  -4.730  1.00 20.00     0.060 C 
BRANCH   3   6
HETATM    6  O10 UNL     1     -35.203  15.006  -4.515  1.00 20.00    -0.373 OA
HETATM    7  C7  UNL     1     -35.592  13.656  -4.318  1.00 20.00     0.204 C 
ENDBRANCH   3   6
ENDBRANCH   2   3
BRANCH   1   8
HETATM    8  C4  UNL     1     -34.775  17.026  -0.177  1.00 20.00     0.224 A 
HETATM    9  C3  UNL     1     -35.088  18.479  -0.126  1.00 20.00     0.214 A 
HETATM   10  O9  UNL     1     -33.783  17.977   0.188  1.00 20.00    -0.368 OA
ENDBRANCH   1   8
TORSDOF 3
ENDMDL
MODEL 5
REMARK VINA RESULT:      -3.8      1.890      4.740
REMARK  3 active torsions:
REMARK  status: ('A' for Active; 'I' for Inactive)
REMARK    1  A    between atoms: C1_1  and  C4_4 
REMARK    2  A    between atoms: C2_2  and  C8_8 
REMARK    3  A    between atoms: C8_8  and  O10_10 
ROOT
HETATM    1  C1  UNL     1     -34.788  15.991  -2.270  1.00 20.00    -0.069 C 
HETATM    2  C2  UNL     1     -35.305  15.302  -3.108  1.00 20.00    -0.066 C 
ENDROOT
BRANCH   2   3
HETATM    3  C8  UNL     1     -35.936  14.456  -4.135  1.00 20.00     0.116 C 
HETATM    4  C5  UNL     1     -35.078  13.224  -4.419  1.00 20.00     0.060 C 
HETATM    5  C6  UNL     1     -36.164  15.258  -5.415  1.00 20.00     0.060 C 
BRANCH   3   6
HETATM    6  O10 UNL     1     -37.215  14.020  -3.672  1.00 20.00    -0.373 OA
HETATM    7  C7  UNL     1     -38.177  15.059  -3.765  1.00 20.00     0.204 C 
ENDBRANCH   3   6
ENDBRANCH   2   3
BRANCH   1   8
HETATM    8  C4  UNL     1     -34.162  16.830  -1.251  1.00 20.00     0.224 A 
HETATM    9  C3  UNL     1     -34.917  17.125  -0.003  1.00 20.00     0.214 A 
HETATM   10  O9  UNL     1     -34.849  18.064  -1.084  1.00 20.00    -0.368 OA
ENDBRANCH   1   8
TORSDOF 3
ENDMDL
MODEL 6
REMARK VINA RESULT:      -3.6     11.836     13.350
REMARK  3 active torsions:
REMARK  status: ('A' for Active; 'I' for Inactive)
REMARK    1  A    between atoms: C1_1  and  C4_4 
REMARK    2  A    between atoms: C2_2  and  C8_8 
REMARK    3  A    between atoms: C8_8  and  O10_10 
ROOT
HETATM    1  C1  UNL     1     -42.062   3.524  -2.421  1.00 20.00    -0.069 C 
HETATM    2  C2  UNL     1     -41.901   4.612  -1.937  1.00 20.00    -0.066 C 
ENDROOT
BRANCH   2   3
HETATM    3  C8  UNL     1     -41.702   5.946  -1.344  1.00 20.00     0.116 C 
HETATM    4  C5  UNL     1     -40.647   5.891  -0.240  1.00 20.00     0.060 C 
HETATM    5  C6  UNL     1     -43.023   6.486  -0.798  1.00 20.00     0.060 C 
BRANCH   3   6
HETATM    6  O10 UNL     1     -41.256   6.853  -2.353  1.00 20.00    -0.373 OA
HETATM    7  C7  UNL     1     -42.343   7.343  -3.121  1.00 20.00     0.204 C 
ENDBRANCH   3   6
ENDBRANCH   2   3
BRANCH   1   8
HETATM    8  C4  UNL     1     -42.260   2.201  -3.010  1.00 20.00     0.224 A 
HETATM    9  C3  UNL     1     -41.309   1.733  -4.054  1.00 20.00     0.214 A 
HETATM   10  O9  UNL     1     -42.590   2.279  -4.391  1.00 20.00    -0.368 OA
ENDBRANCH   1   8
TORSDOF 3
ENDMDL
MODEL 7
REMARK VINA RESULT:      -3.5      2.780      3.950
REMARK  3 active torsions:
REMARK  status: ('A' for Active; 'I' for Inactive)
REMARK    1  A    between atoms: C1_1  and  C4_4 
REMARK    2  A    between atoms: C2_2  and  C8_8 
REMARK    3  A    between atoms: C8_8  and  O10_10 
ROOT
HETATM    1  C1  UNL     1     -36.454  15.207  -4.388  1.00 20.00    -0.069 C 
HETATM    2  C2  UNL     1     -35.282  15.306  -4.141  1.00 20.00    -0.066 C 
ENDROOT
BRANCH   2   3
HETATM    3  C8  UNL     1     -33.846  15.429  -3.836  1.00 20.00     0.116 C 
HETATM    4  C5  UNL     1     -33.206  14.049  -3.695  1.00 20.00     0.060 C 
HETATM    5  C6  UNL     1     -33.644  16.246  -2.561  1.00 20.00     0.060 C 
BRANCH   3   6
HETATM    6  O10 UNL     1     -33.193  16.127  -4.898  1.00 20.00    -0.373 OA
HETATM    7  C7  UNL     1     -33.509  17.509  -4.875  1.00 20.00     0.204 C 
ENDBRANCH   3   6
ENDBRANCH   2   3
BRANCH   1   8
HETATM    8  C4  UNL     1     -37.879  15.085  -4.690  1.00 20.00     0.224 A 
HETATM    9  C3  UNL     1     -38.867  15.542  -3.676  1.00 20.00     0.214 A 
HETATM   10  O9  UNL     1     -38.526  14.158  -3.827  1.00 20.00    -0.368 OA
ENDBRANCH   1   8
TORSDOF 3
ENDMDL
MODEL 8
REMARK VINA RESULT:      -3.4      2.590      3.385
REMARK  3 active torsions:
REMARK  status: ('A' for Active; 'I' for Inactive)
REMARK    1  A    between atoms: C1_1  and  C4_4 
REMARK    2  A    between atoms: C2_2  and  C8_8 
REMARK    3  A    between atoms: C8_8  and  O10_10 
ROOT
HETATM    1  C1  UNL     1     -36.711  15.828  -3.655  1.00 20.00    -0.069 C 
HETATM    2  C2  UNL     1     -35.692  16.191  -3.134  1.00 20.00    -0.066 C 
ENDROOT
BRANCH   2   3
HETATM    3  C8  UNL     1     -34.441  16.634  -2.493  1.00 20.00     0.116 C 
HETATM    4  C5  UNL     1     -34.560  16.558  -0.971  1.00 20.00     0.060 C 
HETATM    5  C6  UNL     1     -34.095  18.055  -2.934  1.00 20.00     0.060 C 
BRANCH   3   6
HETATM    6  O10 UNL     1     -33.369  15.786  -2.907  1.00 20.00    -0.373 OA
HETATM    7  C7  UNL     1     -33.087  15.950  -4.288  1.00 20.00     0.204 C 
ENDBRANCH   3   6
ENDBRANCH   2   3
BRANCH   1   8
HETATM    8  C4  UNL     1     -37.952  15.388  -4.290  1.00 20.00     0.224 A 
HETATM    9  C3  UNL     1     -39.187  15.302  -3.464  1.00 20.00     0.214 A 
HETATM   10  O9  UNL     1     -38.402  14.143  -3.770  1.00 20.00    -0.368 OA
ENDBRANCH   1   8
TORSDOF 3
ENDMDL
MODEL 9
REMARK VINA RESULT:      -3.4     10.263     11.568
REMARK  3 active torsions:
REMARK  status: ('A' for Active; 'I' for Inactive)
REMARK    1  A    between atoms: C1_1  and  C4_4 
REMARK    2  A    between atoms: C2_2  and  C8_8 
REMARK    3  A    between atoms: C8_8  and  O10_10 
ROOT
HETATM    1  C1  UNL     1     -42.488   8.224  -4.224  1.00 20.00    -0.069 C 
HETATM    2  C2  UNL     1     -42.366   7.449  -3.314  1.00 20.00    -0.066 C 
ENDROOT
BRANCH   2   3
HETATM    3  C8  UNL     1     -42.219   6.498  -2.198  1.00 20.00     0.116 C 
HETATM    4  C5  UNL     1     -42.516   5.073  -2.663  1.00 20.00     0.060 C 
HETATM    5  C6  UNL     1     -43.140   6.890  -1.044  1.00 20.00     0.060 C 
BRANCH   3   6
HETATM    6  O10 UNL     1     -40.878   6.545  -1.708  1.00 20.00    -0.373 OA
HETATM    7  C7  UNL     1     -40.806   6.095  -0.364  1.00 20.00     0.204 C 
ENDBRANCH   3   6
ENDBRANCH   2   3
BRANCH   1   8
HETATM    8  C4  UNL     1     -42.634   9.167  -5.331  1.00 20.00     0.224 A 
HETATM    9  C3  UNL     1     -41.493   9.353  -6.267  1.00 20.00     0.214 A 
HETATM   10  O9  UNL     1     -41.754  10.276  -5.202  1.00 20.00    -0.368 OA
ENDBRANCH   1   8
TORSDOF 3
ENDMDL
