MODEL 1
REMARK VINA RESULT:      -4.5      0.000      0.000
REMARK  2 active torsions:
REMARK  status: ('A' for Active; 'I' for Inactive)
REMARK    1  A    between atoms: C3_3  and  C6_6 
REMARK    2  A    between atoms: C3_3  and  O10_10 
ROOT
HETATM    1  C1  UNL     1     -35.221   4.411   5.055  1.00 20.00    -0.002 C 
HETATM    2  C2  UNL     1     -35.182   5.029   6.242  1.00 20.00     0.130 C 
HETATM    3  C4  UNL     1     -34.432   4.907   3.885  1.00 20.00     0.046 C 
HETATM    4  C5  UNL     1     -33.397   6.421   5.590  1.00 20.00     0.189 C 
HETATM    5  C6  UNL     1     -33.901   6.316   4.153  1.00 20.00     0.113 C 
HETATM    6  O9  UNL     1     -34.414   6.120   6.555  1.00 20.00    -0.362 OA
ENDROOT
BRANCH   5   7
HETATM    7  C3  UNL     1     -32.799   6.653   3.198  1.00 20.00     0.265 C 
HETATM    8  O8  UNL     1     -31.954   5.855   2.817  1.00 20.00    -0.265 OA
BRANCH   7   9
HETATM    9  O10 UNL     1     -32.895   7.964   2.836  1.00 20.00    -0.326 OA
HETATM   10  C7  UNL     1     -31.998   8.384   1.804  1.00 20.00     0.213 C 
ENDBRANCH   7   9
ENDBRANCH   5   7
TORSDOF 2
ENDMDL
MODEL 2
REMARK VINA RESULT:      -4.4      1.376      1.867
REMARK  2 active torsions:
REMARK  status: ('A' for Active; 'I' for Inactive)
REMARK    1  A    between atoms: C3_3  and  C6_6 
REMARK    2  A    between atoms: C3_3  and  O10_10 
ROOT
HETATM    1  C1  UNL     1     -34.563   5.671   6.039  1.00 20.00    -0.002 C 
HETATM    2  C2  UNL     1     -35.219   4.861   5.198  1.00 20.00     0.130 C 
HETATM    3  C4  UNL     1     -33.424   6.524   5.580  1.00 20.00     0.046 C 
HETATM    4  C5  UNL     1     -34.153   5.771   3.305  1.00 20.00     0.189 C 
HETATM    5  C6  UNL     1     -32.951   6.088   4.192  1.00 20.00     0.113 C 
HETATM    6  O9  UNL     1     -34.987   4.741   3.853  1.00 20.00    -0.362 OA
ENDROOT
BRANCH   5   7
HETATM    7  C3  UNL     1     -32.116   7.156   3.560  1.00 20.00     0.265 C 
HETATM    8  O8  UNL     1     -31.201   7.735   4.127  1.00 20.00    -0.265 OA
BRANCH   7   9
HETATM    9  O10 UNL     1     -32.538   7.367   2.280  1.00 20.00    -0.326 OA
HETATM   10  C7  UNL     1     -32.065   8.570   1.667  1.00 20.00     0.213 C 
ENDBRANCH   7   9
ENDBRANCH   5   7
TORSDOF 2
ENDMDL
MODEL 3
REMARK VINA RESULT:      -4.1     11.545     12.323
REMARK  2 active torsions:
REMARK  status: ('A' for Active; 'I' for Inactive)
REMARK    1  A    between atoms: C3_3  and  C6_6 
REMARK    2  A    between atoms: C3_3  and  O10_10 
ROOT
HETATM    1  C1  UNL     1     -33.668  16.459  -2.394  1.00 20.00    -0.002 C 
HETATM    2  C2  UNL     1     -34.890  16.722  -1.916  1.00 20.00     0.130 C 
HETATM    3  C4  UNL     1     -33.436  15.388  -3.412  1.00 20.00     0.046 C 
HETATM    4  C5  UNL     1     -35.939  15.336  -3.507  1.00 20.00     0.189 C 
HETATM    5  C6  UNL     1     -34.668  14.490  -3.538  1.00 20.00     0.113 C 
HETATM    6  O9  UNL     1     -36.055  16.114  -2.307  1.00 20.00    -0.362 OA
ENDROOT
BRANCH   5   7
HETATM    7  C3  UNL     1     -34.614  13.696  -4.805  1.00 20.00     0.265 C 
HETATM    8  O8  UNL     1     -34.773  12.484  -4.860  1.00 20.00    -0.265 OA
BRANCH   7   9
HETATM    9  O10 UNL     1     -34.364  14.528  -5.855  1.00 20.00    -0.326 OA
HETATM   10  C7  UNL     1     -35.197  14.336  -7.003  1.00 20.00     0.213 C 
ENDBRANCH   7   9
ENDBRANCH   5   7
TORSDOF 2
ENDMDL
MODEL 4
REMARK VINA RESULT:      -4.1     11.233     12.167
REMARK  2 active torsions:
REMARK  status: ('A' for Active; 'I' for Inactive)
REMARK    1  A    between atoms: C3_3  and  C6_6 
REMARK    2  A    between atoms: C3_3  and  O10_10 
ROOT
HETATM    1  C1  UNL     1     -35.950  14.114  -4.183  1.00 20.00    -0.002 C 
HETATM    2  C2  UNL     1     -34.991  13.187  -4.311  1.00 20.00     0.130 C 
HETATM    3  C4  UNL     1     -35.676  15.446  -3.560  1.00 20.00     0.046 C 
HETATM    4  C5  UNL     1     -33.291  14.689  -3.677  1.00 20.00     0.189 C 
HETATM    5  C6  UNL     1     -34.327  15.435  -2.839  1.00 20.00     0.113 C 
HETATM    6  O9  UNL     1     -33.676  13.336  -3.955  1.00 20.00    -0.362 OA
ENDROOT
BRANCH   5   7
HETATM    7  C3  UNL     1     -33.860  16.832  -2.574  1.00 20.00     0.265 C 
HETATM    8  O8  UNL     1     -33.761  17.695  -3.435  1.00 20.00    -0.265 OA
BRANCH   7   9
HETATM    9  O10 UNL     1     -33.575  16.974  -1.249  1.00 20.00    -0.326 OA
HETATM   10  C7  UNL     1     -34.707  16.978  -0.373  1.00 20.00     0.213 C 
ENDBRANCH   7   9
ENDBRANCH   5   7
TORSDOF 2
ENDMDL
MODEL 5
REMARK VINA RESULT:      -4.1     11.757     12.414
REMARK  2 active torsions:
REMARK  status: ('A' for Active; 'I' for Inactive)
REMARK    1  A    between atoms: C3_3  and  C6_6 
REMARK    2  A    between atoms: C3_3  and  O10_10 
ROOT
HETATM    1  C1  UNL     1     -35.335  16.061  -2.334  1.00 20.00    -0.002 C 
HETATM    2  C2  UNL     1     -34.052  16.417  -2.191  1.00 20.00     0.130 C 
HETATM    3  C4  UNL     1     -35.771  15.108  -3.401  1.00 20.00     0.046 C 
HETATM    4  C5  UNL     1     -33.307  14.791  -3.723  1.00 20.00     0.189 C 
HETATM    5  C6  UNL     1     -34.657  14.906  -4.429  1.00 20.00     0.113 C 
HETATM    6  O9  UNL     1     -32.999  15.945  -2.930  1.00 20.00    -0.362 OA
ENDROOT
BRANCH   5   7
HETATM    7  C3  UNL     1     -34.912  13.679  -5.248  1.00 20.00     0.265 C 
HETATM    8  O8  UNL     1     -34.753  12.538  -4.839  1.00 20.00    -0.265 OA
BRANCH   7   9
HETATM    9  O10 UNL     1     -35.340  14.041  -6.490  1.00 20.00    -0.326 OA
HETATM   10  C7  UNL     1     -34.484  14.945  -7.197  1.00 20.00     0.213 C 
ENDBRANCH   7   9
ENDBRANCH   5   7
TORSDOF 2
ENDMDL
MODEL 6
REMARK VINA RESULT:      -4.0     11.342     12.287
REMARK  2 active torsions:
REMARK  status: ('A' for Active; 'I' for Inactive)
REMARK    1  A    between atoms: C3_3  and  C6_6 
REMARK    2  A    between atoms: C3_3  and  O10_10 
ROOT
HETATM    1  C1  UNL     1     -35.913  14.009  -4.239  1.00 20.00    -0.002 C 
HETATM    2  C2  UNL     1     -34.915  13.154  -4.492  1.00 20.00     0.130 C 
HETATM    3  C4  UNL     1     -35.692  15.266  -3.459  1.00 20.00     0.046 C 
HETATM    4  C5  UNL     1     -33.276  14.647  -3.697  1.00 20.00     0.189 C 
HETATM    5  C6  UNL     1     -34.331  15.233  -2.761  1.00 20.00     0.113 C 
HETATM    6  O9  UNL     1     -33.602  13.322  -4.135  1.00 20.00    -0.362 OA
ENDROOT
BRANCH   5   7
HETATM    7  C3  UNL     1     -33.927  16.608  -2.330  1.00 20.00     0.265 C 
HETATM    8  O8  UNL     1     -33.842  16.962  -1.163  1.00 20.00    -0.265 OA
BRANCH   7   9
HETATM    9  O10 UNL     1     -33.675  17.374  -3.429  1.00 20.00    -0.326 OA
HETATM   10  C7  UNL     1     -33.718  18.788  -3.216  1.00 20.00     0.213 C 
ENDBRANCH   7   9
ENDBRANCH   5   7
TORSDOF 2
ENDMDL
MODEL 7
REMARK VINA RESULT:      -4.0     11.562     13.245
REMARK  2 active torsions:
REMARK  status: ('A' for Active; 'I' for Inactive)
REMARK    1  A    between atoms: C3_3  and  C6_6 
REMARK    2  A    between atoms: C3_3  and  O10_10 
ROOT
HETATM    1  C1  UNL     1     -33.595  16.877  -3.921  1.00 20.00    -0.002 C 
HETATM    2  C2  UNL     1     -33.384  17.083  -5.227  1.00 20.00     0.130 C 
HETATM    3  C4  UNL     1     -34.449  15.750  -3.432  1.00 20.00     0.046 C 
HETATM    4  C5  UNL     1     -34.377  15.035  -5.832  1.00 20.00     0.189 C 
HETATM    5  C6  UNL     1     -35.251  15.144  -4.584  1.00 20.00     0.113 C 
HETATM    6  O9  UNL     1     -33.852  16.302  -6.251  1.00 20.00    -0.362 OA
ENDROOT
BRANCH   5   7
HETATM    7  C3  UNL     1     -35.777  13.795  -4.209  1.00 20.00     0.265 C 
HETATM    8  O8  UNL     1     -35.135  12.758  -4.307  1.00 20.00    -0.265 OA
BRANCH   7   9
HETATM    9  O10 UNL     1     -37.055  13.915  -3.750  1.00 20.00    -0.326 OA
HETATM   10  C7  UNL     1     -37.862  14.885  -4.425  1.00 20.00     0.213 C 
ENDBRANCH   7   9
ENDBRANCH   5   7
TORSDOF 2
ENDMDL
MODEL 8
REMARK VINA RESULT:      -4.0     11.275     12.650
REMARK  2 active torsions:
REMARK  status: ('A' for Active; 'I' for Inactive)
REMARK    1  A    between atoms: C3_3  and  C6_6 
REMARK    2  A    between atoms: C3_3  and  O10_10 
ROOT
HETATM    1  C1  UNL     1     -33.644  15.319  -3.215  1.00 20.00    -0.002 C 
HETATM    2  C2  UNL     1     -33.115  14.167  -3.647  1.00 20.00     0.130 C 
HETATM    3  C4  UNL     1     -35.076  15.668  -3.466  1.00 20.00     0.046 C 
HETATM    4  C5  UNL     1     -35.216  13.299  -4.267  1.00 20.00     0.189 C 
HETATM    5  C6  UNL     1     -35.683  14.732  -4.512  1.00 20.00     0.113 C 
HETATM    6  O9  UNL     1     -33.788  13.170  -4.304  1.00 20.00    -0.362 OA
ENDROOT
BRANCH   5   7
HETATM    7  C3  UNL     1     -37.178  14.796  -4.473  1.00 20.00     0.265 C 
HETATM    8  O8  UNL     1     -37.869  14.169  -3.684  1.00 20.00    -0.265 OA
BRANCH   7   9
HETATM    9  O10 UNL     1     -37.622  15.649  -5.439  1.00 20.00    -0.326 OA
HETATM   10  C7  UNL     1     -37.205  15.340  -6.772  1.00 20.00     0.213 C 
ENDBRANCH   7   9
ENDBRANCH   5   7
TORSDOF 2
ENDMDL
MODEL 9
REMARK VINA RESULT:      -4.0     11.556     12.683
REMARK  2 active torsions:
REMARK  status: ('A' for Active; 'I' for Inactive)
REMARK    1  A    between atoms: C3_3  and  C6_6 
REMARK    2  A    between atoms: C3_3  and  O10_10 
ROOT
HETATM    1  C1  UNL     1     -33.426  13.679  -3.745  1.00 20.00    -0.002 C 
HETATM    2  C2  UNL     1     -32.862  14.889  -3.650  1.00 20.00     0.130 C 
HETATM    3  C4  UNL     1     -34.880  13.512  -4.053  1.00 20.00     0.046 C 
HETATM    4  C5  UNL     1     -34.777  15.977  -4.487  1.00 20.00     0.189 C 
HETATM    5  C6  UNL     1     -35.618  14.844  -3.903  1.00 20.00     0.113 C 
HETATM    6  O9  UNL     1     -33.491  16.089  -3.862  1.00 20.00    -0.362 OA
ENDROOT
BRANCH   5   7
HETATM    7  C3  UNL     1     -36.948  14.789  -4.588  1.00 20.00     0.265 C 
HETATM    8  O8  UNL     1     -37.146  15.177  -5.730  1.00 20.00    -0.265 OA
BRANCH   7   9
HETATM    9  O10 UNL     1     -37.872  14.249  -3.744  1.00 20.00    -0.326 OA
HETATM   10  C7  UNL     1     -39.013  15.069  -3.475  1.00 20.00     0.213 C 
ENDBRANCH   7   9
ENDBRANCH   5   7
TORSDOF 2
ENDMDL
