MODEL 1
REMARK VINA RESULT:      -4.9      0.000      0.000
REMARK  1 active torsions:
REMARK  status: ('A' for Active; 'I' for Inactive)
REMARK    1  A    between atoms: C2_2  and  C3_3 
ROOT
HETATM    1  C1  UNL     1     -35.870  16.250  -2.907  1.00 20.00    -0.009 C 
HETATM    2  C2  UNL     1     -34.688  16.109  -2.234  1.00 20.00    -0.007 C 
HETATM    3  C4  UNL     1     -34.383  13.339  -4.707  1.00 20.00     0.002 C 
HETATM    4  C5  UNL     1     -35.616  14.273  -4.857  1.00 20.00     0.009 C 
HETATM    5  C6  UNL     1     -33.590  13.897  -3.485  1.00 20.00     0.015 C 
HETATM    6  C7  UNL     1     -35.636  14.882  -3.485  1.00 20.00     0.021 C 
HETATM    7  C8  UNL     1     -34.114  15.322  -3.398  1.00 20.00    -0.007 C 
HETATM    8  C10 UNL     1     -33.382  16.239  -4.399  1.00 20.00     0.021 C 
ENDROOT
BRANCH   2   9
HETATM    9  C3  UNL     1     -34.165  16.940  -1.161  1.00 20.00     0.152 C 
HETATM   10  C9  UNL     1     -34.987  17.090   0.100  1.00 20.00     0.096 C 
HETATM   11  O11 UNL     1     -33.075  17.518  -1.275  1.00 20.00    -0.293 OA
ENDBRANCH   2   9
TORSDOF 1
ENDMDL
MODEL 2
REMARK VINA RESULT:      -4.8      3.177      4.401
REMARK  1 active torsions:
REMARK  status: ('A' for Active; 'I' for Inactive)
REMARK    1  A    between atoms: C2_2  and  C3_3 
ROOT
HETATM    1  C1  UNL     1     -35.061  14.429  -6.844  1.00 20.00    -0.009 C 
HETATM    2  C2  UNL     1     -34.452  14.571  -5.628  1.00 20.00    -0.007 C 
HETATM    3  C4  UNL     1     -34.185  18.055  -6.920  1.00 20.00     0.002 C 
HETATM    4  C5  UNL     1     -34.997  17.053  -7.786  1.00 20.00     0.009 C 
HETATM    5  C6  UNL     1     -33.706  17.236  -5.681  1.00 20.00     0.015 C 
HETATM    6  C7  UNL     1     -34.477  15.761  -7.226  1.00 20.00     0.021 C 
HETATM    7  C8  UNL     1     -34.681  16.070  -5.683  1.00 20.00    -0.007 C 
HETATM    8  C10 UNL     1     -36.013  16.467  -5.012  1.00 20.00     0.021 C 
ENDROOT
BRANCH   2   9
HETATM    9  C3  UNL     1     -34.280  13.567  -4.590  1.00 20.00     0.152 C 
HETATM   10  C9  UNL     1     -33.139  13.731  -3.611  1.00 20.00     0.096 C 
HETATM   11  O11 UNL     1     -35.044  12.595  -4.510  1.00 20.00    -0.293 OA
ENDBRANCH   2   9
TORSDOF 1
ENDMDL
MODEL 3
REMARK VINA RESULT:      -4.8      1.754      4.071
REMARK  1 active torsions:
REMARK  status: ('A' for Active; 'I' for Inactive)
REMARK    1  A    between atoms: C2_2  and  C3_3 
ROOT
HETATM    1  C1  UNL     1     -33.544  16.308  -4.240  1.00 20.00    -0.009 C 
HETATM    2  C2  UNL     1     -33.842  15.209  -3.483  1.00 20.00    -0.007 C 
HETATM    3  C4  UNL     1     -34.727  17.928  -1.094  1.00 20.00     0.002 C 
HETATM    4  C5  UNL     1     -34.321  18.367  -2.528  1.00 20.00     0.009 C 
HETATM    5  C6  UNL     1     -34.643  16.370  -1.100  1.00 20.00     0.015 C 
HETATM    6  C7  UNL     1     -33.613  17.123  -2.978  1.00 20.00     0.021 C 
HETATM    7  C8  UNL     1     -34.723  16.060  -2.586  1.00 20.00    -0.007 C 
HETATM    8  C10 UNL     1     -36.188  16.068  -3.070  1.00 20.00     0.021 C 
ENDROOT
BRANCH   2   9
HETATM    9  C3  UNL     1     -33.770  13.808  -3.869  1.00 20.00     0.152 C 
HETATM   10  C9  UNL     1     -34.833  13.260  -4.794  1.00 20.00     0.096 C 
HETATM   11  O11 UNL     1     -32.864  13.077  -3.446  1.00 20.00    -0.293 OA
ENDBRANCH   2   9
TORSDOF 1
ENDMDL
MODEL 4
REMARK VINA RESULT:      -4.7      1.141      1.499
REMARK  1 active torsions:
REMARK  status: ('A' for Active; 'I' for Inactive)
REMARK    1  A    between atoms: C2_2  and  C3_3 
ROOT
HETATM    1  C1  UNL     1     -33.985  17.009  -4.527  1.00 20.00    -0.009 C 
HETATM    2  C2  UNL     1     -34.169  16.552  -3.252  1.00 20.00    -0.007 C 
HETATM    3  C4  UNL     1     -34.845  13.436  -5.180  1.00 20.00     0.002 C 
HETATM    4  C5  UNL     1     -34.353  14.665  -5.994  1.00 20.00     0.009 C 
HETATM    5  C6  UNL     1     -34.897  13.919  -3.697  1.00 20.00     0.015 C 
HETATM    6  C7  UNL     1     -34.663  15.756  -5.010  1.00 20.00     0.021 C 
HETATM    7  C8  UNL     1     -33.972  15.125  -3.729  1.00 20.00    -0.007 C 
HETATM    8  C10 UNL     1     -32.496  14.689  -3.623  1.00 20.00     0.021 C 
ENDROOT
BRANCH   2   9
HETATM    9  C3  UNL     1     -33.995  17.282  -2.005  1.00 20.00     0.152 C 
HETATM   10  C9  UNL     1     -34.571  16.691  -0.738  1.00 20.00     0.096 C 
HETATM   11  O11 UNL     1     -33.396  18.366  -1.980  1.00 20.00    -0.293 OA
ENDBRANCH   2   9
TORSDOF 1
ENDMDL
MODEL 5
REMARK VINA RESULT:      -4.6      2.260      4.279
REMARK  1 active torsions:
REMARK  status: ('A' for Active; 'I' for Inactive)
REMARK    1  A    between atoms: C2_2  and  C3_3 
ROOT
HETATM    1  C1  UNL     1     -33.771  14.594  -3.042  1.00 20.00    -0.009 C 
HETATM    2  C2  UNL     1     -34.581  14.715  -4.137  1.00 20.00    -0.007 C 
HETATM    3  C4  UNL     1     -34.898  18.134  -2.690  1.00 20.00     0.002 C 
HETATM    4  C5  UNL     1     -33.879  17.180  -2.006  1.00 20.00     0.009 C 
HETATM    5  C6  UNL     1     -35.511  17.308  -3.864  1.00 20.00     0.015 C 
HETATM    6  C7  UNL     1     -34.384  15.864  -2.522  1.00 20.00     0.021 C 
HETATM    7  C8  UNL     1     -34.462  16.226  -4.064  1.00 20.00    -0.007 C 
HETATM    8  C10 UNL     1     -33.293  16.746  -4.927  1.00 20.00     0.021 C 
ENDROOT
BRANCH   2   9
HETATM    9  C3  UNL     1     -34.844  13.725  -5.170  1.00 20.00     0.152 C 
HETATM   10  C9  UNL     1     -35.193  14.210  -6.560  1.00 20.00     0.096 C 
HETATM   11  O11 UNL     1     -34.792  12.513  -4.920  1.00 20.00    -0.293 OA
ENDBRANCH   2   9
TORSDOF 1
ENDMDL
MODEL 6
REMARK VINA RESULT:      -4.6      2.174      4.347
REMARK  1 active torsions:
REMARK  status: ('A' for Active; 'I' for Inactive)
REMARK    1  A    between atoms: C2_2  and  C3_3 
ROOT
HETATM    1  C1  UNL     1     -33.621  16.153  -5.044  1.00 20.00    -0.009 C 
HETATM    2  C2  UNL     1     -34.339  15.074  -4.608  1.00 20.00    -0.007 C 
HETATM    3  C4  UNL     1     -34.354  17.171  -1.529  1.00 20.00     0.002 C 
HETATM    4  C5  UNL     1     -33.727  17.807  -2.801  1.00 20.00     0.009 C 
HETATM    5  C6  UNL     1     -34.829  15.751  -1.969  1.00 20.00     0.015 C 
HETATM    6  C7  UNL     1     -33.478  16.564  -3.604  1.00 20.00     0.021 C 
HETATM    7  C8  UNL     1     -34.917  15.907  -3.479  1.00 20.00    -0.007 C 
HETATM    8  C10 UNL     1     -36.249  16.571  -3.886  1.00 20.00     0.021 C 
ENDROOT
BRANCH   2   9
HETATM    9  C3  UNL     1     -34.743  13.901  -5.369  1.00 20.00     0.152 C 
HETATM   10  C9  UNL     1     -35.203  14.093  -6.797  1.00 20.00     0.096 C 
HETATM   11  O11 UNL     1     -34.719  12.772  -4.861  1.00 20.00    -0.293 OA
ENDBRANCH   2   9
TORSDOF 1
ENDMDL
MODEL 7
REMARK VINA RESULT:      -4.6      2.438      3.422
REMARK  1 active torsions:
REMARK  status: ('A' for Active; 'I' for Inactive)
REMARK    1  A    between atoms: C2_2  and  C3_3 
ROOT
HETATM    1  C1  UNL     1     -35.825  16.571  -4.698  1.00 20.00    -0.009 C 
HETATM    2  C2  UNL     1     -36.360  15.521  -4.006  1.00 20.00    -0.007 C 
HETATM    3  C4  UNL     1     -32.733  14.705  -3.758  1.00 20.00     0.002 C 
HETATM    4  C5  UNL     1     -33.097  16.063  -4.418  1.00 20.00     0.009 C 
HETATM    5  C6  UNL     1     -34.098  14.059  -3.364  1.00 20.00     0.015 C 
HETATM    6  C7  UNL     1     -34.535  15.799  -4.756  1.00 20.00     0.021 C 
HETATM    7  C8  UNL     1     -35.019  15.269  -3.341  1.00 20.00    -0.007 C 
HETATM    8  C10 UNL     1     -34.896  16.028  -2.003  1.00 20.00     0.021 C 
ENDROOT
BRANCH   2   9
HETATM    9  C3  UNL     1     -37.759  15.278  -3.687  1.00 20.00     0.152 C 
HETATM   10  C9  UNL     1     -38.610  16.448  -3.245  1.00 20.00     0.096 C 
HETATM   11  O11 UNL     1     -38.243  14.141  -3.766  1.00 20.00    -0.293 OA
ENDBRANCH   2   9
TORSDOF 1
ENDMDL
MODEL 8
REMARK VINA RESULT:      -4.5     11.810     12.780
REMARK  1 active torsions:
REMARK  status: ('A' for Active; 'I' for Inactive)
REMARK    1  A    between atoms: C2_2  and  C3_3 
ROOT
HETATM    1  C1  UNL     1     -33.498   6.997   5.170  1.00 20.00    -0.009 C 
HETATM    2  C2  UNL     1     -33.207   6.161   4.128  1.00 20.00    -0.007 C 
HETATM    3  C4  UNL     1     -35.311   3.910   6.223  1.00 20.00     0.002 C 
HETATM    4  C5  UNL     1     -35.185   5.385   6.697  1.00 20.00     0.009 C 
HETATM    5  C6  UNL     1     -34.465   3.824   4.915  1.00 20.00     0.015 C 
HETATM    6  C7  UNL     1     -33.955   5.787   5.937  1.00 20.00     0.021 C 
HETATM    7  C8  UNL     1     -34.390   5.284   4.496  1.00 20.00    -0.007 C 
HETATM    8  C10 UNL     1     -35.668   5.706   3.742  1.00 20.00     0.021 C 
ENDROOT
BRANCH   2   9
HETATM    9  C3  UNL     1     -32.451   6.463   2.922  1.00 20.00     0.152 C 
HETATM   10  C9  UNL     1     -32.131   7.909   2.616  1.00 20.00     0.096 C 
HETATM   11  O11 UNL     1     -32.083   5.560   2.158  1.00 20.00    -0.293 OA
ENDBRANCH   2   9
TORSDOF 1
ENDMDL
MODEL 9
REMARK VINA RESULT:      -4.5      1.431      2.040
REMARK  1 active torsions:
REMARK  status: ('A' for Active; 'I' for Inactive)
REMARK    1  A    between atoms: C2_2  and  C3_3 
ROOT
HETATM    1  C1  UNL     1     -34.541  14.765  -3.158  1.00 20.00    -0.009 C 
HETATM    2  C2  UNL     1     -34.198  16.086  -3.237  1.00 20.00    -0.007 C 
HETATM    3  C4  UNL     1     -34.316  15.210  -6.857  1.00 20.00     0.002 C 
HETATM    4  C5  UNL     1     -34.769  14.108  -5.859  1.00 20.00     0.009 C 
HETATM    5  C6  UNL     1     -33.935  16.436  -5.971  1.00 20.00     0.015 C 
HETATM    6  C7  UNL     1     -34.141  14.636  -4.603  1.00 20.00     0.021 C 
HETATM    7  C8  UNL     1     -34.674  16.128  -4.678  1.00 20.00    -0.007 C 
HETATM    8  C10 UNL     1     -36.154  16.553  -4.777  1.00 20.00     0.021 C 
ENDROOT
BRANCH   2   9
HETATM    9  C3  UNL     1     -34.045  17.038  -2.148  1.00 20.00     0.152 C 
HETATM   10  C9  UNL     1     -34.575  16.661  -0.782  1.00 20.00     0.096 C 
HETATM   11  O11 UNL     1     -33.501  18.135  -2.331  1.00 20.00    -0.293 OA
ENDBRANCH   2   9
TORSDOF 1
ENDMDL
