MODEL 1
REMARK VINA RESULT:      -5.2      0.000      0.000
REMARK  2 active torsions:
REMARK  status: ('A' for Active; 'I' for Inactive)
REMARK    1  A    between atoms: C2_2  and  C8_8 
REMARK    2  A    between atoms: C3_3  and  C7_7 
ROOT
HETATM    1  C1  UNL     1     -33.657   6.205   4.061  1.00 20.00    -0.062 A 
HETATM    2  C2  UNL     1     -33.768   6.016   5.357  1.00 20.00    -0.076 C 
HETATM    3  C4  UNL     1     -33.690   5.606   2.788  1.00 20.00     0.055 A 
HETATM    4  C7  UNL     1     -33.435   7.141   3.026  1.00 20.00     0.120 A 
HETATM    5  C9  UNL     1     -33.626   7.138   6.365  1.00 20.00     0.044 C 
ENDROOT
BRANCH   2   6
HETATM    6  C8  UNL     1     -34.048   4.659   5.965  1.00 20.00     0.014 A 
HETATM    7  C5  UNL     1     -35.341   4.490   6.660  1.00 20.00     0.010 A 
HETATM    8  C6  UNL     1     -35.103   3.844   5.329  1.00 20.00     0.010 A 
ENDBRANCH   2   6
BRANCH   4   9
HETATM    9  C3  UNL     1     -32.073   7.613   2.909  1.00 20.00     0.181 C 
HETATM   10  O10 UNL     1     -31.352   7.436   3.930  1.00 20.00    -0.647 OA
HETATM   11  O11 UNL     1     -31.788   8.139   1.797  1.00 20.00    -0.647 OA
ENDBRANCH   4   9
TORSDOF 2
ENDMDL
MODEL 2
REMARK VINA RESULT:      -4.9      2.145      4.561
REMARK  2 active torsions:
REMARK  status: ('A' for Active; 'I' for Inactive)
REMARK    1  A    between atoms: C2_2  and  C8_8 
REMARK    2  A    between atoms: C3_3  and  C7_7 
ROOT
HETATM    1  C1  UNL     1     -33.460   6.318   3.562  1.00 20.00    -0.062 A 
HETATM    2  C2  UNL     1     -32.619   7.239   3.147  1.00 20.00    -0.076 C 
HETATM    3  C4  UNL     1     -34.666   5.639   3.306  1.00 20.00     0.055 A 
HETATM    4  C7  UNL     1     -33.749   5.352   4.553  1.00 20.00     0.120 A 
HETATM    5  C9  UNL     1     -31.351   7.590   3.897  1.00 20.00     0.044 C 
ENDROOT
BRANCH   2   6
HETATM    6  C8  UNL     1     -32.838   8.036   1.879  1.00 20.00     0.014 A 
HETATM    7  C5  UNL     1     -32.508   9.475   1.926  1.00 20.00     0.010 A 
HETATM    8  C6  UNL     1     -31.634   8.518   1.173  1.00 20.00     0.010 A 
ENDBRANCH   2   6
BRANCH   4   9
HETATM    9  C3  UNL     1     -34.174   5.889   5.826  1.00 20.00     0.181 C 
HETATM   10  O10 UNL     1     -33.537   6.905   6.222  1.00 20.00    -0.647 OA
HETATM   11  O11 UNL     1     -35.129   5.268   6.371  1.00 20.00    -0.647 OA
ENDBRANCH   4   9
TORSDOF 2
ENDMDL
MODEL 3
REMARK VINA RESULT:      -4.9      2.676      4.634
REMARK  2 active torsions:
REMARK  status: ('A' for Active; 'I' for Inactive)
REMARK    1  A    between atoms: C2_2  and  C8_8 
REMARK    2  A    between atoms: C3_3  and  C7_7 
ROOT
HETATM    1  C1  UNL     1     -33.767   6.104   4.550  1.00 20.00    -0.062 A 
HETATM    2  C2  UNL     1     -33.307   6.028   3.320  1.00 20.00    -0.076 C 
HETATM    3  C4  UNL     1     -33.557   6.615   5.844  1.00 20.00     0.055 A 
HETATM    4  C7  UNL     1     -34.799   5.735   5.442  1.00 20.00     0.120 A 
HETATM    5  C9  UNL     1     -34.019   5.263   2.224  1.00 20.00     0.044 C 
ENDROOT
BRANCH   2   6
HETATM    6  C8  UNL     1     -32.021   6.698   2.884  1.00 20.00     0.014 A 
HETATM    7  C5  UNL     1     -32.139   8.029   2.255  1.00 20.00     0.010 A 
HETATM    8  C6  UNL     1     -31.596   7.890   3.644  1.00 20.00     0.010 A 
ENDBRANCH   2   6
BRANCH   4   9
HETATM    9  C3  UNL     1     -34.788   4.349   5.850  1.00 20.00     0.181 C 
HETATM   10  O10 UNL     1     -34.311   4.129   6.998  1.00 20.00    -0.647 OA
HETATM   11  O11 UNL     1     -35.259   3.542   5.000  1.00 20.00    -0.647 OA
ENDBRANCH   4   9
TORSDOF 2
ENDMDL
MODEL 4
REMARK VINA RESULT:      -4.9      1.293      2.221
REMARK  2 active torsions:
REMARK  status: ('A' for Active; 'I' for Inactive)
REMARK    1  A    between atoms: C2_2  and  C8_8 
REMARK    2  A    between atoms: C3_3  and  C7_7 
ROOT
HETATM    1  C1  UNL     1     -32.550   6.848   3.605  1.00 20.00    -0.062 A 
HETATM    2  C2  UNL     1     -33.649   6.150   3.791  1.00 20.00    -0.076 C 
HETATM    3  C4  UNL     1     -31.544   7.622   4.212  1.00 20.00     0.055 A 
HETATM    4  C7  UNL     1     -31.596   7.310   2.670  1.00 20.00     0.120 A 
HETATM    5  C9  UNL     1     -34.385   5.463   2.659  1.00 20.00     0.044 C 
ENDROOT
BRANCH   2   6
HETATM    6  C8  UNL     1     -34.282   5.967   5.154  1.00 20.00     0.014 A 
HETATM    7  C5  UNL     1     -35.224   4.840   5.309  1.00 20.00     0.010 A 
HETATM    8  C6  UNL     1     -33.863   4.785   5.934  1.00 20.00     0.010 A 
ENDBRANCH   2   6
BRANCH   4   9
HETATM    9  C3  UNL     1     -32.057   8.364   1.796  1.00 20.00     0.181 C 
HETATM   10  O10 UNL     1     -32.997   9.072   2.254  1.00 20.00    -0.647 OA
HETATM   11  O11 UNL     1     -31.455   8.436   0.688  1.00 20.00    -0.647 OA
ENDBRANCH   4   9
TORSDOF 2
ENDMDL
MODEL 5
REMARK VINA RESULT:      -4.8     11.498     12.868
REMARK  2 active torsions:
REMARK  status: ('A' for Active; 'I' for Inactive)
REMARK    1  A    between atoms: C2_2  and  C8_8 
REMARK    2  A    between atoms: C3_3  and  C7_7 
ROOT
HETATM    1  C1  UNL     1     -33.617  15.876  -3.074  1.00 20.00    -0.062 A 
HETATM    2  C2  UNL     1     -33.951  16.812  -2.213  1.00 20.00    -0.076 C 
HETATM    3  C4  UNL     1     -32.995  15.590  -4.303  1.00 20.00     0.055 A 
HETATM    4  C7  UNL     1     -33.638  14.495  -3.373  1.00 20.00     0.120 A 
HETATM    5  C9  UNL     1     -34.686  16.515  -0.922  1.00 20.00     0.044 C 
ENDROOT
BRANCH   2   6
HETATM    6  C8  UNL     1     -33.633  18.276  -2.432  1.00 20.00     0.014 A 
HETATM    7  C5  UNL     1     -34.520  19.260  -1.778  1.00 20.00     0.010 A 
HETATM    8  C6  UNL     1     -33.129  19.033  -1.268  1.00 20.00     0.010 A 
ENDBRANCH   2   6
BRANCH   4   9
HETATM    9  C3  UNL     1     -34.928  13.972  -3.759  1.00 20.00     0.181 C 
HETATM   10  O10 UNL     1     -35.907  14.741  -3.550  1.00 20.00    -0.647 OA
HETATM   11  O11 UNL     1     -34.902  12.811  -4.257  1.00 20.00    -0.647 OA
ENDBRANCH   4   9
TORSDOF 2
ENDMDL
MODEL 6
REMARK VINA RESULT:      -4.6     11.821     12.664
REMARK  2 active torsions:
REMARK  status: ('A' for Active; 'I' for Inactive)
REMARK    1  A    between atoms: C2_2  and  C8_8 
REMARK    2  A    between atoms: C3_3  and  C7_7 
ROOT
HETATM    1  C1  UNL     1     -34.620  14.795  -3.495  1.00 20.00    -0.062 A 
HETATM    2  C2  UNL     1     -34.962  15.819  -2.745  1.00 20.00    -0.076 C 
HETATM    3  C4  UNL     1     -33.678  13.773  -3.715  1.00 20.00     0.055 A 
HETATM    4  C7  UNL     1     -34.958  13.989  -4.606  1.00 20.00     0.120 A 
HETATM    5  C9  UNL     1     -36.210  16.640  -2.996  1.00 20.00     0.044 C 
ENDROOT
BRANCH   2   6
HETATM    6  C8  UNL     1     -34.141  16.274  -1.557  1.00 20.00     0.014 A 
HETATM    7  C5  UNL     1     -33.929  17.728  -1.407  1.00 20.00     0.010 A 
HETATM    8  C6  UNL     1     -34.856  16.995  -0.485  1.00 20.00     0.010 A 
ENDBRANCH   2   6
BRANCH   4   9
HETATM    9  C3  UNL     1     -34.771  14.614  -5.895  1.00 20.00     0.181 C 
HETATM   10  O10 UNL     1     -34.077  15.668  -5.887  1.00 20.00    -0.647 OA
HETATM   11  O11 UNL     1     -35.328  14.018  -6.859  1.00 20.00    -0.647 OA
ENDBRANCH   4   9
TORSDOF 2
ENDMDL
MODEL 7
REMARK VINA RESULT:      -4.6     11.951     12.769
REMARK  2 active torsions:
REMARK  status: ('A' for Active; 'I' for Inactive)
REMARK    1  A    between atoms: C2_2  and  C8_8 
REMARK    2  A    between atoms: C3_3  and  C7_7 
ROOT
HETATM    1  C1  UNL     1     -34.273  16.290  -2.085  1.00 20.00    -0.062 A 
HETATM    2  C2  UNL     1     -34.104  15.453  -3.085  1.00 20.00    -0.076 C 
HETATM    3  C4  UNL     1     -35.183  16.830  -1.157  1.00 20.00     0.055 A 
HETATM    4  C7  UNL     1     -33.664  17.236  -1.230  1.00 20.00     0.120 A 
HETATM    5  C9  UNL     1     -32.770  15.259  -3.776  1.00 20.00     0.044 C 
ENDROOT
BRANCH   2   6
HETATM    6  C8  UNL     1     -35.227  14.603  -3.639  1.00 20.00     0.014 A 
HETATM    7  C5  UNL     1     -35.289  14.447  -5.107  1.00 20.00     0.010 A 
HETATM    8  C6  UNL     1     -34.853  13.306  -4.239  1.00 20.00     0.010 A 
ENDBRANCH   2   6
BRANCH   4   9
HETATM    9  C3  UNL     1     -33.346  18.504  -1.847  1.00 20.00     0.181 C 
HETATM   10  O10 UNL     1     -32.602  19.263  -1.167  1.00 20.00    -0.647 OA
HETATM   11  O11 UNL     1     -33.858  18.681  -2.988  1.00 20.00    -0.647 OA
ENDBRANCH   4   9
TORSDOF 2
ENDMDL
MODEL 8
REMARK VINA RESULT:      -4.6     11.476     12.494
REMARK  2 active torsions:
REMARK  status: ('A' for Active; 'I' for Inactive)
REMARK    1  A    between atoms: C2_2  and  C8_8 
REMARK    2  A    between atoms: C3_3  and  C7_7 
ROOT
HETATM    1  C1  UNL     1     -35.393  15.525  -3.635  1.00 20.00    -0.062 A 
HETATM    2  C2  UNL     1     -34.562  16.464  -3.241  1.00 20.00    -0.076 C 
HETATM    3  C4  UNL     1     -36.613  14.868  -3.389  1.00 20.00     0.055 A 
HETATM    4  C7  UNL     1     -35.656  14.515  -4.588  1.00 20.00     0.120 A 
HETATM    5  C9  UNL     1     -33.263  16.765  -3.959  1.00 20.00     0.044 C 
ENDROOT
BRANCH   2   6
HETATM    6  C8  UNL     1     -34.826  17.334  -2.030  1.00 20.00     0.014 A 
HETATM    7  C5  UNL     1     -34.718  16.690  -0.705  1.00 20.00     0.010 A 
HETATM    8  C6  UNL     1     -33.669  17.655  -1.170  1.00 20.00     0.010 A 
ENDBRANCH   2   6
BRANCH   4   9
HETATM    9  C3  UNL     1     -34.845  13.326  -4.459  1.00 20.00     0.181 C 
HETATM   10  O10 UNL     1     -34.169  13.246  -3.396  1.00 20.00    -0.647 OA
HETATM   11  O11 UNL     1     -34.921  12.523  -5.432  1.00 20.00    -0.647 OA
ENDBRANCH   4   9
TORSDOF 2
ENDMDL
MODEL 9
REMARK VINA RESULT:      -4.4     11.668     13.670
REMARK  2 active torsions:
REMARK  status: ('A' for Active; 'I' for Inactive)
REMARK    1  A    between atoms: C2_2  and  C8_8 
REMARK    2  A    between atoms: C3_3  and  C7_7 
ROOT
HETATM    1  C1  UNL     1     -33.836  15.286  -4.492  1.00 20.00    -0.062 A 
HETATM    2  C2  UNL     1     -34.009  15.878  -5.653  1.00 20.00    -0.076 C 
HETATM    3  C4  UNL     1     -33.726  14.058  -3.814  1.00 20.00     0.055 A 
HETATM    4  C7  UNL     1     -33.632  15.461  -3.105  1.00 20.00     0.120 A 
HETATM    5  C9  UNL     1     -34.047  17.384  -5.809  1.00 20.00     0.044 C 
ENDROOT
BRANCH   2   6
HETATM    6  C8  UNL     1     -34.187  15.109  -6.945  1.00 20.00     0.014 A 
HETATM    7  C5  UNL     1     -35.473  14.408  -7.137  1.00 20.00     0.010 A 
HETATM    8  C6  UNL     1     -35.158  15.648  -7.918  1.00 20.00     0.010 A 
ENDBRANCH   2   6
BRANCH   4   9
HETATM    9  C3  UNL     1     -34.790  15.909  -2.366  1.00 20.00     0.181 C 
HETATM   10  O10 UNL     1     -35.877  15.893  -3.008  1.00 20.00    -0.647 OA
HETATM   11  O11 UNL     1     -34.558  16.257  -1.175  1.00 20.00    -0.647 OA
ENDBRANCH   4   9
TORSDOF 2
ENDMDL
