MODEL 1
REMARK VINA RESULT:      -4.6      0.000      0.000
REMARK  1 active torsions:
REMARK  status: ('A' for Active; 'I' for Inactive)
REMARK    1  A    between atoms: C2_2  and  C6_6 
ROOT
HETATM    1  C1  UNL     1     -34.102  16.753  -3.644  1.00 20.00    -0.067 C 
HETATM    2  C3  UNL     1     -34.076  17.167  -2.372  1.00 20.00    -0.085 C 
HETATM    3  C4  UNL     1     -33.562  17.552  -4.800  1.00 20.00     0.036 C 
HETATM    4  C5  UNL     1     -33.644  16.584  -5.976  1.00 20.00     0.009 C 
HETATM    5  C6  UNL     1     -34.709  15.461  -4.124  1.00 20.00     0.080 C 
HETATM    6  C7  UNL     1     -34.842  15.695  -5.635  1.00 20.00    -0.004 C 
HETATM    7  C8  UNL     1     -34.629  16.333  -1.252  1.00 20.00     0.043 C 
HETATM    8  C9  UNL     1     -33.494  18.493  -1.978  1.00 20.00     0.043 C 
HETATM    9  C10 UNL     1     -34.923  14.440  -6.490  1.00 20.00     0.011 C 
ENDROOT
BRANCH   5  10
HETATM   10  C2  UNL     1     -33.765  14.355  -3.751  1.00 20.00     0.240 C 
HETATM   11  O11 UNL     1     -34.136  13.252  -3.360  1.00 20.00    -0.306 OA
ENDBRANCH   5  10
TORSDOF 1
ENDMDL
MODEL 2
REMARK VINA RESULT:      -4.6      1.810      2.393
REMARK  1 active torsions:
REMARK  status: ('A' for Active; 'I' for Inactive)
REMARK    1  A    between atoms: C2_2  and  C6_6 
ROOT
HETATM    1  C1  UNL     1     -35.051  15.696  -3.292  1.00 20.00    -0.067 C 
HETATM    2  C3  UNL     1     -35.338  16.534  -2.288  1.00 20.00    -0.085 C 
HETATM    3  C4  UNL     1     -33.988  14.633  -3.222  1.00 20.00     0.036 C 
HETATM    4  C5  UNL     1     -34.187  13.840  -4.510  1.00 20.00     0.009 C 
HETATM    5  C6  UNL     1     -35.702  15.714  -4.650  1.00 20.00     0.080 C 
HETATM    6  C7  UNL     1     -34.733  14.876  -5.495  1.00 20.00    -0.004 C 
HETATM    7  C8  UNL     1     -36.408  17.580  -2.406  1.00 20.00     0.043 C 
HETATM    8  C9  UNL     1     -34.610  16.484  -0.977  1.00 20.00     0.043 C 
HETATM    9  C10 UNL     1     -35.325  14.257  -6.752  1.00 20.00     0.011 C 
ENDROOT
BRANCH   5  10
HETATM   10  C2  UNL     1     -37.069  15.114  -4.500  1.00 20.00     0.240 C 
HETATM   11  O11 UNL     1     -37.305  14.136  -3.797  1.00 20.00    -0.306 OA
ENDBRANCH   5  10
TORSDOF 1
ENDMDL
MODEL 3
REMARK VINA RESULT:      -4.5      1.425      3.770
REMARK  1 active torsions:
REMARK  status: ('A' for Active; 'I' for Inactive)
REMARK    1  A    between atoms: C2_2  and  C6_6 
ROOT
HETATM    1  C1  UNL     1     -34.359  15.804  -4.577  1.00 20.00    -0.067 C 
HETATM    2  C3  UNL     1     -34.523  15.080  -5.692  1.00 20.00    -0.085 C 
HETATM    3  C4  UNL     1     -33.636  17.123  -4.529  1.00 20.00     0.036 C 
HETATM    4  C5  UNL     1     -33.893  17.623  -3.110  1.00 20.00     0.009 C 
HETATM    5  C6  UNL     1     -34.822  15.397  -3.203  1.00 20.00     0.080 C 
HETATM    6  C7  UNL     1     -34.025  16.338  -2.290  1.00 20.00    -0.004 C 
HETATM    7  C8  UNL     1     -35.252  13.767  -5.688  1.00 20.00     0.043 C 
HETATM    8  C9  UNL     1     -33.989  15.532  -7.019  1.00 20.00     0.043 C 
HETATM    9  C10 UNL     1     -34.615  16.567  -0.906  1.00 20.00     0.011 C 
ENDROOT
BRANCH   5  10
HETATM   10  C2  UNL     1     -36.309  15.599  -3.152  1.00 20.00     0.240 C 
HETATM   11  O11 UNL     1     -37.119  14.682  -3.243  1.00 20.00    -0.306 OA
ENDBRANCH   5  10
TORSDOF 1
ENDMDL
MODEL 4
REMARK VINA RESULT:      -4.5      1.659      4.304
REMARK  1 active torsions:
REMARK  status: ('A' for Active; 'I' for Inactive)
REMARK    1  A    between atoms: C2_2  and  C6_6 
ROOT
HETATM    1  C1  UNL     1     -35.101  15.246  -5.464  1.00 20.00    -0.067 C 
HETATM    2  C3  UNL     1     -35.339  15.506  -6.756  1.00 20.00    -0.085 C 
HETATM    3  C4  UNL     1     -34.956  13.859  -4.898  1.00 20.00     0.036 C 
HETATM    4  C5  UNL     1     -34.505  14.102  -3.461  1.00 20.00     0.009 C 
HETATM    5  C6  UNL     1     -34.989  16.282  -4.377  1.00 20.00     0.080 C 
HETATM    6  C7  UNL     1     -35.145  15.445  -3.101  1.00 20.00    -0.004 C 
HETATM    7  C8  UNL     1     -35.477  16.909  -7.273  1.00 20.00     0.043 C 
HETATM    8  C9  UNL     1     -35.485  14.413  -7.774  1.00 20.00     0.043 C 
HETATM    9  C10 UNL     1     -34.572  16.064  -1.835  1.00 20.00     0.011 C 
ENDROOT
BRANCH   5  10
HETATM   10  C2  UNL     1     -33.650  16.944  -4.523  1.00 20.00     0.240 C 
HETATM   11  O11 UNL     1     -32.637  16.349  -4.880  1.00 20.00    -0.306 OA
ENDBRANCH   5  10
TORSDOF 1
ENDMDL
MODEL 5
REMARK VINA RESULT:      -4.3      1.857      3.786
REMARK  1 active torsions:
REMARK  status: ('A' for Active; 'I' for Inactive)
REMARK    1  A    between atoms: C2_2  and  C6_6 
ROOT
HETATM    1  C1  UNL     1     -35.847  15.384  -4.766  1.00 20.00    -0.067 C 
HETATM    2  C3  UNL     1     -36.844  15.441  -5.659  1.00 20.00    -0.085 C 
HETATM    3  C4  UNL     1     -35.965  15.864  -3.344  1.00 20.00     0.036 C 
HETATM    4  C5  UNL     1     -34.658  15.408  -2.702  1.00 20.00     0.009 C 
HETATM    5  C6  UNL     1     -34.455  14.884  -5.050  1.00 20.00     0.080 C 
HETATM    6  C7  UNL     1     -33.656  15.429  -3.859  1.00 20.00    -0.004 C 
HETATM    7  C8  UNL     1     -36.677  14.950  -7.069  1.00 20.00     0.043 C 
HETATM    8  C9  UNL     1     -38.193  15.998  -5.312  1.00 20.00     0.043 C 
HETATM    9  C10 UNL     1     -32.361  14.696  -3.546  1.00 20.00     0.011 C 
ENDROOT
BRANCH   5  10
HETATM   10  C2  UNL     1     -34.521  13.386  -5.117  1.00 20.00     0.240 C 
HETATM   11  O11 UNL     1     -35.152  12.701  -4.317  1.00 20.00    -0.306 OA
ENDBRANCH   5  10
TORSDOF 1
ENDMDL
MODEL 6
REMARK VINA RESULT:      -4.3      1.988      2.416
REMARK  1 active torsions:
REMARK  status: ('A' for Active; 'I' for Inactive)
REMARK    1  A    between atoms: C2_2  and  C6_6 
ROOT
HETATM    1  C1  UNL     1     -35.432  16.151  -2.731  1.00 20.00    -0.067 C 
HETATM    2  C3  UNL     1     -35.304  17.049  -1.746  1.00 20.00    -0.085 C 
HETATM    3  C4  UNL     1     -36.606  16.096  -3.671  1.00 20.00     0.036 C 
HETATM    4  C5  UNL     1     -36.190  15.053  -4.705  1.00 20.00     0.009 C 
HETATM    5  C6  UNL     1     -34.461  15.037  -3.021  1.00 20.00     0.080 C 
HETATM    6  C7  UNL     1     -35.283  14.104  -3.920  1.00 20.00    -0.004 C 
HETATM    7  C8  UNL     1     -34.113  17.062  -0.832  1.00 20.00     0.043 C 
HETATM    8  C9  UNL     1     -36.341  18.102  -1.490  1.00 20.00     0.043 C 
HETATM    9  C10 UNL     1     -34.476  13.170  -4.810  1.00 20.00     0.011 C 
ENDROOT
BRANCH   5  10
HETATM   10  C2  UNL     1     -33.265  15.647  -3.693  1.00 20.00     0.240 C 
HETATM   11  O11 UNL     1     -33.335  16.604  -4.458  1.00 20.00    -0.306 OA
ENDBRANCH   5  10
TORSDOF 1
ENDMDL
MODEL 7
REMARK VINA RESULT:      -4.3      2.098      2.902
REMARK  1 active torsions:
REMARK  status: ('A' for Active; 'I' for Inactive)
REMARK    1  A    between atoms: C2_2  and  C6_6 
ROOT
HETATM    1  C1  UNL     1     -34.974  15.208  -4.765  1.00 20.00    -0.067 C 
HETATM    2  C3  UNL     1     -34.231  15.346  -3.659  1.00 20.00    -0.085 C 
HETATM    3  C4  UNL     1     -34.421  14.797  -6.103  1.00 20.00     0.036 C 
HETATM    4  C5  UNL     1     -35.668  14.595  -6.960  1.00 20.00     0.009 C 
HETATM    5  C6  UNL     1     -36.451  15.484  -4.857  1.00 20.00     0.080 C 
HETATM    6  C7  UNL     1     -36.678  15.582  -6.372  1.00 20.00    -0.004 C 
HETATM    7  C8  UNL     1     -34.829  15.760  -2.346  1.00 20.00     0.043 C 
HETATM    8  C9  UNL     1     -32.751  15.097  -3.659  1.00 20.00     0.043 C 
HETATM    9  C10 UNL     1     -38.104  15.333  -6.840  1.00 20.00     0.011 C 
ENDROOT
BRANCH   5  10
HETATM   10  C2  UNL     1     -37.164  14.339  -4.198  1.00 20.00     0.240 C 
HETATM   11  O11 UNL     1     -38.124  14.483  -3.447  1.00 20.00    -0.306 OA
ENDBRANCH   5  10
TORSDOF 1
ENDMDL
MODEL 8
REMARK VINA RESULT:      -4.2      2.105      2.764
REMARK  1 active torsions:
REMARK  status: ('A' for Active; 'I' for Inactive)
REMARK    1  A    between atoms: C2_2  and  C6_6 
ROOT
HETATM    1  C1  UNL     1     -34.914  15.723  -3.618  1.00 20.00    -0.067 C 
HETATM    2  C3  UNL     1     -35.061  16.640  -2.653  1.00 20.00    -0.085 C 
HETATM    3  C4  UNL     1     -34.308  14.363  -3.398  1.00 20.00     0.036 C 
HETATM    4  C5  UNL     1     -34.546  13.645  -4.724  1.00 20.00     0.009 C 
HETATM    5  C6  UNL     1     -35.280  15.919  -5.065  1.00 20.00     0.080 C 
HETATM    6  C7  UNL     1     -34.530  14.774  -5.758  1.00 20.00    -0.004 C 
HETATM    7  C8  UNL     1     -35.672  17.986  -2.922  1.00 20.00     0.043 C 
HETATM    8  C9  UNL     1     -34.626  16.386  -1.240  1.00 20.00     0.043 C 
HETATM    9  C10 UNL     1     -35.078  14.355  -7.113  1.00 20.00     0.011 C 
ENDROOT
BRANCH   5  10
HETATM   10  C2  UNL     1     -36.775  15.829  -5.166  1.00 20.00     0.240 C 
HETATM   11  O11 UNL     1     -37.468  16.674  -5.726  1.00 20.00    -0.306 OA
ENDBRANCH   5  10
TORSDOF 1
ENDMDL
MODEL 9
REMARK VINA RESULT:      -4.2      1.764      4.371
REMARK  1 active torsions:
REMARK  status: ('A' for Active; 'I' for Inactive)
REMARK    1  A    between atoms: C2_2  and  C6_6 
ROOT
HETATM    1  C1  UNL     1     -36.009  15.142  -5.625  1.00 20.00    -0.067 C 
HETATM    2  C3  UNL     1     -35.932  14.952  -6.948  1.00 20.00    -0.085 C 
HETATM    3  C4  UNL     1     -37.302  15.324  -4.876  1.00 20.00     0.036 C 
HETATM    4  C5  UNL     1     -36.874  15.303  -3.411  1.00 20.00     0.009 C 
HETATM    5  C6  UNL     1     -34.830  15.252  -4.694  1.00 20.00     0.080 C 
HETATM    6  C7  UNL     1     -35.455  15.873  -3.437  1.00 20.00    -0.004 C 
HETATM    7  C8  UNL     1     -34.616  14.777  -7.651  1.00 20.00     0.043 C 
HETATM    8  C9  UNL     1     -37.154  14.902  -7.818  1.00 20.00     0.043 C 
HETATM    9  C10 UNL     1     -34.691  15.644  -2.142  1.00 20.00     0.011 C 
ENDROOT
BRANCH   5  10
HETATM   10  C2  UNL     1     -34.286  13.868  -4.494  1.00 20.00     0.240 C 
HETATM   11  O11 UNL     1     -34.979  12.856  -4.536  1.00 20.00    -0.306 OA
ENDBRANCH   5  10
TORSDOF 1
ENDMDL
