MODEL 1
REMARK VINA RESULT:      -4.4      0.000      0.000
REMARK  1 active torsions:
REMARK  status: ('A' for Active; 'I' for Inactive)
REMARK    1  A    between atoms: C1_1  and  C5_5 
ROOT
HETATM    1  C2  UNL     1     -36.329  15.778  -4.382  1.00 20.00     0.013 C 
HETATM    2  C3  UNL     1     -35.747  16.854  -3.471  1.00 20.00     0.009 C 
HETATM    3  C4  UNL     1     -34.611  14.829  -2.903  1.00 20.00     0.021 C 
HETATM    4  C5  UNL     1     -35.710  14.458  -3.909  1.00 20.00     0.055 C 
HETATM    5  C6  UNL     1     -34.353  16.334  -3.097  1.00 20.00    -0.047 C 
HETATM    6  C8  UNL     1     -33.840  16.986  -1.810  1.00 20.00     0.015 C 
HETATM    7  C9  UNL     1     -33.340  16.586  -4.225  1.00 20.00     0.015 C 
ENDROOT
BRANCH   4   8
HETATM    8  C1  UNL     1     -35.165  13.667  -5.059  1.00 20.00     0.127 C 
HETATM    9  C7  UNL     1     -35.246  14.305  -6.419  1.00 20.00     0.091 C 
HETATM   10  O10 UNL     1     -34.674  12.549  -4.899  1.00 20.00    -0.298 OA
ENDBRANCH   4   8
TORSDOF 1
ENDMDL
MODEL 2
REMARK VINA RESULT:      -4.3     11.377     12.572
REMARK  1 active torsions:
REMARK  status: ('A' for Active; 'I' for Inactive)
REMARK    1  A    between atoms: C1_1  and  C5_5 
ROOT
HETATM    1  C2  UNL     1     -34.644   6.486   3.025  1.00 20.00     0.013 C 
HETATM    2  C3  UNL     1     -35.370   5.623   4.052  1.00 20.00     0.009 C 
HETATM    3  C4  UNL     1     -33.050   5.095   4.274  1.00 20.00     0.021 C 
HETATM    4  C5  UNL     1     -33.181   6.031   3.065  1.00 20.00     0.055 C 
HETATM    5  C6  UNL     1     -34.314   5.322   5.123  1.00 20.00    -0.047 C 
HETATM    6  C8  UNL     1     -34.678   4.075   5.933  1.00 20.00     0.015 C 
HETATM    7  C9  UNL     1     -34.135   6.509   6.083  1.00 20.00     0.015 C 
ENDROOT
BRANCH   4   8
HETATM    8  C1  UNL     1     -32.248   7.200   3.165  1.00 20.00     0.127 C 
HETATM    9  C7  UNL     1     -32.268   8.182   2.025  1.00 20.00     0.091 C 
HETATM   10  O10 UNL     1     -31.503   7.350   4.134  1.00 20.00    -0.298 OA
ENDBRANCH   4   8
TORSDOF 1
ENDMDL
MODEL 3
REMARK VINA RESULT:      -4.2      1.224      1.445
REMARK  1 active torsions:
REMARK  status: ('A' for Active; 'I' for Inactive)
REMARK    1  A    between atoms: C1_1  and  C5_5 
ROOT
HETATM    1  C2  UNL     1     -35.874  15.472  -3.762  1.00 20.00     0.013 C 
HETATM    2  C3  UNL     1     -35.650  16.978  -3.667  1.00 20.00     0.009 C 
HETATM    3  C4  UNL     1     -33.667  15.964  -2.803  1.00 20.00     0.021 C 
HETATM    4  C5  UNL     1     -34.669  14.831  -3.066  1.00 20.00     0.055 C 
HETATM    5  C6  UNL     1     -34.126  17.145  -3.676  1.00 20.00    -0.047 C 
HETATM    6  C8  UNL     1     -33.706  18.487  -3.070  1.00 20.00     0.015 C 
HETATM    7  C9  UNL     1     -33.558  17.040  -5.101  1.00 20.00     0.015 C 
ENDROOT
BRANCH   4   8
HETATM    8  C1  UNL     1     -34.069  13.744  -3.905  1.00 20.00     0.127 C 
HETATM    9  C7  UNL     1     -34.816  13.362  -5.154  1.00 20.00     0.091 C 
HETATM   10  O10 UNL     1     -33.015  13.191  -3.589  1.00 20.00    -0.298 OA
ENDBRANCH   4   8
TORSDOF 1
ENDMDL
MODEL 4
REMARK VINA RESULT:      -4.2      1.967      3.831
REMARK  1 active torsions:
REMARK  status: ('A' for Active; 'I' for Inactive)
REMARK    1  A    between atoms: C1_1  and  C5_5 
ROOT
HETATM    1  C2  UNL     1     -34.586  14.039  -3.577  1.00 20.00     0.013 C 
HETATM    2  C3  UNL     1     -34.387  13.633  -5.034  1.00 20.00     0.009 C 
HETATM    3  C4  UNL     1     -36.222  15.165  -5.023  1.00 20.00     0.021 C 
HETATM    4  C5  UNL     1     -35.855  14.896  -3.556  1.00 20.00     0.055 C 
HETATM    5  C6  UNL     1     -34.973  14.797  -5.844  1.00 20.00    -0.047 C 
HETATM    6  C8  UNL     1     -35.343  14.360  -7.264  1.00 20.00     0.015 C 
HETATM    7  C9  UNL     1     -33.990  15.976  -5.923  1.00 20.00     0.015 C 
ENDROOT
BRANCH   4   8
HETATM    8  C1  UNL     1     -35.642  16.170  -2.796  1.00 20.00     0.127 C 
HETATM    9  C7  UNL     1     -34.556  16.163  -1.755  1.00 20.00     0.091 C 
HETATM   10  O10 UNL     1     -36.322  17.172  -3.012  1.00 20.00    -0.298 OA
ENDBRANCH   4   8
TORSDOF 1
ENDMDL
MODEL 5
REMARK VINA RESULT:      -4.2      1.081      2.031
REMARK  1 active torsions:
REMARK  status: ('A' for Active; 'I' for Inactive)
REMARK    1  A    between atoms: C1_1  and  C5_5 
ROOT
HETATM    1  C2  UNL     1     -34.188  15.159  -2.855  1.00 20.00     0.013 C 
HETATM    2  C3  UNL     1     -34.056  16.679  -2.831  1.00 20.00     0.009 C 
HETATM    3  C4  UNL     1     -33.486  16.006  -5.052  1.00 20.00     0.021 C 
HETATM    4  C5  UNL     1     -33.674  14.722  -4.231  1.00 20.00     0.055 C 
HETATM    5  C6  UNL     1     -34.244  17.108  -4.291  1.00 20.00    -0.047 C 
HETATM    6  C8  UNL     1     -33.637  18.489  -4.552  1.00 20.00     0.015 C 
HETATM    7  C9  UNL     1     -35.731  17.134  -4.681  1.00 20.00     0.015 C 
ENDROOT
BRANCH   4   8
HETATM    8  C1  UNL     1     -34.627  13.774  -4.894  1.00 20.00     0.127 C 
HETATM    9  C7  UNL     1     -35.030  14.098  -6.307  1.00 20.00     0.091 C 
HETATM   10  O10 UNL     1     -35.057  12.779  -4.312  1.00 20.00    -0.298 OA
ENDBRANCH   4   8
TORSDOF 1
ENDMDL
MODEL 6
REMARK VINA RESULT:      -4.2      1.227      2.208
REMARK  1 active torsions:
REMARK  status: ('A' for Active; 'I' for Inactive)
REMARK    1  A    between atoms: C1_1  and  C5_5 
ROOT
HETATM    1  C2  UNL     1     -33.562  16.102  -4.517  1.00 20.00     0.013 C 
HETATM    2  C3  UNL     1     -34.147  17.325  -3.818  1.00 20.00     0.009 C 
HETATM    3  C4  UNL     1     -35.863  15.662  -3.777  1.00 20.00     0.021 C 
HETATM    4  C5  UNL     1     -34.714  15.098  -4.625  1.00 20.00     0.055 C 
HETATM    5  C6  UNL     1     -35.239  16.762  -2.899  1.00 20.00    -0.047 C 
HETATM    6  C8  UNL     1     -36.266  17.834  -2.528  1.00 20.00     0.015 C 
HETATM    7  C9  UNL     1     -34.640  16.175  -1.611  1.00 20.00     0.015 C 
ENDROOT
BRANCH   4   8
HETATM    8  C1  UNL     1     -34.297  13.736  -4.158  1.00 20.00     0.127 C 
HETATM    9  C7  UNL     1     -32.937  13.625  -3.523  1.00 20.00     0.091 C 
HETATM   10  O10 UNL     1     -35.032  12.757  -4.286  1.00 20.00    -0.298 OA
ENDBRANCH   4   8
TORSDOF 1
ENDMDL
MODEL 7
REMARK VINA RESULT:      -4.2      1.757      3.019
REMARK  1 active torsions:
REMARK  status: ('A' for Active; 'I' for Inactive)
REMARK    1  A    between atoms: C1_1  and  C5_5 
ROOT
HETATM    1  C2  UNL     1     -36.443  14.926  -5.124  1.00 20.00     0.013 C 
HETATM    2  C3  UNL     1     -36.383  15.954  -6.249  1.00 20.00     0.009 C 
HETATM    3  C4  UNL     1     -34.226  15.979  -5.220  1.00 20.00     0.021 C 
HETATM    4  C5  UNL     1     -35.114  15.057  -4.373  1.00 20.00     0.055 C 
HETATM    5  C6  UNL     1     -34.894  16.053  -6.605  1.00 20.00    -0.047 C 
HETATM    6  C8  UNL     1     -34.575  17.372  -7.313  1.00 20.00     0.015 C 
HETATM    7  C9  UNL     1     -34.453  14.884  -7.501  1.00 20.00     0.015 C 
ENDROOT
BRANCH   4   8
HETATM    8  C1  UNL     1     -34.475  13.719  -4.155  1.00 20.00     0.127 C 
HETATM    9  C7  UNL     1     -33.068  13.719  -3.623  1.00 20.00     0.091 C 
HETATM   10  O10 UNL     1     -35.073  12.671  -4.399  1.00 20.00    -0.298 OA
ENDBRANCH   4   8
TORSDOF 1
ENDMDL
MODEL 8
REMARK VINA RESULT:      -4.1     10.867     12.154
REMARK  1 active torsions:
REMARK  status: ('A' for Active; 'I' for Inactive)
REMARK    1  A    between atoms: C1_1  and  C5_5 
ROOT
HETATM    1  C2  UNL     1     -41.203   7.336  -1.444  1.00 20.00     0.013 C 
HETATM    2  C3  UNL     1     -40.964   6.315  -0.337  1.00 20.00     0.009 C 
HETATM    3  C4  UNL     1     -43.195   5.939  -1.106  1.00 20.00     0.021 C 
HETATM    4  C5  UNL     1     -42.680   7.193  -1.825  1.00 20.00     0.055 C 
HETATM    5  C6  UNL     1     -41.942   5.174  -0.643  1.00 20.00    -0.047 C 
HETATM    6  C8  UNL     1     -42.227   4.331   0.603  1.00 20.00     0.015 C 
HETATM    7  C9  UNL     1     -41.404   4.258  -1.754  1.00 20.00     0.015 C 
ENDROOT
BRANCH   4   8
HETATM    8  C1  UNL     1     -42.853   7.092  -3.311  1.00 20.00     0.127 C 
HETATM    9  C7  UNL     1     -42.359   8.252  -4.131  1.00 20.00     0.091 C 
HETATM   10  O10 UNL     1     -43.374   6.106  -3.834  1.00 20.00    -0.298 OA
ENDBRANCH   4   8
TORSDOF 1
ENDMDL
MODEL 9
REMARK VINA RESULT:      -4.0      1.792      3.143
REMARK  1 active torsions:
REMARK  status: ('A' for Active; 'I' for Inactive)
REMARK    1  A    between atoms: C1_1  and  C5_5 
ROOT
HETATM    1  C2  UNL     1     -33.833  15.835  -5.595  1.00 20.00     0.013 C 
HETATM    2  C3  UNL     1     -34.865  16.896  -5.967  1.00 20.00     0.009 C 
HETATM    3  C4  UNL     1     -35.998  14.797  -6.117  1.00 20.00     0.021 C 
HETATM    4  C5  UNL     1     -34.519  14.488  -5.843  1.00 20.00     0.055 C 
HETATM    5  C6  UNL     1     -36.219  16.248  -5.653  1.00 20.00    -0.047 C 
HETATM    6  C8  UNL     1     -37.355  16.919  -6.429  1.00 20.00     0.015 C 
HETATM    7  C9  UNL     1     -36.534  16.310  -4.149  1.00 20.00     0.015 C 
ENDROOT
BRANCH   4   8
HETATM    8  C1  UNL     1     -34.354  13.567  -4.672  1.00 20.00     0.127 C 
HETATM    9  C7  UNL     1     -33.249  13.894  -3.704  1.00 20.00     0.091 C 
HETATM   10  O10 UNL     1     -35.086  12.591  -4.509  1.00 20.00    -0.298 OA
ENDBRANCH   4   8
TORSDOF 1
ENDMDL
