MODEL 1
REMARK VINA RESULT:      -4.3      0.000      0.000
REMARK  1 active torsions:
REMARK  status: ('A' for Active; 'I' for Inactive)
REMARK    1  A    between atoms: C1_1  and  C8_8 
REMARK       I    between atoms: C1_1  and  N9_9 
ROOT
HETATM    1  C1  UNL     1     -33.622  16.104  -4.051  1.00 20.00     0.237 C 
HETATM    2  C2  UNL     1     -33.642  17.841  -0.101  1.00 20.00     0.013 A 
HETATM    3  C3  UNL     1     -34.814  16.251  -1.813  1.00 20.00     0.130 A 
HETATM    4  C4  UNL     1     -33.610  18.182  -2.692  1.00 20.00     0.130 A 
HETATM    5  C5  UNL     1     -34.879  17.351  -0.805  1.00 20.00     0.010 A 
HETATM    6  C6  UNL     1     -34.142  18.530  -1.342  1.00 20.00     0.010 A 
HETATM    7  N9  UNL     1     -33.997  16.788  -2.906  1.00 20.00    -0.350 N 
HETATM    8  O10 UNL     1     -32.933  16.591  -4.949  1.00 20.00    -0.272 OA
ENDROOT
BRANCH   1   9
HETATM    9  C8  UNL     1     -34.110  14.681  -4.149  1.00 20.00     0.170 C 
HETATM   10  C7  UNL     1     -34.491  14.349  -5.573  1.00 20.00     0.036 C 
HETATM   11 CL11 UNL     1     -32.773  13.662  -3.590  1.00 20.00    -0.115 Cl
ENDBRANCH   1   9
TORSDOF 1
ENDMDL
MODEL 2
REMARK VINA RESULT:      -4.1      2.091      4.348
REMARK  1 active torsions:
REMARK  status: ('A' for Active; 'I' for Inactive)
REMARK    1  A    between atoms: C1_1  and  C8_8 
REMARK       I    between atoms: C1_1  and  N9_9 
ROOT
HETATM    1  C1  UNL     1     -34.516  17.299  -2.960  1.00 20.00     0.237 C 
HETATM    2  C2  UNL     1     -35.146  13.271  -4.374  1.00 20.00     0.013 A 
HETATM    3  C3  UNL     1     -33.535  14.969  -3.211  1.00 20.00     0.130 A 
HETATM    4  C4  UNL     1     -35.089  15.833  -4.881  1.00 20.00     0.130 A 
HETATM    5  C5  UNL     1     -33.787  13.901  -4.224  1.00 20.00     0.010 A 
HETATM    6  C6  UNL     1     -34.737  14.429  -5.243  1.00 20.00     0.010 A 
HETATM    7  N9  UNL     1     -34.381  16.092  -3.627  1.00 20.00    -0.350 N 
HETATM    8  O10 UNL     1     -35.239  18.220  -3.343  1.00 20.00    -0.272 OA
ENDROOT
BRANCH   1   9
HETATM    9  C8  UNL     1     -33.711  17.435  -1.692  1.00 20.00     0.170 C 
HETATM   10  C7  UNL     1     -33.361  18.883  -1.441  1.00 20.00     0.036 C 
HETATM   11 CL11 UNL     1     -34.725  16.787  -0.392  1.00 20.00    -0.115 Cl
ENDBRANCH   1   9
TORSDOF 1
ENDMDL
MODEL 3
REMARK VINA RESULT:      -4.0     13.720     14.680
REMARK  1 active torsions:
REMARK  status: ('A' for Active; 'I' for Inactive)
REMARK    1  A    between atoms: C1_1  and  C8_8 
REMARK       I    between atoms: C1_1  and  N9_9 
ROOT
HETATM    1  C1  UNL     1     -42.726   3.770  -2.903  1.00 20.00     0.237 C 
HETATM    2  C2  UNL     1     -40.791   6.986  -0.774  1.00 20.00     0.013 A 
HETATM    3  C3  UNL     1     -41.582   4.495  -0.754  1.00 20.00     0.130 A 
HETATM    4  C4  UNL     1     -42.891   6.095  -2.049  1.00 20.00     0.130 A 
HETATM    5  C5  UNL     1     -41.482   5.833  -0.098  1.00 20.00     0.010 A 
HETATM    6  C6  UNL     1     -42.281   6.810  -0.890  1.00 20.00     0.010 A 
HETATM    7  N9  UNL     1     -42.401   4.721  -1.949  1.00 20.00    -0.350 N 
HETATM    8  O10 UNL     1     -43.417   3.999  -3.896  1.00 20.00    -0.272 OA
ENDROOT
BRANCH   1   9
HETATM    9  C8  UNL     1     -42.169   2.389  -2.662  1.00 20.00     0.170 C 
HETATM   10  C7  UNL     1     -43.289   1.389  -2.497  1.00 20.00     0.036 C 
HETATM   11 CL11 UNL     1     -41.171   2.007  -4.074  1.00 20.00    -0.115 Cl
ENDBRANCH   1   9
TORSDOF 1
ENDMDL
MODEL 4
REMARK VINA RESULT:      -3.9     12.972     13.919
REMARK  1 active torsions:
REMARK  status: ('A' for Active; 'I' for Inactive)
REMARK    1  A    between atoms: C1_1  and  C8_8 
REMARK       I    between atoms: C1_1  and  N9_9 
ROOT
HETATM    1  C1  UNL     1     -41.379   4.326  -1.879  1.00 20.00     0.237 C 
HETATM    2  C2  UNL     1     -43.287   8.028  -0.750  1.00 20.00     0.013 A 
HETATM    3  C3  UNL     1     -42.934   6.204  -2.589  1.00 20.00     0.130 A 
HETATM    4  C4  UNL     1     -41.088   6.651  -1.059  1.00 20.00     0.130 A 
HETATM    5  C5  UNL     1     -42.996   7.638  -2.174  1.00 20.00     0.010 A 
HETATM    6  C6  UNL     1     -41.868   7.910  -1.239  1.00 20.00     0.010 A 
HETATM    7  N9  UNL     1     -41.797   5.646  -1.851  1.00 20.00    -0.350 N 
HETATM    8  O10 UNL     1     -40.416   3.895  -1.242  1.00 20.00    -0.272 OA
ENDROOT
BRANCH   1   9
HETATM    9  C8  UNL     1     -42.191   3.404  -2.754  1.00 20.00     0.170 C 
HETATM   10  C7  UNL     1     -41.307   2.349  -3.374  1.00 20.00     0.036 C 
HETATM   11 CL11 UNL     1     -43.414   2.676  -1.700  1.00 20.00    -0.115 Cl
ENDBRANCH   1   9
TORSDOF 1
ENDMDL
MODEL 5
REMARK VINA RESULT:      -3.9      2.304      4.777
REMARK  1 active torsions:
REMARK  status: ('A' for Active; 'I' for Inactive)
REMARK    1  A    between atoms: C1_1  and  C8_8 
REMARK       I    between atoms: C1_1  and  N9_9 
ROOT
HETATM    1  C1  UNL     1     -34.517  16.673  -3.722  1.00 20.00     0.237 C 
HETATM    2  C2  UNL     1     -35.709  15.048  -7.537  1.00 20.00     0.013 A 
HETATM    3  C3  UNL     1     -35.482  14.676  -4.960  1.00 20.00     0.130 A 
HETATM    4  C4  UNL     1     -33.851  16.126  -6.050  1.00 20.00     0.130 A 
HETATM    5  C5  UNL     1     -35.289  14.204  -6.364  1.00 20.00     0.010 A 
HETATM    6  C6  UNL     1     -34.293  15.091  -7.029  1.00 20.00     0.010 A 
HETATM    7  N9  UNL     1     -34.630  15.864  -4.840  1.00 20.00    -0.350 N 
HETATM    8  O10 UNL     1     -33.789  17.665  -3.660  1.00 20.00    -0.272 OA
ENDROOT
BRANCH   1   9
HETATM    9  C8  UNL     1     -35.364  16.272  -2.540  1.00 20.00     0.170 C 
HETATM   10  C7  UNL     1     -34.596  16.458  -1.252  1.00 20.00     0.036 C 
HETATM   11 CL11 UNL     1     -36.798  17.310  -2.586  1.00 20.00    -0.115 Cl
ENDBRANCH   1   9
TORSDOF 1
ENDMDL
MODEL 6
REMARK VINA RESULT:      -3.9      1.947      2.185
REMARK  1 active torsions:
REMARK  status: ('A' for Active; 'I' for Inactive)
REMARK    1  A    between atoms: C1_1  and  C8_8 
REMARK       I    between atoms: C1_1  and  N9_9 
ROOT
HETATM    1  C1  UNL     1     -35.422  15.624  -4.679  1.00 20.00     0.237 C 
HETATM    2  C2  UNL     1     -34.135  18.225  -1.486  1.00 20.00     0.013 A 
HETATM    3  C3  UNL     1     -33.972  15.870  -2.608  1.00 20.00     0.130 A 
HETATM    4  C4  UNL     1     -36.092  17.065  -2.772  1.00 20.00     0.130 A 
HETATM    5  C5  UNL     1     -34.132  16.723  -1.392  1.00 20.00     0.010 A 
HETATM    6  C6  UNL     1     -35.427  17.453  -1.494  1.00 20.00     0.010 A 
HETATM    7  N9  UNL     1     -35.155  16.152  -3.427  1.00 20.00    -0.350 N 
HETATM    8  O10 UNL     1     -36.430  15.887  -5.337  1.00 20.00    -0.272 OA
ENDROOT
BRANCH   1   9
HETATM    9  C8  UNL     1     -34.378  14.680  -5.223  1.00 20.00     0.170 C 
HETATM   10  C7  UNL     1     -34.752  13.248  -4.920  1.00 20.00     0.036 C 
HETATM   11 CL11 UNL     1     -34.315  14.970  -6.969  1.00 20.00    -0.115 Cl
ENDBRANCH   1   9
TORSDOF 1
ENDMDL
MODEL 7
REMARK VINA RESULT:      -3.9     12.167     12.814
REMARK  1 active torsions:
REMARK  status: ('A' for Active; 'I' for Inactive)
REMARK    1  A    between atoms: C1_1  and  C8_8 
REMARK       I    between atoms: C1_1  and  N9_9 
ROOT
HETATM    1  C1  UNL     1     -32.628   7.089   3.968  1.00 20.00     0.237 C 
HETATM    2  C2  UNL     1     -34.739   3.881   5.937  1.00 20.00     0.013 A 
HETATM    3  C3  UNL     1     -34.637   5.535   3.916  1.00 20.00     0.130 A 
HETATM    4  C4  UNL     1     -33.720   6.285   6.048  1.00 20.00     0.130 A 
HETATM    5  C5  UNL     1     -35.398   4.875   5.019  1.00 20.00     0.010 A 
HETATM    6  C6  UNL     1     -34.836   5.333   6.321  1.00 20.00     0.010 A 
HETATM    7  N9  UNL     1     -33.609   6.333   4.590  1.00 20.00    -0.350 N 
HETATM    8  O10 UNL     1     -31.779   7.747   4.572  1.00 20.00    -0.272 OA
ENDROOT
BRANCH   1   9
HETATM    9  C8  UNL     1     -32.645   7.062   2.460  1.00 20.00     0.170 C 
HETATM   10  C7  UNL     1     -31.851   8.220   1.902  1.00 20.00     0.036 C 
HETATM   11 CL11 UNL     1     -31.935   5.511   1.986  1.00 20.00    -0.115 Cl
ENDBRANCH   1   9
TORSDOF 1
ENDMDL
MODEL 8
REMARK VINA RESULT:      -3.8      2.379      4.592
REMARK  1 active torsions:
REMARK  status: ('A' for Active; 'I' for Inactive)
REMARK    1  A    between atoms: C1_1  and  C8_8 
REMARK       I    between atoms: C1_1  and  N9_9 
ROOT
HETATM    1  C1  UNL     1     -34.425  16.546  -2.176  1.00 20.00     0.237 C 
HETATM    2  C2  UNL     1     -34.930  13.988  -5.614  1.00 20.00     0.013 A 
HETATM    3  C3  UNL     1     -35.978  14.979  -3.435  1.00 20.00     0.130 A 
HETATM    4  C4  UNL     1     -33.567  14.610  -3.473  1.00 20.00     0.130 A 
HETATM    5  C5  UNL     1     -35.689  13.816  -4.326  1.00 20.00     0.010 A 
HETATM    6  C6  UNL     1     -34.216  13.592  -4.350  1.00 20.00     0.010 A 
HETATM    7  N9  UNL     1     -34.663  15.449  -2.988  1.00 20.00    -0.350 N 
HETATM    8  O10 UNL     1     -33.302  16.909  -1.822  1.00 20.00    -0.272 OA
ENDROOT
BRANCH   1   9
HETATM    9  C8  UNL     1     -35.650  17.306  -1.733  1.00 20.00     0.170 C 
HETATM   10  C7  UNL     1     -35.480  17.803  -0.317  1.00 20.00     0.036 C 
HETATM   11 CL11 UNL     1     -35.829  18.655  -2.868  1.00 20.00    -0.115 Cl
ENDBRANCH   1   9
TORSDOF 1
ENDMDL
MODEL 9
REMARK VINA RESULT:      -3.8     11.984     12.668
REMARK  1 active torsions:
REMARK  status: ('A' for Active; 'I' for Inactive)
REMARK    1  A    between atoms: C1_1  and  C8_8 
REMARK       I    between atoms: C1_1  and  N9_9 
ROOT
HETATM    1  C1  UNL     1     -33.845   6.098   5.194  1.00 20.00     0.237 C 
HETATM    2  C2  UNL     1     -32.205   8.432   1.956  1.00 20.00     0.013 A 
HETATM    3  C3  UNL     1     -32.874   6.068   2.847  1.00 20.00     0.130 A 
HETATM    4  C4  UNL     1     -32.113   7.722   4.469  1.00 20.00     0.130 A 
HETATM    5  C5  UNL     1     -31.896   6.976   2.177  1.00 20.00     0.010 A 
HETATM    6  C6  UNL     1     -31.432   7.986   3.168  1.00 20.00     0.010 A 
HETATM    7  N9  UNL     1     -33.004   6.592   4.210  1.00 20.00    -0.350 N 
HETATM    8  O10 UNL     1     -33.926   6.568   6.330  1.00 20.00    -0.272 OA
ENDROOT
BRANCH   1   9
HETATM    9  C8  UNL     1     -34.693   4.917   4.793  1.00 20.00     0.170 C 
HETATM   10  C7  UNL     1     -35.218   4.204   6.017  1.00 20.00     0.036 C 
HETATM   11 CL11 UNL     1     -36.017   5.570   3.815  1.00 20.00    -0.115 Cl
ENDBRANCH   1   9
TORSDOF 1
ENDMDL
