MODEL 1
REMARK VINA RESULT:      -4.7      0.000      0.000
REMARK  1 active torsions:
REMARK  status: ('A' for Active; 'I' for Inactive)
REMARK    1  A    between atoms: C3_3  and  C7_7 
ROOT
HETATM    1  C1  UNL     1     -36.144  15.984  -2.855  1.00 20.00    -0.020 C 
HETATM    2  C2  UNL     1     -36.494  15.000  -3.702  1.00 20.00    -0.086 C 
HETATM    3  C4  UNL     1     -35.474  14.121  -4.385  1.00 20.00     0.045 C 
HETATM    4  C5  UNL     1     -33.739  15.182  -2.870  1.00 20.00     0.020 C 
HETATM    5  C6  UNL     1     -34.721  16.300  -2.473  1.00 20.00     0.005 C 
HETATM    6  C7  UNL     1     -34.026  14.609  -4.257  1.00 20.00     0.059 C 
HETATM    7  C8  UNL     1     -37.930  14.713  -4.028  1.00 20.00     0.043 C 
HETATM    8  C10 UNL     1     -34.612  16.581  -0.974  1.00 20.00     0.014 C 
ENDROOT
BRANCH   6   9
HETATM    9  C3  UNL     1     -33.703  15.625  -5.315  1.00 20.00     0.127 C 
HETATM   10  C9  UNL     1     -34.417  15.482  -6.632  1.00 20.00     0.091 C 
HETATM   11  O11 UNL     1     -32.895  16.531  -5.115  1.00 20.00    -0.298 OA
ENDBRANCH   6   9
TORSDOF 1
ENDMDL
MODEL 2
REMARK VINA RESULT:      -4.5      1.724      3.048
REMARK  1 active torsions:
REMARK  status: ('A' for Active; 'I' for Inactive)
REMARK    1  A    between atoms: C3_3  and  C7_7 
ROOT
HETATM    1  C1  UNL     1     -35.876  16.680  -2.851  1.00 20.00    -0.020 C 
HETATM    2  C2  UNL     1     -34.741  16.427  -2.177  1.00 20.00    -0.086 C 
HETATM    3  C4  UNL     1     -33.501  15.894  -2.855  1.00 20.00     0.045 C 
HETATM    4  C5  UNL     1     -34.683  16.316  -5.057  1.00 20.00     0.020 C 
HETATM    5  C6  UNL     1     -36.033  16.493  -4.338  1.00 20.00     0.005 C 
HETATM    6  C7  UNL     1     -33.720  15.409  -4.292  1.00 20.00     0.059 C 
HETATM    7  C8  UNL     1     -34.634  16.655  -0.698  1.00 20.00     0.043 C 
HETATM    8  C10 UNL     1     -36.803  17.662  -4.953  1.00 20.00     0.014 C 
ENDROOT
BRANCH   6   9
HETATM    9  C3  UNL     1     -34.214  13.991  -4.316  1.00 20.00     0.127 C 
HETATM   10  C9  UNL     1     -34.875  13.525  -5.585  1.00 20.00     0.091 C 
HETATM   11  O11 UNL     1     -34.083  13.246  -3.346  1.00 20.00    -0.298 OA
ENDBRANCH   6   9
TORSDOF 1
ENDMDL
MODEL 3
REMARK VINA RESULT:      -4.5      1.677      3.279
REMARK  1 active torsions:
REMARK  status: ('A' for Active; 'I' for Inactive)
REMARK    1  A    between atoms: C3_3  and  C7_7 
ROOT
HETATM    1  C1  UNL     1     -35.805  15.935  -2.615  1.00 20.00    -0.020 C 
HETATM    2  C2  UNL     1     -34.520  16.298  -2.767  1.00 20.00    -0.086 C 
HETATM    3  C4  UNL     1     -33.727  15.956  -4.006  1.00 20.00     0.045 C 
HETATM    4  C5  UNL     1     -35.911  15.177  -5.031  1.00 20.00     0.020 C 
HETATM    5  C6  UNL     1     -36.599  15.187  -3.654  1.00 20.00     0.005 C 
HETATM    6  C7  UNL     1     -34.404  14.943  -4.937  1.00 20.00     0.059 C 
HETATM    7  C8  UNL     1     -33.784  17.065  -1.708  1.00 20.00     0.043 C 
HETATM    8  C10 UNL     1     -38.009  15.764  -3.779  1.00 20.00     0.014 C 
ENDROOT
BRANCH   6   9
HETATM    9  C3  UNL     1     -34.124  13.534  -4.498  1.00 20.00     0.127 C 
HETATM   10  C9  UNL     1     -32.973  13.337  -3.548  1.00 20.00     0.091 C 
HETATM   11  O11 UNL     1     -34.802  12.588  -4.894  1.00 20.00    -0.298 OA
ENDBRANCH   6   9
TORSDOF 1
ENDMDL
MODEL 4
REMARK VINA RESULT:      -4.5      1.868      2.886
REMARK  1 active torsions:
REMARK  status: ('A' for Active; 'I' for Inactive)
REMARK    1  A    between atoms: C3_3  and  C7_7 
ROOT
HETATM    1  C1  UNL     1     -33.878  16.804  -3.567  1.00 20.00    -0.020 C 
HETATM    2  C2  UNL     1     -34.348  17.072  -4.798  1.00 20.00    -0.086 C 
HETATM    3  C4  UNL     1     -35.569  16.387  -5.363  1.00 20.00     0.045 C 
HETATM    4  C5  UNL     1     -35.943  15.430  -3.045  1.00 20.00     0.020 C 
HETATM    5  C6  UNL     1     -34.520  15.829  -2.614  1.00 20.00     0.005 C 
HETATM    6  C7  UNL     1     -36.057  15.183  -4.548  1.00 20.00     0.059 C 
HETATM    7  C8  UNL     1     -33.682  18.072  -5.696  1.00 20.00     0.043 C 
HETATM    8  C10 UNL     1     -34.545  16.396  -1.194  1.00 20.00     0.014 C 
ENDROOT
BRANCH   6   9
HETATM    9  C3  UNL     1     -35.313  13.935  -4.928  1.00 20.00     0.127 C 
HETATM   10  C9  UNL     1     -34.698  13.905  -6.301  1.00 20.00     0.091 C 
HETATM   11  O11 UNL     1     -35.209  12.985  -4.154  1.00 20.00    -0.298 OA
ENDBRANCH   6   9
TORSDOF 1
ENDMDL
MODEL 5
REMARK VINA RESULT:      -4.4      1.809      3.038
REMARK  1 active torsions:
REMARK  status: ('A' for Active; 'I' for Inactive)
REMARK    1  A    between atoms: C3_3  and  C7_7 
ROOT
HETATM    1  C1  UNL     1     -34.531  17.495  -3.281  1.00 20.00    -0.020 C 
HETATM    2  C2  UNL     1     -34.327  16.462  -2.444  1.00 20.00    -0.086 C 
HETATM    3  C4  UNL     1     -33.788  15.134  -2.917  1.00 20.00     0.045 C 
HETATM    4  C5  UNL     1     -33.341  16.257  -5.146  1.00 20.00     0.020 C 
HETATM    5  C6  UNL     1     -34.223  17.458  -4.755  1.00 20.00     0.005 C 
HETATM    6  C7  UNL     1     -33.755  14.966  -4.441  1.00 20.00     0.059 C 
HETATM    7  C8  UNL     1     -34.629  16.563  -0.978  1.00 20.00     0.043 C 
HETATM    8  C10 UNL     1     -33.559  18.760  -5.203  1.00 20.00     0.014 C 
ENDROOT
BRANCH   6   9
HETATM    9  C3  UNL     1     -35.082  14.493  -4.962  1.00 20.00     0.127 C 
HETATM   10  C9  UNL     1     -35.226  14.393  -6.457  1.00 20.00     0.091 C 
HETATM   11  O11 UNL     1     -36.006  14.201  -4.204  1.00 20.00    -0.298 OA
ENDBRANCH   6   9
TORSDOF 1
ENDMDL
MODEL 6
REMARK VINA RESULT:      -4.4      2.051      2.669
REMARK  1 active torsions:
REMARK  status: ('A' for Active; 'I' for Inactive)
REMARK    1  A    between atoms: C3_3  and  C7_7 
ROOT
HETATM    1  C1  UNL     1     -34.543  15.385  -2.450  1.00 20.00    -0.020 C 
HETATM    2  C2  UNL     1     -33.811  15.054  -3.528  1.00 20.00    -0.086 C 
HETATM    3  C4  UNL     1     -33.170  16.092  -4.418  1.00 20.00     0.045 C 
HETATM    4  C5  UNL     1     -33.833  17.808  -2.674  1.00 20.00     0.020 C 
HETATM    5  C6  UNL     1     -34.781  16.802  -1.996  1.00 20.00     0.005 C 
HETATM    6  C7  UNL     1     -33.642  17.528  -4.164  1.00 20.00     0.059 C 
HETATM    7  C8  UNL     1     -33.585  13.624  -3.920  1.00 20.00     0.043 C 
HETATM    8  C10 UNL     1     -34.658  16.912  -0.476  1.00 20.00     0.014 C 
ENDROOT
BRANCH   6   9
HETATM    9  C3  UNL     1     -34.910  17.821  -4.914  1.00 20.00     0.127 C 
HETATM   10  C9  UNL     1     -35.210  16.949  -6.104  1.00 20.00     0.091 C 
HETATM   11  O11 UNL     1     -35.666  18.729  -4.574  1.00 20.00    -0.298 OA
ENDBRANCH   6   9
TORSDOF 1
ENDMDL
MODEL 7
REMARK VINA RESULT:      -4.4      2.277      3.675
REMARK  1 active torsions:
REMARK  status: ('A' for Active; 'I' for Inactive)
REMARK    1  A    between atoms: C3_3  and  C7_7 
ROOT
HETATM    1  C1  UNL     1     -35.861  16.723  -4.568  1.00 20.00    -0.020 C 
HETATM    2  C2  UNL     1     -34.553  16.856  -4.849  1.00 20.00    -0.086 C 
HETATM    3  C4  UNL     1     -33.787  15.820  -5.636  1.00 20.00     0.045 C 
HETATM    4  C5  UNL     1     -36.022  14.724  -6.119  1.00 20.00     0.020 C 
HETATM    5  C6  UNL     1     -36.707  15.562  -5.024  1.00 20.00     0.005 C 
HETATM    6  C7  UNL     1     -34.535  14.499  -5.847  1.00 20.00     0.059 C 
HETATM    7  C8  UNL     1     -33.765  18.047  -4.390  1.00 20.00     0.043 C 
HETATM    8  C10 UNL     1     -38.072  16.045  -5.514  1.00 20.00     0.014 C 
ENDROOT
BRANCH   6   9
HETATM    9  C3  UNL     1     -34.356  13.582  -4.670  1.00 20.00     0.127 C 
HETATM   10  C9  UNL     1     -33.235  13.910  -3.721  1.00 20.00     0.091 C 
HETATM   11  O11 UNL     1     -35.090  12.612  -4.491  1.00 20.00    -0.298 OA
ENDBRANCH   6   9
TORSDOF 1
ENDMDL
MODEL 8
REMARK VINA RESULT:      -4.4      2.009      2.881
REMARK  1 active torsions:
REMARK  status: ('A' for Active; 'I' for Inactive)
REMARK    1  A    between atoms: C3_3  and  C7_7 
ROOT
HETATM    1  C1  UNL     1     -35.407  16.382  -5.757  1.00 20.00    -0.020 C 
HETATM    2  C2  UNL     1     -36.504  15.732  -5.332  1.00 20.00    -0.086 C 
HETATM    3  C4  UNL     1     -36.560  15.028  -3.997  1.00 20.00     0.045 C 
HETATM    4  C5  UNL     1     -34.332  16.121  -3.476  1.00 20.00     0.020 C 
HETATM    5  C6  UNL     1     -34.138  16.507  -4.954  1.00 20.00     0.005 C 
HETATM    6  C7  UNL     1     -35.203  14.877  -3.300  1.00 20.00     0.059 C 
HETATM    7  C8  UNL     1     -37.751  15.660  -6.164  1.00 20.00     0.043 C 
HETATM    8  C10 UNL     1     -33.571  17.924  -5.052  1.00 20.00     0.014 C 
ENDROOT
BRANCH   6   9
HETATM    9  C3  UNL     1     -34.474  13.660  -3.792  1.00 20.00     0.127 C 
HETATM   10  C9  UNL     1     -32.983  13.635  -3.589  1.00 20.00     0.091 C 
HETATM   11  O11 UNL     1     -35.067  12.728  -4.333  1.00 20.00    -0.298 OA
ENDBRANCH   6   9
TORSDOF 1
ENDMDL
MODEL 9
REMARK VINA RESULT:      -4.3      1.755      3.704
REMARK  1 active torsions:
REMARK  status: ('A' for Active; 'I' for Inactive)
REMARK    1  A    between atoms: C3_3  and  C7_7 
ROOT
HETATM    1  C1  UNL     1     -35.001  15.204  -5.833  1.00 20.00    -0.020 C 
HETATM    2  C2  UNL     1     -34.321  16.330  -6.106  1.00 20.00    -0.086 C 
HETATM    3  C4  UNL     1     -33.295  16.904  -5.157  1.00 20.00     0.045 C 
HETATM    4  C5  UNL     1     -33.519  14.758  -3.826  1.00 20.00     0.020 C 
HETATM    5  C6  UNL     1     -34.803  14.380  -4.586  1.00 20.00     0.005 C 
HETATM    6  C7  UNL     1     -33.292  16.268  -3.762  1.00 20.00     0.059 C 
HETATM    7  C8  UNL     1     -34.541  17.098  -7.376  1.00 20.00     0.043 C 
HETATM    8  C10 UNL     1     -34.793  12.888  -4.918  1.00 20.00     0.014 C 
ENDROOT
BRANCH   6   9
HETATM    9  C3  UNL     1     -34.318  16.910  -2.873  1.00 20.00     0.127 C 
HETATM   10  C9  UNL     1     -34.550  16.266  -1.532  1.00 20.00     0.091 C 
HETATM   11  O11 UNL     1     -34.939  17.913  -3.222  1.00 20.00    -0.298 OA
ENDBRANCH   6   9
TORSDOF 1
ENDMDL
