MODEL 1
REMARK VINA RESULT:      -4.9      0.000      0.000
REMARK  0 active torsions:
REMARK  status: ('A' for Active; 'I' for Inactive)
ROOT
HETATM    1  C1  UNL     1     -31.993   8.632   1.618  1.00 20.00     0.017 C 
HETATM    2  C2  UNL     1     -32.140   7.686   2.343  1.00 20.00    -0.057 C 
HETATM    3  C3  UNL     1     -32.320   6.534   3.228  1.00 20.00     0.342 C 
HETATM    4  C4  UNL     1     -33.810   6.706   4.934  1.00 20.00     0.150 C 
HETATM    5  C5  UNL     1     -34.145   5.498   4.081  1.00 20.00     0.150 C 
HETATM    6  C6  UNL     1     -33.939   6.473   6.426  1.00 20.00     0.042 C 
HETATM    7  C7  UNL     1     -35.627   5.286   3.851  1.00 20.00     0.042 C 
HETATM    8  O8  UNL     1     -32.445   6.968   4.591  1.00 20.00    -0.343 OA
HETATM    9  O9  UNL     1     -33.490   5.798   2.844  1.00 20.00    -0.343 OA
ENDROOT
TORSDOF 0
ENDMDL
MODEL 2
REMARK VINA RESULT:      -4.0     10.859     11.984
REMARK  0 active torsions:
REMARK  status: ('A' for Active; 'I' for Inactive)
ROOT
HETATM    1  C1  UNL     1     -34.728  16.908  -0.350  1.00 20.00     0.017 C 
HETATM    2  C2  UNL     1     -34.397  16.583  -1.457  1.00 20.00    -0.057 C 
HETATM    3  C3  UNL     1     -33.995  16.185  -2.808  1.00 20.00     0.342 C 
HETATM    4  C4  UNL     1     -35.163  14.531  -3.838  1.00 20.00     0.150 C 
HETATM    5  C5  UNL     1     -35.145  15.769  -4.714  1.00 20.00     0.150 C 
HETATM    6  C6  UNL     1     -34.967  13.230  -4.590  1.00 20.00     0.042 C 
HETATM    7  C7  UNL     1     -36.455  16.057  -5.418  1.00 20.00     0.042 C 
HETATM    8  O8  UNL     1     -34.065  14.757  -2.947  1.00 20.00    -0.343 OA
HETATM    9  O9  UNL     1     -34.846  16.810  -3.778  1.00 20.00    -0.343 OA
ENDROOT
TORSDOF 0
ENDMDL
MODEL 3
REMARK VINA RESULT:      -4.0     11.322     12.747
REMARK  0 active torsions:
REMARK  status: ('A' for Active; 'I' for Inactive)
ROOT
HETATM    1  C1  UNL     1     -34.688  16.632  -1.004  1.00 20.00     0.017 C 
HETATM    2  C2  UNL     1     -34.134  16.258  -2.001  1.00 20.00    -0.057 C 
HETATM    3  C3  UNL     1     -33.460  15.802  -3.218  1.00 20.00     0.342 C 
HETATM    4  C4  UNL     1     -34.731  15.312  -5.036  1.00 20.00     0.150 C 
HETATM    5  C5  UNL     1     -33.676  16.335  -5.409  1.00 20.00     0.150 C 
HETATM    6  C6  UNL     1     -34.949  14.231  -6.076  1.00 20.00     0.042 C 
HETATM    7  C7  UNL     1     -34.164  17.425  -6.341  1.00 20.00     0.042 C 
HETATM    8  O8  UNL     1     -34.207  14.740  -3.832  1.00 20.00    -0.343 OA
HETATM    9  O9  UNL     1     -33.319  16.892  -4.140  1.00 20.00    -0.343 OA
ENDROOT
TORSDOF 0
ENDMDL
MODEL 4
REMARK VINA RESULT:      -4.0      9.656     10.337
REMARK  0 active torsions:
REMARK  status: ('A' for Active; 'I' for Inactive)
ROOT
HETATM    1  C1  UNL     1     -41.865   2.669  -3.161  1.00 20.00     0.017 C 
HETATM    2  C2  UNL     1     -41.490   3.477  -2.357  1.00 20.00    -0.057 C 
HETATM    3  C3  UNL     1     -41.034   4.463  -1.376  1.00 20.00     0.342 C 
HETATM    4  C4  UNL     1     -42.258   6.357  -1.100  1.00 20.00     0.150 C 
HETATM    5  C5  UNL     1     -42.088   5.658   0.234  1.00 20.00     0.150 C 
HETATM    6  C6  UNL     1     -42.116   7.864  -1.039  1.00 20.00     0.042 C 
HETATM    7  C7  UNL     1     -43.324   5.671   1.110  1.00 20.00     0.042 C 
HETATM    8  O8  UNL     1     -41.206   5.792  -1.891  1.00 20.00    -0.343 OA
HETATM    9  O9  UNL     1     -41.771   4.317  -0.153  1.00 20.00    -0.343 OA
ENDROOT
TORSDOF 0
ENDMDL
MODEL 5
REMARK VINA RESULT:      -3.9     10.675     12.107
REMARK  0 active torsions:
REMARK  status: ('A' for Active; 'I' for Inactive)
ROOT
HETATM    1  C1  UNL     1     -34.516  17.385   0.069  1.00 20.00     0.017 C 
HETATM    2  C2  UNL     1     -34.837  16.992  -1.019  1.00 20.00    -0.057 C 
HETATM    3  C3  UNL     1     -35.227  16.512  -2.346  1.00 20.00     0.342 C 
HETATM    4  C4  UNL     1     -33.612  16.285  -3.928  1.00 20.00     0.150 C 
HETATM    5  C5  UNL     1     -34.355  14.974  -3.761  1.00 20.00     0.150 C 
HETATM    6  C6  UNL     1     -33.299  16.648  -5.365  1.00 20.00     0.042 C 
HETATM    7  C7  UNL     1     -33.472  13.744  -3.808  1.00 20.00     0.042 C 
HETATM    8  O8  UNL     1     -34.520  17.238  -3.364  1.00 20.00    -0.343 OA
HETATM    9  O9  UNL     1     -34.944  15.111  -2.464  1.00 20.00    -0.343 OA
ENDROOT
TORSDOF 0
ENDMDL
MODEL 6
REMARK VINA RESULT:      -3.9      9.298     11.032
REMARK  0 active torsions:
REMARK  status: ('A' for Active; 'I' for Inactive)
ROOT
HETATM    1  C1  UNL     1     -41.198   1.964  -3.799  1.00 20.00     0.017 C 
HETATM    2  C2  UNL     1     -41.758   2.766  -3.103  1.00 20.00    -0.057 C 
HETATM    3  C3  UNL     1     -42.438   3.745  -2.254  1.00 20.00     0.342 C 
HETATM    4  C4  UNL     1     -41.269   5.563  -1.553  1.00 20.00     0.150 C 
HETATM    5  C5  UNL     1     -42.534   6.009  -2.259  1.00 20.00     0.150 C 
HETATM    6  C6  UNL     1     -40.940   6.353  -0.302  1.00 20.00     0.042 C 
HETATM    7  C7  UNL     1     -42.359   7.219  -3.153  1.00 20.00     0.042 C 
HETATM    8  O8  UNL     1     -41.556   4.201  -1.215  1.00 20.00    -0.343 OA
HETATM    9  O9  UNL     1     -42.875   4.860  -3.043  1.00 20.00    -0.343 OA
ENDROOT
TORSDOF 0
ENDMDL
MODEL 7
REMARK VINA RESULT:      -3.8      9.351     10.414
REMARK  0 active torsions:
REMARK  status: ('A' for Active; 'I' for Inactive)
ROOT
HETATM    1  C1  UNL     1     -43.221   8.169  -3.972  1.00 20.00     0.017 C 
HETATM    2  C2  UNL     1     -42.664   7.939  -2.934  1.00 20.00    -0.057 C 
HETATM    3  C3  UNL     1     -41.986   7.657  -1.667  1.00 20.00     0.342 C 
HETATM    4  C4  UNL     1     -42.625   5.824  -0.486  1.00 20.00     0.150 C 
HETATM    5  C5  UNL     1     -41.132   5.772  -0.746  1.00 20.00     0.150 C 
HETATM    6  C6  UNL     1     -43.032   5.393   0.908  1.00 20.00     0.042 C 
HETATM    7  C7  UNL     1     -40.605   4.394  -1.092  1.00 20.00     0.042 C 
HETATM    8  O8  UNL     1     -42.934   7.209  -0.686  1.00 20.00    -0.343 OA
HETATM    9  O9  UNL     1     -40.978   6.655  -1.862  1.00 20.00    -0.343 OA
ENDROOT
TORSDOF 0
ENDMDL
MODEL 8
REMARK VINA RESULT:      -3.8     11.286     12.615
REMARK  0 active torsions:
REMARK  status: ('A' for Active; 'I' for Inactive)
ROOT
HETATM    1  C1  UNL     1     -34.775  14.611  -6.187  1.00 20.00     0.017 C 
HETATM    2  C2  UNL     1     -34.096  15.144  -5.353  1.00 20.00    -0.057 C 
HETATM    3  C3  UNL     1     -33.269  15.796  -4.336  1.00 20.00     0.342 C 
HETATM    4  C4  UNL     1     -34.083  17.654  -3.312  1.00 20.00     0.150 C 
HETATM    5  C5  UNL     1     -33.705  16.619  -2.271  1.00 20.00     0.150 C 
HETATM    6  C6  UNL     1     -33.698  19.074  -2.950  1.00 20.00     0.042 C 
HETATM    7  C7  UNL     1     -34.675  16.514  -1.112  1.00 20.00     0.042 C 
HETATM    8  O8  UNL     1     -33.353  17.223  -4.467  1.00 20.00    -0.343 OA
HETATM    9  O9  UNL     1     -33.702  15.402  -3.026  1.00 20.00    -0.343 OA
ENDROOT
TORSDOF 0
ENDMDL
MODEL 9
REMARK VINA RESULT:      -3.7      8.784     10.644
REMARK  0 active torsions:
REMARK  status: ('A' for Active; 'I' for Inactive)
ROOT
HETATM    1  C1  UNL     1     -41.566   2.225  -3.340  1.00 20.00     0.017 C 
HETATM    2  C2  UNL     1     -41.982   3.246  -2.866  1.00 20.00    -0.057 C 
HETATM    3  C3  UNL     1     -42.489   4.491  -2.285  1.00 20.00     0.342 C 
HETATM    4  C4  UNL     1     -42.415   4.737  -0.028  1.00 20.00     0.150 C 
HETATM    5  C5  UNL     1     -41.703   5.898  -0.694  1.00 20.00     0.150 C 
HETATM    6  C6  UNL     1     -43.281   5.129   1.152  1.00 20.00     0.042 C 
HETATM    7  C7  UNL     1     -40.432   6.337   0.005  1.00 20.00     0.042 C 
HETATM    8  O8  UNL     1     -43.228   4.215  -1.086  1.00 20.00    -0.343 OA
HETATM    9  O9  UNL     1     -41.398   5.375  -1.991  1.00 20.00    -0.343 OA
ENDROOT
TORSDOF 0
ENDMDL
