MODEL 1
REMARK VINA RESULT:      -5.4      0.000      0.000
REMARK  2 active torsions:
REMARK  status: ('A' for Active; 'I' for Inactive)
REMARK    1  A    between atoms: C4_4  and  O11_11 
REMARK    2  A    between atoms: C10_10  and  O11_11 
ROOT
HETATM    1  C1  UNL     1     -31.809   8.818   1.060  1.00 20.00     0.014 C 
HETATM    2  C2  UNL     1     -32.018   8.003   1.917  1.00 20.00    -0.091 C 
HETATM    3  C10 UNL     1     -32.272   7.009   2.960  1.00 20.00     0.268 C 
ENDROOT
BRANCH   3   4
HETATM    4  O11 UNL     1     -33.398   7.368   3.720  1.00 20.00    -0.344 OA
BRANCH   4   5
HETATM    5  C4  UNL     1     -33.961   6.291   4.376  1.00 20.00     0.047 C 
HETATM    6  C3  UNL     1     -34.859   5.486   3.786  1.00 20.00     0.006 C 
HETATM    7  C5  UNL     1     -35.477   4.299   4.463  1.00 20.00     0.029 C 
HETATM    8  C6  UNL     1     -35.217   4.249   5.969  1.00 20.00     0.004 C 
HETATM    9  C7  UNL     1     -33.785   4.661   6.300  1.00 20.00     0.011 C 
HETATM   10  C8  UNL     1     -33.455   6.074   5.783  1.00 20.00     0.038 C 
HETATM   11  C9  UNL     1     -34.010   7.153   6.718  1.00 20.00     0.017 C 
ENDBRANCH   4   5
ENDBRANCH   3   4
TORSDOF 2
ENDMDL
MODEL 2
REMARK VINA RESULT:      -5.1      0.638      2.126
REMARK  2 active torsions:
REMARK  status: ('A' for Active; 'I' for Inactive)
REMARK    1  A    between atoms: C4_4  and  O11_11 
REMARK    2  A    between atoms: C10_10  and  O11_11 
ROOT
HETATM    1  C1  UNL     1     -31.768   8.761   0.875  1.00 20.00     0.014 C 
HETATM    2  C2  UNL     1     -31.958   8.145   1.889  1.00 20.00    -0.091 C 
HETATM    3  C10 UNL     1     -32.188   7.393   3.123  1.00 20.00     0.268 C 
ENDROOT
BRANCH   3   4
HETATM    4  O11 UNL     1     -33.493   7.613   3.597  1.00 20.00    -0.344 OA
BRANCH   4   5
HETATM    5  C4  UNL     1     -33.980   6.542   4.322  1.00 20.00     0.047 C 
HETATM    6  C3  UNL     1     -33.724   6.392   5.631  1.00 20.00     0.006 C 
HETATM    7  C5  UNL     1     -34.250   5.251   6.451  1.00 20.00     0.029 C 
HETATM    8  C6  UNL     1     -34.859   4.125   5.614  1.00 20.00     0.004 C 
HETATM    9  C7  UNL     1     -35.681   4.678   4.453  1.00 20.00     0.011 C 
HETATM   10  C8  UNL     1     -34.845   5.588   3.533  1.00 20.00     0.038 C 
HETATM   11  C9  UNL     1     -33.986   4.766   2.567  1.00 20.00     0.017 C 
ENDBRANCH   4   5
ENDBRANCH   3   4
TORSDOF 2
ENDMDL
MODEL 3
REMARK VINA RESULT:      -4.8     11.333     12.744
REMARK  2 active torsions:
REMARK  status: ('A' for Active; 'I' for Inactive)
REMARK    1  A    between atoms: C4_4  and  O11_11 
REMARK    2  A    between atoms: C10_10  and  O11_11 
ROOT
HETATM    1  C1  UNL     1     -38.073  15.589  -6.686  1.00 20.00     0.014 C 
HETATM    2  C2  UNL     1     -38.028  15.395  -5.501  1.00 20.00    -0.091 C 
HETATM    3  C10 UNL     1     -37.974  15.161  -4.058  1.00 20.00     0.268 C 
ENDROOT
BRANCH   3   4
HETATM    4  O11 UNL     1     -37.124  14.079  -3.766  1.00 20.00    -0.344 OA
BRANCH   4   5
HETATM    5  C4  UNL     1     -35.807  14.466  -3.616  1.00 20.00     0.047 C 
HETATM    6  C3  UNL     1     -35.459  15.552  -2.906  1.00 20.00     0.006 C 
HETATM    7  C5  UNL     1     -34.039  15.992  -2.710  1.00 20.00     0.029 C 
HETATM    8  C6  UNL     1     -33.043  15.269  -3.619  1.00 20.00     0.004 C 
HETATM    9  C7  UNL     1     -33.377  13.785  -3.740  1.00 20.00     0.011 C 
HETATM   10  C8  UNL     1     -34.802  13.553  -4.276  1.00 20.00     0.038 C 
HETATM   11  C9  UNL     1     -34.857  13.717  -5.799  1.00 20.00     0.017 C 
ENDBRANCH   4   5
ENDBRANCH   3   4
TORSDOF 2
ENDMDL
MODEL 4
REMARK VINA RESULT:      -4.6     11.375     12.838
REMARK  2 active torsions:
REMARK  status: ('A' for Active; 'I' for Inactive)
REMARK    1  A    between atoms: C4_4  and  O11_11 
REMARK    2  A    between atoms: C10_10  and  O11_11 
ROOT
HETATM    1  C1  UNL     1     -34.073  18.104   0.403  1.00 20.00     0.014 C 
HETATM    2  C2  UNL     1     -34.377  17.277  -0.414  1.00 20.00    -0.091 C 
HETATM    3  C10 UNL     1     -34.748  16.269  -1.407  1.00 20.00     0.268 C 
ENDROOT
BRANCH   3   4
HETATM    4  O11 UNL     1     -33.743  16.144  -2.382  1.00 20.00    -0.344 OA
BRANCH   4   5
HETATM    5  C4  UNL     1     -34.166  15.439  -3.491  1.00 20.00     0.047 C 
HETATM    6  C3  UNL     1     -34.188  14.097  -3.518  1.00 20.00     0.006 C 
HETATM    7  C5  UNL     1     -34.655  13.300  -4.699  1.00 20.00     0.029 C 
HETATM    8  C6  UNL     1     -34.834  14.135  -5.969  1.00 20.00     0.004 C 
HETATM    9  C7  UNL     1     -35.465  15.490  -5.659  1.00 20.00     0.011 C 
HETATM   10  C8  UNL     1     -34.634  16.296  -4.643  1.00 20.00     0.038 C 
HETATM   11  C9  UNL     1     -33.439  16.977  -5.318  1.00 20.00     0.017 C 
ENDBRANCH   4   5
ENDBRANCH   3   4
TORSDOF 2
ENDMDL
MODEL 5
REMARK VINA RESULT:      -4.6     11.779     13.085
REMARK  2 active torsions:
REMARK  status: ('A' for Active; 'I' for Inactive)
REMARK    1  A    between atoms: C4_4  and  O11_11 
REMARK    2  A    between atoms: C10_10  and  O11_11 
ROOT
HETATM    1  C1  UNL     1     -34.783  17.001  -0.196  1.00 20.00     0.014 C 
HETATM    2  C2  UNL     1     -34.297  17.006  -1.294  1.00 20.00    -0.091 C 
HETATM    3  C10 UNL     1     -33.706  17.015  -2.633  1.00 20.00     0.268 C 
ENDROOT
BRANCH   3   4
HETATM    4  O11 UNL     1     -33.401  15.706  -3.046  1.00 20.00    -0.344 OA
BRANCH   4   5
HETATM    5  C4  UNL     1     -33.904  15.416  -4.298  1.00 20.00     0.047 C 
HETATM    6  C3  UNL     1     -33.571  16.132  -5.384  1.00 20.00     0.006 C 
HETATM    7  C5  UNL     1     -34.087  15.835  -6.761  1.00 20.00     0.029 C 
HETATM    8  C6  UNL     1     -35.241  14.831  -6.779  1.00 20.00     0.004 C 
HETATM    9  C7  UNL     1     -35.007  13.696  -5.786  1.00 20.00     0.011 C 
HETATM   10  C8  UNL     1     -34.818  14.215  -4.348  1.00 20.00     0.038 C 
HETATM   11  C9  UNL     1     -36.164  14.544  -3.694  1.00 20.00     0.017 C 
ENDBRANCH   4   5
ENDBRANCH   3   4
TORSDOF 2
ENDMDL
MODEL 6
REMARK VINA RESULT:      -4.6     11.394     12.705
REMARK  2 active torsions:
REMARK  status: ('A' for Active; 'I' for Inactive)
REMARK    1  A    between atoms: C4_4  and  O11_11 
REMARK    2  A    between atoms: C10_10  and  O11_11 
ROOT
HETATM    1  C1  UNL     1     -40.004  15.816  -2.667  1.00 20.00     0.014 C 
HETATM    2  C2  UNL     1     -39.126  15.519  -3.431  1.00 20.00    -0.091 C 
HETATM    3  C10 UNL     1     -38.058  15.157  -4.363  1.00 20.00     0.268 C 
ENDROOT
BRANCH   3   4
HETATM    4  O11 UNL     1     -37.276  14.115  -3.836  1.00 20.00    -0.344 OA
BRANCH   4   5
HETATM    5  C4  UNL     1     -35.956  14.481  -3.660  1.00 20.00     0.047 C 
HETATM    6  C3  UNL     1     -35.601  15.520  -2.886  1.00 20.00     0.006 C 
HETATM    7  C5  UNL     1     -34.178  15.935  -2.660  1.00 20.00     0.029 C 
HETATM    8  C6  UNL     1     -33.185  15.260  -3.608  1.00 20.00     0.004 C 
HETATM    9  C7  UNL     1     -33.530  13.788  -3.819  1.00 20.00     0.011 C 
HETATM   10  C8  UNL     1     -34.956  13.601  -4.371  1.00 20.00     0.038 C 
HETATM   11  C9  UNL     1     -35.005  13.856  -5.882  1.00 20.00     0.017 C 
ENDBRANCH   4   5
ENDBRANCH   3   4
TORSDOF 2
ENDMDL
MODEL 7
REMARK VINA RESULT:      -4.5     11.543     13.348
REMARK  2 active torsions:
REMARK  status: ('A' for Active; 'I' for Inactive)
REMARK    1  A    between atoms: C4_4  and  O11_11 
REMARK    2  A    between atoms: C10_10  and  O11_11 
ROOT
HETATM    1  C1  UNL     1     -35.486  19.146  -3.437  1.00 20.00     0.014 C 
HETATM    2  C2  UNL     1     -34.777  18.734  -4.315  1.00 20.00    -0.091 C 
HETATM    3  C10 UNL     1     -33.916  18.233  -5.386  1.00 20.00     0.268 C 
ENDROOT
BRANCH   3   4
HETATM    4  O11 UNL     1     -33.014  17.276  -4.887  1.00 20.00    -0.344 OA
BRANCH   4   5
HETATM    5  C4  UNL     1     -33.553  16.005  -4.858  1.00 20.00     0.047 C 
HETATM    6  C3  UNL     1     -34.238  15.497  -5.896  1.00 20.00     0.006 C 
HETATM    7  C5  UNL     1     -34.822  14.116  -5.905  1.00 20.00     0.029 C 
HETATM    8  C6  UNL     1     -34.823  13.443  -4.531  1.00 20.00     0.004 C 
HETATM    9  C7  UNL     1     -33.527  13.722  -3.775  1.00 20.00     0.011 C 
HETATM   10  C8  UNL     1     -33.277  15.231  -3.591  1.00 20.00     0.038 C 
HETATM   11  C9  UNL     1     -34.106  15.795  -2.433  1.00 20.00     0.017 C 
ENDBRANCH   4   5
ENDBRANCH   3   4
TORSDOF 2
ENDMDL
MODEL 8
REMARK VINA RESULT:      -4.3     11.493     13.090
REMARK  2 active torsions:
REMARK  status: ('A' for Active; 'I' for Inactive)
REMARK    1  A    between atoms: C4_4  and  O11_11 
REMARK    2  A    between atoms: C10_10  and  O11_11 
ROOT
HETATM    1  C1  UNL     1     -35.304  17.556   1.218  1.00 20.00     0.014 C 
HETATM    2  C2  UNL     1     -34.754  17.296   0.182  1.00 20.00    -0.091 C 
HETATM    3  C10 UNL     1     -34.083  16.982  -1.080  1.00 20.00     0.268 C 
ENDROOT
BRANCH   3   4
HETATM    4  O11 UNL     1     -34.750  15.940  -1.747  1.00 20.00    -0.344 OA
BRANCH   4   5
HETATM    5  C4  UNL     1     -34.696  16.071  -3.121  1.00 20.00     0.047 C 
HETATM    6  C3  UNL     1     -35.758  16.466  -3.842  1.00 20.00     0.006 C 
HETATM    7  C5  UNL     1     -35.730  16.633  -5.332  1.00 20.00     0.029 C 
HETATM    8  C6  UNL     1     -34.481  16.044  -5.991  1.00 20.00     0.004 C 
HETATM    9  C7  UNL     1     -33.230  16.327  -5.164  1.00 20.00     0.011 C 
HETATM   10  C8  UNL     1     -33.347  15.775  -3.731  1.00 20.00     0.038 C 
HETATM   11  C9  UNL     1     -33.065  14.269  -3.690  1.00 20.00     0.017 C 
ENDBRANCH   4   5
ENDBRANCH   3   4
TORSDOF 2
ENDMDL
MODEL 9
REMARK VINA RESULT:      -4.3     11.400     12.629
REMARK  2 active torsions:
REMARK  status: ('A' for Active; 'I' for Inactive)
REMARK    1  A    between atoms: C4_4  and  O11_11 
REMARK    2  A    between atoms: C10_10  and  O11_11 
ROOT
HETATM    1  C1  UNL     1     -37.596  15.248  -6.789  1.00 20.00     0.014 C 
HETATM    2  C2  UNL     1     -37.542  15.612  -5.646  1.00 20.00    -0.091 C 
HETATM    3  C10 UNL     1     -37.476  16.060  -4.254  1.00 20.00     0.268 C 
ENDROOT
BRANCH   3   4
HETATM    4  O11 UNL     1     -37.005  15.025  -3.427  1.00 20.00    -0.344 OA
BRANCH   4   5
HETATM    5  C4  UNL     1     -35.648  14.814  -3.563  1.00 20.00     0.047 C 
HETATM    6  C3  UNL     1     -35.148  13.653  -4.015  1.00 20.00     0.006 C 
HETATM    7  C5  UNL     1     -33.681  13.395  -4.190  1.00 20.00     0.029 C 
HETATM    8  C6  UNL     1     -32.791  14.458  -3.543  1.00 20.00     0.004 C 
HETATM    9  C7  UNL     1     -33.355  15.860  -3.756  1.00 20.00     0.011 C 
HETATM   10  C8  UNL     1     -34.785  16.000  -3.202  1.00 20.00     0.038 C 
HETATM   11  C9  UNL     1     -34.775  16.207  -1.683  1.00 20.00     0.017 C 
ENDBRANCH   4   5
ENDBRANCH   3   4
TORSDOF 2
ENDMDL
