MODEL 1
REMARK VINA RESULT:      -4.5      0.000      0.000
REMARK  0 active torsions:
REMARK  status: ('A' for Active; 'I' for Inactive)
ROOT
HETATM    1  C1  UNL     1     -34.629  16.122  -3.007  1.00 20.00    -0.056 A 
HETATM    2  C2  UNL     1     -34.272  15.570  -5.231  1.00 20.00     0.087 A 
HETATM    3  C3  UNL     1     -34.667  16.139  -1.670  1.00 20.00     0.017 C 
HETATM    4  C4  UNL     1     -35.232  17.208  -3.884  1.00 20.00     0.158 A 
HETATM    5  C5  UNL     1     -35.181  17.186  -6.542  1.00 20.00     0.144 A 
HETATM    6  C6  UNL     1     -34.525  16.076  -7.409  1.00 20.00     0.141 A 
HETATM    7  C7  UNL     1     -33.990  15.040  -3.893  1.00 20.00     0.035 A 
HETATM    8  C8  UNL     1     -34.667  13.680  -3.704  1.00 20.00     0.028 C 
HETATM    9  C9  UNL     1     -32.480  14.940  -3.666  1.00 20.00     0.028 C 
HETATM   10  N10 UNL     1     -34.922  16.704  -5.204  1.00 20.00    -0.365 N 
HETATM   11  N11 UNL     1     -33.990  15.108  -6.425  1.00 20.00    -0.377 N 
HETATM   12  H26 UNL     1     -33.489  14.237  -6.563  1.00 20.00     0.160 HD
ENDROOT
TORSDOF 0
ENDMDL
MODEL 2
REMARK VINA RESULT:      -4.5      1.656      3.659
REMARK  0 active torsions:
REMARK  status: ('A' for Active; 'I' for Inactive)
ROOT
HETATM    1  C1  UNL     1     -34.359  15.435  -5.654  1.00 20.00    -0.056 A 
HETATM    2  C2  UNL     1     -34.964  15.591  -3.421  1.00 20.00     0.087 A 
HETATM    3  C3  UNL     1     -34.253  15.095  -6.943  1.00 20.00     0.017 C 
HETATM    4  C4  UNL     1     -33.517  16.514  -4.992  1.00 20.00     0.158 A 
HETATM    5  C5  UNL     1     -33.701  17.196  -2.429  1.00 20.00     0.144 A 
HETATM    6  C6  UNL     1     -34.685  16.559  -1.409  1.00 20.00     0.141 A 
HETATM    7  C7  UNL     1     -35.320  14.825  -4.620  1.00 20.00     0.035 A 
HETATM    8  C8  UNL     1     -35.046  13.335  -4.402  1.00 20.00     0.028 C 
HETATM    9  C9  UNL     1     -36.783  15.068  -4.994  1.00 20.00     0.028 C 
HETATM   10  N10 UNL     1     -34.020  16.469  -3.637  1.00 20.00    -0.365 N 
HETATM   11  N11 UNL     1     -35.423  15.544  -2.193  1.00 20.00    -0.377 N 
HETATM   12  H26 UNL     1     -36.156  14.900  -1.915  1.00 20.00     0.160 HD
ENDROOT
TORSDOF 0
ENDMDL
MODEL 3
REMARK VINA RESULT:      -4.4      2.160      3.606
REMARK  0 active torsions:
REMARK  status: ('A' for Active; 'I' for Inactive)
ROOT
HETATM    1  C1  UNL     1     -34.272  14.736  -3.547  1.00 20.00    -0.056 A 
HETATM    2  C2  UNL     1     -36.248  15.906  -3.228  1.00 20.00     0.087 A 
HETATM    3  C3  UNL     1     -32.992  14.348  -3.591  1.00 20.00     0.017 C 
HETATM    4  C4  UNL     1     -35.429  13.889  -4.053  1.00 20.00     0.158 A 
HETATM    5  C5  UNL     1     -37.976  14.647  -3.991  1.00 20.00     0.144 A 
HETATM    6  C6  UNL     1     -38.487  16.002  -3.428  1.00 20.00     0.141 A 
HETATM    7  C7  UNL     1     -34.808  16.068  -2.999  1.00 20.00     0.035 A 
HETATM    8  C8  UNL     1     -34.273  17.265  -3.789  1.00 20.00     0.028 C 
HETATM    9  C9  UNL     1     -34.521  16.222  -1.504  1.00 20.00     0.028 C 
HETATM   10  N10 UNL     1     -36.551  14.760  -3.780  1.00 20.00    -0.365 N 
HETATM   11  N11 UNL     1     -37.262  16.700  -2.981  1.00 20.00    -0.377 N 
HETATM   12  H26 UNL     1     -37.141  17.613  -2.555  1.00 20.00     0.160 HD
ENDROOT
TORSDOF 0
ENDMDL
MODEL 4
REMARK VINA RESULT:      -4.3      1.501      1.501
REMARK  0 active torsions:
REMARK  status: ('A' for Active; 'I' for Inactive)
ROOT
HETATM    1  C1  UNL     1     -35.107  15.685  -3.175  1.00 20.00    -0.056 A 
HETATM    2  C2  UNL     1     -35.021  15.010  -5.392  1.00 20.00     0.087 A 
HETATM    3  C3  UNL     1     -34.821  15.984  -1.903  1.00 20.00     0.017 C 
HETATM    4  C4  UNL     1     -36.487  15.851  -3.792  1.00 20.00     0.158 A 
HETATM    5  C5  UNL     1     -37.082  15.249  -6.312  1.00 20.00     0.144 A 
HETATM    6  C6  UNL     1     -36.074  14.692  -7.355  1.00 20.00     0.141 A 
HETATM    7  C7  UNL     1     -34.134  15.133  -4.230  1.00 20.00     0.035 A 
HETATM    8  C8  UNL     1     -33.584  13.761  -3.831  1.00 20.00     0.028 C 
HETATM    9  C9  UNL     1     -33.001  16.117  -4.526  1.00 20.00     0.028 C 
HETATM   10  N10 UNL     1     -36.246  15.391  -5.142  1.00 20.00    -0.365 N 
HETATM   11  N11 UNL     1     -34.797  14.590  -6.614  1.00 20.00    -0.377 N 
HETATM   12  H26 UNL     1     -33.883  14.271  -6.917  1.00 20.00     0.160 HD
ENDROOT
TORSDOF 0
ENDMDL
MODEL 5
REMARK VINA RESULT:      -4.2      1.174      1.316
REMARK  0 active torsions:
REMARK  status: ('A' for Active; 'I' for Inactive)
ROOT
HETATM    1  C1  UNL     1     -34.037  16.116  -3.658  1.00 20.00    -0.056 A 
HETATM    2  C2  UNL     1     -34.733  15.041  -5.591  1.00 20.00     0.087 A 
HETATM    3  C3  UNL     1     -33.744  16.440  -2.394  1.00 20.00     0.017 C 
HETATM    4  C4  UNL     1     -33.802  17.039  -4.844  1.00 20.00     0.158 A 
HETATM    5  C5  UNL     1     -34.391  16.421  -7.361  1.00 20.00     0.144 A 
HETATM    6  C6  UNL     1     -35.009  15.072  -7.824  1.00 20.00     0.141 A 
HETATM    7  C7  UNL     1     -34.649  14.793  -4.148  1.00 20.00     0.035 A 
HETATM    8  C8  UNL     1     -36.045  14.564  -3.564  1.00 20.00     0.028 C 
HETATM    9  C9  UNL     1     -33.730  13.604  -3.864  1.00 20.00     0.028 C 
HETATM   10  N10 UNL     1     -34.285  16.220  -5.934  1.00 20.00    -0.365 N 
HETATM   11  N11 UNL     1     -35.174  14.295  -6.576  1.00 20.00    -0.377 N 
HETATM   12  H26 UNL     1     -35.544  13.364  -6.424  1.00 20.00     0.160 HD
ENDROOT
TORSDOF 0
ENDMDL
MODEL 6
REMARK VINA RESULT:      -4.2      1.260      2.602
REMARK  0 active torsions:
REMARK  status: ('A' for Active; 'I' for Inactive)
ROOT
HETATM    1  C1  UNL     1     -34.505  14.315  -5.037  1.00 20.00    -0.056 A 
HETATM    2  C2  UNL     1     -33.869  16.540  -4.885  1.00 20.00     0.087 A 
HETATM    3  C3  UNL     1     -34.757  13.024  -4.796  1.00 20.00     0.017 C 
HETATM    4  C4  UNL     1     -34.786  14.997  -6.367  1.00 20.00     0.158 A 
HETATM    5  C5  UNL     1     -34.279  17.557  -6.873  1.00 20.00     0.144 A 
HETATM    6  C6  UNL     1     -33.669  18.561  -5.855  1.00 20.00     0.141 A 
HETATM    7  C7  UNL     1     -33.902  15.332  -4.054  1.00 20.00     0.035 A 
HETATM    8  C8  UNL     1     -32.485  14.938  -3.628  1.00 20.00     0.028 C 
HETATM    9  C9  UNL     1     -34.804  15.547  -2.837  1.00 20.00     0.028 C 
HETATM   10  N10 UNL     1     -34.336  16.344  -6.090  1.00 20.00    -0.365 N 
HETATM   11  N11 UNL     1     -33.457  17.759  -4.630  1.00 20.00    -0.377 N 
HETATM   12  H26 UNL     1     -33.076  18.022  -3.727  1.00 20.00     0.160 HD
ENDROOT
TORSDOF 0
ENDMDL
MODEL 7
REMARK VINA RESULT:      -4.2      1.635      3.698
REMARK  0 active torsions:
REMARK  status: ('A' for Active; 'I' for Inactive)
ROOT
HETATM    1  C1  UNL     1     -34.469  16.999  -6.490  1.00 20.00    -0.056 A 
HETATM    2  C2  UNL     1     -34.416  14.953  -5.401  1.00 20.00     0.087 A 
HETATM    3  C3  UNL     1     -34.736  18.017  -7.316  1.00 20.00     0.017 C 
HETATM    4  C4  UNL     1     -33.462  17.075  -5.354  1.00 20.00     0.158 A 
HETATM    5  C5  UNL     1     -32.906  15.062  -3.709  1.00 20.00     0.144 A 
HETATM    6  C6  UNL     1     -33.568  13.657  -3.769  1.00 20.00     0.141 A 
HETATM    7  C7  UNL     1     -35.104  15.600  -6.523  1.00 20.00     0.035 A 
HETATM    8  C8  UNL     1     -34.796  14.867  -7.832  1.00 20.00     0.028 C 
HETATM    9  C9  UNL     1     -36.611  15.655  -6.264  1.00 20.00     0.028 C 
HETATM   10  N10 UNL     1     -33.562  15.741  -4.803  1.00 20.00    -0.365 N 
HETATM   11  N11 UNL     1     -34.509  13.741  -4.907  1.00 20.00    -0.377 N 
HETATM   12  H26 UNL     1     -35.139  13.048  -5.294  1.00 20.00     0.160 HD
ENDROOT
TORSDOF 0
ENDMDL
MODEL 8
REMARK VINA RESULT:      -4.2     12.228     13.729
REMARK  0 active torsions:
REMARK  status: ('A' for Active; 'I' for Inactive)
ROOT
HETATM    1  C1  UNL     1     -40.975   5.682  -0.824  1.00 20.00    -0.056 A 
HETATM    2  C2  UNL     1     -42.446   4.848  -2.411  1.00 20.00     0.087 A 
HETATM    3  C3  UNL     1     -40.325   6.447   0.060  1.00 20.00     0.017 C 
HETATM    4  C4  UNL     1     -40.569   4.257  -1.168  1.00 20.00     0.158 A 
HETATM    5  C5  UNL     1     -41.836   2.724  -2.932  1.00 20.00     0.144 A 
HETATM    6  C6  UNL     1     -43.092   3.151  -3.742  1.00 20.00     0.141 A 
HETATM    7  C7  UNL     1     -42.217   6.075  -1.641  1.00 20.00     0.035 A 
HETATM    8  C8  UNL     1     -41.930   7.249  -2.581  1.00 20.00     0.028 C 
HETATM    9  C9  UNL     1     -43.417   6.370  -0.740  1.00 20.00     0.028 C 
HETATM   10  N10 UNL     1     -41.574   3.910  -2.149  1.00 20.00    -0.365 N 
HETATM   11  N11 UNL     1     -43.359   4.538  -3.301  1.00 20.00    -0.377 N 
HETATM   12  H26 UNL     1     -44.083   5.191  -3.580  1.00 20.00     0.160 HD
ENDROOT
TORSDOF 0
ENDMDL
MODEL 9
REMARK VINA RESULT:      -4.1     12.534     13.691
REMARK  0 active torsions:
REMARK  status: ('A' for Active; 'I' for Inactive)
ROOT
HETATM    1  C1  UNL     1     -42.937   6.847  -1.305  1.00 20.00    -0.056 A 
HETATM    2  C2  UNL     1     -42.093   4.702  -1.562  1.00 20.00     0.087 A 
HETATM    3  C3  UNL     1     -43.251   8.066  -0.854  1.00 20.00     0.017 C 
HETATM    4  C4  UNL     1     -43.417   6.288  -2.634  1.00 20.00     0.158 A 
HETATM    5  C5  UNL     1     -42.817   3.863  -3.543  1.00 20.00     0.144 A 
HETATM    6  C6  UNL     1     -41.925   2.831  -2.800  1.00 20.00     0.141 A 
HETATM    7  C7  UNL     1     -42.059   5.804  -0.594  1.00 20.00     0.035 A 
HETATM    8  C8  UNL     1     -42.668   5.362   0.739  1.00 20.00     0.028 C 
HETATM    9  C9  UNL     1     -40.625   6.303  -0.406  1.00 20.00     0.028 C 
HETATM   10  N10 UNL     1     -42.809   4.976  -2.622  1.00 20.00    -0.365 N 
HETATM   11  N11 UNL     1     -41.541   3.513  -1.545  1.00 20.00    -0.377 N 
HETATM   12  H26 UNL     1     -40.966   3.196  -0.771  1.00 20.00     0.160 HD
ENDROOT
TORSDOF 0
ENDMDL
