MODEL 1
REMARK VINA RESULT:      -4.9      0.000      0.000
REMARK  1 active torsions:
REMARK  status: ('A' for Active; 'I' for Inactive)
REMARK    1  A    between atoms: C3_3  and  C7_7 
ROOT
HETATM    1  C1  UNL     1     -33.741  17.441  -4.470  1.00 20.00    -0.029 C 
HETATM    2  C2  UNL     1     -33.649  17.442  -3.133  1.00 20.00    -0.026 C 
HETATM    3  C4  UNL     1     -34.069  16.219  -5.273  1.00 20.00     0.039 C 
HETATM    4  C5  UNL     1     -34.594  15.095  -3.075  1.00 20.00     0.020 C 
HETATM    5  C6  UNL     1     -33.901  16.221  -2.285  1.00 20.00     0.004 C 
HETATM    6  C7  UNL     1     -33.966  14.924  -4.459  1.00 20.00     0.059 C 
HETATM    7  C9  UNL     1     -34.727  16.578  -1.048  1.00 20.00     0.014 C 
ENDROOT
BRANCH   6   8
HETATM    8  C3  UNL     1     -34.647  13.814  -5.200  1.00 20.00     0.127 C 
HETATM    9  C8  UNL     1     -35.192  14.144  -6.563  1.00 20.00     0.091 C 
HETATM   10  O10 UNL     1     -34.753  12.687  -4.718  1.00 20.00    -0.298 OA
ENDBRANCH   6   8
TORSDOF 1
ENDMDL
MODEL 2
REMARK VINA RESULT:      -4.7     11.472     12.550
REMARK  1 active torsions:
REMARK  status: ('A' for Active; 'I' for Inactive)
REMARK    1  A    between atoms: C3_3  and  C7_7 
ROOT
HETATM    1  C1  UNL     1     -34.707   4.886   3.011  1.00 20.00    -0.029 C 
HETATM    2  C2  UNL     1     -35.181   4.883   4.265  1.00 20.00    -0.026 C 
HETATM    3  C4  UNL     1     -33.623   5.809   2.542  1.00 20.00     0.039 C 
HETATM    4  C5  UNL     1     -33.314   6.440   4.967  1.00 20.00     0.020 C 
HETATM    5  C6  UNL     1     -34.652   5.783   5.352  1.00 20.00     0.004 C 
HETATM    6  C7  UNL     1     -33.345   6.952   3.525  1.00 20.00     0.059 C 
HETATM    7  C9  UNL     1     -34.500   5.016   6.667  1.00 20.00     0.014 C 
ENDROOT
BRANCH   6   8
HETATM    8  C3  UNL     1     -32.039   7.600   3.180  1.00 20.00     0.127 C 
HETATM    9  C8  UNL     1     -31.939   8.241   1.823  1.00 20.00     0.091 C 
HETATM   10  O10 UNL     1     -31.095   7.610   3.970  1.00 20.00    -0.298 OA
ENDBRANCH   6   8
TORSDOF 1
ENDMDL
MODEL 3
REMARK VINA RESULT:      -4.6      1.320      1.504
REMARK  1 active torsions:
REMARK  status: ('A' for Active; 'I' for Inactive)
REMARK    1  A    between atoms: C3_3  and  C7_7 
ROOT
HETATM    1  C1  UNL     1     -33.700  17.948  -3.646  1.00 20.00    -0.029 C 
HETATM    2  C2  UNL     1     -33.770  18.209  -2.334  1.00 20.00    -0.026 C 
HETATM    3  C4  UNL     1     -33.810  16.566  -4.219  1.00 20.00     0.039 C 
HETATM    4  C5  UNL     1     -34.486  15.820  -1.904  1.00 20.00     0.020 C 
HETATM    5  C6  UNL     1     -34.005  17.148  -1.290  1.00 20.00     0.004 C 
HETATM    6  C7  UNL     1     -33.683  15.468  -3.158  1.00 20.00     0.059 C 
HETATM    7  C9  UNL     1     -35.004  17.630  -0.237  1.00 20.00     0.014 C 
ENDROOT
BRANCH   6   8
HETATM    8  C3  UNL     1     -34.160  14.167  -3.727  1.00 20.00     0.127 C 
HETATM    9  C8  UNL     1     -35.608  14.093  -4.127  1.00 20.00     0.091 C 
HETATM   10  O10 UNL     1     -33.403  13.206  -3.861  1.00 20.00    -0.298 OA
ENDBRANCH   6   8
TORSDOF 1
ENDMDL
MODEL 4
REMARK VINA RESULT:      -4.5     11.793     13.087
REMARK  1 active torsions:
REMARK  status: ('A' for Active; 'I' for Inactive)
REMARK    1  A    between atoms: C3_3  and  C7_7 
ROOT
HETATM    1  C1  UNL     1     -34.456   5.168   2.566  1.00 20.00    -0.029 C 
HETATM    2  C2  UNL     1     -33.336   5.761   2.130  1.00 20.00    -0.026 C 
HETATM    3  C4  UNL     1     -34.882   5.169   4.004  1.00 20.00     0.039 C 
HETATM    4  C5  UNL     1     -33.030   6.837   4.400  1.00 20.00     0.020 C 
HETATM    5  C6  UNL     1     -32.399   6.526   3.029  1.00 20.00     0.004 C 
HETATM    6  C7  UNL     1     -33.770   5.619   4.957  1.00 20.00     0.059 C 
HETATM    7  C9  UNL     1     -31.937   7.821   2.359  1.00 20.00     0.014 C 
ENDROOT
BRANCH   6   8
HETATM    8  C3  UNL     1     -34.360   5.943   6.295  1.00 20.00     0.127 C 
HETATM    9  C8  UNL     1     -33.845   7.179   6.981  1.00 20.00     0.091 C 
HETATM   10  O10 UNL     1     -35.224   5.233   6.808  1.00 20.00    -0.298 OA
ENDBRANCH   6   8
TORSDOF 1
ENDMDL
MODEL 5
REMARK VINA RESULT:      -4.4      1.332      1.555
REMARK  1 active torsions:
REMARK  status: ('A' for Active; 'I' for Inactive)
REMARK    1  A    between atoms: C3_3  and  C7_7 
ROOT
HETATM    1  C1  UNL     1     -33.728  18.344  -3.523  1.00 20.00    -0.029 C 
HETATM    2  C2  UNL     1     -33.715  18.213  -2.189  1.00 20.00    -0.026 C 
HETATM    3  C4  UNL     1     -33.875  17.185  -4.463  1.00 20.00     0.039 C 
HETATM    4  C5  UNL     1     -34.404  15.790  -2.427  1.00 20.00     0.020 C 
HETATM    5  C6  UNL     1     -33.884  16.891  -1.485  1.00 20.00     0.004 C 
HETATM    6  C7  UNL     1     -33.681  15.830  -3.775  1.00 20.00     0.059 C 
HETATM    7  C9  UNL     1     -34.814  17.031  -0.279  1.00 20.00     0.014 C 
ENDROOT
BRANCH   6   8
HETATM    8  C3  UNL     1     -34.194  14.740  -4.667  1.00 20.00     0.127 C 
HETATM    9  C8  UNL     1     -34.623  13.463  -3.997  1.00 20.00     0.091 C 
HETATM   10  O10 UNL     1     -34.262  14.883  -5.887  1.00 20.00    -0.298 OA
ENDBRANCH   6   8
TORSDOF 1
ENDMDL
MODEL 6
REMARK VINA RESULT:      -4.4      1.977      4.367
REMARK  1 active torsions:
REMARK  status: ('A' for Active; 'I' for Inactive)
REMARK    1  A    between atoms: C3_3  and  C7_7 
ROOT
HETATM    1  C1  UNL     1     -34.956  13.430  -4.247  1.00 20.00    -0.029 C 
HETATM    2  C2  UNL     1     -34.769  13.658  -5.554  1.00 20.00    -0.026 C 
HETATM    3  C4  UNL     1     -34.686  14.453  -3.185  1.00 20.00     0.039 C 
HETATM    4  C5  UNL     1     -34.394  16.112  -5.065  1.00 20.00     0.020 C 
HETATM    5  C6  UNL     1     -34.303  14.981  -6.106  1.00 20.00     0.004 C 
HETATM    6  C7  UNL     1     -33.880  15.650  -3.700  1.00 20.00     0.059 C 
HETATM    7  C9  UNL     1     -35.093  15.358  -7.360  1.00 20.00     0.014 C 
ENDROOT
BRANCH   6   8
HETATM    8  C3  UNL     1     -33.964  16.772  -2.710  1.00 20.00     0.127 C 
HETATM    9  C8  UNL     1     -34.520  16.437  -1.353  1.00 20.00     0.091 C 
HETATM   10  O10 UNL     1     -33.595  17.911  -2.993  1.00 20.00    -0.298 OA
ENDBRANCH   6   8
TORSDOF 1
ENDMDL
MODEL 7
REMARK VINA RESULT:      -4.3      2.107      2.238
REMARK  1 active torsions:
REMARK  status: ('A' for Active; 'I' for Inactive)
REMARK    1  A    between atoms: C3_3  and  C7_7 
ROOT
HETATM    1  C1  UNL     1     -33.709  15.559  -4.803  1.00 20.00    -0.029 C 
HETATM    2  C2  UNL     1     -33.333  15.802  -3.540  1.00 20.00    -0.026 C 
HETATM    3  C4  UNL     1     -35.107  15.178  -5.187  1.00 20.00     0.039 C 
HETATM    4  C5  UNL     1     -35.756  15.737  -2.813  1.00 20.00     0.020 C 
HETATM    5  C6  UNL     1     -34.281  15.754  -2.369  1.00 20.00     0.004 C 
HETATM    6  C7  UNL     1     -35.969  14.778  -3.985  1.00 20.00     0.059 C 
HETATM    7  C9  UNL     1     -34.033  16.927  -1.419  1.00 20.00     0.014 C 
ENDROOT
BRANCH   6   8
HETATM    8  C3  UNL     1     -37.413  14.768  -4.387  1.00 20.00     0.127 C 
HETATM    9  C8  UNL     1     -37.764  15.478  -5.666  1.00 20.00     0.091 C 
HETATM   10  O10 UNL     1     -38.268  14.205  -3.704  1.00 20.00    -0.298 OA
ENDBRANCH   6   8
TORSDOF 1
ENDMDL
MODEL 8
REMARK VINA RESULT:      -4.2     11.161     12.654
REMARK  1 active torsions:
REMARK  status: ('A' for Active; 'I' for Inactive)
REMARK    1  A    between atoms: C3_3  and  C7_7 
ROOT
HETATM    1  C1  UNL     1     -40.787   5.849  -0.444  1.00 20.00    -0.029 C 
HETATM    2  C2  UNL     1     -40.900   4.616  -0.955  1.00 20.00    -0.026 C 
HETATM    3  C4  UNL     1     -41.352   7.070  -1.104  1.00 20.00     0.039 C 
HETATM    4  C5  UNL     1     -42.520   5.492  -2.690  1.00 20.00     0.020 C 
HETATM    5  C6  UNL     1     -41.640   4.314  -2.233  1.00 20.00     0.004 C 
HETATM    6  C7  UNL     1     -41.777   6.822  -2.556  1.00 20.00     0.059 C 
HETATM    7  C9  UNL     1     -42.490   3.051  -2.085  1.00 20.00     0.014 C 
ENDROOT
BRANCH   6   8
HETATM    8  C3  UNL     1     -42.648   7.949  -3.021  1.00 20.00     0.127 C 
HETATM    9  C8  UNL     1     -42.537   8.336  -4.470  1.00 20.00     0.091 C 
HETATM   10  O10 UNL     1     -43.417   8.528  -2.255  1.00 20.00    -0.298 OA
ENDBRANCH   6   8
TORSDOF 1
ENDMDL
MODEL 9
REMARK VINA RESULT:      -4.2      2.058      3.223
REMARK  1 active torsions:
REMARK  status: ('A' for Active; 'I' for Inactive)
REMARK    1  A    between atoms: C3_3  and  C7_7 
ROOT
HETATM    1  C1  UNL     1     -36.141  15.973  -6.937  1.00 20.00    -0.029 C 
HETATM    2  C2  UNL     1     -35.259  16.974  -7.060  1.00 20.00    -0.026 C 
HETATM    3  C4  UNL     1     -35.881  14.742  -6.121  1.00 20.00     0.039 C 
HETATM    4  C5  UNL     1     -33.829  15.929  -5.253  1.00 20.00     0.020 C 
HETATM    5  C6  UNL     1     -33.923  16.992  -6.363  1.00 20.00     0.004 C 
HETATM    6  C7  UNL     1     -34.410  14.592  -5.718  1.00 20.00     0.059 C 
HETATM    7  C9  UNL     1     -33.627  18.378  -5.787  1.00 20.00     0.014 C 
ENDROOT
BRANCH   6   8
HETATM    8  C3  UNL     1     -34.293  13.572  -4.627  1.00 20.00     0.127 C 
HETATM    9  C8  UNL     1     -33.178  13.766  -3.635  1.00 20.00     0.091 C 
HETATM   10  O10 UNL     1     -35.071  12.622  -4.546  1.00 20.00    -0.298 OA
ENDBRANCH   6   8
TORSDOF 1
ENDMDL
