MODEL 1
REMARK VINA RESULT:      -3.4      0.000      0.000
REMARK  1 active torsions:
REMARK  status: ('A' for Active; 'I' for Inactive)
REMARK    1  A    between atoms: C3_3  and  N6_6 
ROOT
HETATM    1  C1  UNL     1     -35.891  14.616  -3.812  1.00 20.00     0.216 C 
HETATM    2  C4  UNL     1     -33.617  14.286  -3.654  1.00 20.00     0.158 C 
HETATM    3  C5  UNL     1     -34.231  13.270  -4.591  1.00 20.00     0.198 C 
HETATM    4  N6  UNL     1     -34.711  15.160  -3.349  1.00 20.00    -0.327 N 
HETATM    5  O7  UNL     1     -35.652  13.446  -4.477  1.00 20.00    -0.325 OA
HETATM    6  S8  UNL     1     -37.464  15.127  -3.686  1.00 20.00    -0.033 SA
ENDROOT
BRANCH   4   7
HETATM    7  C3  UNL     1     -34.538  16.318  -2.649  1.00 20.00     0.083 C 
HETATM    8  C2  UNL     1     -34.634  16.383  -1.320  1.00 20.00     0.030 C 
ENDBRANCH   4   7
TORSDOF 1
ENDMDL
MODEL 2
REMARK VINA RESULT:      -3.3      1.968      2.019
REMARK  1 active torsions:
REMARK  status: ('A' for Active; 'I' for Inactive)
REMARK    1  A    between atoms: C3_3  and  N6_6 
ROOT
HETATM    1  C1  UNL     1     -34.144  15.574  -5.051  1.00 20.00     0.216 C 
HETATM    2  C4  UNL     1     -34.406  13.897  -3.494  1.00 20.00     0.158 C 
HETATM    3  C5  UNL     1     -34.446  13.325  -4.893  1.00 20.00     0.198 C 
HETATM    4  N6  UNL     1     -34.066  15.272  -3.707  1.00 20.00    -0.327 N 
HETATM    5  O7  UNL     1     -34.457  14.459  -5.776  1.00 20.00    -0.325 OA
HETATM    6  S8  UNL     1     -33.939  17.000  -5.874  1.00 20.00    -0.033 SA
ENDROOT
BRANCH   4   7
HETATM    7  C3  UNL     1     -33.772  16.114  -2.674  1.00 20.00     0.083 C 
HETATM    8  C2  UNL     1     -34.567  16.265  -1.613  1.00 20.00     0.030 C 
ENDBRANCH   4   7
TORSDOF 1
ENDMDL
MODEL 3
REMARK VINA RESULT:      -3.3     11.611     11.892
REMARK  1 active torsions:
REMARK  status: ('A' for Active; 'I' for Inactive)
REMARK    1  A    between atoms: C3_3  and  N6_6 
ROOT
HETATM    1  C1  UNL     1     -33.932   6.267   5.216  1.00 20.00     0.216 C 
HETATM    2  C4  UNL     1     -34.111   5.347   3.112  1.00 20.00     0.158 C 
HETATM    3  C5  UNL     1     -35.355   5.054   3.919  1.00 20.00     0.198 C 
HETATM    4  N6  UNL     1     -33.365   6.229   3.959  1.00 20.00    -0.327 N 
HETATM    5  O7  UNL     1     -35.068   5.506   5.252  1.00 20.00    -0.325 OA
HETATM    6  S8  UNL     1     -33.473   7.039   6.611  1.00 20.00    -0.033 SA
ENDROOT
BRANCH   4   7
HETATM    7  C3  UNL     1     -32.234   6.862   3.530  1.00 20.00     0.083 C 
HETATM    8  C2  UNL     1     -32.219   7.690   2.484  1.00 20.00     0.030 C 
ENDBRANCH   4   7
TORSDOF 1
ENDMDL
MODEL 4
REMARK VINA RESULT:      -3.3     11.276     12.099
REMARK  1 active torsions:
REMARK  status: ('A' for Active; 'I' for Inactive)
REMARK    1  A    between atoms: C3_3  and  N6_6 
ROOT
HETATM    1  C1  UNL     1     -41.968   6.158  -2.249  1.00 20.00     0.216 C 
HETATM    2  C4  UNL     1     -40.821   4.618  -0.978  1.00 20.00     0.158 C 
HETATM    3  C5  UNL     1     -40.664   6.002  -0.392  1.00 20.00     0.198 C 
HETATM    4  N6  UNL     1     -41.768   4.810  -2.035  1.00 20.00    -0.327 N 
HETATM    5  O7  UNL     1     -41.256   6.897  -1.347  1.00 20.00    -0.325 OA
HETATM    6  S8  UNL     1     -42.878   6.973  -3.371  1.00 20.00    -0.033 SA
ENDROOT
BRANCH   4   7
HETATM    7  C3  UNL     1     -42.309   3.762  -2.722  1.00 20.00     0.083 C 
HETATM    8  C2  UNL     1     -41.601   2.692  -3.089  1.00 20.00     0.030 C 
ENDBRANCH   4   7
TORSDOF 1
ENDMDL
MODEL 5
REMARK VINA RESULT:      -3.2      2.072      2.454
REMARK  1 active torsions:
REMARK  status: ('A' for Active; 'I' for Inactive)
REMARK    1  A    between atoms: C3_3  and  N6_6 
ROOT
HETATM    1  C1  UNL     1     -34.305  15.078  -4.402  1.00 20.00     0.216 C 
HETATM    2  C4  UNL     1     -33.710  17.217  -3.789  1.00 20.00     0.158 C 
HETATM    3  C5  UNL     1     -33.501  17.020  -5.273  1.00 20.00     0.198 C 
HETATM    4  N6  UNL     1     -34.350  16.003  -3.379  1.00 20.00    -0.327 N 
HETATM    5  O7  UNL     1     -33.725  15.621  -5.514  1.00 20.00    -0.325 OA
HETATM    6  S8  UNL     1     -34.807  13.499  -4.483  1.00 20.00    -0.033 SA
ENDROOT
BRANCH   4   7
HETATM    7  C3  UNL     1     -34.857  15.840  -2.122  1.00 20.00     0.083 C 
HETATM    8  C2  UNL     1     -34.516  16.621  -1.096  1.00 20.00     0.030 C 
ENDBRANCH   4   7
TORSDOF 1
ENDMDL
MODEL 6
REMARK VINA RESULT:      -3.2      2.822      3.662
REMARK  1 active torsions:
REMARK  status: ('A' for Active; 'I' for Inactive)
REMARK    1  A    between atoms: C3_3  and  N6_6 
ROOT
HETATM    1  C1  UNL     1     -33.978  16.928  -2.937  1.00 20.00     0.216 C 
HETATM    2  C4  UNL     1     -33.284  16.734  -5.124  1.00 20.00     0.158 C 
HETATM    3  C5  UNL     1     -33.650  18.168  -4.815  1.00 20.00     0.198 C 
HETATM    4  N6  UNL     1     -33.382  16.085  -3.851  1.00 20.00    -0.327 N 
HETATM    5  O7  UNL     1     -34.233  18.146  -3.502  1.00 20.00    -0.325 OA
HETATM    6  S8  UNL     1     -34.417  16.704  -1.352  1.00 20.00    -0.033 SA
ENDROOT
BRANCH   4   7
HETATM    7  C3  UNL     1     -32.974  14.796  -3.662  1.00 20.00     0.083 C 
HETATM    8  C2  UNL     1     -33.783  13.748  -3.823  1.00 20.00     0.030 C 
ENDBRANCH   4   7
TORSDOF 1
ENDMDL
MODEL 7
REMARK VINA RESULT:      -3.2     12.076     12.362
REMARK  1 active torsions:
REMARK  status: ('A' for Active; 'I' for Inactive)
REMARK    1  A    between atoms: C3_3  and  N6_6 
ROOT
HETATM    1  C1  UNL     1     -33.456   6.531   4.957  1.00 20.00     0.216 C 
HETATM    2  C4  UNL     1     -33.719   5.552   2.889  1.00 20.00     0.158 C 
HETATM    3  C5  UNL     1     -32.445   6.364   2.926  1.00 20.00     0.198 C 
HETATM    4  N6  UNL     1     -34.186   5.604   4.243  1.00 20.00    -0.327 N 
HETATM    5  O7  UNL     1     -32.469   7.068   4.178  1.00 20.00    -0.325 OA
HETATM    6  S8  UNL     1     -33.587   7.071   6.521  1.00 20.00    -0.033 SA
ENDROOT
BRANCH   4   7
HETATM    7  C3  UNL     1     -35.242   4.855   4.674  1.00 20.00     0.083 C 
HETATM    8  C2  UNL     1     -35.141   3.954   5.652  1.00 20.00     0.030 C 
ENDBRANCH   4   7
TORSDOF 1
ENDMDL
MODEL 8
REMARK VINA RESULT:      -3.2      2.762      3.719
REMARK  1 active torsions:
REMARK  status: ('A' for Active; 'I' for Inactive)
REMARK    1  A    between atoms: C3_3  and  N6_6 
ROOT
HETATM    1  C1  UNL     1     -33.882  15.549  -4.972  1.00 20.00     0.216 C 
HETATM    2  C4  UNL     1     -34.512  13.336  -4.859  1.00 20.00     0.158 C 
HETATM    3  C5  UNL     1     -33.624  13.690  -3.687  1.00 20.00     0.198 C 
HETATM    4  N6  UNL     1     -34.726  14.597  -5.506  1.00 20.00    -0.327 N 
HETATM    5  O7  UNL     1     -33.147  15.019  -3.949  1.00 20.00    -0.325 OA
HETATM    6  S8  UNL     1     -33.628  17.141  -5.365  1.00 20.00    -0.033 SA
ENDROOT
BRANCH   4   7
HETATM    7  C3  UNL     1     -35.614  14.743  -6.531  1.00 20.00     0.083 C 
HETATM    8  C2  UNL     1     -35.262  14.652  -7.815  1.00 20.00     0.030 C 
ENDBRANCH   4   7
TORSDOF 1
ENDMDL
MODEL 9
REMARK VINA RESULT:      -3.1      1.896      2.665
REMARK  1 active torsions:
REMARK  status: ('A' for Active; 'I' for Inactive)
REMARK    1  A    between atoms: C3_3  and  N6_6 
ROOT
HETATM    1  C1  UNL     1     -36.185  14.485  -3.817  1.00 20.00     0.216 C 
HETATM    2  C4  UNL     1     -37.491  16.266  -3.164  1.00 20.00     0.158 C 
HETATM    3  C5  UNL     1     -38.361  15.094  -3.556  1.00 20.00     0.198 C 
HETATM    4  N6  UNL     1     -36.164  15.728  -3.220  1.00 20.00    -0.327 N 
HETATM    5  O7  UNL     1     -37.468  14.116  -4.112  1.00 20.00    -0.325 OA
HETATM    6  S8  UNL     1     -34.966  13.433  -4.217  1.00 20.00    -0.033 SA
ENDROOT
BRANCH   4   7
HETATM    7  C3  UNL     1     -35.079  16.429  -2.778  1.00 20.00     0.083 C 
HETATM    8  C2  UNL     1     -34.633  16.358  -1.522  1.00 20.00     0.030 C 
ENDBRANCH   4   7
TORSDOF 1
ENDMDL
