MODEL 1
REMARK VINA RESULT:      -4.8      0.000      0.000
REMARK  1 active torsions:
REMARK  status: ('A' for Active; 'I' for Inactive)
REMARK    1  A    between atoms: C9_9  and  N10_10 
ROOT
HETATM    1  C1  UNL     1     -35.300  13.433  -4.295  1.00 20.00     0.072 A 
HETATM    2  C2  UNL     1     -33.972  13.579  -4.309  1.00 20.00    -0.002 A 
HETATM    3  C5  UNL     1     -35.852  14.600  -3.581  1.00 20.00     0.243 A 
HETATM    4  C8  UNL     1     -33.512  14.819  -3.626  1.00 20.00     0.154 A 
HETATM    5  N10 UNL     1     -34.770  15.384  -3.207  1.00 20.00    -0.340 N 
HETATM    6  O11 UNL     1     -37.042  14.780  -3.388  1.00 20.00    -0.268 OA
ENDROOT
BRANCH   5   7
HETATM    7  C9  UNL     1     -34.891  16.620  -2.484  1.00 20.00     0.094 C 
HETATM    8  C6  UNL     1     -34.656  16.449  -0.978  1.00 20.00     0.052 C 
HETATM    9  C3  UNL     1     -33.962  17.717  -0.608  1.00 20.00    -0.029 C 
HETATM   10  C4  UNL     1     -33.540  18.386  -1.683  1.00 20.00    -0.029 C 
HETATM   11  C7  UNL     1     -33.882  17.676  -2.950  1.00 20.00     0.052 C 
ENDBRANCH   5   7
TORSDOF 1
ENDMDL
MODEL 2
REMARK VINA RESULT:      -4.7      1.415      2.152
REMARK  1 active torsions:
REMARK  status: ('A' for Active; 'I' for Inactive)
REMARK    1  A    between atoms: C9_9  and  N10_10 
ROOT
HETATM    1  C1  UNL     1     -35.228  13.294  -4.361  1.00 20.00     0.072 A 
HETATM    2  C2  UNL     1     -36.303  14.080  -4.264  1.00 20.00    -0.002 A 
HETATM    3  C5  UNL     1     -34.134  13.973  -3.641  1.00 20.00     0.243 A 
HETATM    4  C8  UNL     1     -36.049  15.328  -3.493  1.00 20.00     0.154 A 
HETATM    5  N10 UNL     1     -34.659  15.160  -3.150  1.00 20.00    -0.340 N 
HETATM    6  O11 UNL     1     -33.006  13.525  -3.535  1.00 20.00    -0.268 OA
ENDROOT
BRANCH   5   7
HETATM    7  C9  UNL     1     -33.904  16.113  -2.385  1.00 20.00     0.094 C 
HETATM    8  C6  UNL     1     -33.713  17.445  -3.122  1.00 20.00     0.052 C 
HETATM    9  C3  UNL     1     -33.776  18.444  -2.016  1.00 20.00    -0.029 C 
HETATM   10  C4  UNL     1     -34.245  17.908  -0.887  1.00 20.00    -0.029 C 
HETATM   11  C7  UNL     1     -34.574  16.462  -1.051  1.00 20.00     0.052 C 
ENDBRANCH   5   7
TORSDOF 1
ENDMDL
MODEL 3
REMARK VINA RESULT:      -4.7      2.059      2.459
REMARK  1 active torsions:
REMARK  status: ('A' for Active; 'I' for Inactive)
REMARK    1  A    between atoms: C9_9  and  N10_10 
ROOT
HETATM    1  C1  UNL     1     -35.035  14.064  -6.764  1.00 20.00     0.072 A 
HETATM    2  C2  UNL     1     -35.041  15.392  -6.907  1.00 20.00    -0.002 A 
HETATM    3  C5  UNL     1     -34.864  13.789  -5.324  1.00 20.00     0.243 A 
HETATM    4  C8  UNL     1     -34.880  16.121  -5.619  1.00 20.00     0.154 A 
HETATM    5  N10 UNL     1     -34.777  15.021  -4.693  1.00 20.00    -0.340 N 
HETATM    6  O11 UNL     1     -34.816  12.669  -4.845  1.00 20.00    -0.268 OA
ENDROOT
BRANCH   5   7
HETATM    7  C9  UNL     1     -34.606  15.183  -3.275  1.00 20.00     0.094 C 
HETATM    8  C6  UNL     1     -33.350  15.988  -2.920  1.00 20.00     0.052 C 
HETATM    9  C3  UNL     1     -33.784  16.761  -1.721  1.00 20.00    -0.029 C 
HETATM   10  C4  UNL     1     -35.108  16.725  -1.557  1.00 20.00    -0.029 C 
HETATM   11  C7  UNL     1     -35.779  15.922  -2.620  1.00 20.00     0.052 C 
ENDBRANCH   5   7
TORSDOF 1
ENDMDL
MODEL 4
REMARK VINA RESULT:      -4.5      2.210      2.955
REMARK  1 active torsions:
REMARK  status: ('A' for Active; 'I' for Inactive)
REMARK    1  A    between atoms: C9_9  and  N10_10 
ROOT
HETATM    1  C1  UNL     1     -33.389  16.463  -5.352  1.00 20.00     0.072 A 
HETATM    2  C2  UNL     1     -33.780  17.738  -5.285  1.00 20.00    -0.002 A 
HETATM    3  C5  UNL     1     -33.244  15.985  -3.964  1.00 20.00     0.243 A 
HETATM    4  C8  UNL     1     -33.932  18.231  -3.888  1.00 20.00     0.154 A 
HETATM    5  N10 UNL     1     -33.571  17.053  -3.141  1.00 20.00    -0.340 N 
HETATM    6  O11 UNL     1     -32.898  14.855  -3.665  1.00 20.00    -0.268 OA
ENDROOT
BRANCH   5   7
HETATM    7  C9  UNL     1     -33.553  16.990  -1.705  1.00 20.00     0.094 C 
HETATM    8  C6  UNL     1     -33.365  18.367  -1.056  1.00 20.00     0.052 C 
HETATM    9  C3  UNL     1     -34.209  18.270   0.170  1.00 20.00    -0.029 C 
HETATM   10  C4  UNL     1     -35.021  17.211   0.133  1.00 20.00    -0.029 C 
HETATM   11  C7  UNL     1     -34.854  16.425  -1.123  1.00 20.00     0.052 C 
ENDBRANCH   5   7
TORSDOF 1
ENDMDL
MODEL 5
REMARK VINA RESULT:      -4.3      2.907      4.427
REMARK  1 active torsions:
REMARK  status: ('A' for Active; 'I' for Inactive)
REMARK    1  A    between atoms: C9_9  and  N10_10 
ROOT
HETATM    1  C1  UNL     1     -33.280  13.909  -3.623  1.00 20.00     0.072 A 
HETATM    2  C2  UNL     1     -32.939  15.192  -3.772  1.00 20.00    -0.002 A 
HETATM    3  C5  UNL     1     -34.277  13.605  -4.668  1.00 20.00     0.243 A 
HETATM    4  C8  UNL     1     -33.650  15.860  -4.897  1.00 20.00     0.154 A 
HETATM    5  N10 UNL     1     -34.463  14.776  -5.389  1.00 20.00    -0.340 N 
HETATM    6  O11 UNL     1     -34.800  12.514  -4.815  1.00 20.00    -0.268 OA
ENDROOT
BRANCH   5   7
HETATM    7  C9  UNL     1     -35.364  14.894  -6.503  1.00 20.00     0.094 C 
HETATM    8  C6  UNL     1     -36.802  15.204  -6.069  1.00 20.00     0.052 C 
HETATM    9  C3  UNL     1     -37.286  16.105  -7.155  1.00 20.00    -0.029 C 
HETATM   10  C4  UNL     1     -36.283  16.548  -7.918  1.00 20.00    -0.029 C 
HETATM   11  C7  UNL     1     -34.964  16.016  -7.468  1.00 20.00     0.052 C 
ENDBRANCH   5   7
TORSDOF 1
ENDMDL
MODEL 6
REMARK VINA RESULT:      -4.3      1.537      4.215
REMARK  1 active torsions:
REMARK  status: ('A' for Active; 'I' for Inactive)
REMARK    1  A    between atoms: C9_9  and  N10_10 
ROOT
HETATM    1  C1  UNL     1     -33.875  18.508  -1.866  1.00 20.00     0.072 A 
HETATM    2  C2  UNL     1     -33.675  18.605  -3.184  1.00 20.00    -0.002 A 
HETATM    3  C5  UNL     1     -34.210  17.099  -1.586  1.00 20.00     0.243 A 
HETATM    4  C8  UNL     1     -33.850  17.312  -3.900  1.00 20.00     0.154 A 
HETATM    5  N10 UNL     1     -34.185  16.436  -2.805  1.00 20.00    -0.340 N 
HETATM    6  O11 UNL     1     -34.454  16.664  -0.474  1.00 20.00    -0.268 OA
ENDROOT
BRANCH   5   7
HETATM    7  C9  UNL     1     -34.459  15.033  -2.958  1.00 20.00     0.094 C 
HETATM    8  C6  UNL     1     -35.815  14.766  -3.622  1.00 20.00     0.052 C 
HETATM    9  C3  UNL     1     -35.543  13.554  -4.448  1.00 20.00    -0.029 C 
HETATM   10  C4  UNL     1     -34.235  13.311  -4.560  1.00 20.00    -0.029 C 
HETATM   11  C7  UNL     1     -33.417  14.320  -3.827  1.00 20.00     0.052 C 
ENDBRANCH   5   7
TORSDOF 1
ENDMDL
MODEL 7
REMARK VINA RESULT:      -4.3      1.772      4.413
REMARK  1 active torsions:
REMARK  status: ('A' for Active; 'I' for Inactive)
REMARK    1  A    between atoms: C9_9  and  N10_10 
ROOT
HETATM    1  C1  UNL     1     -33.718  18.800  -1.447  1.00 20.00     0.072 A 
HETATM    2  C2  UNL     1     -34.087  17.878  -0.554  1.00 20.00    -0.002 A 
HETATM    3  C5  UNL     1     -33.774  18.158  -2.774  1.00 20.00     0.243 A 
HETATM    4  C8  UNL     1     -34.419  16.564  -1.170  1.00 20.00     0.154 A 
HETATM    5  N10 UNL     1     -34.188  16.850  -2.564  1.00 20.00    -0.340 N 
HETATM    6  O11 UNL     1     -33.496  18.723  -3.817  1.00 20.00    -0.268 OA
ENDROOT
BRANCH   5   7
HETATM    7  C9  UNL     1     -34.369  15.889  -3.619  1.00 20.00     0.094 C 
HETATM    8  C6  UNL     1     -33.171  14.944  -3.767  1.00 20.00     0.052 C 
HETATM    9  C3  UNL     1     -33.817  13.653  -4.142  1.00 20.00    -0.029 C 
HETATM   10  C4  UNL     1     -35.136  13.678  -3.938  1.00 20.00    -0.029 C 
HETATM   11  C7  UNL     1     -35.590  14.990  -3.394  1.00 20.00     0.052 C 
ENDBRANCH   5   7
TORSDOF 1
ENDMDL
MODEL 8
REMARK VINA RESULT:      -4.3      1.361      1.361
REMARK  1 active torsions:
REMARK  status: ('A' for Active; 'I' for Inactive)
REMARK    1  A    between atoms: C9_9  and  N10_10 
ROOT
HETATM    1  C1  UNL     1     -34.886  14.090  -5.760  1.00 20.00     0.072 A 
HETATM    2  C2  UNL     1     -34.376  13.370  -4.756  1.00 20.00    -0.002 A 
HETATM    3  C5  UNL     1     -35.166  15.435  -5.223  1.00 20.00     0.243 A 
HETATM    4  C8  UNL     1     -34.267  14.134  -3.484  1.00 20.00     0.154 A 
HETATM    5  N10 UNL     1     -34.790  15.416  -3.888  1.00 20.00    -0.340 N 
HETATM    6  O11 UNL     1     -35.641  16.346  -5.880  1.00 20.00    -0.268 OA
ENDROOT
BRANCH   5   7
HETATM    7  C9  UNL     1     -34.906  16.546  -3.007  1.00 20.00     0.094 C 
HETATM    8  C6  UNL     1     -34.817  16.153  -1.528  1.00 20.00     0.052 C 
HETATM    9  C3  UNL     1     -34.090  17.308  -0.925  1.00 20.00    -0.029 C 
HETATM   10  C4  UNL     1     -33.537  18.089  -1.855  1.00 20.00    -0.029 C 
HETATM   11  C7  UNL     1     -33.803  17.586  -3.234  1.00 20.00     0.052 C 
ENDBRANCH   5   7
TORSDOF 1
ENDMDL
MODEL 9
REMARK VINA RESULT:      -4.3     12.184     14.580
REMARK  1 active torsions:
REMARK  status: ('A' for Active; 'I' for Inactive)
REMARK    1  A    between atoms: C9_9  and  N10_10 
ROOT
HETATM    1  C1  UNL     1     -41.515   6.568  -1.546  1.00 20.00     0.072 A 
HETATM    2  C2  UNL     1     -40.806   5.711  -0.805  1.00 20.00    -0.002 A 
HETATM    3  C5  UNL     1     -42.270   5.764  -2.526  1.00 20.00     0.243 A 
HETATM    4  C8  UNL     1     -41.007   4.290  -1.200  1.00 20.00     0.154 A 
HETATM    5  N10 UNL     1     -41.942   4.437  -2.288  1.00 20.00    -0.340 N 
HETATM    6  O11 UNL     1     -43.021   6.237  -3.361  1.00 20.00    -0.268 OA
ENDROOT
BRANCH   5   7
HETATM    7  C9  UNL     1     -42.475   3.334  -3.040  1.00 20.00     0.094 C 
HETATM    8  C6  UNL     1     -41.383   2.397  -3.569  1.00 20.00     0.052 C 
HETATM    9  C3  UNL     1     -42.026   1.055  -3.473  1.00 20.00    -0.029 C 
HETATM   10  C4  UNL     1     -43.136   1.087  -2.731  1.00 20.00    -0.029 C 
HETATM   11  C7  UNL     1     -43.417   2.455  -2.209  1.00 20.00     0.052 C 
ENDBRANCH   5   7
TORSDOF 1
ENDMDL
