MODEL 1
REMARK VINA RESULT:      -4.5      0.000      0.000
REMARK  5 active torsions:
REMARK  status: ('A' for Active; 'I' for Inactive)
REMARK    1  A    between atoms: C2_2  and  C7_7 
REMARK    2  A    between atoms: C7_7  and  N11_11 
REMARK    3  A    between atoms: C8_8  and  C9_9 
REMARK    4  A    between atoms: C8_8  and  C10_10 
REMARK    5  A    between atoms: C9_9  and  N11_11 
ROOT
HETATM    1  C1  UNL     1     -32.164   8.743   1.460  1.00 20.00    -0.109 C 
HETATM    2  C2  UNL     1     -31.990   8.070   2.441  1.00 20.00    -0.077 C 
HETATM    3  C3  UNL     1     -32.375   9.559   0.266  1.00 20.00     0.112 C 
ENDROOT
BRANCH   2   4
HETATM    4  C7  UNL     1     -31.772   7.254   3.638  1.00 20.00     0.365 C 
BRANCH   4   5
HETATM    5  N11 UNL     1     -32.714   6.123   3.682  1.00 20.00     0.095 N 
HETATM    6  C6  UNL     1     -32.523   5.282   2.490  1.00 20.00     0.310 C 
BRANCH   5   7
HETATM    7  C9  UNL     1     -34.072   6.575   3.793  1.00 20.00     0.273 C 
BRANCH   7   8
HETATM    8  C8  UNL     1     -35.040   5.443   4.123  1.00 20.00     0.034 C 
BRANCH   8   9
HETATM    9  C10 UNL     1     -35.076   5.028   5.609  1.00 20.00    -0.021 C 
HETATM   10  C4  UNL     1     -34.346   6.076   6.455  1.00 20.00     0.009 C 
HETATM   11  C5  UNL     1     -34.457   3.651   5.847  1.00 20.00     0.009 C 
ENDBRANCH   8   9
ENDBRANCH   7   8
ENDBRANCH   5   7
ENDBRANCH   4   5
ENDBRANCH   2   4
TORSDOF 5
ENDMDL
MODEL 2
REMARK VINA RESULT:      -4.3     11.061     12.545
REMARK  5 active torsions:
REMARK  status: ('A' for Active; 'I' for Inactive)
REMARK    1  A    between atoms: C2_2  and  C7_7 
REMARK    2  A    between atoms: C7_7  and  N11_11 
REMARK    3  A    between atoms: C8_8  and  C9_9 
REMARK    4  A    between atoms: C8_8  and  C10_10 
REMARK    5  A    between atoms: C9_9  and  N11_11 
ROOT
HETATM    1  C1  UNL     1     -34.686  16.890  -0.856  1.00 20.00    -0.109 C 
HETATM    2  C2  UNL     1     -34.902  16.269  -1.862  1.00 20.00    -0.077 C 
HETATM    3  C3  UNL     1     -34.421  17.645   0.368  1.00 20.00     0.112 C 
ENDROOT
BRANCH   2   4
HETATM    4  C7  UNL     1     -35.171  15.508  -3.085  1.00 20.00     0.365 C 
BRANCH   4   5
HETATM    5  N11 UNL     1     -34.130  14.491  -3.312  1.00 20.00     0.095 N 
HETATM    6  C6  UNL     1     -32.846  15.159  -3.574  1.00 20.00     0.310 C 
BRANCH   5   7
HETATM    7  C9  UNL     1     -34.488  13.603  -4.382  1.00 20.00     0.273 C 
BRANCH   7   8
HETATM    8  C8  UNL     1     -35.431  14.255  -5.390  1.00 20.00     0.034 C 
BRANCH   8   9
HETATM    9  C10 UNL     1     -34.794  14.594  -6.754  1.00 20.00    -0.021 C 
HETATM   10  C4  UNL     1     -34.297  16.042  -6.746  1.00 20.00     0.009 C 
HETATM   11  C5  UNL     1     -35.763  14.388  -7.918  1.00 20.00     0.009 C 
ENDBRANCH   8   9
ENDBRANCH   7   8
ENDBRANCH   5   7
ENDBRANCH   4   5
ENDBRANCH   2   4
TORSDOF 5
ENDMDL
MODEL 3
REMARK VINA RESULT:      -4.3     11.603     13.133
REMARK  5 active torsions:
REMARK  status: ('A' for Active; 'I' for Inactive)
REMARK    1  A    between atoms: C2_2  and  C7_7 
REMARK    2  A    between atoms: C7_7  and  N11_11 
REMARK    3  A    between atoms: C8_8  and  C9_9 
REMARK    4  A    between atoms: C8_8  and  C10_10 
REMARK    5  A    between atoms: C9_9  and  N11_11 
ROOT
HETATM    1  C1  UNL     1     -34.733  16.965  -0.377  1.00 20.00    -0.109 C 
HETATM    2  C2  UNL     1     -34.408  16.473  -1.423  1.00 20.00    -0.077 C 
HETATM    3  C3  UNL     1     -35.127  17.567   0.897  1.00 20.00     0.112 C 
ENDROOT
BRANCH   2   4
HETATM    4  C7  UNL     1     -34.008  15.867  -2.696  1.00 20.00     0.365 C 
BRANCH   4   5
HETATM    5  N11 UNL     1     -33.788  16.898  -3.724  1.00 20.00     0.095 N 
HETATM    6  C6  UNL     1     -35.067  17.557  -4.035  1.00 20.00     0.310 C 
BRANCH   5   7
HETATM    7  C9  UNL     1     -33.183  16.345  -4.902  1.00 20.00     0.273 C 
BRANCH   7   8
HETATM    8  C8  UNL     1     -34.150  16.282  -6.081  1.00 20.00     0.034 C 
BRANCH   8   9
HETATM    9  C10 UNL     1     -34.387  14.871  -6.657  1.00 20.00    -0.021 C 
HETATM   10  C4  UNL     1     -35.294  14.961  -7.887  1.00 20.00     0.009 C 
HETATM   11  C5  UNL     1     -35.002  13.917  -5.632  1.00 20.00     0.009 C 
ENDBRANCH   8   9
ENDBRANCH   7   8
ENDBRANCH   5   7
ENDBRANCH   4   5
ENDBRANCH   2   4
TORSDOF 5
ENDMDL
MODEL 4
REMARK VINA RESULT:      -4.2     11.234     12.364
REMARK  5 active torsions:
REMARK  status: ('A' for Active; 'I' for Inactive)
REMARK    1  A    between atoms: C2_2  and  C7_7 
REMARK    2  A    between atoms: C7_7  and  N11_11 
REMARK    3  A    between atoms: C8_8  and  C9_9 
REMARK    4  A    between atoms: C8_8  and  C10_10 
REMARK    5  A    between atoms: C9_9  and  N11_11 
ROOT
HETATM    1  C1  UNL     1     -34.682  17.295   0.137  1.00 20.00    -0.109 C 
HETATM    2  C2  UNL     1     -34.694  16.652  -0.878  1.00 20.00    -0.077 C 
HETATM    3  C3  UNL     1     -34.668  18.076   1.373  1.00 20.00     0.112 C 
ENDROOT
BRANCH   2   4
HETATM    4  C7  UNL     1     -34.715  15.869  -2.117  1.00 20.00     0.365 C 
BRANCH   4   5
HETATM    5  N11 UNL     1     -33.563  16.205  -2.971  1.00 20.00     0.095 N 
HETATM    6  C6  UNL     1     -33.828  17.473  -3.670  1.00 20.00     0.310 C 
BRANCH   5   7
HETATM    7  C9  UNL     1     -33.269  15.147  -3.896  1.00 20.00     0.273 C 
BRANCH   7   8
HETATM    8  C8  UNL     1     -34.417  14.149  -4.024  1.00 20.00     0.034 C 
BRANCH   8   9
HETATM    9  C10 UNL     1     -35.191  14.213  -5.357  1.00 20.00    -0.021 C 
HETATM   10  C4  UNL     1     -34.331  14.902  -6.421  1.00 20.00     0.009 C 
HETATM   11  C5  UNL     1     -36.527  14.944  -5.222  1.00 20.00     0.009 C 
ENDBRANCH   8   9
ENDBRANCH   7   8
ENDBRANCH   5   7
ENDBRANCH   4   5
ENDBRANCH   2   4
TORSDOF 5
ENDMDL
MODEL 5
REMARK VINA RESULT:      -4.2     11.166     12.898
REMARK  5 active torsions:
REMARK  status: ('A' for Active; 'I' for Inactive)
REMARK    1  A    between atoms: C2_2  and  C7_7 
REMARK    2  A    between atoms: C7_7  and  N11_11 
REMARK    3  A    between atoms: C8_8  and  C9_9 
REMARK    4  A    between atoms: C8_8  and  C10_10 
REMARK    5  A    between atoms: C9_9  and  N11_11 
ROOT
HETATM    1  C1  UNL     1     -34.220  17.105  -2.325  1.00 20.00    -0.109 C 
HETATM    2  C2  UNL     1     -33.948  17.590  -3.390  1.00 20.00    -0.077 C 
HETATM    3  C3  UNL     1     -34.553  16.515  -1.029  1.00 20.00     0.112 C 
ENDROOT
BRANCH   2   4
HETATM    4  C7  UNL     1     -33.615  18.188  -4.687  1.00 20.00     0.365 C 
BRANCH   4   5
HETATM    5  N11 UNL     1     -33.991  17.290  -5.792  1.00 20.00     0.095 N 
HETATM    6  C6  UNL     1     -35.455  17.282  -5.936  1.00 20.00     0.310 C 
BRANCH   5   7
HETATM    7  C9  UNL     1     -33.475  15.966  -5.590  1.00 20.00     0.273 C 
BRANCH   7   8
HETATM    8  C8  UNL     1     -34.505  14.884  -5.904  1.00 20.00     0.034 C 
BRANCH   8   9
HETATM    9  C10 UNL     1     -34.684  13.815  -4.806  1.00 20.00    -0.021 C 
HETATM   10  C4  UNL     1     -35.984  14.076  -4.039  1.00 20.00     0.009 C 
HETATM   11  C5  UNL     1     -33.508  13.779  -3.829  1.00 20.00     0.009 C 
ENDBRANCH   8   9
ENDBRANCH   7   8
ENDBRANCH   5   7
ENDBRANCH   4   5
ENDBRANCH   2   4
TORSDOF 5
ENDMDL
MODEL 6
REMARK VINA RESULT:      -4.2     10.842     12.361
REMARK  5 active torsions:
REMARK  status: ('A' for Active; 'I' for Inactive)
REMARK    1  A    between atoms: C2_2  and  C7_7 
REMARK    2  A    between atoms: C7_7  and  N11_11 
REMARK    3  A    between atoms: C8_8  and  C9_9 
REMARK    4  A    between atoms: C8_8  and  C10_10 
REMARK    5  A    between atoms: C9_9  and  N11_11 
ROOT
HETATM    1  C1  UNL     1     -34.556  16.061  -6.597  1.00 20.00    -0.109 C 
HETATM    2  C2  UNL     1     -34.679  14.957  -6.137  1.00 20.00    -0.077 C 
HETATM    3  C3  UNL     1     -34.408  17.404  -7.156  1.00 20.00     0.112 C 
ENDROOT
BRANCH   2   4
HETATM    4  C7  UNL     1     -34.826  13.608  -5.583  1.00 20.00     0.365 C 
BRANCH   4   5
HETATM    5  N11 UNL     1     -35.279  13.661  -4.183  1.00 20.00     0.095 N 
HETATM    6  C6  UNL     1     -36.567  14.369  -4.113  1.00 20.00     0.310 C 
BRANCH   5   7
HETATM    7  C9  UNL     1     -34.296  14.277  -3.337  1.00 20.00     0.273 C 
BRANCH   7   8
HETATM    8  C8  UNL     1     -34.865  15.442  -2.532  1.00 20.00     0.034 C 
BRANCH   8   9
HETATM    9  C10 UNL     1     -33.854  16.557  -2.194  1.00 20.00    -0.021 C 
HETATM   10  C4  UNL     1     -34.180  17.150  -0.820  1.00 20.00     0.009 C 
HETATM   11  C5  UNL     1     -33.837  17.668  -3.244  1.00 20.00     0.009 C 
ENDBRANCH   8   9
ENDBRANCH   7   8
ENDBRANCH   5   7
ENDBRANCH   4   5
ENDBRANCH   2   4
TORSDOF 5
ENDMDL
MODEL 7
REMARK VINA RESULT:      -4.1     10.955     12.838
REMARK  5 active torsions:
REMARK  status: ('A' for Active; 'I' for Inactive)
REMARK    1  A    between atoms: C2_2  and  C7_7 
REMARK    2  A    between atoms: C7_7  and  N11_11 
REMARK    3  A    between atoms: C8_8  and  C9_9 
REMARK    4  A    between atoms: C8_8  and  C10_10 
REMARK    5  A    between atoms: C9_9  and  N11_11 
ROOT
HETATM    1  C1  UNL     1     -34.437  15.828  -6.934  1.00 20.00    -0.109 C 
HETATM    2  C2  UNL     1     -33.997  16.668  -6.197  1.00 20.00    -0.077 C 
HETATM    3  C3  UNL     1     -34.976  14.806  -7.831  1.00 20.00     0.112 C 
ENDROOT
BRANCH   2   4
HETATM    4  C7  UNL     1     -33.458  17.688  -5.292  1.00 20.00     0.365 C 
BRANCH   4   5
HETATM    5  N11 UNL     1     -34.084  17.595  -3.963  1.00 20.00     0.095 N 
HETATM    6  C6  UNL     1     -33.877  18.859  -3.238  1.00 20.00     0.310 C 
BRANCH   5   7
HETATM    7  C9  UNL     1     -33.578  16.476  -3.221  1.00 20.00     0.273 C 
BRANCH   7   8
HETATM    8  C8  UNL     1     -34.688  15.561  -2.713  1.00 20.00     0.034 C 
BRANCH   8   9
HETATM    9  C10 UNL     1     -34.629  14.111  -3.236  1.00 20.00    -0.021 C 
HETATM   10  C4  UNL     1     -33.249  13.836  -3.842  1.00 20.00     0.009 C 
HETATM   11  C5  UNL     1     -35.714  13.820  -4.274  1.00 20.00     0.009 C 
ENDBRANCH   8   9
ENDBRANCH   7   8
ENDBRANCH   5   7
ENDBRANCH   4   5
ENDBRANCH   2   4
TORSDOF 5
ENDMDL
MODEL 8
REMARK VINA RESULT:      -4.1     11.136     12.810
REMARK  5 active torsions:
REMARK  status: ('A' for Active; 'I' for Inactive)
REMARK    1  A    between atoms: C2_2  and  C7_7 
REMARK    2  A    between atoms: C7_7  and  N11_11 
REMARK    3  A    between atoms: C8_8  and  C9_9 
REMARK    4  A    between atoms: C8_8  and  C10_10 
REMARK    5  A    between atoms: C9_9  and  N11_11 
ROOT
HETATM    1  C1  UNL     1     -33.942  17.434  -6.010  1.00 20.00    -0.109 C 
HETATM    2  C2  UNL     1     -34.251  16.446  -6.620  1.00 20.00    -0.077 C 
HETATM    3  C3  UNL     1     -33.566  18.636  -5.267  1.00 20.00     0.112 C 
ENDROOT
BRANCH   2   4
HETATM    4  C7  UNL     1     -34.632  15.239  -7.360  1.00 20.00     0.365 C 
BRANCH   4   5
HETATM    5  N11 UNL     1     -35.427  14.333  -6.514  1.00 20.00     0.095 N 
HETATM    6  C6  UNL     1     -36.578  15.065  -5.964  1.00 20.00     0.310 C 
BRANCH   5   7
HETATM    7  C9  UNL     1     -34.628  13.753  -5.472  1.00 20.00     0.273 C 
BRANCH   7   8
HETATM    8  C8  UNL     1     -35.230  13.967  -4.086  1.00 20.00     0.034 C 
BRANCH   8   9
HETATM    9  C10 UNL     1     -34.287  14.629  -3.060  1.00 20.00    -0.021 C 
HETATM   10  C4  UNL     1     -34.886  15.959  -2.593  1.00 20.00     0.009 C 
HETATM   11  C5  UNL     1     -32.885  14.865  -3.623  1.00 20.00     0.009 C 
ENDBRANCH   8   9
ENDBRANCH   7   8
ENDBRANCH   5   7
ENDBRANCH   4   5
ENDBRANCH   2   4
TORSDOF 5
ENDMDL
MODEL 9
REMARK VINA RESULT:      -4.1     11.156     12.690
REMARK  5 active torsions:
REMARK  status: ('A' for Active; 'I' for Inactive)
REMARK    1  A    between atoms: C2_2  and  C7_7 
REMARK    2  A    between atoms: C7_7  and  N11_11 
REMARK    3  A    between atoms: C8_8  and  C9_9 
REMARK    4  A    between atoms: C8_8  and  C10_10 
REMARK    5  A    between atoms: C9_9  and  N11_11 
ROOT
HETATM    1  C1  UNL     1     -34.509  16.500  -1.262  1.00 20.00    -0.109 C 
HETATM    2  C2  UNL     1     -34.278  15.851  -2.246  1.00 20.00    -0.077 C 
HETATM    3  C3  UNL     1     -34.792  17.292  -0.066  1.00 20.00     0.112 C 
ENDROOT
BRANCH   2   4
HETATM    4  C7  UNL     1     -33.990  15.061  -3.447  1.00 20.00     0.365 C 
BRANCH   4   5
HETATM    5  N11 UNL     1     -35.082  14.115  -3.730  1.00 20.00     0.095 N 
HETATM    6  C6  UNL     1     -34.685  13.229  -4.835  1.00 20.00     0.310 C 
BRANCH   5   7
HETATM    7  C9  UNL     1     -36.308  14.802  -4.023  1.00 20.00     0.273 C 
BRANCH   7   8
HETATM    8  C8  UNL     1     -36.499  15.045  -5.517  1.00 20.00     0.034 C 
BRANCH   8   9
HETATM    9  C10 UNL     1     -36.352  16.515  -5.963  1.00 20.00    -0.021 C 
HETATM   10  C4  UNL     1     -34.993  16.715  -6.641  1.00 20.00     0.009 C 
HETATM   11  C5  UNL     1     -36.496  17.495  -4.799  1.00 20.00     0.009 C 
ENDBRANCH   8   9
ENDBRANCH   7   8
ENDBRANCH   5   7
ENDBRANCH   4   5
ENDBRANCH   2   4
TORSDOF 5
ENDMDL
