MODEL 1
REMARK VINA RESULT:      -5.3      0.000      0.000
REMARK  1 active torsions:
REMARK  status: ('A' for Active; 'I' for Inactive)
REMARK    1  A    between atoms: C10_10  and  O11_11 
ROOT
HETATM    1  C1  UNL     1     -33.660  17.399  -1.357  1.00 20.00     0.012 C 
HETATM    2  C2  UNL     1     -33.648  17.090  -5.679  1.00 20.00     0.015 C 
HETATM    3  C3  UNL     1     -34.026  16.441  -1.981  1.00 20.00    -0.108 C 
HETATM    4  C4  UNL     1     -33.627  16.155  -4.926  1.00 20.00    -0.078 C 
HETATM    5  C5  UNL     1     -36.409  14.568  -4.301  1.00 20.00     0.002 C 
HETATM    6  C6  UNL     1     -35.526  13.348  -4.507  1.00 20.00     0.004 C 
HETATM    7  C7  UNL     1     -35.973  15.397  -3.093  1.00 20.00     0.021 C 
HETATM    8  C8  UNL     1     -34.057  13.722  -4.736  1.00 20.00     0.053 C 
HETATM    9  C9  UNL     1     -34.476  15.262  -2.751  1.00 20.00     0.111 C 
HETATM   10  C10 UNL     1     -33.602  15.004  -4.000  1.00 20.00     0.134 C 
ENDROOT
BRANCH  10  11
HETATM   11  O11 UNL     1     -32.242  14.807  -3.597  1.00 20.00    -0.376 OA
HETATM   12  H23 UNL     1     -31.848  14.217  -4.257  1.00 20.00     0.211 HD
ENDBRANCH  10  11
TORSDOF 1
ENDMDL
MODEL 2
REMARK VINA RESULT:      -5.3      1.938      4.052
REMARK  1 active torsions:
REMARK  status: ('A' for Active; 'I' for Inactive)
REMARK    1  A    between atoms: C10_10  and  O11_11 
ROOT
HETATM    1  C1  UNL     1     -35.922  14.428  -7.918  1.00 20.00     0.012 C 
HETATM    2  C2  UNL     1     -37.192  14.762  -3.788  1.00 20.00     0.015 C 
HETATM    3  C3  UNL     1     -35.185  14.542  -6.977  1.00 20.00    -0.108 C 
HETATM    4  C4  UNL     1     -36.111  14.377  -4.143  1.00 20.00    -0.078 C 
HETATM    5  C5  UNL     1     -33.596  16.456  -4.082  1.00 20.00     0.002 C 
HETATM    6  C6  UNL     1     -32.886  15.266  -3.458  1.00 20.00     0.004 C 
HETATM    7  C7  UNL     1     -34.034  16.176  -5.520  1.00 20.00     0.021 C 
HETATM    8  C8  UNL     1     -33.770  14.015  -3.413  1.00 20.00     0.053 C 
HETATM    9  C9  UNL     1     -34.280  14.683  -5.817  1.00 20.00     0.111 C 
HETATM   10  C10 UNL     1     -34.780  13.904  -4.579  1.00 20.00     0.134 C 
ENDROOT
BRANCH  10  11
HETATM   11  O11 UNL     1     -34.906  12.517  -4.908  1.00 20.00    -0.376 OA
HETATM   12  H23 UNL     1     -35.807  12.261  -4.661  1.00 20.00     0.211 HD
ENDBRANCH  10  11
TORSDOF 1
ENDMDL
MODEL 3
REMARK VINA RESULT:      -4.8     11.349     13.507
REMARK  1 active torsions:
REMARK  status: ('A' for Active; 'I' for Inactive)
REMARK    1  A    between atoms: C10_10  and  O11_11 
ROOT
HETATM    1  C1  UNL     1     -43.211   3.233  -3.497  1.00 20.00     0.012 C 
HETATM    2  C2  UNL     1     -43.391   4.190   0.726  1.00 20.00     0.015 C 
HETATM    3  C3  UNL     1     -42.675   4.174  -2.979  1.00 20.00    -0.108 C 
HETATM    4  C4  UNL     1     -42.523   4.550  -0.021  1.00 20.00    -0.078 C 
HETATM    5  C5  UNL     1     -42.644   7.574  -1.244  1.00 20.00     0.002 C 
HETATM    6  C6  UNL     1     -41.169   7.566  -0.877  1.00 20.00     0.004 C 
HETATM    7  C7  UNL     1     -42.975   6.538  -2.320  1.00 20.00     0.021 C 
HETATM    8  C8  UNL     1     -40.707   6.208  -0.338  1.00 20.00     0.053 C 
HETATM    9  C9  UNL     1     -42.015   5.332  -2.340  1.00 20.00     0.111 C 
HETATM   10  C10 UNL     1     -41.454   4.994  -0.940  1.00 20.00     0.134 C 
ENDROOT
BRANCH  10  11
HETATM   11  O11 UNL     1     -40.512   3.922  -1.051  1.00 20.00    -0.376 OA
HETATM   12  H23 UNL     1     -40.515   3.655  -1.981  1.00 20.00     0.211 HD
ENDBRANCH  10  11
TORSDOF 1
ENDMDL
MODEL 4
REMARK VINA RESULT:      -4.8      1.858      2.825
REMARK  1 active torsions:
REMARK  status: ('A' for Active; 'I' for Inactive)
REMARK    1  A    between atoms: C10_10  and  O11_11 
ROOT
HETATM    1  C1  UNL     1     -34.703  16.459  -1.071  1.00 20.00     0.012 C 
HETATM    2  C2  UNL     1     -38.030  15.168  -3.530  1.00 20.00     0.015 C 
HETATM    3  C3  UNL     1     -34.609  16.029  -2.188  1.00 20.00    -0.108 C 
HETATM    4  C4  UNL     1     -36.965  15.527  -3.953  1.00 20.00    -0.078 C 
HETATM    5  C5  UNL     1     -34.771  13.274  -4.825  1.00 20.00     0.002 C 
HETATM    6  C6  UNL     1     -34.614  14.183  -6.033  1.00 20.00     0.004 C 
HETATM    7  C7  UNL     1     -34.353  13.966  -3.527  1.00 20.00     0.021 C 
HETATM    8  C8  UNL     1     -35.459  15.456  -5.921  1.00 20.00     0.053 C 
HETATM    9  C9  UNL     1     -34.495  15.500  -3.564  1.00 20.00     0.111 C 
HETATM   10  C10 UNL     1     -35.654  15.968  -4.474  1.00 20.00     0.134 C 
ENDROOT
BRANCH  10  11
HETATM   11  O11 UNL     1     -35.672  17.398  -4.524  1.00 20.00    -0.376 OA
HETATM   12  H23 UNL     1     -34.946  17.698  -3.958  1.00 20.00     0.211 HD
ENDBRANCH  10  11
TORSDOF 1
ENDMDL
MODEL 5
REMARK VINA RESULT:      -4.7      1.817      3.156
REMARK  1 active torsions:
REMARK  status: ('A' for Active; 'I' for Inactive)
REMARK    1  A    between atoms: C10_10  and  O11_11 
ROOT
HETATM    1  C1  UNL     1     -33.396  18.875  -4.382  1.00 20.00     0.012 C 
HETATM    2  C2  UNL     1     -34.643  16.563  -0.935  1.00 20.00     0.015 C 
HETATM    3  C3  UNL     1     -33.746  17.728  -4.411  1.00 20.00    -0.108 C 
HETATM    4  C4  UNL     1     -34.955  16.323  -2.070  1.00 20.00    -0.078 C 
HETATM    5  C5  UNL     1     -33.339  14.000  -3.696  1.00 20.00     0.002 C 
HETATM    6  C6  UNL     1     -34.744  13.592  -4.108  1.00 20.00     0.004 C 
HETATM    7  C7  UNL     1     -32.967  15.388  -4.218  1.00 20.00     0.021 C 
HETATM    8  C8  UNL     1     -35.812  14.560  -3.586  1.00 20.00     0.053 C 
HETATM    9  C9  UNL     1     -34.179  16.314  -4.446  1.00 20.00     0.111 C 
HETATM   10  C10 UNL     1     -35.339  16.028  -3.466  1.00 20.00     0.134 C 
ENDROOT
BRANCH  10  11
HETATM   11  O11 UNL     1     -36.454  16.865  -3.790  1.00 20.00    -0.376 OA
HETATM   12  H23 UNL     1     -37.131  16.683  -3.122  1.00 20.00     0.211 HD
ENDBRANCH  10  11
TORSDOF 1
ENDMDL
MODEL 6
REMARK VINA RESULT:      -4.7      1.268      3.360
REMARK  1 active torsions:
REMARK  status: ('A' for Active; 'I' for Inactive)
REMARK    1  A    between atoms: C10_10  and  O11_11 
ROOT
HETATM    1  C1  UNL     1     -34.685  16.577  -7.580  1.00 20.00     0.012 C 
HETATM    2  C2  UNL     1     -34.596  13.196  -4.872  1.00 20.00     0.015 C 
HETATM    3  C3  UNL     1     -34.642  16.653  -6.383  1.00 20.00    -0.108 C 
HETATM    4  C4  UNL     1     -34.194  14.295  -4.607  1.00 20.00    -0.078 C 
HETATM    5  C5  UNL     1     -36.098  16.299  -2.872  1.00 20.00     0.002 C 
HETATM    6  C6  UNL     1     -34.801  16.557  -2.122  1.00 20.00     0.004 C 
HETATM    7  C7  UNL     1     -36.018  16.752  -4.330  1.00 20.00     0.021 C 
HETATM    8  C8  UNL     1     -33.608  15.825  -2.746  1.00 20.00     0.053 C 
HETATM    9  C9  UNL     1     -34.589  16.745  -4.908  1.00 20.00     0.111 C 
HETATM   10  C10 UNL     1     -33.698  15.650  -4.280  1.00 20.00     0.134 C 
ENDROOT
BRANCH  10  11
HETATM   11  O11 UNL     1     -32.370  15.757  -4.803  1.00 20.00    -0.376 OA
HETATM   12  H23 UNL     1     -32.064  14.850  -4.952  1.00 20.00     0.211 HD
ENDBRANCH  10  11
TORSDOF 1
ENDMDL
MODEL 7
REMARK VINA RESULT:      -4.6      2.019      2.829
REMARK  1 active torsions:
REMARK  status: ('A' for Active; 'I' for Inactive)
REMARK    1  A    between atoms: C10_10  and  O11_11 
ROOT
HETATM    1  C1  UNL     1     -32.296  14.525  -3.553  1.00 20.00     0.012 C 
HETATM    2  C2  UNL     1     -35.055  14.571  -6.895  1.00 20.00     0.015 C 
HETATM    3  C3  UNL     1     -33.473  14.749  -3.473  1.00 20.00    -0.108 C 
HETATM    4  C4  UNL     1     -35.368  14.383  -5.751  1.00 20.00    -0.078 C 
HETATM    5  C5  UNL     1     -36.604  16.861  -4.024  1.00 20.00     0.002 C 
HETATM    6  C6  UNL     1     -37.605  15.801  -3.595  1.00 20.00     0.004 C 
HETATM    7  C7  UNL     1     -35.184  16.533  -3.563  1.00 20.00     0.021 C 
HETATM    8  C8  UNL     1     -37.268  14.416  -4.159  1.00 20.00     0.053 C 
HETATM    9  C9  UNL     1     -34.922  15.025  -3.377  1.00 20.00     0.111 C 
HETATM   10  C10 UNL     1     -35.755  14.152  -4.343  1.00 20.00     0.134 C 
ENDROOT
BRANCH  10  11
HETATM   11  O11 UNL     1     -35.523  12.769  -4.056  1.00 20.00    -0.376 OA
HETATM   12  H23 UNL     1     -36.387  12.335  -4.102  1.00 20.00     0.211 HD
ENDBRANCH  10  11
TORSDOF 1
ENDMDL
MODEL 8
REMARK VINA RESULT:      -4.6      2.038      3.304
REMARK  1 active torsions:
REMARK  status: ('A' for Active; 'I' for Inactive)
REMARK    1  A    between atoms: C10_10  and  O11_11 
ROOT
HETATM    1  C1  UNL     1     -38.073  14.737  -4.183  1.00 20.00     0.012 C 
HETATM    2  C2  UNL     1     -35.042  14.704  -7.280  1.00 20.00     0.015 C 
HETATM    3  C3  UNL     1     -36.897  14.891  -3.998  1.00 20.00    -0.108 C 
HETATM    4  C4  UNL     1     -34.924  15.241  -6.212  1.00 20.00    -0.078 C 
HETATM    5  C5  UNL     1     -33.269  13.714  -3.850  1.00 20.00     0.002 C 
HETATM    6  C6  UNL     1     -32.649  15.091  -3.670  1.00 20.00     0.004 C 
HETATM    7  C7  UNL     1     -34.768  13.715  -3.550  1.00 20.00     0.021 C 
HETATM    8  C8  UNL     1     -33.282  16.142  -4.588  1.00 20.00     0.053 C 
HETATM    9  C9  UNL     1     -35.448  15.080  -3.773  1.00 20.00     0.111 C 
HETATM   10  C10 UNL     1     -34.778  15.902  -4.898  1.00 20.00     0.134 C 
ENDROOT
BRANCH  10  11
HETATM   11  O11 UNL     1     -35.408  17.184  -4.991  1.00 20.00    -0.376 OA
HETATM   12  H23 UNL     1     -35.339  17.583  -4.111  1.00 20.00     0.211 HD
ENDBRANCH  10  11
TORSDOF 1
ENDMDL
MODEL 9
REMARK VINA RESULT:      -4.5      1.698      3.003
REMARK  1 active torsions:
REMARK  status: ('A' for Active; 'I' for Inactive)
REMARK    1  A    between atoms: C10_10  and  O11_11 
ROOT
HETATM    1  C1  UNL     1     -33.680  18.510  -6.269  1.00 20.00     0.012 C 
HETATM    2  C2  UNL     1     -37.081  15.860  -5.827  1.00 20.00     0.015 C 
HETATM    3  C3  UNL     1     -33.667  17.463  -5.682  1.00 20.00    -0.108 C 
HETATM    4  C4  UNL     1     -35.932  15.519  -5.750  1.00 20.00    -0.078 C 
HETATM    5  C5  UNL     1     -34.591  15.138  -2.799  1.00 20.00     0.002 C 
HETATM    6  C6  UNL     1     -34.054  13.863  -3.428  1.00 20.00     0.004 C 
HETATM    7  C7  UNL     1     -34.047  16.391  -3.486  1.00 20.00     0.021 C 
HETATM    8  C8  UNL     1     -34.417  13.745  -4.912  1.00 20.00     0.053 C 
HETATM    9  C9  UNL     1     -33.653  16.173  -4.960  1.00 20.00     0.111 C 
HETATM   10  C10 UNL     1     -34.518  15.098  -5.655  1.00 20.00     0.134 C 
ENDROOT
BRANCH  10  11
HETATM   11  O11 UNL     1     -34.042  14.891  -6.989  1.00 20.00    -0.376 OA
HETATM   12  H23 UNL     1     -33.206  14.411  -6.906  1.00 20.00     0.211 HD
ENDBRANCH  10  11
TORSDOF 1
ENDMDL
