MODEL 1
REMARK VINA RESULT:      -4.7      0.000      0.000
REMARK  0 active torsions:
REMARK  status: ('A' for Active; 'I' for Inactive)
ROOT
HETATM    1  C1  UNL     1     -33.906  17.136  -2.376  1.00 20.00     0.004 A 
HETATM    2  C2  UNL     1     -34.038  15.799  -2.356  1.00 20.00     0.031 A 
HETATM    3  C3  UNL     1     -34.063  17.869  -3.614  1.00 20.00     0.017 A 
HETATM    4  C4  UNL     1     -35.104  14.261  -6.882  1.00 20.00     0.044 A 
HETATM    5  C5  UNL     1     -34.463  13.709  -3.559  1.00 20.00     0.146 A 
HETATM    6  C6  UNL     1     -34.348  17.190  -4.737  1.00 20.00     0.093 A 
HETATM    7  C7  UNL     1     -34.347  15.058  -3.580  1.00 20.00     0.053 A 
HETATM    8  C8  UNL     1     -34.780  15.206  -6.000  1.00 20.00     0.136 A 
HETATM    9  C9  UNL     1     -34.893  13.722  -5.657  1.00 20.00     0.069 A 
HETATM   10  N10 UNL     1     -34.762  12.968  -4.683  1.00 20.00    -0.260 NA
HETATM   11  N11 UNL     1     -34.509  15.804  -4.793  1.00 20.00    -0.333 N 
ENDROOT
TORSDOF 0
ENDMDL
MODEL 2
REMARK VINA RESULT:      -4.6      1.120      3.385
REMARK  0 active torsions:
REMARK  status: ('A' for Active; 'I' for Inactive)
ROOT
HETATM    1  C1  UNL     1     -35.181  15.156  -7.918  1.00 20.00     0.004 A 
HETATM    2  C2  UNL     1     -35.163  14.146  -7.032  1.00 20.00     0.031 A 
HETATM    3  C3  UNL     1     -34.806  16.494  -7.512  1.00 20.00     0.017 A 
HETATM    4  C4  UNL     1     -33.660  15.885  -2.706  1.00 20.00     0.044 A 
HETATM    5  C5  UNL     1     -34.764  13.360  -4.748  1.00 20.00     0.146 A 
HETATM    6  C6  UNL     1     -34.437  16.705  -6.239  1.00 20.00     0.093 A 
HETATM    7  C7  UNL     1     -34.763  14.376  -5.642  1.00 20.00     0.053 A 
HETATM    8  C8  UNL     1     -34.014  16.034  -3.983  1.00 20.00     0.136 A 
HETATM    9  C9  UNL     1     -34.069  14.705  -3.233  1.00 20.00     0.069 A 
HETATM   10  N10 UNL     1     -34.385  13.524  -3.432  1.00 20.00    -0.260 NA
HETATM   11  N11 UNL     1     -34.386  15.705  -5.264  1.00 20.00    -0.333 N 
ENDROOT
TORSDOF 0
ENDMDL
MODEL 3
REMARK VINA RESULT:      -4.5      1.253      4.203
REMARK  0 active torsions:
REMARK  status: ('A' for Active; 'I' for Inactive)
ROOT
HETATM    1  C1  UNL     1     -34.476  14.613  -6.256  1.00 20.00     0.004 A 
HETATM    2  C2  UNL     1     -34.087  15.863  -5.956  1.00 20.00     0.031 A 
HETATM    3  C3  UNL     1     -34.928  13.716  -5.214  1.00 20.00     0.017 A 
HETATM    4  C4  UNL     1     -34.578  16.542  -1.130  1.00 20.00     0.044 A 
HETATM    5  C5  UNL     1     -33.705  17.600  -4.274  1.00 20.00     0.146 A 
HETATM    6  C6  UNL     1     -34.955  14.158  -3.946  1.00 20.00     0.093 A 
HETATM    7  C7  UNL     1     -34.114  16.345  -4.574  1.00 20.00     0.053 A 
HETATM    8  C8  UNL     1     -34.622  15.789  -2.229  1.00 20.00     0.136 A 
HETATM    9  C9  UNL     1     -34.152  17.242  -2.210  1.00 20.00     0.069 A 
HETATM   10  N10 UNL     1     -33.722  18.103  -2.990  1.00 20.00    -0.260 NA
HETATM   11  N11 UNL     1     -34.575  15.445  -3.559  1.00 20.00    -0.333 N 
ENDROOT
TORSDOF 0
ENDMDL
MODEL 4
REMARK VINA RESULT:      -4.5     11.651     13.055
REMARK  0 active torsions:
REMARK  status: ('A' for Active; 'I' for Inactive)
ROOT
HETATM    1  C1  UNL     1     -41.139   7.276  -0.531  1.00 20.00     0.004 A 
HETATM    2  C2  UNL     1     -42.031   7.150  -1.528  1.00 20.00     0.031 A 
HETATM    3  C3  UNL     1     -40.391   6.128  -0.067  1.00 20.00     0.017 A 
HETATM    4  C4  UNL     1     -42.053   2.487  -3.027  1.00 20.00     0.044 A 
HETATM    5  C5  UNL     1     -43.172   5.726  -3.160  1.00 20.00     0.146 A 
HETATM    6  C6  UNL     1     -40.600   4.939  -0.653  1.00 20.00     0.093 A 
HETATM    7  C7  UNL     1     -42.261   5.853  -2.167  1.00 20.00     0.053 A 
HETATM    8  C8  UNL     1     -41.654   3.467  -2.216  1.00 20.00     0.136 A 
HETATM    9  C9  UNL     1     -42.694   3.645  -3.320  1.00 20.00     0.069 A 
HETATM   10  N10 UNL     1     -43.417   4.529  -3.799  1.00 20.00    -0.260 NA
HETATM   11  N11 UNL     1     -41.502   4.731  -1.700  1.00 20.00    -0.333 N 
ENDROOT
TORSDOF 0
ENDMDL
MODEL 5
REMARK VINA RESULT:      -4.4      1.778      2.989
REMARK  0 active torsions:
REMARK  status: ('A' for Active; 'I' for Inactive)
ROOT
HETATM    1  C1  UNL     1     -33.578  13.764  -3.789  1.00 20.00     0.004 A 
HETATM    2  C2  UNL     1     -34.352  13.519  -4.861  1.00 20.00     0.031 A 
HETATM    3  C3  UNL     1     -32.971  15.065  -3.606  1.00 20.00     0.017 A 
HETATM    4  C4  UNL     1     -34.609  17.591  -7.571  1.00 20.00     0.044 A 
HETATM    5  C5  UNL     1     -35.363  14.304  -6.947  1.00 20.00     0.146 A 
HETATM    6  C6  UNL     1     -33.199  16.020  -4.522  1.00 20.00     0.093 A 
HETATM    7  C7  UNL     1     -34.598  14.560  -5.861  1.00 20.00     0.053 A 
HETATM    8  C8  UNL     1     -34.146  16.883  -6.540  1.00 20.00     0.136 A 
HETATM    9  C9  UNL     1     -35.073  16.318  -7.615  1.00 20.00     0.069 A 
HETATM   10  N10 UNL     1     -35.633  15.253  -7.911  1.00 20.00    -0.260 NA
HETATM   11  N11 UNL     1     -33.996  15.843  -5.655  1.00 20.00    -0.333 N 
ENDROOT
TORSDOF 0
ENDMDL
MODEL 6
REMARK VINA RESULT:      -4.4      1.606      3.386
REMARK  0 active torsions:
REMARK  status: ('A' for Active; 'I' for Inactive)
ROOT
HETATM    1  C1  UNL     1     -33.695  13.811  -3.731  1.00 20.00     0.004 A 
HETATM    2  C2  UNL     1     -33.325  15.101  -3.789  1.00 20.00     0.031 A 
HETATM    3  C3  UNL     1     -34.502  13.232  -4.783  1.00 20.00     0.017 A 
HETATM    4  C4  UNL     1     -35.096  17.053  -7.918  1.00 20.00     0.044 A 
HETATM    5  C5  UNL     1     -33.366  17.249  -4.963  1.00 20.00     0.146 A 
HETATM    6  C6  UNL     1     -34.868  14.004  -5.818  1.00 20.00     0.093 A 
HETATM    7  C7  UNL     1     -33.726  15.945  -4.916  1.00 20.00     0.053 A 
HETATM    8  C8  UNL     1     -34.962  16.056  -7.043  1.00 20.00     0.136 A 
HETATM    9  C9  UNL     1     -34.374  17.451  -6.842  1.00 20.00     0.069 A 
HETATM   10  N10 UNL     1     -33.710  18.081  -6.007  1.00 20.00    -0.260 NA
HETATM   11  N11 UNL     1     -34.516  15.350  -5.953  1.00 20.00    -0.333 N 
ENDROOT
TORSDOF 0
ENDMDL
MODEL 7
REMARK VINA RESULT:      -4.3      1.384      2.849
REMARK  0 active torsions:
REMARK  status: ('A' for Active; 'I' for Inactive)
ROOT
HETATM    1  C1  UNL     1     -34.913  17.327  -6.870  1.00 20.00     0.004 A 
HETATM    2  C2  UNL     1     -35.345  16.056  -6.802  1.00 20.00     0.031 A 
HETATM    3  C3  UNL     1     -33.887  17.802  -5.967  1.00 20.00     0.017 A 
HETATM    4  C4  UNL     1     -32.861  13.746  -3.269  1.00 20.00     0.044 A 
HETATM    5  C5  UNL     1     -35.233  13.852  -5.744  1.00 20.00     0.146 A 
HETATM    6  C6  UNL     1     -33.371  16.949  -5.068  1.00 20.00     0.093 A 
HETATM    7  C7  UNL     1     -34.784  15.126  -5.820  1.00 20.00     0.053 A 
HETATM    8  C8  UNL     1     -33.182  14.831  -3.973  1.00 20.00     0.136 A 
HETATM    9  C9  UNL     1     -33.847  13.469  -4.156  1.00 20.00     0.069 A 
HETATM   10  N10 UNL     1     -34.730  12.936  -4.843  1.00 20.00    -0.260 NA
HETATM   11  N11 UNL     1     -33.761  15.613  -4.943  1.00 20.00    -0.333 N 
ENDROOT
TORSDOF 0
ENDMDL
MODEL 8
REMARK VINA RESULT:      -4.3      1.286      2.336
REMARK  0 active torsions:
REMARK  status: ('A' for Active; 'I' for Inactive)
ROOT
HETATM    1  C1  UNL     1     -33.794  18.173  -2.286  1.00 20.00     0.004 A 
HETATM    2  C2  UNL     1     -33.701  17.932  -3.604  1.00 20.00     0.031 A 
HETATM    3  C3  UNL     1     -34.232  17.134  -1.380  1.00 20.00     0.017 A 
HETATM    4  C4  UNL     1     -34.974  13.276  -4.438  1.00 20.00     0.044 A 
HETATM    5  C5  UNL     1     -33.956  16.381  -5.481  1.00 20.00     0.146 A 
HETATM    6  C6  UNL     1     -34.536  15.925  -1.879  1.00 20.00     0.093 A 
HETATM    7  C7  UNL     1     -34.035  16.615  -4.150  1.00 20.00     0.053 A 
HETATM    8  C8  UNL     1     -34.811  14.334  -3.643  1.00 20.00     0.136 A 
HETATM    9  C9  UNL     1     -34.584  14.359  -5.153  1.00 20.00     0.069 A 
HETATM   10  N10 UNL     1     -34.250  15.155  -6.042  1.00 20.00    -0.260 NA
HETATM   11  N11 UNL     1     -34.456  15.597  -3.235  1.00 20.00    -0.333 N 
ENDROOT
TORSDOF 0
ENDMDL
MODEL 9
REMARK VINA RESULT:      -4.3      1.649      2.496
REMARK  0 active torsions:
REMARK  status: ('A' for Active; 'I' for Inactive)
ROOT
HETATM    1  C1  UNL     1     -34.247  17.724  -0.263  1.00 20.00     0.004 A 
HETATM    2  C2  UNL     1     -34.579  16.573  -0.871  1.00 20.00     0.031 A 
HETATM    3  C3  UNL     1     -33.680  18.817  -1.022  1.00 20.00     0.017 A 
HETATM    4  C4  UNL     1     -33.582  16.982  -5.649  1.00 20.00     0.044 A 
HETATM    5  C5  UNL     1     -34.697  15.234  -2.917  1.00 20.00     0.146 A 
HETATM    6  C6  UNL     1     -33.496  18.661  -2.343  1.00 20.00     0.093 A 
HETATM    7  C7  UNL     1     -34.378  16.401  -2.311  1.00 20.00     0.053 A 
HETATM    8  C8  UNL     1     -33.576  17.437  -4.396  1.00 20.00     0.136 A 
HETATM    9  C9  UNL     1     -34.067  16.047  -4.795  1.00 20.00     0.069 A 
HETATM   10  N10 UNL     1     -34.536  15.027  -4.271  1.00 20.00    -0.260 NA
HETATM   11  N11 UNL     1     -33.824  17.499  -3.046  1.00 20.00    -0.333 N 
ENDROOT
TORSDOF 0
ENDMDL
