MODEL 1
REMARK VINA RESULT:      -4.9      0.000      0.000
REMARK  1 active torsions:
REMARK  status: ('A' for Active; 'I' for Inactive)
REMARK    1  A    between atoms: C1_1  and  C8_8 
ROOT
HETATM    1  C2  UNL     1     -34.317  17.150  -3.907  1.00 20.00     0.013 A 
HETATM    2  C3  UNL     1     -35.403  15.474  -3.067  1.00 20.00     0.013 A 
HETATM    3  C4  UNL     1     -33.242  15.404  -3.206  1.00 20.00     0.013 A 
HETATM    4  C5  UNL     1     -35.467  16.254  -4.386  1.00 20.00     0.006 A 
HETATM    5  C6  UNL     1     -33.299  16.184  -4.526  1.00 20.00     0.006 A 
HETATM    6  C7  UNL     1     -34.388  14.503  -3.683  1.00 20.00     0.006 A 
HETATM    7  C8  UNL     1     -34.257  16.372  -2.587  1.00 20.00     0.033 A 
HETATM    8  C9  UNL     1     -34.449  15.279  -5.016  1.00 20.00    -0.031 A 
HETATM    9  C11 UNL     1     -34.555  14.671  -6.368  1.00 20.00     0.016 C 
ENDROOT
BRANCH   7  10
HETATM   10  C1  UNL     1     -34.154  16.984  -1.225  1.00 20.00     0.133 C 
HETATM   11  C10 UNL     1     -33.233  18.164  -1.081  1.00 20.00     0.091 C 
HETATM   12  O12 UNL     1     -34.794  16.544  -0.270  1.00 20.00    -0.297 OA
ENDBRANCH   7  10
TORSDOF 1
ENDMDL
MODEL 2
REMARK VINA RESULT:      -4.9      0.026      1.522
REMARK  1 active torsions:
REMARK  status: ('A' for Active; 'I' for Inactive)
REMARK    1  A    between atoms: C1_1  and  C8_8 
ROOT
HETATM    1  C2  UNL     1     -33.232  15.426  -3.215  1.00 20.00     0.013 A 
HETATM    2  C3  UNL     1     -34.358  17.144  -3.904  1.00 20.00     0.013 A 
HETATM    3  C4  UNL     1     -35.393  15.440  -3.055  1.00 20.00     0.013 A 
HETATM    4  C5  UNL     1     -33.320  16.206  -4.534  1.00 20.00     0.006 A 
HETATM    5  C6  UNL     1     -34.359  14.496  -3.683  1.00 20.00     0.006 A 
HETATM    6  C7  UNL     1     -35.488  16.220  -4.373  1.00 20.00     0.006 A 
HETATM    7  C8  UNL     1     -34.266  16.367  -2.586  1.00 20.00     0.033 A 
HETATM    8  C9  UNL     1     -34.452  15.272  -5.014  1.00 20.00    -0.031 A 
HETATM    9  C11 UNL     1     -34.555  14.662  -6.365  1.00 20.00     0.016 C 
ENDROOT
BRANCH   7  10
HETATM   10  C1  UNL     1     -34.160  16.985  -1.226  1.00 20.00     0.133 C 
HETATM   11  C10 UNL     1     -33.242  18.169  -1.090  1.00 20.00     0.091 C 
HETATM   12  O12 UNL     1     -34.794  16.547  -0.267  1.00 20.00    -0.297 OA
ENDBRANCH   7  10
TORSDOF 1
ENDMDL
MODEL 3
REMARK VINA RESULT:      -4.9      0.018      1.531
REMARK  1 active torsions:
REMARK  status: ('A' for Active; 'I' for Inactive)
REMARK    1  A    between atoms: C1_1  and  C8_8 
ROOT
HETATM    1  C2  UNL     1     -35.422  15.486  -3.062  1.00 20.00     0.013 A 
HETATM    2  C3  UNL     1     -33.261  15.401  -3.193  1.00 20.00     0.013 A 
HETATM    3  C4  UNL     1     -34.321  17.151  -3.905  1.00 20.00     0.013 A 
HETATM    4  C5  UNL     1     -34.411  14.505  -3.670  1.00 20.00     0.006 A 
HETATM    5  C6  UNL     1     -35.474  16.260  -4.385  1.00 20.00     0.006 A 
HETATM    6  C7  UNL     1     -33.307  16.176  -4.515  1.00 20.00     0.006 A 
HETATM    7  C8  UNL     1     -34.272  16.378  -2.582  1.00 20.00     0.033 A 
HETATM    8  C9  UNL     1     -34.460  15.276  -5.007  1.00 20.00    -0.031 A 
HETATM    9  C11 UNL     1     -34.566  14.662  -6.356  1.00 20.00     0.016 C 
ENDROOT
BRANCH   7  10
HETATM   10  C1  UNL     1     -34.163  16.993  -1.221  1.00 20.00     0.133 C 
HETATM   11  C10 UNL     1     -33.246  18.177  -1.084  1.00 20.00     0.091 C 
HETATM   12  O12 UNL     1     -34.794  16.551  -0.261  1.00 20.00    -0.297 OA
ENDBRANCH   7  10
TORSDOF 1
ENDMDL
MODEL 4
REMARK VINA RESULT:      -4.8      1.889      3.876
REMARK  1 active torsions:
REMARK  status: ('A' for Active; 'I' for Inactive)
REMARK    1  A    between atoms: C1_1  and  C8_8 
ROOT
HETATM    1  C2  UNL     1     -35.434  15.455  -3.035  1.00 20.00     0.013 A 
HETATM    2  C3  UNL     1     -34.733  16.494  -4.803  1.00 20.00     0.013 A 
HETATM    3  C4  UNL     1     -33.337  15.380  -3.577  1.00 20.00     0.013 A 
HETATM    4  C5  UNL     1     -35.519  16.899  -3.549  1.00 20.00     0.006 A 
HETATM    5  C6  UNL     1     -34.118  15.782  -2.318  1.00 20.00     0.006 A 
HETATM    6  C7  UNL     1     -33.415  16.823  -4.091  1.00 20.00     0.006 A 
HETATM    7  C8  UNL     1     -34.653  15.052  -4.291  1.00 20.00     0.033 A 
HETATM    8  C9  UNL     1     -34.197  17.237  -2.827  1.00 20.00    -0.031 A 
HETATM    9  C11 UNL     1     -33.944  18.453  -2.011  1.00 20.00     0.016 C 
ENDROOT
BRANCH   7  10
HETATM   10  C1  UNL     1     -34.911  13.829  -5.116  1.00 20.00     0.133 C 
HETATM   11  C10 UNL     1     -35.153  14.042  -6.585  1.00 20.00     0.091 C 
HETATM   12  O12 UNL     1     -34.922  12.704  -4.616  1.00 20.00    -0.297 OA
ENDBRANCH   7  10
TORSDOF 1
ENDMDL
MODEL 5
REMARK VINA RESULT:      -4.8      1.912      3.917
REMARK  1 active torsions:
REMARK  status: ('A' for Active; 'I' for Inactive)
REMARK    1  A    between atoms: C1_1  and  C8_8 
ROOT
HETATM    1  C2  UNL     1     -34.661  16.487  -4.848  1.00 20.00     0.013 A 
HETATM    2  C3  UNL     1     -33.351  15.325  -3.573  1.00 20.00     0.013 A 
HETATM    3  C4  UNL     1     -35.464  15.462  -3.116  1.00 20.00     0.013 A 
HETATM    4  C5  UNL     1     -33.363  16.772  -4.083  1.00 20.00     0.006 A 
HETATM    5  C6  UNL     1     -35.483  16.910  -3.624  1.00 20.00     0.006 A 
HETATM    6  C7  UNL     1     -34.169  15.744  -2.345  1.00 20.00     0.006 A 
HETATM    7  C8  UNL     1     -34.646  15.040  -4.342  1.00 20.00     0.033 A 
HETATM    8  C9  UNL     1     -34.182  17.203  -2.847  1.00 20.00    -0.031 A 
HETATM    9  C11 UNL     1     -33.924  18.408  -2.016  1.00 20.00     0.016 C 
ENDROOT
BRANCH   7  10
HETATM   10  C1  UNL     1     -34.901  13.826  -5.181  1.00 20.00     0.133 C 
HETATM   11  C10 UNL     1     -35.172  14.057  -6.642  1.00 20.00     0.091 C 
HETATM   12  O12 UNL     1     -34.889  12.694  -4.697  1.00 20.00    -0.297 OA
ENDBRANCH   7  10
TORSDOF 1
ENDMDL
MODEL 6
REMARK VINA RESULT:      -4.8      2.108      4.021
REMARK  1 active torsions:
REMARK  status: ('A' for Active; 'I' for Inactive)
REMARK    1  A    between atoms: C1_1  and  C8_8 
ROOT
HETATM    1  C2  UNL     1     -35.685  16.516  -4.144  1.00 20.00     0.013 A 
HETATM    2  C3  UNL     1     -33.545  16.182  -4.163  1.00 20.00     0.013 A 
HETATM    3  C4  UNL     1     -34.889  14.568  -3.630  1.00 20.00     0.013 A 
HETATM    4  C5  UNL     1     -34.478  17.190  -3.479  1.00 20.00     0.006 A 
HETATM    5  C6  UNL     1     -35.826  15.571  -2.944  1.00 20.00     0.006 A 
HETATM    6  C7  UNL     1     -33.679  15.235  -2.964  1.00 20.00     0.006 A 
HETATM    7  C8  UNL     1     -34.752  15.512  -4.830  1.00 20.00     0.033 A 
HETATM    8  C9  UNL     1     -34.614  16.245  -2.266  1.00 20.00    -0.031 A 
HETATM    9  C11 UNL     1     -34.538  16.654  -0.839  1.00 20.00     0.016 C 
ENDROOT
BRANCH   7  10
HETATM   10  C1  UNL     1     -34.826  15.104  -6.268  1.00 20.00     0.133 C 
HETATM   11  C10 UNL     1     -34.476  16.153  -7.288  1.00 20.00     0.091 C 
HETATM   12  O12 UNL     1     -35.155  13.965  -6.599  1.00 20.00    -0.297 OA
ENDBRANCH   7  10
TORSDOF 1
ENDMDL
MODEL 7
REMARK VINA RESULT:      -4.7      2.833      3.859
REMARK  1 active torsions:
REMARK  status: ('A' for Active; 'I' for Inactive)
REMARK    1  A    between atoms: C1_1  and  C8_8 
ROOT
HETATM    1  C2  UNL     1     -36.298  15.085  -5.781  1.00 20.00     0.013 A 
HETATM    2  C3  UNL     1     -34.446  14.868  -6.883  1.00 20.00     0.013 A 
HETATM    3  C4  UNL     1     -34.542  16.201  -5.178  1.00 20.00     0.013 A 
HETATM    4  C5  UNL     1     -35.890  15.230  -7.253  1.00 20.00     0.006 A 
HETATM    5  C6  UNL     1     -35.986  16.568  -5.542  1.00 20.00     0.006 A 
HETATM    6  C7  UNL     1     -34.128  16.349  -6.647  1.00 20.00     0.006 A 
HETATM    7  C8  UNL     1     -34.856  14.719  -5.414  1.00 20.00     0.033 A 
HETATM    8  C9  UNL     1     -35.577  16.724  -7.023  1.00 20.00    -0.031 A 
HETATM    9  C11 UNL     1     -35.980  17.840  -7.918  1.00 20.00     0.016 C 
ENDROOT
BRANCH   7  10
HETATM   10  C1  UNL     1     -34.450  13.592  -4.515  1.00 20.00     0.133 C 
HETATM   11  C10 UNL     1     -33.227  13.809  -3.667  1.00 20.00     0.091 C 
HETATM   12  O12 UNL     1     -35.087  12.540  -4.472  1.00 20.00    -0.297 OA
ENDBRANCH   7  10
TORSDOF 1
ENDMDL
MODEL 8
REMARK VINA RESULT:      -4.5      2.067      4.020
REMARK  1 active torsions:
REMARK  status: ('A' for Active; 'I' for Inactive)
REMARK    1  A    between atoms: C1_1  and  C8_8 
ROOT
HETATM    1  C2  UNL     1     -35.180  15.970  -2.160  1.00 20.00     0.013 A 
HETATM    2  C3  UNL     1     -34.863  17.859  -3.173  1.00 20.00     0.013 A 
HETATM    3  C4  UNL     1     -33.493  17.219  -1.621  1.00 20.00     0.013 A 
HETATM    4  C5  UNL     1     -36.031  17.222  -2.410  1.00 20.00     0.006 A 
HETATM    5  C6  UNL     1     -34.657  16.580  -0.853  1.00 20.00     0.006 A 
HETATM    6  C7  UNL     1     -34.339  18.474  -1.870  1.00 20.00     0.006 A 
HETATM    7  C8  UNL     1     -34.014  16.606  -2.926  1.00 20.00     0.033 A 
HETATM    8  C9  UNL     1     -35.514  17.841  -1.094  1.00 20.00    -0.031 A 
HETATM    9  C11 UNL     1     -36.348  18.528  -0.074  1.00 20.00     0.016 C 
ENDROOT
BRANCH   7  10
HETATM   10  C1  UNL     1     -33.176  15.916  -3.957  1.00 20.00     0.133 C 
HETATM   11  C10 UNL     1     -32.785  14.492  -3.668  1.00 20.00     0.091 C 
HETATM   12  O12 UNL     1     -32.825  16.485  -4.990  1.00 20.00    -0.297 OA
ENDBRANCH   7  10
TORSDOF 1
ENDMDL
MODEL 9
REMARK VINA RESULT:      -4.4      1.910      3.164
REMARK  1 active torsions:
REMARK  status: ('A' for Active; 'I' for Inactive)
REMARK    1  A    between atoms: C1_1  and  C8_8 
ROOT
HETATM    1  C2  UNL     1     -35.204  14.077  -5.117  1.00 20.00     0.013 A 
HETATM    2  C3  UNL     1     -34.125  15.624  -6.183  1.00 20.00     0.013 A 
HETATM    3  C4  UNL     1     -35.723  16.160  -4.822  1.00 20.00     0.013 A 
HETATM    4  C5  UNL     1     -34.892  14.360  -6.593  1.00 20.00     0.006 A 
HETATM    5  C6  UNL     1     -36.495  14.898  -5.228  1.00 20.00     0.006 A 
HETATM    6  C7  UNL     1     -35.412  16.449  -6.296  1.00 20.00     0.006 A 
HETATM    7  C8  UNL     1     -34.434  15.338  -4.709  1.00 20.00     0.033 A 
HETATM    8  C9  UNL     1     -36.191  15.184  -6.714  1.00 20.00    -0.031 A 
HETATM    9  C11 UNL     1     -37.170  15.098  -7.829  1.00 20.00     0.016 C 
ENDROOT
BRANCH   7  10
HETATM   10  C1  UNL     1     -33.444  15.424  -3.588  1.00 20.00     0.133 C 
HETATM   11  C10 UNL     1     -33.818  16.297  -2.422  1.00 20.00     0.091 C 
HETATM   12  O12 UNL     1     -32.379  14.808  -3.620  1.00 20.00    -0.297 OA
ENDBRANCH   7  10
TORSDOF 1
ENDMDL
