MODEL 1
REMARK VINA RESULT:      -3.5      0.000      0.000
REMARK  3 active torsions:
REMARK  status: ('A' for Active; 'I' for Inactive)
REMARK    1  A    between atoms: C2_2  and  N7_7 
REMARK    2  A    between atoms: C4_4  and  C5_5 
REMARK    3  A    between atoms: C5_5  and  N7_7 
ROOT
HETATM    1  C1  UNL     1     -34.075  13.630  -4.198  1.00 20.00     0.060 C 
HETATM    2  C4  UNL     1     -33.178  14.707  -3.756  1.00 20.00     0.143 C 
HETATM    3  N6  UNL     1     -34.783  12.779  -4.545  1.00 20.00    -0.197 NA
ENDROOT
BRANCH   2   4
HETATM    4  C5  UNL     1     -33.394  15.992  -4.548  1.00 20.00     0.138 C 
BRANCH   4   5
HETATM    5  N7  UNL     1     -33.961  17.042  -3.698  1.00 20.00    -0.366 N 
HETATM    6  C3  UNL     1     -33.588  18.414  -4.050  1.00 20.00     0.151 C 
BRANCH   5   7
HETATM    7  C2  UNL     1     -34.939  16.774  -2.772  1.00 20.00     0.167 C 
HETATM    8  S8  UNL     1     -36.566  16.435  -3.244  1.00 20.00    -0.048 SA
HETATM    9  S9  UNL     1     -34.598  16.752  -1.076  1.00 20.00    -0.048 SA
ENDBRANCH   5   7
ENDBRANCH   4   5
ENDBRANCH   2   4
TORSDOF 3
ENDMDL
MODEL 2
REMARK VINA RESULT:      -3.5      0.008      1.389
REMARK  3 active torsions:
REMARK  status: ('A' for Active; 'I' for Inactive)
REMARK    1  A    between atoms: C2_2  and  N7_7 
REMARK    2  A    between atoms: C4_4  and  C5_5 
REMARK    3  A    between atoms: C5_5  and  N7_7 
ROOT
HETATM    1  C1  UNL     1     -34.080  13.627  -4.194  1.00 20.00     0.060 C 
HETATM    2  C4  UNL     1     -33.179  14.700  -3.748  1.00 20.00     0.143 C 
HETATM    3  N6  UNL     1     -34.790  12.779  -4.545  1.00 20.00    -0.197 NA
ENDROOT
BRANCH   2   4
HETATM    4  C5  UNL     1     -33.385  15.986  -4.541  1.00 20.00     0.138 C 
BRANCH   4   5
HETATM    5  N7  UNL     1     -33.957  17.037  -3.695  1.00 20.00    -0.366 N 
HETATM    6  C3  UNL     1     -33.587  18.409  -4.050  1.00 20.00     0.151 C 
BRANCH   5   7
HETATM    7  C2  UNL     1     -34.936  16.768  -2.771  1.00 20.00     0.167 C 
HETATM    8  S8  UNL     1     -34.602  16.754  -1.075  1.00 20.00    -0.048 SA
HETATM    9  S9  UNL     1     -36.565  16.436  -3.248  1.00 20.00    -0.048 SA
ENDBRANCH   5   7
ENDBRANCH   4   5
ENDBRANCH   2   4
TORSDOF 3
ENDMDL
MODEL 3
REMARK VINA RESULT:      -3.4      1.755      2.270
REMARK  3 active torsions:
REMARK  status: ('A' for Active; 'I' for Inactive)
REMARK    1  A    between atoms: C2_2  and  N7_7 
REMARK    2  A    between atoms: C4_4  and  C5_5 
REMARK    3  A    between atoms: C5_5  and  N7_7 
ROOT
HETATM    1  C1  UNL     1     -36.305  14.188  -4.081  1.00 20.00     0.060 C 
HETATM    2  C4  UNL     1     -34.900  14.028  -4.483  1.00 20.00     0.143 C 
HETATM    3  N6  UNL     1     -37.415  14.312  -3.766  1.00 20.00    -0.197 NA
ENDROOT
BRANCH   2   4
HETATM    4  C5  UNL     1     -33.941  14.601  -3.444  1.00 20.00     0.138 C 
BRANCH   4   5
HETATM    5  N7  UNL     1     -33.687  16.022  -3.693  1.00 20.00    -0.366 N 
HETATM    6  C3  UNL     1     -33.259  16.363  -5.052  1.00 20.00     0.151 C 
BRANCH   5   7
HETATM    7  C2  UNL     1     -34.030  16.988  -2.780  1.00 20.00     0.167 C 
HETATM    8  S8  UNL     1     -34.615  16.581  -1.205  1.00 20.00    -0.048 SA
HETATM    9  S9  UNL     1     -33.890  18.673  -3.148  1.00 20.00    -0.048 SA
ENDBRANCH   5   7
ENDBRANCH   4   5
ENDBRANCH   2   4
TORSDOF 3
ENDMDL
MODEL 4
REMARK VINA RESULT:      -3.4      1.236      1.698
REMARK  3 active torsions:
REMARK  status: ('A' for Active; 'I' for Inactive)
REMARK    1  A    between atoms: C2_2  and  N7_7 
REMARK    2  A    between atoms: C4_4  and  C5_5 
REMARK    3  A    between atoms: C5_5  and  N7_7 
ROOT
HETATM    1  C1  UNL     1     -34.026  13.676  -4.135  1.00 20.00     0.060 C 
HETATM    2  C4  UNL     1     -33.131  14.758  -3.702  1.00 20.00     0.143 C 
HETATM    3  N6  UNL     1     -34.732  12.820  -4.476  1.00 20.00    -0.197 NA
ENDROOT
BRANCH   2   4
HETATM    4  C5  UNL     1     -33.416  16.063  -4.436  1.00 20.00     0.138 C 
BRANCH   4   5
HETATM    5  N7  UNL     1     -34.455  16.835  -3.750  1.00 20.00    -0.366 N 
HETATM    6  C3  UNL     1     -35.808  16.702  -4.294  1.00 20.00     0.151 C 
BRANCH   5   7
HETATM    7  C2  UNL     1     -34.215  17.468  -2.555  1.00 20.00     0.167 C 
HETATM    8  S8  UNL     1     -33.535  19.055  -2.491  1.00 20.00    -0.048 SA
HETATM    9  S9  UNL     1     -34.587  16.717  -1.042  1.00 20.00    -0.048 SA
ENDBRANCH   5   7
ENDBRANCH   4   5
ENDBRANCH   2   4
TORSDOF 3
ENDMDL
MODEL 5
REMARK VINA RESULT:      -3.4      1.540      1.815
REMARK  3 active torsions:
REMARK  status: ('A' for Active; 'I' for Inactive)
REMARK    1  A    between atoms: C2_2  and  N7_7 
REMARK    2  A    between atoms: C4_4  and  C5_5 
REMARK    3  A    between atoms: C5_5  and  N7_7 
ROOT
HETATM    1  C1  UNL     1     -34.094  13.546  -4.155  1.00 20.00     0.060 C 
HETATM    2  C4  UNL     1     -33.096  14.496  -3.642  1.00 20.00     0.143 C 
HETATM    3  N6  UNL     1     -34.880  12.795  -4.558  1.00 20.00    -0.197 NA
ENDROOT
BRANCH   2   4
HETATM    4  C5  UNL     1     -33.508  15.944  -3.884  1.00 20.00     0.138 C 
BRANCH   4   5
HETATM    5  N7  UNL     1     -34.707  16.283  -3.114  1.00 20.00    -0.366 N 
HETATM    6  C3  UNL     1     -34.545  16.290  -1.658  1.00 20.00     0.151 C 
BRANCH   5   7
HETATM    7  C2  UNL     1     -35.842  16.766  -3.717  1.00 20.00     0.167 C 
HETATM    8  S8  UNL     1     -36.108  16.593  -5.417  1.00 20.00    -0.048 SA
HETATM    9  S9  UNL     1     -37.077  17.569  -2.811  1.00 20.00    -0.048 SA
ENDBRANCH   5   7
ENDBRANCH   4   5
ENDBRANCH   2   4
TORSDOF 3
ENDMDL
MODEL 6
REMARK VINA RESULT:      -3.4      2.663      3.805
REMARK  3 active torsions:
REMARK  status: ('A' for Active; 'I' for Inactive)
REMARK    1  A    between atoms: C2_2  and  N7_7 
REMARK    2  A    between atoms: C4_4  and  C5_5 
REMARK    3  A    between atoms: C5_5  and  N7_7 
ROOT
HETATM    1  C1  UNL     1     -34.637  16.672  -1.063  1.00 20.00     0.060 C 
HETATM    2  C4  UNL     1     -34.940  15.927  -2.292  1.00 20.00     0.143 C 
HETATM    3  N6  UNL     1     -34.399  17.260  -0.091  1.00 20.00    -0.197 NA
ENDROOT
BRANCH   2   4
HETATM    4  C5  UNL     1     -33.684  15.627  -3.104  1.00 20.00     0.138 C 
BRANCH   4   5
HETATM    5  N7  UNL     1     -33.911  15.873  -4.530  1.00 20.00    -0.366 N 
HETATM    6  C3  UNL     1     -33.455  17.171  -5.032  1.00 20.00     0.151 C 
BRANCH   5   7
HETATM    7  C2  UNL     1     -34.327  14.876  -5.378  1.00 20.00     0.167 C 
HETATM    8  S8  UNL     1     -34.513  15.148  -7.075  1.00 20.00    -0.048 SA
HETATM    9  S9  UNL     1     -34.682  13.284  -4.799  1.00 20.00    -0.048 SA
ENDBRANCH   5   7
ENDBRANCH   4   5
ENDBRANCH   2   4
TORSDOF 3
ENDMDL
MODEL 7
REMARK VINA RESULT:      -3.3      2.602      4.164
REMARK  3 active torsions:
REMARK  status: ('A' for Active; 'I' for Inactive)
REMARK    1  A    between atoms: C2_2  and  N7_7 
REMARK    2  A    between atoms: C4_4  and  C5_5 
REMARK    3  A    between atoms: C5_5  and  N7_7 
ROOT
HETATM    1  C1  UNL     1     -34.686  16.703  -0.785  1.00 20.00     0.060 C 
HETATM    2  C4  UNL     1     -34.784  15.926  -2.029  1.00 20.00     0.143 C 
HETATM    3  N6  UNL     1     -34.611  17.315   0.197  1.00 20.00    -0.197 NA
ENDROOT
BRANCH   2   4
HETATM    4  C5  UNL     1     -33.543  16.085  -2.901  1.00 20.00     0.138 C 
BRANCH   4   5
HETATM    5  N7  UNL     1     -33.681  15.333  -4.151  1.00 20.00    -0.366 N 
HETATM    6  C3  UNL     1     -33.750  13.877  -4.011  1.00 20.00     0.151 C 
BRANCH   5   7
HETATM    7  C2  UNL     1     -33.940  15.958  -5.346  1.00 20.00     0.167 C 
HETATM    8  S8  UNL     1     -33.727  17.662  -5.543  1.00 20.00    -0.048 SA
HETATM    9  S9  UNL     1     -34.490  15.075  -6.729  1.00 20.00    -0.048 SA
ENDBRANCH   5   7
ENDBRANCH   4   5
ENDBRANCH   2   4
TORSDOF 3
ENDMDL
MODEL 8
REMARK VINA RESULT:      -3.3      1.347      1.475
REMARK  3 active torsions:
REMARK  status: ('A' for Active; 'I' for Inactive)
REMARK    1  A    between atoms: C2_2  and  N7_7 
REMARK    2  A    between atoms: C4_4  and  C5_5 
REMARK    3  A    between atoms: C5_5  and  N7_7 
ROOT
HETATM    1  C1  UNL     1     -34.030  13.636  -4.119  1.00 20.00     0.060 C 
HETATM    2  C4  UNL     1     -33.040  14.646  -3.717  1.00 20.00     0.143 C 
HETATM    3  N6  UNL     1     -34.809  12.838  -4.437  1.00 20.00    -0.197 NA
ENDROOT
BRANCH   2   4
HETATM    4  C5  UNL     1     -33.689  15.838  -3.022  1.00 20.00     0.138 C 
BRANCH   4   5
HETATM    5  N7  UNL     1     -34.315  16.735  -3.996  1.00 20.00    -0.366 N 
HETATM    6  C3  UNL     1     -33.430  17.254  -5.042  1.00 20.00     0.151 C 
BRANCH   5   7
HETATM    7  C2  UNL     1     -35.676  16.908  -4.051  1.00 20.00     0.167 C 
HETATM    8  S8  UNL     1     -36.615  16.300  -5.369  1.00 20.00    -0.048 SA
HETATM    9  S9  UNL     1     -36.535  17.737  -2.798  1.00 20.00    -0.048 SA
ENDBRANCH   5   7
ENDBRANCH   4   5
ENDBRANCH   2   4
TORSDOF 3
ENDMDL
MODEL 9
REMARK VINA RESULT:      -3.3      2.595      4.040
REMARK  3 active torsions:
REMARK  status: ('A' for Active; 'I' for Inactive)
REMARK    1  A    between atoms: C2_2  and  N7_7 
REMARK    2  A    between atoms: C4_4  and  C5_5 
REMARK    3  A    between atoms: C5_5  and  N7_7 
ROOT
HETATM    1  C1  UNL     1     -34.645  16.718  -0.849  1.00 20.00     0.060 C 
HETATM    2  C4  UNL     1     -34.784  15.893  -2.057  1.00 20.00     0.143 C 
HETATM    3  N6  UNL     1     -34.538  17.370   0.105  1.00 20.00    -0.197 NA
ENDROOT
BRANCH   2   4
HETATM    4  C5  UNL     1     -33.540  15.954  -2.937  1.00 20.00     0.138 C 
BRANCH   4   5
HETATM    5  N7  UNL     1     -33.759  15.250  -4.203  1.00 20.00    -0.366 N 
HETATM    6  C3  UNL     1     -33.983  13.807  -4.097  1.00 20.00     0.151 C 
BRANCH   5   7
HETATM    7  C2  UNL     1     -33.951  15.927  -5.382  1.00 20.00     0.167 C 
HETATM    8  S8  UNL     1     -34.445  15.112  -6.825  1.00 20.00    -0.048 SA
HETATM    9  S9  UNL     1     -33.719  17.638  -5.494  1.00 20.00    -0.048 SA
ENDBRANCH   5   7
ENDBRANCH   4   5
ENDBRANCH   2   4
TORSDOF 3
ENDMDL
