MODEL 1
REMARK VINA RESULT:      -4.8      0.000      0.000
REMARK  2 active torsions:
REMARK  status: ('A' for Active; 'I' for Inactive)
REMARK    1  A    between atoms: C1_1  and  C5_5 
REMARK    2  A    between atoms: C3_3  and  C6_6 
ROOT
HETATM    1  C1  UNL     1     -33.957   6.034   4.802  1.00 20.00    -0.053 C 
HETATM    2  C2  UNL     1     -34.454   5.885   5.884  1.00 20.00     0.106 C 
HETATM    3  F9  UNL     1     -35.010   5.719   7.091  1.00 20.00    -0.144 F 
ENDROOT
BRANCH   1   4
HETATM    4  C5  UNL     1     -33.371   6.208   3.526  1.00 20.00     0.114 A 
HETATM    5  C6  UNL     1     -32.291   7.132   3.377  1.00 20.00     0.108 A 
HETATM    6  C7  UNL     1     -32.178   5.714   3.204  1.00 20.00     0.186 A 
HETATM    7  F10 UNL     1     -31.910   5.265   1.959  1.00 20.00    -0.235 F 
BRANCH   5   8
HETATM    8  C3  UNL     1     -32.208   7.981   2.399  1.00 20.00    -0.080 C 
HETATM    9  C4  UNL     1     -32.133   8.766   1.495  1.00 20.00     0.272 C 
HETATM   10  O8  UNL     1     -32.059   9.536   0.608  1.00 20.00    -0.274 OA
ENDBRANCH   5   8
ENDBRANCH   1   4
TORSDOF 2
ENDMDL
MODEL 2
REMARK VINA RESULT:      -4.7      3.001      4.783
REMARK  2 active torsions:
REMARK  status: ('A' for Active; 'I' for Inactive)
REMARK    1  A    between atoms: C1_1  and  C5_5 
REMARK    2  A    between atoms: C3_3  and  C6_6 
ROOT
HETATM    1  C1  UNL     1     -32.240   8.359   2.218  1.00 20.00    -0.053 C 
HETATM    2  C2  UNL     1     -32.240   9.265   1.431  1.00 20.00     0.106 C 
HETATM    3  F9  UNL     1     -32.242  10.274   0.553  1.00 20.00    -0.144 F 
ENDROOT
BRANCH   1   4
HETATM    4  C5  UNL     1     -32.239   7.291   3.147  1.00 20.00     0.114 A 
HETATM    5  C6  UNL     1     -33.437   6.536   3.340  1.00 20.00     0.108 A 
HETATM    6  C7  UNL     1     -32.227   6.011   2.779  1.00 20.00     0.186 A 
HETATM    7  F10 UNL     1     -31.571   5.075   3.496  1.00 20.00    -0.235 F 
BRANCH   5   8
HETATM    8  C3  UNL     1     -33.887   6.200   4.509  1.00 20.00    -0.080 C 
HETATM    9  C4  UNL     1     -34.305   5.889   5.591  1.00 20.00     0.272 C 
HETATM   10  O8  UNL     1     -34.713   5.585   6.651  1.00 20.00    -0.274 OA
ENDBRANCH   5   8
ENDBRANCH   1   4
TORSDOF 2
ENDMDL
MODEL 3
REMARK VINA RESULT:      -4.6     10.847     11.278
REMARK  2 active torsions:
REMARK  status: ('A' for Active; 'I' for Inactive)
REMARK    1  A    between atoms: C1_1  and  C5_5 
REMARK    2  A    between atoms: C3_3  and  C6_6 
ROOT
HETATM    1  C1  UNL     1     -34.479  16.763  -0.799  1.00 20.00    -0.053 C 
HETATM    2  C2  UNL     1     -34.834  17.243   0.242  1.00 20.00     0.106 C 
HETATM    3  F9  UNL     1     -35.230  17.778   1.403  1.00 20.00    -0.144 F 
ENDROOT
BRANCH   1   4
HETATM    4  C5  UNL     1     -34.060  16.199  -2.027  1.00 20.00     0.114 A 
HETATM    5  C6  UNL     1     -35.047  15.743  -2.955  1.00 20.00     0.108 A 
HETATM    6  C7  UNL     1     -34.156  16.841  -3.189  1.00 20.00     0.186 A 
HETATM    7  F10 UNL     1     -33.232  16.689  -4.161  1.00 20.00    -0.235 F 
BRANCH   5   8
HETATM    8  C3  UNL     1     -34.966  14.611  -3.583  1.00 20.00    -0.080 C 
HETATM    9  C4  UNL     1     -34.891  13.562  -4.163  1.00 20.00     0.272 C 
HETATM   10  O8  UNL     1     -34.818  12.535  -4.732  1.00 20.00    -0.274 OA
ENDBRANCH   5   8
ENDBRANCH   1   4
TORSDOF 2
ENDMDL
MODEL 4
REMARK VINA RESULT:      -4.2     10.604     11.442
REMARK  2 active torsions:
REMARK  status: ('A' for Active; 'I' for Inactive)
REMARK    1  A    between atoms: C1_1  and  C5_5 
REMARK    2  A    between atoms: C3_3  and  C6_6 
ROOT
HETATM    1  C1  UNL     1     -34.652  15.854  -2.167  1.00 20.00    -0.053 C 
HETATM    2  C2  UNL     1     -34.405  16.532  -1.209  1.00 20.00     0.106 C 
HETATM    3  F9  UNL     1     -34.130  17.288  -0.139  1.00 20.00    -0.144 F 
ENDROOT
BRANCH   1   4
HETATM    4  C5  UNL     1     -34.942  15.054  -3.298  1.00 20.00     0.114 A 
HETATM    5  C6  UNL     1     -33.962  14.928  -4.331  1.00 20.00     0.108 A 
HETATM    6  C7  UNL     1     -34.401  13.852  -3.492  1.00 20.00     0.186 A 
HETATM    7  F10 UNL     1     -35.091  12.853  -4.082  1.00 20.00    -0.235 F 
BRANCH   5   8
HETATM    8  C3  UNL     1     -34.244  15.011  -5.594  1.00 20.00    -0.080 C 
HETATM    9  C4  UNL     1     -34.505  15.087  -6.764  1.00 20.00     0.272 C 
HETATM   10  O8  UNL     1     -34.761  15.162  -7.909  1.00 20.00    -0.274 OA
ENDBRANCH   5   8
ENDBRANCH   1   4
TORSDOF 2
ENDMDL
MODEL 5
REMARK VINA RESULT:      -4.2     10.821     11.411
REMARK  2 active torsions:
REMARK  status: ('A' for Active; 'I' for Inactive)
REMARK    1  A    between atoms: C1_1  and  C5_5 
REMARK    2  A    between atoms: C3_3  and  C6_6 
ROOT
HETATM    1  C1  UNL     1     -34.477  15.869  -2.072  1.00 20.00    -0.053 C 
HETATM    2  C2  UNL     1     -34.616  16.674  -1.192  1.00 20.00     0.106 C 
HETATM    3  F9  UNL     1     -34.769  17.571  -0.211  1.00 20.00    -0.144 F 
ENDROOT
BRANCH   1   4
HETATM    4  C5  UNL     1     -34.315  14.922  -3.110  1.00 20.00     0.114 A 
HETATM    5  C6  UNL     1     -33.890  15.368  -4.400  1.00 20.00     0.108 A 
HETATM    6  C7  UNL     1     -33.122  14.517  -3.540  1.00 20.00     0.186 A 
HETATM    7  F10 UNL     1     -32.911  13.250  -3.956  1.00 20.00    -0.235 F 
BRANCH   5   8
HETATM    8  C3  UNL     1     -34.431  14.965  -5.507  1.00 20.00    -0.080 C 
HETATM    9  C4  UNL     1     -34.932  14.592  -6.532  1.00 20.00     0.272 C 
HETATM   10  O8  UNL     1     -35.423  14.226  -7.537  1.00 20.00    -0.274 OA
ENDBRANCH   5   8
ENDBRANCH   1   4
TORSDOF 2
ENDMDL
MODEL 6
REMARK VINA RESULT:      -4.2     10.795     11.982
REMARK  2 active torsions:
REMARK  status: ('A' for Active; 'I' for Inactive)
REMARK    1  A    between atoms: C1_1  and  C5_5 
REMARK    2  A    between atoms: C3_3  and  C6_6 
ROOT
HETATM    1  C1  UNL     1     -34.587  14.758  -5.802  1.00 20.00    -0.053 C 
HETATM    2  C2  UNL     1     -35.172  14.448  -6.802  1.00 20.00     0.106 C 
HETATM    3  F9  UNL     1     -35.826  14.103  -7.918  1.00 20.00    -0.144 F 
ENDROOT
BRANCH   1   4
HETATM    4  C5  UNL     1     -33.897  15.125  -4.622  1.00 20.00     0.114 A 
HETATM    5  C6  UNL     1     -34.454  14.777  -3.353  1.00 20.00     0.108 A 
HETATM    6  C7  UNL     1     -33.228  14.250  -3.873  1.00 20.00     0.186 A 
HETATM    7  F10 UNL     1     -32.089  14.591  -3.233  1.00 20.00    -0.235 F 
BRANCH   5   8
HETATM    8  C3  UNL     1     -34.511  15.599  -2.351  1.00 20.00    -0.080 C 
HETATM    9  C4  UNL     1     -34.565  16.360  -1.423  1.00 20.00     0.272 C 
HETATM   10  O8  UNL     1     -34.616  17.105  -0.515  1.00 20.00    -0.274 OA
ENDBRANCH   5   8
ENDBRANCH   1   4
TORSDOF 2
ENDMDL
MODEL 7
REMARK VINA RESULT:      -4.1     10.618     11.724
REMARK  2 active torsions:
REMARK  status: ('A' for Active; 'I' for Inactive)
REMARK    1  A    between atoms: C1_1  and  C5_5 
REMARK    2  A    between atoms: C3_3  and  C6_6 
ROOT
HETATM    1  C1  UNL     1     -34.437  14.919  -3.084  1.00 20.00    -0.053 C 
HETATM    2  C2  UNL     1     -33.923  14.013  -3.680  1.00 20.00     0.106 C 
HETATM    3  F9  UNL     1     -33.350  13.002  -4.343  1.00 20.00    -0.144 F 
ENDROOT
BRANCH   1   4
HETATM    4  C5  UNL     1     -35.045  15.987  -2.382  1.00 20.00     0.114 A 
HETATM    5  C6  UNL     1     -34.269  16.730  -1.439  1.00 20.00     0.108 A 
HETATM    6  C7  UNL     1     -34.800  17.267  -2.657  1.00 20.00     0.186 A 
HETATM    7  F10 UNL     1     -35.759  18.211  -2.549  1.00 20.00    -0.235 F 
BRANCH   5   8
HETATM    8  C3  UNL     1     -34.704  17.062  -0.263  1.00 20.00    -0.080 C 
HETATM    9  C4  UNL     1     -35.107  17.369   0.826  1.00 20.00     0.272 C 
HETATM   10  O8  UNL     1     -35.501  17.670   1.892  1.00 20.00    -0.274 OA
ENDBRANCH   5   8
ENDBRANCH   1   4
TORSDOF 2
ENDMDL
MODEL 8
REMARK VINA RESULT:      -4.1     10.943     11.655
REMARK  2 active torsions:
REMARK  status: ('A' for Active; 'I' for Inactive)
REMARK    1  A    between atoms: C1_1  and  C5_5 
REMARK    2  A    between atoms: C3_3  and  C6_6 
ROOT
HETATM    1  C1  UNL     1     -34.059  17.047  -1.180  1.00 20.00    -0.053 C 
HETATM    2  C2  UNL     1     -33.657  18.015  -0.596  1.00 20.00     0.106 C 
HETATM    3  F9  UNL     1     -33.209  19.095   0.054  1.00 20.00    -0.144 F 
ENDROOT
BRANCH   1   4
HETATM    4  C5  UNL     1     -34.535  15.905  -1.868  1.00 20.00     0.114 A 
HETATM    5  C6  UNL     1     -35.263  16.080  -3.086  1.00 20.00     0.108 A 
HETATM    6  C7  UNL     1     -33.978  15.452  -2.989  1.00 20.00     0.186 A 
HETATM    7  F10 UNL     1     -33.915  14.132  -3.265  1.00 20.00    -0.235 F 
BRANCH   5   8
HETATM    8  C3  UNL     1     -36.355  15.436  -3.362  1.00 20.00    -0.080 C 
HETATM    9  C4  UNL     1     -37.365  14.840  -3.617  1.00 20.00     0.272 C 
HETATM   10  O8  UNL     1     -38.355  14.256  -3.868  1.00 20.00    -0.274 OA
ENDBRANCH   5   8
ENDBRANCH   1   4
TORSDOF 2
ENDMDL
MODEL 9
REMARK VINA RESULT:      -3.7     11.247     12.138
REMARK  2 active torsions:
REMARK  status: ('A' for Active; 'I' for Inactive)
REMARK    1  A    between atoms: C1_1  and  C5_5 
REMARK    2  A    between atoms: C3_3  and  C6_6 
ROOT
HETATM    1  C1  UNL     1     -34.429  16.298  -1.909  1.00 20.00    -0.053 C 
HETATM    2  C2  UNL     1     -34.663  16.592  -0.770  1.00 20.00     0.106 C 
HETATM    3  F9  UNL     1     -34.923  16.920   0.501  1.00 20.00    -0.144 F 
ENDROOT
BRANCH   1   4
HETATM    4  C5  UNL     1     -34.152  15.951  -3.253  1.00 20.00     0.114 A 
HETATM    5  C6  UNL     1     -34.933  16.535  -4.298  1.00 20.00     0.108 A 
HETATM    6  C7  UNL     1     -33.534  16.771  -4.100  1.00 20.00     0.186 A 
HETATM    7  F10 UNL     1     -32.691  16.308  -5.047  1.00 20.00    -0.235 F 
BRANCH   5   8
HETATM    8  C3  UNL     1     -35.410  15.857  -5.295  1.00 20.00    -0.080 C 
HETATM    9  C4  UNL     1     -35.852  15.229  -6.218  1.00 20.00     0.272 C 
HETATM   10  O8  UNL     1     -36.284  14.614  -7.123  1.00 20.00    -0.274 OA
ENDBRANCH   5   8
ENDBRANCH   1   4
TORSDOF 2
ENDMDL
