MODEL 1
REMARK VINA RESULT:      -4.7      0.000      0.000
REMARK  0 active torsions:
REMARK  status: ('A' for Active; 'I' for Inactive)
ROOT
HETATM    1  C1  UNL     1     -34.444  16.629  -1.041  1.00 20.00     0.015 C 
HETATM    2  C2  UNL     1     -34.360  16.157  -2.140  1.00 20.00    -0.076 C 
HETATM    3  C3  UNL     1     -35.493  14.068  -5.048  1.00 20.00     0.004 C 
HETATM    4  C4  UNL     1     -34.522  14.503  -6.138  1.00 20.00     0.003 C 
HETATM    5  C5  UNL     1     -34.874  14.232  -3.661  1.00 20.00     0.055 C 
HETATM    6  C6  UNL     1     -34.232  15.999  -6.044  1.00 20.00     0.042 C 
HETATM    7  C7  UNL     1     -34.259  15.592  -3.455  1.00 20.00     0.154 A 
HETATM    8  C8  UNL     1     -33.891  16.466  -4.654  1.00 20.00     0.102 A 
HETATM    9  C9  UNL     1     -33.665  17.942  -4.501  1.00 20.00     0.050 C 
HETATM   10  O10 UNL     1     -32.915  15.671  -3.979  1.00 20.00    -0.350 OA
ENDROOT
TORSDOF 0
ENDMDL
MODEL 2
REMARK VINA RESULT:      -4.6      1.167      1.182
REMARK  0 active torsions:
REMARK  status: ('A' for Active; 'I' for Inactive)
ROOT
HETATM    1  C1  UNL     1     -34.436  16.640  -0.982  1.00 20.00     0.015 C 
HETATM    2  C2  UNL     1     -34.469  16.130  -2.067  1.00 20.00    -0.076 C 
HETATM    3  C3  UNL     1     -34.940  13.300  -4.489  1.00 20.00     0.004 C 
HETATM    4  C4  UNL     1     -34.948  14.033  -5.825  1.00 20.00     0.003 C 
HETATM    5  C5  UNL     1     -34.129  14.064  -3.445  1.00 20.00     0.055 C 
HETATM    6  C6  UNL     1     -35.675  15.370  -5.707  1.00 20.00     0.042 C 
HETATM    7  C7  UNL     1     -34.509  15.520  -3.365  1.00 20.00     0.154 A 
HETATM    8  C8  UNL     1     -35.247  16.194  -4.522  1.00 20.00     0.102 A 
HETATM    9  C9  UNL     1     -35.984  17.486  -4.327  1.00 20.00     0.050 C 
HETATM   10  O10 UNL     1     -33.833  16.318  -4.362  1.00 20.00    -0.350 OA
ENDROOT
TORSDOF 0
ENDMDL
MODEL 3
REMARK VINA RESULT:      -4.6     11.611     13.079
REMARK  0 active torsions:
REMARK  status: ('A' for Active; 'I' for Inactive)
ROOT
HETATM    1  C1  UNL     1     -32.106   8.085   2.250  1.00 20.00     0.015 C 
HETATM    2  C2  UNL     1     -32.602   7.358   3.065  1.00 20.00    -0.076 C 
HETATM    3  C3  UNL     1     -34.240   6.525   6.339  1.00 20.00     0.004 C 
HETATM    4  C4  UNL     1     -34.687   5.087   6.104  1.00 20.00     0.003 C 
HETATM    5  C5  UNL     1     -33.020   6.869   5.487  1.00 20.00     0.055 C 
HETATM    6  C6  UNL     1     -35.178   4.897   4.671  1.00 20.00     0.042 C 
HETATM    7  C7  UNL     1     -33.195   6.490   4.040  1.00 20.00     0.154 A 
HETATM    8  C8  UNL     1     -34.250   5.461   3.629  1.00 20.00     0.102 A 
HETATM    9  C9  UNL     1     -34.725   5.358   2.210  1.00 20.00     0.050 C 
HETATM   10  O10 UNL     1     -32.877   5.101   3.795  1.00 20.00    -0.350 OA
ENDROOT
TORSDOF 0
ENDMDL
MODEL 4
REMARK VINA RESULT:      -4.4     12.194     13.575
REMARK  0 active torsions:
REMARK  status: ('A' for Active; 'I' for Inactive)
ROOT
HETATM    1  C1  UNL     1     -31.808   7.478   3.033  1.00 20.00     0.015 C 
HETATM    2  C2  UNL     1     -32.659   6.853   3.602  1.00 20.00    -0.076 C 
HETATM    3  C3  UNL     1     -34.525   3.745   4.581  1.00 20.00     0.004 C 
HETATM    4  C4  UNL     1     -35.413   4.259   5.708  1.00 20.00     0.003 C 
HETATM    5  C5  UNL     1     -34.181   4.861   3.597  1.00 20.00     0.055 C 
HETATM    6  C6  UNL     1     -34.668   5.281   6.564  1.00 20.00     0.042 C 
HETATM    7  C7  UNL     1     -33.677   6.105   4.282  1.00 20.00     0.154 A 
HETATM    8  C8  UNL     1     -33.961   6.344   5.765  1.00 20.00     0.102 A 
HETATM    9  C9  UNL     1     -33.159   7.331   6.562  1.00 20.00     0.050 C 
HETATM   10  O10 UNL     1     -34.754   6.951   4.744  1.00 20.00    -0.350 OA
ENDROOT
TORSDOF 0
ENDMDL
MODEL 5
REMARK VINA RESULT:      -4.4      1.065      3.936
REMARK  0 active torsions:
REMARK  status: ('A' for Active; 'I' for Inactive)
ROOT
HETATM    1  C1  UNL     1     -34.742  14.812  -7.558  1.00 20.00     0.015 C 
HETATM    2  C2  UNL     1     -34.479  15.113  -6.427  1.00 20.00    -0.076 C 
HETATM    3  C3  UNL     1     -33.637  17.483  -3.639  1.00 20.00     0.004 C 
HETATM    4  C4  UNL     1     -33.782  16.586  -2.416  1.00 20.00     0.003 C 
HETATM    5  C5  UNL     1     -33.270  16.670  -4.879  1.00 20.00     0.055 C 
HETATM    6  C6  UNL     1     -34.957  15.626  -2.582  1.00 20.00     0.042 C 
HETATM    7  C7  UNL     1     -34.164  15.473  -5.075  1.00 20.00     0.154 A 
HETATM    8  C8  UNL     1     -34.979  14.915  -3.909  1.00 20.00     0.102 A 
HETATM    9  C9  UNL     1     -36.155  14.011  -4.143  1.00 20.00     0.050 C 
HETATM   10  O10 UNL     1     -33.733  14.334  -4.296  1.00 20.00    -0.350 OA
ENDROOT
TORSDOF 0
ENDMDL
MODEL 6
REMARK VINA RESULT:      -4.3      1.550      1.813
REMARK  0 active torsions:
REMARK  status: ('A' for Active; 'I' for Inactive)
ROOT
HETATM    1  C1  UNL     1     -34.592  16.602  -0.877  1.00 20.00     0.015 C 
HETATM    2  C2  UNL     1     -34.861  16.099  -1.933  1.00 20.00    -0.076 C 
HETATM    3  C3  UNL     1     -36.622  15.852  -5.240  1.00 20.00     0.004 C 
HETATM    4  C4  UNL     1     -35.857  14.720  -5.914  1.00 20.00     0.003 C 
HETATM    5  C5  UNL     1     -36.577  15.719  -3.719  1.00 20.00     0.055 C 
HETATM    6  C6  UNL     1     -34.367  14.799  -5.585  1.00 20.00     0.042 C 
HETATM    7  C7  UNL     1     -35.182  15.499  -3.195  1.00 20.00     0.154 A 
HETATM    8  C8  UNL     1     -34.077  14.990  -4.121  1.00 20.00     0.102 A 
HETATM    9  C9  UNL     1     -32.628  15.141  -3.760  1.00 20.00     0.050 C 
HETATM   10  O10 UNL     1     -34.789  14.109  -3.250  1.00 20.00    -0.350 OA
ENDROOT
TORSDOF 0
ENDMDL
MODEL 7
REMARK VINA RESULT:      -4.3      1.594      3.542
REMARK  0 active torsions:
REMARK  status: ('A' for Active; 'I' for Inactive)
ROOT
HETATM    1  C1  UNL     1     -33.930  13.665  -3.772  1.00 20.00     0.015 C 
HETATM    2  C2  UNL     1     -34.116  14.782  -3.374  1.00 20.00    -0.076 C 
HETATM    3  C3  UNL     1     -33.976  17.573  -0.867  1.00 20.00     0.004 C 
HETATM    4  C4  UNL     1     -34.374  18.773  -1.717  1.00 20.00     0.003 C 
HETATM    5  C5  UNL     1     -34.576  16.282  -1.420  1.00 20.00     0.055 C 
HETATM    6  C6  UNL     1     -33.779  18.667  -3.119  1.00 20.00     0.042 C 
HETATM    7  C7  UNL     1     -34.337  16.116  -2.898  1.00 20.00     0.154 A 
HETATM    8  C8  UNL     1     -33.982  17.323  -3.767  1.00 20.00     0.102 A 
HETATM    9  C9  UNL     1     -33.354  17.152  -5.119  1.00 20.00     0.050 C 
HETATM   10  O10 UNL     1     -35.317  16.821  -3.694  1.00 20.00    -0.350 OA
ENDROOT
TORSDOF 0
ENDMDL
MODEL 8
REMARK VINA RESULT:      -4.3      1.083      1.120
REMARK  0 active torsions:
REMARK  status: ('A' for Active; 'I' for Inactive)
ROOT
HETATM    1  C1  UNL     1     -33.725  18.256  -2.076  1.00 20.00     0.015 C 
HETATM    2  C2  UNL     1     -33.804  17.317  -2.819  1.00 20.00    -0.076 C 
HETATM    3  C3  UNL     1     -35.268  14.112  -4.116  1.00 20.00     0.004 C 
HETATM    4  C4  UNL     1     -34.555  13.965  -5.455  1.00 20.00     0.003 C 
HETATM    5  C5  UNL     1     -34.421  14.907  -3.125  1.00 20.00     0.055 C 
HETATM    6  C6  UNL     1     -34.383  15.324  -6.131  1.00 20.00     0.042 C 
HETATM    7  C7  UNL     1     -33.899  16.195  -3.707  1.00 20.00     0.154 A 
HETATM    8  C8  UNL     1     -33.834  16.391  -5.222  1.00 20.00     0.102 A 
HETATM    9  C9  UNL     1     -33.713  17.760  -5.826  1.00 20.00     0.050 C 
HETATM   10  O10 UNL     1     -32.686  16.000  -4.468  1.00 20.00    -0.350 OA
ENDROOT
TORSDOF 0
ENDMDL
MODEL 9
REMARK VINA RESULT:      -4.2      1.070      2.991
REMARK  0 active torsions:
REMARK  status: ('A' for Active; 'I' for Inactive)
ROOT
HETATM    1  C1  UNL     1     -34.706  13.265  -4.180  1.00 20.00     0.015 C 
HETATM    2  C2  UNL     1     -34.372  14.354  -4.556  1.00 20.00    -0.076 C 
HETATM    3  C3  UNL     1     -34.583  17.436  -6.691  1.00 20.00     0.004 C 
HETATM    4  C4  UNL     1     -33.622  18.376  -5.973  1.00 20.00     0.003 C 
HETATM    5  C5  UNL     1     -34.201  15.975  -6.460  1.00 20.00     0.055 C 
HETATM    6  C6  UNL     1     -33.725  18.208  -4.459  1.00 20.00     0.042 C 
HETATM    7  C7  UNL     1     -33.973  15.657  -5.005  1.00 20.00     0.154 A 
HETATM    8  C8  UNL     1     -33.686  16.774  -4.002  1.00 20.00     0.102 A 
HETATM    9  C9  UNL     1     -33.853  16.557  -2.526  1.00 20.00     0.050 C 
HETATM   10  O10 UNL     1     -32.635  15.994  -4.574  1.00 20.00    -0.350 OA
ENDROOT
TORSDOF 0
ENDMDL
