MODEL 1
REMARK VINA RESULT:      -4.0      0.000      0.000
REMARK  1 active torsions:
REMARK  status: ('A' for Active; 'I' for Inactive)
REMARK    1  A    between atoms: C1_1  and  C7_7 
ROOT
HETATM    1  C2  UNL     1     -34.974  13.573  -4.110  1.00 20.00     0.048 C 
HETATM    2  C3  UNL     1     -34.969  15.880  -5.050  1.00 20.00     0.048 C 
HETATM    3  C4  UNL     1     -33.481  13.732  -3.816  1.00 20.00     0.273 C 
HETATM    4  C5  UNL     1     -33.475  15.967  -4.726  1.00 20.00     0.273 C 
HETATM    5  C6  UNL     1     -34.593  15.466  -2.762  1.00 20.00     0.288 C 
HETATM    6  C7  UNL     1     -35.476  15.002  -3.906  1.00 20.00     0.042 C 
HETATM    7  N8  UNL     1     -33.322  15.173  -3.472  1.00 20.00     0.089 N 
ENDROOT
BRANCH   6   8
HETATM    8  C1  UNL     1     -36.940  15.119  -3.651  1.00 20.00     0.242 C 
HETATM    9  O9  UNL     1     -37.719  14.177  -3.740  1.00 20.00    -0.306 OA
ENDBRANCH   6   8
TORSDOF 1
ENDMDL
MODEL 2
REMARK VINA RESULT:      -3.9      1.505      2.507
REMARK  1 active torsions:
REMARK  status: ('A' for Active; 'I' for Inactive)
REMARK    1  A    between atoms: C1_1  and  C7_7 
ROOT
HETATM    1  C2  UNL     1     -34.222  15.799  -5.534  1.00 20.00     0.048 C 
HETATM    2  C3  UNL     1     -35.350  15.188  -3.398  1.00 20.00     0.048 C 
HETATM    3  C4  UNL     1     -33.636  17.024  -4.828  1.00 20.00     0.273 C 
HETATM    4  C5  UNL     1     -34.729  16.433  -2.758  1.00 20.00     0.273 C 
HETATM    5  C6  UNL     1     -33.006  15.151  -3.623  1.00 20.00     0.288 C 
HETATM    6  C7  UNL     1     -34.262  14.784  -4.392  1.00 20.00     0.042 C 
HETATM    7  N8  UNL     1     -33.403  16.569  -3.428  1.00 20.00     0.089 N 
ENDROOT
BRANCH   6   8
HETATM    8  C1  UNL     1     -34.332  13.359  -4.827  1.00 20.00     0.242 C 
HETATM    9  O9  UNL     1     -35.128  12.549  -4.364  1.00 20.00    -0.306 OA
ENDBRANCH   6   8
TORSDOF 1
ENDMDL
MODEL 3
REMARK VINA RESULT:      -3.9      0.603      1.848
REMARK  1 active torsions:
REMARK  status: ('A' for Active; 'I' for Inactive)
REMARK    1  A    between atoms: C1_1  and  C7_7 
ROOT
HETATM    1  C2  UNL     1     -35.229  15.772  -2.527  1.00 20.00     0.048 C 
HETATM    2  C3  UNL     1     -34.710  13.663  -3.748  1.00 20.00     0.048 C 
HETATM    3  C4  UNL     1     -33.752  16.156  -2.641  1.00 20.00     0.273 C 
HETATM    4  C5  UNL     1     -33.248  14.113  -3.824  1.00 20.00     0.273 C 
HETATM    5  C6  UNL     1     -34.547  15.774  -4.781  1.00 20.00     0.288 C 
HETATM    6  C7  UNL     1     -35.443  15.002  -3.829  1.00 20.00     0.042 C 
HETATM    7  N8  UNL     1     -33.325  15.597  -3.955  1.00 20.00     0.089 N 
ENDROOT
BRANCH   6   8
HETATM    8  C1  UNL     1     -36.865  14.893  -4.263  1.00 20.00     0.242 C 
HETATM    9  O9  UNL     1     -37.681  14.151  -3.727  1.00 20.00    -0.306 OA
ENDBRANCH   6   8
TORSDOF 1
ENDMDL
MODEL 4
REMARK VINA RESULT:      -3.9      1.633      2.602
REMARK  1 active torsions:
REMARK  status: ('A' for Active; 'I' for Inactive)
REMARK    1  A    between atoms: C1_1  and  C7_7 
ROOT
HETATM    1  C2  UNL     1     -34.656  15.748  -2.374  1.00 20.00     0.048 C 
HETATM    2  C3  UNL     1     -33.028  15.732  -4.260  1.00 20.00     0.048 C 
HETATM    3  C4  UNL     1     -35.159  17.105  -2.872  1.00 20.00     0.273 C 
HETATM    4  C5  UNL     1     -33.582  17.090  -4.699  1.00 20.00     0.273 C 
HETATM    5  C6  UNL     1     -35.352  15.600  -4.620  1.00 20.00     0.288 C 
HETATM    6  C7  UNL     1     -34.279  15.065  -3.688  1.00 20.00     0.042 C 
HETATM    7  N8  UNL     1     -35.032  17.026  -4.355  1.00 20.00     0.089 N 
ENDROOT
BRANCH   6   8
HETATM    8  C1  UNL     1     -34.199  13.578  -3.618  1.00 20.00     0.242 C 
HETATM    9  O9  UNL     1     -34.948  12.831  -4.238  1.00 20.00    -0.306 OA
ENDBRANCH   6   8
TORSDOF 1
ENDMDL
MODEL 5
REMARK VINA RESULT:      -3.8      1.061      1.888
REMARK  1 active torsions:
REMARK  status: ('A' for Active; 'I' for Inactive)
REMARK    1  A    between atoms: C1_1  and  C7_7 
ROOT
HETATM    1  C2  UNL     1     -35.639  15.505  -5.452  1.00 20.00     0.048 C 
HETATM    2  C3  UNL     1     -34.796  15.299  -3.116  1.00 20.00     0.048 C 
HETATM    3  C4  UNL     1     -34.400  14.739  -5.924  1.00 20.00     0.273 C 
HETATM    4  C5  UNL     1     -33.584  14.540  -3.661  1.00 20.00     0.273 C 
HETATM    5  C6  UNL     1     -35.487  13.423  -4.361  1.00 20.00     0.288 C 
HETATM    6  C7  UNL     1     -35.890  14.861  -4.089  1.00 20.00     0.042 C 
HETATM    7  N8  UNL     1     -34.120  13.774  -4.824  1.00 20.00     0.089 N 
ENDROOT
BRANCH   6   8
HETATM    8  C1  UNL     1     -37.276  15.031  -3.566  1.00 20.00     0.242 C 
HETATM    9  O9  UNL     1     -38.157  14.188  -3.696  1.00 20.00    -0.306 OA
ENDBRANCH   6   8
TORSDOF 1
ENDMDL
MODEL 6
REMARK VINA RESULT:      -3.8      1.955      2.566
REMARK  1 active torsions:
REMARK  status: ('A' for Active; 'I' for Inactive)
REMARK    1  A    between atoms: C1_1  and  C7_7 
ROOT
HETATM    1  C2  UNL     1     -33.393  15.493  -4.294  1.00 20.00     0.048 C 
HETATM    2  C3  UNL     1     -34.486  14.688  -6.384  1.00 20.00     0.048 C 
HETATM    3  C4  UNL     1     -33.364  16.899  -4.898  1.00 20.00     0.273 C 
HETATM    4  C5  UNL     1     -34.423  16.120  -6.922  1.00 20.00     0.273 C 
HETATM    5  C6  UNL     1     -35.562  16.175  -4.908  1.00 20.00     0.288 C 
HETATM    6  C7  UNL     1     -34.686  14.936  -4.888  1.00 20.00     0.042 C 
HETATM    7  N8  UNL     1     -34.608  16.977  -5.715  1.00 20.00     0.089 N 
ENDROOT
BRANCH   6   8
HETATM    8  C1  UNL     1     -35.263  13.776  -4.150  1.00 20.00     0.242 C 
HETATM    9  O9  UNL     1     -35.029  12.607  -4.438  1.00 20.00    -0.306 OA
ENDBRANCH   6   8
TORSDOF 1
ENDMDL
MODEL 7
REMARK VINA RESULT:      -3.7      1.893      2.898
REMARK  1 active torsions:
REMARK  status: ('A' for Active; 'I' for Inactive)
REMARK    1  A    between atoms: C1_1  and  C7_7 
ROOT
HETATM    1  C2  UNL     1     -33.610  15.942  -5.094  1.00 20.00     0.048 C 
HETATM    2  C3  UNL     1     -33.727  13.900  -3.670  1.00 20.00     0.048 C 
HETATM    3  C4  UNL     1     -34.419  15.198  -6.159  1.00 20.00     0.273 C 
HETATM    4  C5  UNL     1     -34.532  13.220  -4.780  1.00 20.00     0.273 C 
HETATM    5  C6  UNL     1     -35.644  15.164  -4.196  1.00 20.00     0.288 C 
HETATM    6  C7  UNL     1     -34.188  15.351  -3.808  1.00 20.00     0.042 C 
HETATM    7  N8  UNL     1     -35.339  14.321  -5.380  1.00 20.00     0.089 N 
ENDROOT
BRANCH   6   8
HETATM    8  C1  UNL     1     -33.969  16.179  -2.588  1.00 20.00     0.242 C 
HETATM    9  O9  UNL     1     -34.584  16.015  -1.540  1.00 20.00    -0.306 OA
ENDBRANCH   6   8
TORSDOF 1
ENDMDL
MODEL 8
REMARK VINA RESULT:      -3.6      1.922      2.666
REMARK  1 active torsions:
REMARK  status: ('A' for Active; 'I' for Inactive)
REMARK    1  A    between atoms: C1_1  and  C7_7 
ROOT
HETATM    1  C2  UNL     1     -34.158  13.835  -3.505  1.00 20.00     0.048 C 
HETATM    2  C3  UNL     1     -36.257  15.167  -3.330  1.00 20.00     0.048 C 
HETATM    3  C4  UNL     1     -34.564  13.457  -4.931  1.00 20.00     0.273 C 
HETATM    4  C5  UNL     1     -36.598  14.746  -4.762  1.00 20.00     0.273 C 
HETATM    5  C6  UNL     1     -34.520  15.767  -4.803  1.00 20.00     0.288 C 
HETATM    6  C7  UNL     1     -34.732  15.247  -3.393  1.00 20.00     0.042 C 
HETATM    7  N8  UNL     1     -35.275  14.661  -5.447  1.00 20.00     0.089 N 
ENDROOT
BRANCH   6   8
HETATM    8  C1  UNL     1     -34.121  16.085  -2.321  1.00 20.00     0.242 C 
HETATM    9  O9  UNL     1     -34.617  16.229  -1.209  1.00 20.00    -0.306 OA
ENDBRANCH   6   8
TORSDOF 1
ENDMDL
MODEL 9
REMARK VINA RESULT:      -3.6      1.717      2.703
REMARK  1 active torsions:
REMARK  status: ('A' for Active; 'I' for Inactive)
REMARK    1  A    between atoms: C1_1  and  C7_7 
ROOT
HETATM    1  C2  UNL     1     -36.591  14.950  -3.664  1.00 20.00     0.048 C 
HETATM    2  C3  UNL     1     -34.167  14.917  -3.088  1.00 20.00     0.048 C 
HETATM    3  C4  UNL     1     -36.631  16.420  -3.241  1.00 20.00     0.273 C 
HETATM    4  C5  UNL     1     -34.283  16.389  -2.682  1.00 20.00     0.273 C 
HETATM    5  C6  UNL     1     -35.005  16.203  -4.874  1.00 20.00     0.288 C 
HETATM    6  C7  UNL     1     -35.176  14.838  -4.233  1.00 20.00     0.042 C 
HETATM    7  N8  UNL     1     -35.293  16.953  -3.624  1.00 20.00     0.089 N 
ENDROOT
BRANCH   6   8
HETATM    8  C1  UNL     1     -34.964  13.686  -5.154  1.00 20.00     0.242 C 
HETATM    9  O9  UNL     1     -34.771  12.538  -4.769  1.00 20.00    -0.306 OA
ENDBRANCH   6   8
TORSDOF 1
ENDMDL
