MODEL 1
REMARK VINA RESULT:      -5.5      0.000      0.000
REMARK  2 active torsions:
REMARK  status: ('A' for Active; 'I' for Inactive)
REMARK    1  A    between atoms: C4_4  and  C5_5 
REMARK    2  A    between atoms: C5_5  and  C8_8 
ROOT
HETATM    1  C1  UNL     1     -35.142   4.325   6.067  1.00 20.00    -0.027 A 
HETATM    2  C2  UNL     1     -34.477   5.348   6.622  1.00 20.00    -0.026 A 
HETATM    3  C3  UNL     1     -34.687   5.266   3.774  1.00 20.00    -0.012 A 
HETATM    4  C4  UNL     1     -34.022   6.285   4.338  1.00 20.00    -0.003 A 
HETATM    5  C6  UNL     1     -35.320   4.169   4.584  1.00 20.00     0.054 A 
HETATM    6  C7  UNL     1     -33.838   6.445   5.818  1.00 20.00     0.069 A 
ENDROOT
BRANCH   4   7
HETATM    7  C5  UNL     1     -33.444   7.298   3.451  1.00 20.00     0.261 C 
HETATM    8  O9  UNL     1     -34.122   8.245   3.049  1.00 20.00    -0.283 OA
BRANCH   7   9
HETATM    9  C8  UNL     1     -32.004   7.129   3.060  1.00 20.00     0.455 C 
HETATM   10  F10 UNL     1     -31.156   7.726   3.935  1.00 20.00    -0.163 F 
HETATM   11  F11 UNL     1     -31.746   7.663   1.838  1.00 20.00    -0.163 F 
HETATM   12  F12 UNL     1     -31.648   5.820   2.999  1.00 20.00    -0.163 F 
ENDBRANCH   7   9
ENDBRANCH   4   7
TORSDOF 2
ENDMDL
MODEL 2
REMARK VINA RESULT:      -5.5      0.105      1.448
REMARK  2 active torsions:
REMARK  status: ('A' for Active; 'I' for Inactive)
REMARK    1  A    between atoms: C4_4  and  C5_5 
REMARK    2  A    between atoms: C5_5  and  C8_8 
ROOT
HETATM    1  C1  UNL     1     -35.109   4.344   6.042  1.00 20.00    -0.027 A 
HETATM    2  C2  UNL     1     -35.274   4.187   4.721  1.00 20.00    -0.026 A 
HETATM    3  C3  UNL     1     -33.828   6.475   5.634  1.00 20.00    -0.012 A 
HETATM    4  C4  UNL     1     -33.998   6.310   4.314  1.00 20.00    -0.003 A 
HETATM    5  C6  UNL     1     -34.371   5.505   6.646  1.00 20.00     0.054 A 
HETATM    6  C7  UNL     1     -34.738   5.156   3.706  1.00 20.00     0.069 A 
ENDROOT
BRANCH   4   7
HETATM    7  C5  UNL     1     -33.426   7.320   3.420  1.00 20.00     0.261 C 
HETATM    8  O9  UNL     1     -34.105   8.267   3.021  1.00 20.00    -0.283 OA
BRANCH   7   9
HETATM    9  C8  UNL     1     -31.989   7.147   3.017  1.00 20.00     0.455 C 
HETATM   10  F10 UNL     1     -31.131   7.713   3.904  1.00 20.00    -0.163 F 
HETATM   11  F11 UNL     1     -31.732   7.712   1.809  1.00 20.00    -0.163 F 
HETATM   12  F12 UNL     1     -31.646   5.838   2.920  1.00 20.00    -0.163 F 
ENDBRANCH   7   9
ENDBRANCH   4   7
TORSDOF 2
ENDMDL
MODEL 3
REMARK VINA RESULT:      -5.1      1.445      1.613
REMARK  2 active torsions:
REMARK  status: ('A' for Active; 'I' for Inactive)
REMARK    1  A    between atoms: C4_4  and  C5_5 
REMARK    2  A    between atoms: C5_5  and  C8_8 
ROOT
HETATM    1  C1  UNL     1     -35.147   5.191   6.192  1.00 20.00    -0.027 A 
HETATM    2  C2  UNL     1     -34.228   6.144   6.403  1.00 20.00    -0.026 A 
HETATM    3  C3  UNL     1     -34.341   4.934   3.818  1.00 20.00    -0.012 A 
HETATM    4  C4  UNL     1     -33.425   5.888   4.039  1.00 20.00    -0.003 A 
HETATM    5  C6  UNL     1     -35.305   4.479   4.878  1.00 20.00     0.054 A 
HETATM    6  C7  UNL     1     -33.259   6.599   5.349  1.00 20.00     0.069 A 
ENDROOT
BRANCH   4   7
HETATM    7  C5  UNL     1     -32.536   6.251   2.932  1.00 20.00     0.261 C 
HETATM    8  O9  UNL     1     -32.096   5.391   2.168  1.00 20.00    -0.283 OA
BRANCH   7   9
HETATM    9  C8  UNL     1     -32.193   7.706   2.774  1.00 20.00     0.455 C 
HETATM   10  F10 UNL     1     -33.285   8.507   2.850  1.00 20.00    -0.163 F 
HETATM   11  F11 UNL     1     -31.604   7.958   1.578  1.00 20.00    -0.163 F 
HETATM   12  F12 UNL     1     -31.330   8.127   3.734  1.00 20.00    -0.163 F 
ENDBRANCH   7   9
ENDBRANCH   4   7
TORSDOF 2
ENDMDL
MODEL 4
REMARK VINA RESULT:      -5.0      1.440      2.285
REMARK  2 active torsions:
REMARK  status: ('A' for Active; 'I' for Inactive)
REMARK    1  A    between atoms: C4_4  and  C5_5 
REMARK    2  A    between atoms: C5_5  and  C8_8 
ROOT
HETATM    1  C1  UNL     1     -35.059   5.338   6.327  1.00 20.00    -0.027 A 
HETATM    2  C2  UNL     1     -35.269   4.665   5.186  1.00 20.00    -0.026 A 
HETATM    3  C3  UNL     1     -33.197   6.632   5.229  1.00 20.00    -0.012 A 
HETATM    4  C4  UNL     1     -33.413   5.954   4.092  1.00 20.00    -0.003 A 
HETATM    5  C6  UNL     1     -34.003   6.396   6.475  1.00 20.00     0.054 A 
HETATM    6  C7  UNL     1     -34.469   4.900   3.936  1.00 20.00     0.069 A 
ENDROOT
BRANCH   4   7
HETATM    7  C5  UNL     1     -32.567   6.268   2.938  1.00 20.00     0.261 C 
HETATM    8  O9  UNL     1     -32.189   5.379   2.173  1.00 20.00    -0.283 OA
BRANCH   7   9
HETATM    9  C8  UNL     1     -32.187   7.707   2.735  1.00 20.00     0.455 C 
HETATM   10  F10 UNL     1     -31.577   7.918   1.541  1.00 20.00    -0.163 F 
HETATM   11  F11 UNL     1     -31.331   8.143   3.694  1.00 20.00    -0.163 F 
HETATM   12  F12 UNL     1     -33.269   8.525   2.772  1.00 20.00    -0.163 F 
ENDBRANCH   7   9
ENDBRANCH   4   7
TORSDOF 2
ENDMDL
MODEL 5
REMARK VINA RESULT:      -4.9     11.465     12.261
REMARK  2 active torsions:
REMARK  status: ('A' for Active; 'I' for Inactive)
REMARK    1  A    between atoms: C4_4  and  C5_5 
REMARK    2  A    between atoms: C5_5  and  C8_8 
ROOT
HETATM    1  C1  UNL     1     -34.848  13.325  -4.224  1.00 20.00    -0.027 A 
HETATM    2  C2  UNL     1     -35.883  14.148  -4.000  1.00 20.00    -0.026 A 
HETATM    3  C3  UNL     1     -33.261  15.073  -3.345  1.00 20.00    -0.012 A 
HETATM    4  C4  UNL     1     -34.302  15.890  -3.123  1.00 20.00    -0.003 A 
HETATM    5  C6  UNL     1     -33.424  13.694  -3.920  1.00 20.00     0.054 A 
HETATM    6  C7  UNL     1     -35.726  15.525  -3.421  1.00 20.00     0.069 A 
ENDROOT
BRANCH   4   7
HETATM    7  C5  UNL     1     -34.024  17.212  -2.558  1.00 20.00     0.261 C 
HETATM    8  O9  UNL     1     -33.689  18.150  -3.282  1.00 20.00    -0.283 OA
BRANCH   7   9
HETATM    9  C8  UNL     1     -34.167  17.368  -1.070  1.00 20.00     0.455 C 
HETATM   10  F10 UNL     1     -34.612  16.234  -0.471  1.00 20.00    -0.163 F 
HETATM   11  F11 UNL     1     -35.045  18.352  -0.748  1.00 20.00    -0.163 F 
HETATM   12  F12 UNL     1     -32.986  17.685  -0.481  1.00 20.00    -0.163 F 
ENDBRANCH   7   9
ENDBRANCH   4   7
TORSDOF 2
ENDMDL
MODEL 6
REMARK VINA RESULT:      -4.9     11.515     12.269
REMARK  2 active torsions:
REMARK  status: ('A' for Active; 'I' for Inactive)
REMARK    1  A    between atoms: C4_4  and  C5_5 
REMARK    2  A    between atoms: C5_5  and  C8_8 
ROOT
HETATM    1  C1  UNL     1     -35.051  13.361  -4.283  1.00 20.00    -0.027 A 
HETATM    2  C2  UNL     1     -33.757  13.634  -4.065  1.00 20.00    -0.026 A 
HETATM    3  C3  UNL     1     -35.685  15.631  -3.392  1.00 20.00    -0.012 A 
HETATM    4  C4  UNL     1     -34.388  15.896  -3.177  1.00 20.00    -0.003 A 
HETATM    5  C6  UNL     1     -36.158  14.328  -3.974  1.00 20.00     0.054 A 
HETATM    6  C7  UNL     1     -33.278  14.936  -3.488  1.00 20.00     0.069 A 
ENDROOT
BRANCH   4   7
HETATM    7  C5  UNL     1     -34.042  17.200  -2.606  1.00 20.00     0.261 C 
HETATM    8  O9  UNL     1     -33.680  18.129  -3.330  1.00 20.00    -0.283 OA
BRANCH   7   9
HETATM    9  C8  UNL     1     -34.148  17.348  -1.115  1.00 20.00     0.455 C 
HETATM   10  F10 UNL     1     -34.597  16.217  -0.513  1.00 20.00    -0.163 F 
HETATM   11  F11 UNL     1     -35.004  18.343  -0.767  1.00 20.00    -0.163 F 
HETATM   12  F12 UNL     1     -32.950  17.644  -0.551  1.00 20.00    -0.163 F 
ENDBRANCH   7   9
ENDBRANCH   4   7
TORSDOF 2
ENDMDL
MODEL 7
REMARK VINA RESULT:      -4.9     11.514     13.291
REMARK  2 active torsions:
REMARK  status: ('A' for Active; 'I' for Inactive)
REMARK    1  A    between atoms: C4_4  and  C5_5 
REMARK    2  A    between atoms: C5_5  and  C8_8 
ROOT
HETATM    1  C1  UNL     1     -36.286  16.609  -7.461  1.00 20.00    -0.027 A 
HETATM    2  C2  UNL     1     -35.247  15.894  -7.918  1.00 20.00    -0.026 A 
HETATM    3  C3  UNL     1     -36.127  15.429  -5.240  1.00 20.00    -0.012 A 
HETATM    4  C4  UNL     1     -35.089  14.719  -5.705  1.00 20.00    -0.003 A 
HETATM    5  C6  UNL     1     -36.839  16.458  -6.073  1.00 20.00     0.054 A 
HETATM    6  C7  UNL     1     -34.528  14.868  -7.089  1.00 20.00     0.069 A 
ENDROOT
BRANCH   4   7
HETATM    7  C5  UNL     1     -34.470  13.743  -4.805  1.00 20.00     0.261 C 
HETATM    8  O9  UNL     1     -34.737  12.544  -4.894  1.00 20.00    -0.283 OA
BRANCH   7   9
HETATM    9  C8  UNL     1     -33.505  14.268  -3.780  1.00 20.00     0.455 C 
HETATM   10  F10 UNL     1     -32.794  15.331  -4.235  1.00 20.00    -0.163 F 
HETATM   11  F11 UNL     1     -32.604  13.325  -3.405  1.00 20.00    -0.163 F 
HETATM   12  F12 UNL     1     -34.140  14.675  -2.651  1.00 20.00    -0.163 F 
ENDBRANCH   7   9
ENDBRANCH   4   7
TORSDOF 2
ENDMDL
MODEL 8
REMARK VINA RESULT:      -4.9     11.486     13.218
REMARK  2 active torsions:
REMARK  status: ('A' for Active; 'I' for Inactive)
REMARK    1  A    between atoms: C4_4  and  C5_5 
REMARK    2  A    between atoms: C5_5  and  C8_8 
ROOT
HETATM    1  C1  UNL     1     -36.396  16.598  -7.370  1.00 20.00    -0.027 A 
HETATM    2  C2  UNL     1     -36.838  16.500  -6.108  1.00 20.00    -0.026 A 
HETATM    3  C3  UNL     1     -34.683  14.807  -6.915  1.00 20.00    -0.012 A 
HETATM    4  C4  UNL     1     -35.132  14.715  -5.654  1.00 20.00    -0.003 A 
HETATM    5  C6  UNL     1     -35.273  15.762  -7.915  1.00 20.00     0.054 A 
HETATM    6  C7  UNL     1     -36.256  15.543  -5.107  1.00 20.00     0.069 A 
ENDROOT
BRANCH   4   7
HETATM    7  C5  UNL     1     -34.483  13.747  -4.767  1.00 20.00     0.261 C 
HETATM    8  O9  UNL     1     -34.730  12.544  -4.857  1.00 20.00    -0.283 OA
BRANCH   7   9
HETATM    9  C8  UNL     1     -33.512  14.286  -3.754  1.00 20.00     0.455 C 
HETATM   10  F10 UNL     1     -32.828  15.363  -4.215  1.00 20.00    -0.163 F 
HETATM   11  F11 UNL     1     -32.589  13.357  -3.397  1.00 20.00    -0.163 F 
HETATM   12  F12 UNL     1     -34.138  14.677  -2.614  1.00 20.00    -0.163 F 
ENDBRANCH   7   9
ENDBRANCH   4   7
TORSDOF 2
ENDMDL
MODEL 9
REMARK VINA RESULT:      -4.8     11.611     12.987
REMARK  2 active torsions:
REMARK  status: ('A' for Active; 'I' for Inactive)
REMARK    1  A    between atoms: C4_4  and  C5_5 
REMARK    2  A    between atoms: C5_5  and  C8_8 
ROOT
HETATM    1  C1  UNL     1     -36.997  15.414  -7.171  1.00 20.00    -0.027 A 
HETATM    2  C2  UNL     1     -37.231  15.581  -5.861  1.00 20.00    -0.026 A 
HETATM    3  C3  UNL     1     -34.764  14.372  -6.644  1.00 20.00    -0.012 A 
HETATM    4  C4  UNL     1     -35.007  14.543  -5.336  1.00 20.00    -0.003 A 
HETATM    5  C6  UNL     1     -35.740  14.790  -7.707  1.00 20.00     0.054 A 
HETATM    6  C7  UNL     1     -36.261  15.161  -4.793  1.00 20.00     0.069 A 
ENDROOT
BRANCH   4   7
HETATM    7  C5  UNL     1     -33.983  14.097  -4.387  1.00 20.00     0.261 C 
HETATM    8  O9  UNL     1     -33.861  12.904  -4.106  1.00 20.00    -0.283 OA
BRANCH   7   9
HETATM    9  C8  UNL     1     -33.101  15.151  -3.781  1.00 20.00     0.455 C 
HETATM   10  F10 UNL     1     -33.637  15.692  -2.658  1.00 20.00    -0.163 F 
HETATM   11  F11 UNL     1     -32.876  16.176  -4.642  1.00 20.00    -0.163 F 
HETATM   12  F12 UNL     1     -31.886  14.654  -3.436  1.00 20.00    -0.163 F 
ENDBRANCH   7   9
ENDBRANCH   4   7
TORSDOF 2
ENDMDL
