MODEL 1
REMARK VINA RESULT:      -4.7      0.000      0.000
REMARK  2 active torsions:
REMARK  status: ('A' for Active; 'I' for Inactive)
REMARK    1  A    between atoms: C2_2  and  C8_8 
REMARK    2  A    between atoms: C8_8  and  N9_9 
ROOT
HETATM    1  C1  UNL     1     -32.173   7.997   2.061  1.00 20.00    -0.109 C 
HETATM    2  C2  UNL     1     -32.465   7.164   2.875  1.00 20.00    -0.077 C 
HETATM    3  C7  UNL     1     -31.818   9.012   1.070  1.00 20.00     0.112 C 
ENDROOT
BRANCH   2   4
HETATM    4  C8  UNL     1     -32.828   6.146   3.866  1.00 20.00     0.365 C 
BRANCH   4   5
HETATM    5  N9  UNL     1     -34.149   6.412   4.428  1.00 20.00     0.103 N 
HETATM    6  C3  UNL     1     -35.167   5.483   3.918  1.00 20.00     0.299 C 
HETATM    7  C5  UNL     1     -35.077   4.094   4.548  1.00 20.00     0.198 C 
HETATM    8  O10 UNL     1     -35.141   4.188   5.971  1.00 20.00    -0.388 OA
HETATM    9  C6  UNL     1     -34.074   4.989   6.481  1.00 20.00     0.198 C 
HETATM   10  C4  UNL     1     -34.141   6.398   5.897  1.00 20.00     0.299 C 
ENDBRANCH   4   5
ENDBRANCH   2   4
TORSDOF 2
ENDMDL
MODEL 2
REMARK VINA RESULT:      -4.3     11.581     12.605
REMARK  2 active torsions:
REMARK  status: ('A' for Active; 'I' for Inactive)
REMARK    1  A    between atoms: C2_2  and  C8_8 
REMARK    2  A    between atoms: C8_8  and  N9_9 
ROOT
HETATM    1  C1  UNL     1     -34.384  17.136  -0.597  1.00 20.00    -0.109 C 
HETATM    2  C2  UNL     1     -34.640  16.387  -1.501  1.00 20.00    -0.077 C 
HETATM    3  C7  UNL     1     -34.073  18.048   0.503  1.00 20.00     0.112 C 
ENDROOT
BRANCH   2   4
HETATM    4  C8  UNL     1     -34.954  15.479  -2.608  1.00 20.00     0.365 C 
BRANCH   4   5
HETATM    5  N9  UNL     1     -33.746  15.120  -3.346  1.00 20.00     0.103 N 
HETATM    6  C3  UNL     1     -33.781  13.732  -3.827  1.00 20.00     0.299 C 
HETATM    7  C5  UNL     1     -34.690  13.543  -5.040  1.00 20.00     0.198 C 
HETATM    8  O10 UNL     1     -34.313  14.435  -6.088  1.00 20.00    -0.388 OA
HETATM    9  C6  UNL     1     -34.401  15.796  -5.661  1.00 20.00     0.198 C 
HETATM   10  C4  UNL     1     -33.485  16.037  -4.464  1.00 20.00     0.299 C 
ENDBRANCH   4   5
ENDBRANCH   2   4
TORSDOF 2
ENDMDL
MODEL 3
REMARK VINA RESULT:      -4.2     11.921     12.564
REMARK  2 active torsions:
REMARK  status: ('A' for Active; 'I' for Inactive)
REMARK    1  A    between atoms: C2_2  and  C8_8 
REMARK    2  A    between atoms: C8_8  and  N9_9 
ROOT
HETATM    1  C1  UNL     1     -34.599  16.560  -1.049  1.00 20.00    -0.109 C 
HETATM    2  C2  UNL     1     -34.346  15.967  -2.063  1.00 20.00    -0.077 C 
HETATM    3  C7  UNL     1     -34.904  17.282   0.185  1.00 20.00     0.112 C 
ENDROOT
BRANCH   2   4
HETATM    4  C8  UNL     1     -34.039  15.236  -3.296  1.00 20.00     0.365 C 
BRANCH   4   5
HETATM    5  N9  UNL     1     -35.081  14.258  -3.597  1.00 20.00     0.103 N 
HETATM    6  C3  UNL     1     -36.397  14.886  -3.777  1.00 20.00     0.299 C 
HETATM    7  C5  UNL     1     -36.541  15.593  -5.124  1.00 20.00     0.198 C 
HETATM    8  O10 UNL     1     -36.258  14.690  -6.192  1.00 20.00    -0.388 OA
HETATM    9  C6  UNL     1     -34.930  14.174  -6.090  1.00 20.00     0.198 C 
HETATM   10  C4  UNL     1     -34.748  13.434  -4.767  1.00 20.00     0.299 C 
ENDBRANCH   4   5
ENDBRANCH   2   4
TORSDOF 2
ENDMDL
MODEL 4
REMARK VINA RESULT:      -4.2     11.952     12.727
REMARK  2 active torsions:
REMARK  status: ('A' for Active; 'I' for Inactive)
REMARK    1  A    between atoms: C2_2  and  C8_8 
REMARK    2  A    between atoms: C8_8  and  N9_9 
ROOT
HETATM    1  C1  UNL     1     -34.743  16.885  -0.432  1.00 20.00    -0.109 C 
HETATM    2  C2  UNL     1     -34.430  16.383  -1.478  1.00 20.00    -0.077 C 
HETATM    3  C7  UNL     1     -35.125  17.496   0.839  1.00 20.00     0.112 C 
ENDROOT
BRANCH   2   4
HETATM    4  C8  UNL     1     -34.041  15.774  -2.753  1.00 20.00     0.365 C 
BRANCH   4   5
HETATM    5  N9  UNL     1     -35.207  15.564  -3.608  1.00 20.00     0.103 N 
HETATM    6  C3  UNL     1     -35.120  16.323  -4.862  1.00 20.00     0.299 C 
HETATM    7  C5  UNL     1     -34.154  15.704  -5.870  1.00 20.00     0.198 C 
HETATM    8  O10 UNL     1     -34.504  14.343  -6.123  1.00 20.00    -0.388 OA
HETATM    9  C6  UNL     1     -34.464  13.571  -4.922  1.00 20.00     0.198 C 
HETATM   10  C4  UNL     1     -35.438  14.140  -3.893  1.00 20.00     0.299 C 
ENDBRANCH   4   5
ENDBRANCH   2   4
TORSDOF 2
ENDMDL
MODEL 5
REMARK VINA RESULT:      -3.5     11.178     13.376
REMARK  2 active torsions:
REMARK  status: ('A' for Active; 'I' for Inactive)
REMARK    1  A    between atoms: C2_2  and  C8_8 
REMARK    2  A    between atoms: C8_8  and  N9_9 
ROOT
HETATM    1  C1  UNL     1     -34.057  18.182  -6.772  1.00 20.00    -0.109 C 
HETATM    2  C2  UNL     1     -33.802  17.349  -5.945  1.00 20.00    -0.077 C 
HETATM    3  C7  UNL     1     -34.369  19.196  -7.778  1.00 20.00     0.112 C 
ENDROOT
BRANCH   2   4
HETATM    4  C8  UNL     1     -33.482  16.332  -4.938  1.00 20.00     0.365 C 
BRANCH   4   5
HETATM    5  N9  UNL     1     -34.699  15.771  -4.359  1.00 20.00     0.103 N 
HETATM    6  C3  UNL     1     -35.483  15.010  -5.340  1.00 20.00     0.299 C 
HETATM    7  C5  UNL     1     -34.886  13.638  -5.646  1.00 20.00     0.198 C 
HETATM    8  O10 UNL     1     -34.715  12.890  -4.443  1.00 20.00    -0.388 OA
HETATM    9  C6  UNL     1     -33.848  13.571  -3.534  1.00 20.00     0.198 C 
HETATM   10  C4  UNL     1     -34.421  14.940  -3.179  1.00 20.00     0.299 C 
ENDBRANCH   4   5
ENDBRANCH   2   4
TORSDOF 2
ENDMDL
MODEL 6
REMARK VINA RESULT:      -3.5     11.978     13.223
REMARK  2 active torsions:
REMARK  status: ('A' for Active; 'I' for Inactive)
REMARK    1  A    between atoms: C2_2  and  C8_8 
REMARK    2  A    between atoms: C8_8  and  N9_9 
ROOT
HETATM    1  C1  UNL     1     -38.529  14.728  -4.151  1.00 20.00    -0.109 C 
HETATM    2  C2  UNL     1     -37.374  14.867  -3.852  1.00 20.00    -0.077 C 
HETATM    3  C7  UNL     1     -39.935  14.561  -4.515  1.00 20.00     0.112 C 
ENDROOT
BRANCH   2   4
HETATM    4  C8  UNL     1     -35.966  15.037  -3.480  1.00 20.00     0.365 C 
BRANCH   4   5
HETATM    5  N9  UNL     1     -35.084  14.573  -4.548  1.00 20.00     0.103 N 
HETATM    6  C3  UNL     1     -34.875  15.597  -5.580  1.00 20.00     0.299 C 
HETATM    7  C5  UNL     1     -33.914  16.700  -5.140  1.00 20.00     0.198 C 
HETATM    8  O10 UNL     1     -32.671  16.139  -4.721  1.00 20.00    -0.388 OA
HETATM    9  C6  UNL     1     -32.857  15.236  -3.630  1.00 20.00     0.198 C 
HETATM   10  C4  UNL     1     -33.791  14.099  -4.034  1.00 20.00     0.299 C 
ENDBRANCH   4   5
ENDBRANCH   2   4
TORSDOF 2
ENDMDL
MODEL 7
REMARK VINA RESULT:      -3.5      9.593     11.020
REMARK  2 active torsions:
REMARK  status: ('A' for Active; 'I' for Inactive)
REMARK    1  A    between atoms: C2_2  and  C8_8 
REMARK    2  A    between atoms: C8_8  and  N9_9 
ROOT
HETATM    1  C1  UNL     1     -41.960   1.790  -3.543  1.00 20.00    -0.109 C 
HETATM    2  C2  UNL     1     -42.326   2.863  -3.146  1.00 20.00    -0.077 C 
HETATM    3  C7  UNL     1     -41.514   0.484  -4.026  1.00 20.00     0.112 C 
ENDROOT
BRANCH   2   4
HETATM    4  C8  UNL     1     -42.780   4.171  -2.663  1.00 20.00     0.365 C 
BRANCH   4   5
HETATM    5  N9  UNL     1     -41.646   5.011  -2.289  1.00 20.00     0.103 N 
HETATM    6  C3  UNL     1     -42.040   6.408  -2.062  1.00 20.00     0.299 C 
HETATM    7  C5  UNL     1     -42.755   6.618  -0.729  1.00 20.00     0.198 C 
HETATM    8  O10 UNL     1     -41.952   6.136   0.348  1.00 20.00    -0.388 OA
HETATM    9  C6  UNL     1     -41.673   4.744   0.196  1.00 20.00     0.198 C 
HETATM   10  C4  UNL     1     -40.932   4.490  -1.115  1.00 20.00     0.299 C 
ENDBRANCH   4   5
ENDBRANCH   2   4
TORSDOF 2
ENDMDL
MODEL 8
REMARK VINA RESULT:      -3.4      9.670     10.525
REMARK  2 active torsions:
REMARK  status: ('A' for Active; 'I' for Inactive)
REMARK    1  A    between atoms: C2_2  and  C8_8 
REMARK    2  A    between atoms: C8_8  and  N9_9 
ROOT
HETATM    1  C1  UNL     1     -42.318   8.340  -4.323  1.00 20.00    -0.109 C 
HETATM    2  C2  UNL     1     -42.634   7.539  -3.485  1.00 20.00    -0.077 C 
HETATM    3  C7  UNL     1     -41.933   9.315  -5.341  1.00 20.00     0.112 C 
ENDROOT
BRANCH   2   4
HETATM    4  C8  UNL     1     -43.028   6.563  -2.464  1.00 20.00     0.365 C 
BRANCH   4   5
HETATM    5  N9  UNL     1     -42.502   6.939  -1.154  1.00 20.00     0.103 N 
HETATM    6  C3  UNL     1     -43.258   6.323  -0.055  1.00 20.00     0.299 C 
HETATM    7  C5  UNL     1     -42.934   4.842   0.137  1.00 20.00     0.198 C 
HETATM    8  O10 UNL     1     -41.530   4.660   0.320  1.00 20.00    -0.388 OA
HETATM    9  C6  UNL     1     -40.798   5.144  -0.807  1.00 20.00     0.198 C 
HETATM   10  C4  UNL     1     -41.072   6.630  -1.020  1.00 20.00     0.299 C 
ENDBRANCH   4   5
ENDBRANCH   2   4
TORSDOF 2
ENDMDL
MODEL 9
REMARK VINA RESULT:      -3.4     11.580     12.936
REMARK  2 active torsions:
REMARK  status: ('A' for Active; 'I' for Inactive)
REMARK    1  A    between atoms: C2_2  and  C8_8 
REMARK    2  A    between atoms: C8_8  and  N9_9 
ROOT
HETATM    1  C1  UNL     1     -37.685  15.646  -6.531  1.00 20.00    -0.109 C 
HETATM    2  C2  UNL     1     -36.689  15.823  -5.882  1.00 20.00    -0.077 C 
HETATM    3  C7  UNL     1     -38.896  15.431  -7.321  1.00 20.00     0.112 C 
ENDROOT
BRANCH   2   4
HETATM    4  C8  UNL     1     -35.479  16.041  -5.084  1.00 20.00     0.365 C 
BRANCH   4   5
HETATM    5  N9  UNL     1     -35.491  15.214  -3.881  1.00 20.00     0.103 N 
HETATM    6  C3  UNL     1     -35.654  13.787  -4.188  1.00 20.00     0.299 C 
HETATM    7  C5  UNL     1     -34.378  13.143  -4.729  1.00 20.00     0.198 C 
HETATM    8  O10 UNL     1     -33.295  13.348  -3.821  1.00 20.00    -0.388 OA
HETATM    9  C6  UNL     1     -33.052  14.741  -3.618  1.00 20.00     0.198 C 
HETATM   10  C4  UNL     1     -34.296  15.421  -3.052  1.00 20.00     0.299 C 
ENDBRANCH   4   5
ENDBRANCH   2   4
TORSDOF 2
ENDMDL
