MODEL 1
REMARK VINA RESULT:      -5.1      0.000      0.000
REMARK  3 active torsions:
REMARK  status: ('A' for Active; 'I' for Inactive)
REMARK    1  A    between atoms: C1_1  and  C3_3 
REMARK    2  A    between atoms: C2_2  and  C7_7 
REMARK    3  A    between atoms: C7_7  and  C8_8 
ROOT
HETATM    1  C1  UNL     1     -33.021   6.845   3.309  1.00 20.00    -0.029 C 
HETATM    2  C2  UNL     1     -33.949   6.156   3.636  1.00 20.00    -0.098 C 
ENDROOT
BRANCH   2   3
HETATM    3  C7  UNL     1     -35.086   5.313   4.034  1.00 20.00     0.098 C 
BRANCH   3   4
HETATM    4  C8  UNL     1     -35.099   4.962   5.533  1.00 20.00    -0.012 C 
HETATM    5  C5  UNL     1     -34.491   3.587   5.813  1.00 20.00     0.010 C 
HETATM    6  C6  UNL     1     -34.422   6.036   6.387  1.00 20.00     0.010 C 
ENDBRANCH   3   4
ENDBRANCH   2   3
BRANCH   1   7
HETATM    7  C3  UNL     1     -31.903   7.672   2.926  1.00 20.00     0.198 C 
HETATM    8  C4  UNL     1     -31.987   8.319   1.575  1.00 20.00     0.106 C 
HETATM    9  O9  UNL     1     -30.957   7.810   3.690  1.00 20.00    -0.284 OA
ENDBRANCH   1   7
TORSDOF 3
ENDMDL
MODEL 2
REMARK VINA RESULT:      -5.0      1.447      1.890
REMARK  3 active torsions:
REMARK  status: ('A' for Active; 'I' for Inactive)
REMARK    1  A    between atoms: C1_1  and  C3_3 
REMARK    2  A    between atoms: C2_2  and  C7_7 
REMARK    3  A    between atoms: C7_7  and  C8_8 
ROOT
HETATM    1  C1  UNL     1     -32.335   7.683   2.379  1.00 20.00    -0.029 C 
HETATM    2  C2  UNL     1     -32.617   6.812   3.156  1.00 20.00    -0.098 C 
ENDROOT
BRANCH   2   3
HETATM    3  C7  UNL     1     -32.964   5.745   4.107  1.00 20.00     0.098 C 
BRANCH   3   4
HETATM    4  C8  UNL     1     -34.289   5.987   4.852  1.00 20.00    -0.012 C 
HETATM    5  C5  UNL     1     -35.240   4.793   4.749  1.00 20.00     0.010 C 
HETATM    6  C6  UNL     1     -34.070   6.379   6.314  1.00 20.00     0.010 C 
ENDBRANCH   3   4
ENDBRANCH   2   3
BRANCH   1   7
HETATM    7  C3  UNL     1     -32.000   8.736   1.451  1.00 20.00     0.198 C 
HETATM    8  C4  UNL     1     -32.640  10.070   1.700  1.00 20.00     0.106 C 
HETATM    9  O9  UNL     1     -31.234   8.510   0.524  1.00 20.00    -0.284 OA
ENDBRANCH   1   7
TORSDOF 3
ENDMDL
MODEL 3
REMARK VINA RESULT:      -4.8      2.017      5.239
REMARK  3 active torsions:
REMARK  status: ('A' for Active; 'I' for Inactive)
REMARK    1  A    between atoms: C1_1  and  C3_3 
REMARK    2  A    between atoms: C2_2  and  C7_7 
REMARK    3  A    between atoms: C7_7  and  C8_8 
ROOT
HETATM    1  C1  UNL     1     -33.659   6.235   4.078  1.00 20.00    -0.029 C 
HETATM    2  C2  UNL     1     -32.828   6.878   3.497  1.00 20.00    -0.098 C 
ENDROOT
BRANCH   2   3
HETATM    3  C7  UNL     1     -31.809   7.663   2.784  1.00 20.00     0.098 C 
BRANCH   3   4
HETATM    4  C8  UNL     1     -32.379   8.520   1.640  1.00 20.00    -0.012 C 
HETATM    5  C5  UNL     1     -32.704   9.946   2.088  1.00 20.00     0.010 C 
HETATM    6  C6  UNL     1     -31.463   8.535   0.414  1.00 20.00     0.010 C 
ENDBRANCH   3   4
ENDBRANCH   2   3
BRANCH   1   7
HETATM    7  C3  UNL     1     -34.653   5.463   4.784  1.00 20.00     0.198 C 
HETATM    8  C4  UNL     1     -34.495   5.381   6.274  1.00 20.00     0.106 C 
HETATM    9  O9  UNL     1     -35.557   4.921   4.164  1.00 20.00    -0.284 OA
ENDBRANCH   1   7
TORSDOF 3
ENDMDL
MODEL 4
REMARK VINA RESULT:      -4.3     11.123     11.830
REMARK  3 active torsions:
REMARK  status: ('A' for Active; 'I' for Inactive)
REMARK    1  A    between atoms: C1_1  and  C3_3 
REMARK    2  A    between atoms: C2_2  and  C7_7 
REMARK    3  A    between atoms: C7_7  and  C8_8 
ROOT
HETATM    1  C1  UNL     1     -34.398  14.859  -3.112  1.00 20.00    -0.029 C 
HETATM    2  C2  UNL     1     -34.739  15.809  -2.461  1.00 20.00    -0.098 C 
ENDROOT
BRANCH   2   3
HETATM    3  C7  UNL     1     -35.158  16.970  -1.662  1.00 20.00     0.098 C 
BRANCH   3   4
HETATM    4  C8  UNL     1     -34.346  17.154  -0.367  1.00 20.00    -0.012 C 
HETATM    5  C5  UNL     1     -33.211  18.167  -0.531  1.00 20.00     0.010 C 
HETATM    6  C6  UNL     1     -35.231  17.523   0.825  1.00 20.00     0.010 C 
ENDBRANCH   3   4
ENDBRANCH   2   3
BRANCH   1   7
HETATM    7  C3  UNL     1     -33.993  13.722  -3.902  1.00 20.00     0.198 C 
HETATM    8  C4  UNL     1     -34.895  13.351  -5.043  1.00 20.00     0.106 C 
HETATM    9  O9  UNL     1     -32.966  13.120  -3.622  1.00 20.00    -0.284 OA
ENDBRANCH   1   7
TORSDOF 3
ENDMDL
MODEL 5
REMARK VINA RESULT:      -4.3     11.638     12.432
REMARK  3 active torsions:
REMARK  status: ('A' for Active; 'I' for Inactive)
REMARK    1  A    between atoms: C1_1  and  C3_3 
REMARK    2  A    between atoms: C2_2  and  C7_7 
REMARK    3  A    between atoms: C7_7  and  C8_8 
ROOT
HETATM    1  C1  UNL     1     -34.788  14.708  -3.566  1.00 20.00    -0.029 C 
HETATM    2  C2  UNL     1     -34.761  15.429  -2.606  1.00 20.00    -0.098 C 
ENDROOT
BRANCH   2   3
HETATM    3  C7  UNL     1     -34.730  16.313  -1.431  1.00 20.00     0.098 C 
BRANCH   3   4
HETATM    4  C8  UNL     1     -33.610  17.368  -1.481  1.00 20.00    -0.012 C 
HETATM    5  C5  UNL     1     -33.764  18.322  -2.666  1.00 20.00     0.010 C 
HETATM    6  C6  UNL     1     -33.490  18.150  -0.171  1.00 20.00     0.010 C 
ENDBRANCH   3   4
ENDBRANCH   2   3
BRANCH   1   7
HETATM    7  C3  UNL     1     -34.816  13.847  -4.723  1.00 20.00     0.198 C 
HETATM    8  C4  UNL     1     -34.685  14.523  -6.056  1.00 20.00     0.106 C 
HETATM    9  O9  UNL     1     -34.942  12.639  -4.581  1.00 20.00    -0.284 OA
ENDBRANCH   1   7
TORSDOF 3
ENDMDL
MODEL 6
REMARK VINA RESULT:      -4.2     11.281     11.922
REMARK  3 active torsions:
REMARK  status: ('A' for Active; 'I' for Inactive)
REMARK    1  A    between atoms: C1_1  and  C3_3 
REMARK    2  A    between atoms: C2_2  and  C7_7 
REMARK    3  A    between atoms: C7_7  and  C8_8 
ROOT
HETATM    1  C1  UNL     1     -34.699  16.624  -1.134  1.00 20.00    -0.029 C 
HETATM    2  C2  UNL     1     -34.939  15.940  -2.091  1.00 20.00    -0.098 C 
ENDROOT
BRANCH   2   3
HETATM    3  C7  UNL     1     -35.231  15.104  -3.265  1.00 20.00     0.098 C 
BRANCH   3   4
HETATM    4  C8  UNL     1     -34.143  14.057  -3.564  1.00 20.00    -0.012 C 
HETATM    5  C5  UNL     1     -34.463  13.226  -4.808  1.00 20.00     0.010 C 
HETATM    6  C6  UNL     1     -32.751  14.682  -3.677  1.00 20.00     0.010 C 
ENDBRANCH   3   4
ENDBRANCH   2   3
BRANCH   1   7
HETATM    7  C3  UNL     1     -34.421  17.445   0.019  1.00 20.00     0.198 C 
HETATM    8  C4  UNL     1     -33.239  18.363  -0.089  1.00 20.00     0.106 C 
HETATM    9  O9  UNL     1     -35.133  17.365   1.010  1.00 20.00    -0.284 OA
ENDBRANCH   1   7
TORSDOF 3
ENDMDL
MODEL 7
REMARK VINA RESULT:      -4.1     11.579     12.353
REMARK  3 active torsions:
REMARK  status: ('A' for Active; 'I' for Inactive)
REMARK    1  A    between atoms: C1_1  and  C3_3 
REMARK    2  A    between atoms: C2_2  and  C7_7 
REMARK    3  A    between atoms: C7_7  and  C8_8 
ROOT
HETATM    1  C1  UNL     1     -33.874  16.076  -2.464  1.00 20.00    -0.029 C 
HETATM    2  C2  UNL     1     -34.308  16.523  -1.437  1.00 20.00    -0.098 C 
ENDROOT
BRANCH   2   3
HETATM    3  C7  UNL     1     -34.842  17.070  -0.181  1.00 20.00     0.098 C 
BRANCH   3   4
HETATM    4  C8  UNL     1     -34.139  18.359   0.280  1.00 20.00    -0.012 C 
HETATM    5  C5  UNL     1     -34.148  18.514   1.802  1.00 20.00     0.010 C 
HETATM    6  C6  UNL     1     -32.714  18.470  -0.265  1.00 20.00     0.010 C 
ENDBRANCH   3   4
ENDBRANCH   2   3
BRANCH   1   7
HETATM    7  C3  UNL     1     -33.346  15.547  -3.698  1.00 20.00     0.198 C 
HETATM    8  C4  UNL     1     -33.447  14.061  -3.881  1.00 20.00     0.106 C 
HETATM    9  O9  UNL     1     -32.852  16.303  -4.522  1.00 20.00    -0.284 OA
ENDBRANCH   1   7
TORSDOF 3
ENDMDL
MODEL 8
REMARK VINA RESULT:      -3.9     11.473     12.101
REMARK  3 active torsions:
REMARK  status: ('A' for Active; 'I' for Inactive)
REMARK    1  A    between atoms: C1_1  and  C3_3 
REMARK    2  A    between atoms: C2_2  and  C7_7 
REMARK    3  A    between atoms: C7_7  and  C8_8 
ROOT
HETATM    1  C1  UNL     1     -34.202  16.766  -1.246  1.00 20.00    -0.029 C 
HETATM    2  C2  UNL     1     -34.056  16.123  -2.250  1.00 20.00    -0.098 C 
ENDROOT
BRANCH   2   3
HETATM    3  C7  UNL     1     -33.880  15.335  -3.479  1.00 20.00     0.098 C 
BRANCH   3   4
HETATM    4  C8  UNL     1     -34.904  14.197  -3.637  1.00 20.00    -0.012 C 
HETATM    5  C5  UNL     1     -36.334  14.720  -3.783  1.00 20.00     0.010 C 
HETATM    6  C6  UNL     1     -34.553  13.255  -4.789  1.00 20.00     0.010 C 
ENDBRANCH   3   4
ENDBRANCH   2   3
BRANCH   1   7
HETATM    7  C3  UNL     1     -34.374  17.531  -0.035  1.00 20.00     0.198 C 
HETATM    8  C4  UNL     1     -33.309  18.545   0.266  1.00 20.00     0.106 C 
HETATM    9  O9  UNL     1     -35.346  17.332   0.679  1.00 20.00    -0.284 OA
ENDBRANCH   1   7
TORSDOF 3
ENDMDL
MODEL 9
REMARK VINA RESULT:      -3.9      9.997     11.272
REMARK  3 active torsions:
REMARK  status: ('A' for Active; 'I' for Inactive)
REMARK    1  A    between atoms: C1_1  and  C3_3 
REMARK    2  A    between atoms: C2_2  and  C7_7 
REMARK    3  A    between atoms: C7_7  and  C8_8 
ROOT
HETATM    1  C1  UNL     1     -41.801   3.547  -2.543  1.00 20.00    -0.029 C 
HETATM    2  C2  UNL     1     -41.241   4.200  -1.705  1.00 20.00    -0.098 C 
ENDROOT
BRANCH   2   3
HETATM    3  C7  UNL     1     -40.556   4.998  -0.677  1.00 20.00     0.098 C 
BRANCH   3   4
HETATM    4  C8  UNL     1     -41.391   6.181  -0.156  1.00 20.00    -0.012 C 
HETATM    5  C5  UNL     1     -41.561   7.280  -1.206  1.00 20.00     0.010 C 
HETATM    6  C6  UNL     1     -42.751   5.737   0.386  1.00 20.00     0.010 C 
ENDBRANCH   3   4
ENDBRANCH   2   3
BRANCH   1   7
HETATM    7  C3  UNL     1     -42.477   2.771  -3.554  1.00 20.00     0.198 C 
HETATM    8  C4  UNL     1     -41.957   1.382  -3.784  1.00 20.00     0.106 C 
HETATM    9  O9  UNL     1     -43.417   3.257  -4.168  1.00 20.00    -0.284 OA
ENDBRANCH   1   7
TORSDOF 3
ENDMDL
