MODEL 1
REMARK VINA RESULT:      -4.4      0.000      0.000
REMARK  0 active torsions:
REMARK  status: ('A' for Active; 'I' for Inactive)
ROOT
HETATM    1  C1  UNL     1     -33.775  15.201  -3.297  1.00 20.00    -0.013 C 
HETATM    2  C2  UNL     1     -33.523  13.930  -3.679  1.00 20.00     0.004 C 
HETATM    3  C3  UNL     1     -36.370  14.120  -4.272  1.00 20.00     0.341 C 
HETATM    4  C4  UNL     1     -34.894  16.009  -3.948  1.00 20.00     0.127 C 
HETATM    5  C5  UNL     1     -34.717  14.411  -5.785  1.00 20.00     0.137 C 
HETATM    6  C6  UNL     1     -34.327  13.317  -4.818  1.00 20.00     0.169 C 
HETATM    7  N7  UNL     1     -35.593  15.123  -4.886  1.00 20.00    -0.222 NA
HETATM    8  O8  UNL     1     -37.439  14.243  -3.693  1.00 20.00    -0.245 OA
HETATM    9  O9  UNL     1     -35.637  12.941  -4.317  1.00 20.00    -0.298 OA
ENDROOT
TORSDOF 0
ENDMDL
MODEL 2
REMARK VINA RESULT:      -4.3      1.452      2.155
REMARK  0 active torsions:
REMARK  status: ('A' for Active; 'I' for Inactive)
ROOT
HETATM    1  C1  UNL     1     -35.371  15.886  -2.664  1.00 20.00    -0.013 C 
HETATM    2  C2  UNL     1     -34.032  15.827  -2.496  1.00 20.00     0.004 C 
HETATM    3  C3  UNL     1     -34.430  13.688  -4.435  1.00 20.00     0.341 C 
HETATM    4  C4  UNL     1     -36.017  15.455  -3.978  1.00 20.00     0.127 C 
HETATM    5  C5  UNL     1     -33.806  15.797  -4.955  1.00 20.00     0.137 C 
HETATM    6  C6  UNL     1     -33.150  15.384  -3.657  1.00 20.00     0.169 C 
HETATM    7  N7  UNL     1     -34.955  14.931  -4.844  1.00 20.00    -0.222 NA
HETATM    8  O8  UNL     1     -34.952  12.586  -4.517  1.00 20.00    -0.245 OA
HETATM    9  O9  UNL     1     -33.231  13.939  -3.780  1.00 20.00    -0.298 OA
ENDROOT
TORSDOF 0
ENDMDL
MODEL 3
REMARK VINA RESULT:      -4.3      1.492      2.664
REMARK  0 active torsions:
REMARK  status: ('A' for Active; 'I' for Inactive)
ROOT
HETATM    1  C1  UNL     1     -34.369  15.514  -5.911  1.00 20.00    -0.013 C 
HETATM    2  C2  UNL     1     -35.432  14.681  -5.878  1.00 20.00     0.004 C 
HETATM    3  C3  UNL     1     -33.785  13.542  -3.760  1.00 20.00     0.341 C 
HETATM    4  C4  UNL     1     -33.538  15.775  -4.658  1.00 20.00     0.127 C 
HETATM    5  C5  UNL     1     -35.494  14.985  -3.429  1.00 20.00     0.137 C 
HETATM    6  C6  UNL     1     -35.842  14.042  -4.558  1.00 20.00     0.169 C 
HETATM    7  N7  UNL     1     -34.061  14.915  -3.591  1.00 20.00    -0.222 NA
HETATM    8  O8  UNL     1     -32.719  12.965  -3.614  1.00 20.00    -0.245 OA
HETATM    9  O9  UNL     1     -34.934  12.948  -4.265  1.00 20.00    -0.298 OA
ENDROOT
TORSDOF 0
ENDMDL
MODEL 4
REMARK VINA RESULT:      -4.1      1.526      2.065
REMARK  0 active torsions:
REMARK  status: ('A' for Active; 'I' for Inactive)
ROOT
HETATM    1  C1  UNL     1     -33.376  16.002  -3.544  1.00 20.00    -0.013 C 
HETATM    2  C2  UNL     1     -33.309  16.188  -4.880  1.00 20.00     0.004 C 
HETATM    3  C3  UNL     1     -35.008  13.824  -4.747  1.00 20.00     0.341 C 
HETATM    4  C4  UNL     1     -34.591  15.335  -2.905  1.00 20.00     0.127 C 
HETATM    5  C5  UNL     1     -35.764  15.944  -4.957  1.00 20.00     0.137 C 
HETATM    6  C6  UNL     1     -34.490  15.783  -5.753  1.00 20.00     0.169 C 
HETATM    7  N7  UNL     1     -35.486  14.912  -3.987  1.00 20.00    -0.222 NA
HETATM    8  O8  UNL     1     -34.948  12.647  -4.424  1.00 20.00    -0.245 OA
HETATM    9  O9  UNL     1     -34.475  14.341  -5.921  1.00 20.00    -0.298 OA
ENDROOT
TORSDOF 0
ENDMDL
MODEL 5
REMARK VINA RESULT:      -4.0      1.214      2.124
REMARK  0 active torsions:
REMARK  status: ('A' for Active; 'I' for Inactive)
ROOT
HETATM    1  C1  UNL     1     -34.349  15.410  -6.073  1.00 20.00    -0.013 C 
HETATM    2  C2  UNL     1     -33.838  15.896  -4.921  1.00 20.00     0.004 C 
HETATM    3  C3  UNL     1     -35.977  14.203  -3.895  1.00 20.00     0.341 C 
HETATM    4  C4  UNL     1     -35.030  14.046  -6.115  1.00 20.00     0.127 C 
HETATM    5  C5  UNL     1     -33.809  13.585  -4.053  1.00 20.00     0.137 C 
HETATM    6  C6  UNL     1     -33.890  15.043  -3.660  1.00 20.00     0.169 C 
HETATM    7  N7  UNL     1     -35.074  13.529  -4.744  1.00 20.00    -0.222 NA
HETATM    8  O8  UNL     1     -37.197  14.139  -3.890  1.00 20.00    -0.245 OA
HETATM    9  O9  UNL     1     -35.237  15.086  -3.120  1.00 20.00    -0.298 OA
ENDROOT
TORSDOF 0
ENDMDL
MODEL 6
REMARK VINA RESULT:      -3.9      1.862      2.497
REMARK  0 active torsions:
REMARK  status: ('A' for Active; 'I' for Inactive)
ROOT
HETATM    1  C1  UNL     1     -33.563  13.616  -3.895  1.00 20.00    -0.013 C 
HETATM    2  C2  UNL     1     -34.882  13.507  -4.165  1.00 20.00     0.004 C 
HETATM    3  C3  UNL     1     -34.869  15.888  -2.485  1.00 20.00     0.341 C 
HETATM    4  C4  UNL     1     -32.931  14.976  -3.610  1.00 20.00     0.127 C 
HETATM    5  C5  UNL     1     -34.881  15.906  -4.745  1.00 20.00     0.137 C 
HETATM    6  C6  UNL     1     -35.737  14.765  -4.246  1.00 20.00     0.169 C 
HETATM    7  N7  UNL     1     -34.008  15.972  -3.599  1.00 20.00    -0.222 NA
HETATM    8  O8  UNL     1     -34.642  16.215  -1.330  1.00 20.00    -0.245 OA
HETATM    9  O9  UNL     1     -36.018  15.227  -2.899  1.00 20.00    -0.298 OA
ENDROOT
TORSDOF 0
ENDMDL
MODEL 7
REMARK VINA RESULT:      -3.9      1.385      2.688
REMARK  0 active torsions:
REMARK  status: ('A' for Active; 'I' for Inactive)
ROOT
HETATM    1  C1  UNL     1     -35.662  16.045  -5.773  1.00 20.00    -0.013 C 
HETATM    2  C2  UNL     1     -36.820  15.883  -5.095  1.00 20.00     0.004 C 
HETATM    3  C3  UNL     1     -35.323  13.559  -4.173  1.00 20.00     0.341 C 
HETATM    4  C4  UNL     1     -34.346  15.511  -5.215  1.00 20.00     0.127 C 
HETATM    5  C5  UNL     1     -35.481  15.517  -3.054  1.00 20.00     0.137 C 
HETATM    6  C6  UNL     1     -36.800  15.213  -3.727  1.00 20.00     0.169 C 
HETATM    7  N7  UNL     1     -34.650  14.783  -3.978  1.00 20.00    -0.222 NA
HETATM    8  O8  UNL     1     -34.868  12.510  -4.603  1.00 20.00    -0.245 OA
HETATM    9  O9  UNL     1     -36.669  13.779  -3.910  1.00 20.00    -0.298 OA
ENDROOT
TORSDOF 0
ENDMDL
MODEL 8
REMARK VINA RESULT:      -3.9      2.233      2.860
REMARK  0 active torsions:
REMARK  status: ('A' for Active; 'I' for Inactive)
ROOT
HETATM    1  C1  UNL     1     -35.864  15.192  -3.170  1.00 20.00    -0.013 C 
HETATM    2  C2  UNL     1     -35.935  14.394  -4.258  1.00 20.00     0.004 C 
HETATM    3  C3  UNL     1     -33.440  15.808  -4.782  1.00 20.00     0.341 C 
HETATM    4  C4  UNL     1     -34.517  15.654  -2.621  1.00 20.00     0.127 C 
HETATM    5  C5  UNL     1     -33.586  13.757  -3.843  1.00 20.00     0.137 C 
HETATM    6  C6  UNL     1     -34.649  13.899  -4.908  1.00 20.00     0.169 C 
HETATM    7  N7  UNL     1     -33.476  15.161  -3.529  1.00 20.00    -0.222 NA
HETATM    8  O8  UNL     1     -33.040  16.933  -5.037  1.00 20.00    -0.245 OA
HETATM    9  O9  UNL     1     -34.077  14.977  -5.695  1.00 20.00    -0.298 OA
ENDROOT
TORSDOF 0
ENDMDL
MODEL 9
REMARK VINA RESULT:      -3.9      2.162      2.963
REMARK  0 active torsions:
REMARK  status: ('A' for Active; 'I' for Inactive)
ROOT
HETATM    1  C1  UNL     1     -35.136  13.914  -5.786  1.00 20.00    -0.013 C 
HETATM    2  C2  UNL     1     -34.453  13.290  -4.801  1.00 20.00     0.004 C 
HETATM    3  C3  UNL     1     -33.534  16.033  -4.445  1.00 20.00     0.341 C 
HETATM    4  C4  UNL     1     -35.521  15.385  -5.663  1.00 20.00     0.127 C 
HETATM    5  C5  UNL     1     -35.203  15.069  -3.264  1.00 20.00     0.137 C 
HETATM    6  C6  UNL     1     -34.118  14.050  -3.525  1.00 20.00     0.169 C 
HETATM    7  N7  UNL     1     -34.937  15.894  -4.417  1.00 20.00    -0.222 NA
HETATM    8  O8  UNL     1     -32.872  16.879  -5.026  1.00 20.00    -0.245 OA
HETATM    9  O9  UNL     1     -32.996  14.934  -3.787  1.00 20.00    -0.298 OA
ENDROOT
TORSDOF 0
ENDMDL
