MODEL 1
REMARK VINA RESULT:      -4.9      0.000      0.000
REMARK  1 active torsions:
REMARK  status: ('A' for Active; 'I' for Inactive)
REMARK    1  A    between atoms: C3_3  and  C6_6 
ROOT
HETATM    1  C1  UNL     1     -36.561  15.516  -3.569  1.00 20.00    -0.030 C 
HETATM    2  C2  UNL     1     -36.446  15.398  -4.899  1.00 20.00    -0.026 C 
HETATM    3  C4  UNL     1     -35.391  15.500  -2.632  1.00 20.00     0.032 C 
HETATM    4  C5  UNL     1     -35.127  15.223  -5.607  1.00 20.00     0.018 C 
HETATM    5  C6  UNL     1     -33.967  14.871  -4.655  1.00 20.00     0.098 C 
HETATM    6  C7  UNL     1     -34.022  15.656  -3.329  1.00 20.00    -0.000 C 
HETATM    7  C8  UNL     1     -35.253  14.225  -6.762  1.00 20.00     0.015 C 
HETATM    8  C9  UNL     1     -33.693  17.138  -3.555  1.00 20.00     0.011 C 
ENDROOT
BRANCH   5   9
HETATM    9  C3  UNL     1     -33.931  13.398  -4.256  1.00 20.00     0.178 C 
HETATM   10  O10 UNL     1     -34.971  12.740  -4.534  1.00 20.00    -0.648 OA
HETATM   11  O11 UNL     1     -32.862  13.026  -3.697  1.00 20.00    -0.648 OA
ENDBRANCH   5   9
TORSDOF 1
ENDMDL
MODEL 2
REMARK VINA RESULT:      -4.8      1.048      1.835
REMARK  1 active torsions:
REMARK  status: ('A' for Active; 'I' for Inactive)
REMARK    1  A    between atoms: C3_3  and  C6_6 
ROOT
HETATM    1  C1  UNL     1     -34.420  16.204  -2.160  1.00 20.00    -0.030 C 
HETATM    2  C2  UNL     1     -35.642  15.992  -2.668  1.00 20.00    -0.026 C 
HETATM    3  C4  UNL     1     -33.153  15.954  -2.921  1.00 20.00     0.032 C 
HETATM    4  C5  UNL     1     -35.884  15.464  -4.059  1.00 20.00     0.018 C 
HETATM    5  C6  UNL     1     -34.617  14.892  -4.722  1.00 20.00     0.098 C 
HETATM    6  C7  UNL     1     -33.358  15.736  -4.436  1.00 20.00    -0.000 C 
HETATM    7  C8  UNL     1     -37.047  14.467  -4.071  1.00 20.00     0.015 C 
HETATM    8  C9  UNL     1     -33.419  17.079  -5.175  1.00 20.00     0.011 C 
ENDROOT
BRANCH   5   9
HETATM    9  C3  UNL     1     -34.273  13.477  -4.263  1.00 20.00     0.178 C 
HETATM   10  O10 UNL     1     -35.166  12.611  -4.475  1.00 20.00    -0.648 OA
HETATM   11  O11 UNL     1     -33.137  13.355  -3.726  1.00 20.00    -0.648 OA
ENDBRANCH   5   9
TORSDOF 1
ENDMDL
MODEL 3
REMARK VINA RESULT:      -4.8      1.154      3.150
REMARK  1 active torsions:
REMARK  status: ('A' for Active; 'I' for Inactive)
REMARK    1  A    between atoms: C3_3  and  C6_6 
ROOT
HETATM    1  C1  UNL     1     -33.646  16.506  -5.823  1.00 20.00    -0.030 C 
HETATM    2  C2  UNL     1     -33.892  16.838  -4.548  1.00 20.00    -0.026 C 
HETATM    3  C4  UNL     1     -34.387  15.429  -6.555  1.00 20.00     0.032 C 
HETATM    4  C5  UNL     1     -34.934  16.157  -3.698  1.00 20.00     0.018 C 
HETATM    5  C6  UNL     1     -35.461  14.847  -4.315  1.00 20.00     0.098 C 
HETATM    6  C7  UNL     1     -35.666  14.943  -5.840  1.00 20.00    -0.000 C 
HETATM    7  C8  UNL     1     -34.429  15.963  -2.265  1.00 20.00     0.015 C 
HETATM    8  C9  UNL     1     -36.855  15.852  -6.177  1.00 20.00     0.011 C 
ENDROOT
BRANCH   5   9
HETATM    9  C3  UNL     1     -34.531  13.655  -4.102  1.00 20.00     0.178 C 
HETATM   10  O10 UNL     1     -33.387  13.939  -3.651  1.00 20.00    -0.648 OA
HETATM   11  O11 UNL     1     -35.028  12.535  -4.404  1.00 20.00    -0.648 OA
ENDBRANCH   5   9
TORSDOF 1
ENDMDL
MODEL 4
REMARK VINA RESULT:      -4.7      1.927      2.788
REMARK  1 active torsions:
REMARK  status: ('A' for Active; 'I' for Inactive)
REMARK    1  A    between atoms: C3_3  and  C6_6 
ROOT
HETATM    1  C1  UNL     1     -33.730  16.530  -4.973  1.00 20.00    -0.030 C 
HETATM    2  C2  UNL     1     -33.962  15.928  -6.147  1.00 20.00    -0.026 C 
HETATM    3  C4  UNL     1     -34.085  15.926  -3.648  1.00 20.00     0.032 C 
HETATM    4  C5  UNL     1     -34.620  14.578  -6.273  1.00 20.00     0.018 C 
HETATM    5  C6  UNL     1     -35.286  14.101  -4.967  1.00 20.00     0.098 C 
HETATM    6  C7  UNL     1     -34.448  14.427  -3.714  1.00 20.00    -0.000 C 
HETATM    7  C8  UNL     1     -35.586  14.547  -7.461  1.00 20.00     0.015 C 
HETATM    8  C9  UNL     1     -33.184  13.559  -3.659  1.00 20.00     0.011 C 
ENDROOT
BRANCH   5   9
HETATM    9  C3  UNL     1     -36.655  14.727  -4.717  1.00 20.00     0.178 C 
HETATM   10  O10 UNL     1     -36.919  15.742  -5.418  1.00 20.00    -0.648 OA
HETATM   11  O11 UNL     1     -37.350  14.147  -3.837  1.00 20.00    -0.648 OA
ENDBRANCH   5   9
TORSDOF 1
ENDMDL
MODEL 5
REMARK VINA RESULT:      -4.7      1.896      2.941
REMARK  1 active torsions:
REMARK  status: ('A' for Active; 'I' for Inactive)
REMARK    1  A    between atoms: C3_3  and  C6_6 
ROOT
HETATM    1  C1  UNL     1     -33.678  17.012  -4.292  1.00 20.00    -0.030 C 
HETATM    2  C2  UNL     1     -33.192  15.763  -4.272  1.00 20.00    -0.026 C 
HETATM    3  C4  UNL     1     -34.865  17.451  -3.490  1.00 20.00     0.032 C 
HETATM    4  C5  UNL     1     -33.791  14.652  -3.449  1.00 20.00     0.018 C 
HETATM    5  C6  UNL     1     -35.187  14.991  -2.892  1.00 20.00     0.098 C 
HETATM    6  C7  UNL     1     -35.296  16.448  -2.398  1.00 20.00    -0.000 C 
HETATM    7  C8  UNL     1     -33.781  13.330  -4.225  1.00 20.00     0.015 C 
HETATM    8  C9  UNL     1     -34.478  16.655  -1.116  1.00 20.00     0.011 C 
ENDROOT
BRANCH   5   9
HETATM    9  C3  UNL     1     -36.309  14.820  -3.911  1.00 20.00     0.178 C 
HETATM   10  O10 UNL     1     -35.941  14.796  -5.118  1.00 20.00    -0.648 OA
HETATM   11  O11 UNL     1     -37.466  14.725  -3.415  1.00 20.00    -0.648 OA
ENDBRANCH   5   9
TORSDOF 1
ENDMDL
MODEL 6
REMARK VINA RESULT:      -4.6      1.313      1.534
REMARK  1 active torsions:
REMARK  status: ('A' for Active; 'I' for Inactive)
REMARK    1  A    between atoms: C3_3  and  C6_6 
ROOT
HETATM    1  C1  UNL     1     -36.396  16.998  -4.252  1.00 20.00    -0.030 C 
HETATM    2  C2  UNL     1     -35.603  16.738  -5.301  1.00 20.00    -0.026 C 
HETATM    3  C4  UNL     1     -36.247  16.333  -2.917  1.00 20.00     0.032 C 
HETATM    4  C5  UNL     1     -34.477  15.737  -5.263  1.00 20.00     0.018 C 
HETATM    5  C6  UNL     1     -34.523  14.815  -4.028  1.00 20.00     0.098 C 
HETATM    6  C7  UNL     1     -34.922  15.562  -2.739  1.00 20.00    -0.000 C 
HETATM    7  C8  UNL     1     -34.403  14.947  -6.574  1.00 20.00     0.015 C 
HETATM    8  C9  UNL     1     -33.801  16.505  -2.283  1.00 20.00     0.011 C 
ENDROOT
BRANCH   5   9
HETATM    9  C3  UNL     1     -35.519  13.667  -4.161  1.00 20.00     0.178 C 
HETATM   10  O10 UNL     1     -36.721  13.966  -3.916  1.00 20.00    -0.648 OA
HETATM   11  O11 UNL     1     -35.012  12.561  -4.499  1.00 20.00    -0.648 OA
ENDBRANCH   5   9
TORSDOF 1
ENDMDL
MODEL 7
REMARK VINA RESULT:      -4.6      2.201      2.842
REMARK  1 active torsions:
REMARK  status: ('A' for Active; 'I' for Inactive)
REMARK    1  A    between atoms: C3_3  and  C6_6 
ROOT
HETATM    1  C1  UNL     1     -33.674  13.626  -3.969  1.00 20.00    -0.030 C 
HETATM    2  C2  UNL     1     -34.913  13.705  -4.472  1.00 20.00    -0.026 C 
HETATM    3  C4  UNL     1     -32.901  14.814  -3.480  1.00 20.00     0.032 C 
HETATM    4  C5  UNL     1     -35.669  15.001  -4.619  1.00 20.00     0.018 C 
HETATM    5  C6  UNL     1     -34.780  16.248  -4.442  1.00 20.00     0.098 C 
HETATM    6  C7  UNL     1     -33.750  16.091  -3.306  1.00 20.00    -0.000 C 
HETATM    7  C8  UNL     1     -36.455  15.031  -5.934  1.00 20.00     0.015 C 
HETATM    8  C9  UNL     1     -34.439  16.102  -1.935  1.00 20.00     0.011 C 
ENDROOT
BRANCH   5   9
HETATM    9  C3  UNL     1     -33.968  16.600  -5.685  1.00 20.00     0.178 C 
HETATM   10  O10 UNL     1     -33.929  15.704  -6.574  1.00 20.00    -0.648 OA
HETATM   11  O11 UNL     1     -33.437  17.745  -5.664  1.00 20.00    -0.648 OA
ENDBRANCH   5   9
TORSDOF 1
ENDMDL
MODEL 8
REMARK VINA RESULT:      -4.4      1.907      2.942
REMARK  1 active torsions:
REMARK  status: ('A' for Active; 'I' for Inactive)
REMARK    1  A    between atoms: C3_3  and  C6_6 
ROOT
HETATM    1  C1  UNL     1     -34.735  13.488  -5.438  1.00 20.00    -0.030 C 
HETATM    2  C2  UNL     1     -34.799  14.516  -6.295  1.00 20.00    -0.026 C 
HETATM    3  C4  UNL     1     -35.014  13.615  -3.970  1.00 20.00     0.032 C 
HETATM    4  C5  UNL     1     -35.146  15.924  -5.880  1.00 20.00     0.018 C 
HETATM    5  C6  UNL     1     -35.104  16.137  -4.354  1.00 20.00     0.098 C 
HETATM    6  C7  UNL     1     -35.686  14.945  -3.568  1.00 20.00    -0.000 C 
HETATM    7  C8  UNL     1     -34.285  16.944  -6.632  1.00 20.00     0.015 C 
HETATM    8  C9  UNL     1     -37.208  14.860  -3.748  1.00 20.00     0.011 C 
ENDROOT
BRANCH   5   9
HETATM    9  C3  UNL     1     -33.695  16.339  -3.805  1.00 20.00     0.178 C 
HETATM   10  O10 UNL     1     -32.765  16.223  -4.651  1.00 20.00    -0.648 OA
HETATM   11  O11 UNL     1     -33.639  16.596  -2.570  1.00 20.00    -0.648 OA
ENDBRANCH   5   9
TORSDOF 1
ENDMDL
MODEL 9
REMARK VINA RESULT:      -4.4      1.893      3.631
REMARK  1 active torsions:
REMARK  status: ('A' for Active; 'I' for Inactive)
REMARK    1  A    between atoms: C3_3  and  C6_6 
ROOT
HETATM    1  C1  UNL     1     -33.317  13.770  -3.793  1.00 20.00    -0.030 C 
HETATM    2  C2  UNL     1     -32.951  15.058  -3.734  1.00 20.00    -0.026 C 
HETATM    3  C4  UNL     1     -34.618  13.305  -4.375  1.00 20.00     0.032 C 
HETATM    4  C5  UNL     1     -33.811  16.190  -4.235  1.00 20.00     0.018 C 
HETATM    5  C6  UNL     1     -35.266  15.769  -4.520  1.00 20.00     0.098 C 
HETATM    6  C7  UNL     1     -35.368  14.383  -5.187  1.00 20.00    -0.000 C 
HETATM    7  C8  UNL     1     -33.731  17.397  -3.294  1.00 20.00     0.015 C 
HETATM    8  C9  UNL     1     -34.853  14.430  -6.632  1.00 20.00     0.011 C 
ENDROOT
BRANCH   5   9
HETATM    9  C3  UNL     1     -36.134  15.685  -3.268  1.00 20.00     0.178 C 
HETATM   10  O10 UNL     1     -35.540  15.938  -2.183  1.00 20.00    -0.648 OA
HETATM   11  O11 UNL     1     -37.339  15.371  -3.478  1.00 20.00    -0.648 OA
ENDBRANCH   5   9
TORSDOF 1
ENDMDL
