MODEL 1
REMARK VINA RESULT:      -4.5      0.000      0.000
REMARK  6 active torsions:
REMARK  status: ('A' for Active; 'I' for Inactive)
REMARK    1  A    between atoms: C2_2  and  C5_5 
REMARK    2  A    between atoms: C5_5  and  C8_8 
REMARK    3  A    between atoms: C6_6  and  C8_8 
REMARK    4  A    between atoms: C7_7  and  C9_9 
REMARK    5  A    between atoms: C9_9  and  C10_10 
REMARK    6  A    between atoms: C10_10  and  N11_11 
ROOT
HETATM    1  C1  UNL     1     -34.068   5.102   2.350  1.00 20.00     0.308 A 
HETATM    2  C2  UNL     1     -34.799   5.492   3.613  1.00 20.00     0.251 A 
HETATM    3  N11 UNL     1     -33.407   5.869   3.402  1.00 20.00     0.097 N 
ENDROOT
BRANCH   2   4
HETATM    4  C5  UNL     1     -35.117   4.465   4.643  1.00 20.00     0.037 C 
BRANCH   4   5
HETATM    5  C8  UNL     1     -34.248   4.634   5.888  1.00 20.00     0.002 C 
BRANCH   5   6
HETATM    6  C6  UNL     1     -34.655   5.871   6.688  1.00 20.00    -0.004 C 
HETATM    7  C3  UNL     1     -33.569   6.934   6.661  1.00 20.00     0.005 C 
ENDBRANCH   5   6
ENDBRANCH   4   5
ENDBRANCH   2   4
BRANCH   3   8
HETATM    8  C10 UNL     1     -33.241   7.278   3.063  1.00 20.00     0.273 C 
BRANCH   8   9
HETATM    9  C9  UNL     1     -31.835   7.595   2.566  1.00 20.00     0.030 C 
BRANCH   9  10
HETATM   10  C7  UNL     1     -31.839   8.472   1.311  1.00 20.00    -0.003 C 
HETATM   11  C4  UNL     1     -32.520   9.806   1.569  1.00 20.00     0.005 C 
ENDBRANCH   9  10
ENDBRANCH   8   9
ENDBRANCH   3   8
TORSDOF 6
ENDMDL
MODEL 2
REMARK VINA RESULT:      -4.5      1.087      1.767
REMARK  6 active torsions:
REMARK  status: ('A' for Active; 'I' for Inactive)
REMARK    1  A    between atoms: C2_2  and  C5_5 
REMARK    2  A    between atoms: C5_5  and  C8_8 
REMARK    3  A    between atoms: C6_6  and  C8_8 
REMARK    4  A    between atoms: C7_7  and  C9_9 
REMARK    5  A    between atoms: C9_9  and  C10_10 
REMARK    6  A    between atoms: C10_10  and  N11_11 
ROOT
HETATM    1  C1  UNL     1     -32.220   5.630   2.971  1.00 20.00     0.308 A 
HETATM    2  C2  UNL     1     -33.460   6.469   3.173  1.00 20.00     0.251 A 
HETATM    3  N11 UNL     1     -32.176   6.875   3.734  1.00 20.00     0.097 N 
ENDROOT
BRANCH   2   4
HETATM    4  C5  UNL     1     -34.535   6.010   4.095  1.00 20.00     0.037 C 
BRANCH   4   5
HETATM    5  C8  UNL     1     -34.197   6.328   5.551  1.00 20.00     0.002 C 
BRANCH   5   6
HETATM    6  C6  UNL     1     -34.487   5.135   6.461  1.00 20.00    -0.004 C 
HETATM    7  C3  UNL     1     -34.984   3.936   5.668  1.00 20.00     0.005 C 
ENDBRANCH   5   6
ENDBRANCH   4   5
ENDBRANCH   2   4
BRANCH   3   8
HETATM    8  C10 UNL     1     -31.554   7.972   3.003  1.00 20.00     0.273 C 
BRANCH   8   9
HETATM    9  C9  UNL     1     -31.902   7.953   1.518  1.00 20.00     0.030 C 
BRANCH   9  10
HETATM   10  C7  UNL     1     -32.198   9.349   0.965  1.00 20.00    -0.003 C 
HETATM   11  C4  UNL     1     -32.822  10.244   2.024  1.00 20.00     0.005 C 
ENDBRANCH   9  10
ENDBRANCH   8   9
ENDBRANCH   3   8
TORSDOF 6
ENDMDL
MODEL 3
REMARK VINA RESULT:      -4.4      1.136      5.301
REMARK  6 active torsions:
REMARK  status: ('A' for Active; 'I' for Inactive)
REMARK    1  A    between atoms: C2_2  and  C5_5 
REMARK    2  A    between atoms: C5_5  and  C8_8 
REMARK    3  A    between atoms: C6_6  and  C8_8 
REMARK    4  A    between atoms: C7_7  and  C9_9 
REMARK    5  A    between atoms: C9_9  and  C10_10 
REMARK    6  A    between atoms: C10_10  and  N11_11 
ROOT
HETATM    1  C1  UNL     1     -32.147   5.596   3.315  1.00 20.00     0.308 A 
HETATM    2  C2  UNL     1     -32.429   7.079   3.255  1.00 20.00     0.251 A 
HETATM    3  N11 UNL     1     -33.446   6.103   2.882  1.00 20.00     0.097 N 
ENDROOT
BRANCH   2   4
HETATM    4  C5  UNL     1     -31.813   7.918   2.191  1.00 20.00     0.037 C 
BRANCH   4   5
HETATM    5  C8  UNL     1     -32.504   9.276   2.078  1.00 20.00     0.002 C 
BRANCH   5   6
HETATM    6  C6  UNL     1     -32.443   9.813   0.648  1.00 20.00    -0.004 C 
HETATM    7  C3  UNL     1     -32.422   8.685  -0.371  1.00 20.00     0.005 C 
ENDBRANCH   5   6
ENDBRANCH   4   5
ENDBRANCH   2   4
BRANCH   3   8
HETATM    8  C10 UNL     1     -34.486   5.946   3.892  1.00 20.00     0.273 C 
BRANCH   8   9
HETATM    9  C9  UNL     1     -33.997   6.307   5.290  1.00 20.00     0.030 C 
BRANCH   9  10
HETATM   10  C7  UNL     1     -34.487   5.324   6.357  1.00 20.00    -0.003 C 
HETATM   11  C4  UNL     1     -34.970   4.025   5.733  1.00 20.00     0.005 C 
ENDBRANCH   9  10
ENDBRANCH   8   9
ENDBRANCH   3   8
TORSDOF 6
ENDMDL
MODEL 4
REMARK VINA RESULT:      -4.3      0.634      4.664
REMARK  6 active torsions:
REMARK  status: ('A' for Active; 'I' for Inactive)
REMARK    1  A    between atoms: C2_2  and  C5_5 
REMARK    2  A    between atoms: C5_5  and  C8_8 
REMARK    3  A    between atoms: C6_6  and  C8_8 
REMARK    4  A    between atoms: C7_7  and  C9_9 
REMARK    5  A    between atoms: C9_9  and  C10_10 
REMARK    6  A    between atoms: C10_10  and  N11_11 
ROOT
HETATM    1  C1  UNL     1     -34.355   5.120   2.391  1.00 20.00     0.308 A 
HETATM    2  C2  UNL     1     -33.554   5.925   3.387  1.00 20.00     0.251 A 
HETATM    3  N11 UNL     1     -34.927   5.526   3.672  1.00 20.00     0.097 N 
ENDROOT
BRANCH   2   4
HETATM    4  C5  UNL     1     -33.261   7.361   3.130  1.00 20.00     0.037 C 
BRANCH   4   5
HETATM    5  C8  UNL     1     -31.839   7.558   2.606  1.00 20.00     0.002 C 
BRANCH   5   6
HETATM    6  C6  UNL     1     -31.826   8.426   1.348  1.00 20.00    -0.004 C 
HETATM    7  C3  UNL     1     -32.522   9.757   1.583  1.00 20.00     0.005 C 
ENDBRANCH   5   6
ENDBRANCH   4   5
ENDBRANCH   2   4
BRANCH   3   8
HETATM    8  C10 UNL     1     -35.017   4.430   4.630  1.00 20.00     0.273 C 
BRANCH   8   9
HETATM    9  C9  UNL     1     -34.186   4.683   5.882  1.00 20.00     0.030 C 
BRANCH   9  10
HETATM   10  C7  UNL     1     -34.658   5.911   6.665  1.00 20.00    -0.003 C 
HETATM   11  C4  UNL     1     -33.573   6.974   6.736  1.00 20.00     0.005 C 
ENDBRANCH   9  10
ENDBRANCH   8   9
ENDBRANCH   3   8
TORSDOF 6
ENDMDL
MODEL 5
REMARK VINA RESULT:      -4.2     10.862     11.956
REMARK  6 active torsions:
REMARK  status: ('A' for Active; 'I' for Inactive)
REMARK    1  A    between atoms: C2_2  and  C5_5 
REMARK    2  A    between atoms: C5_5  and  C8_8 
REMARK    3  A    between atoms: C6_6  and  C8_8 
REMARK    4  A    between atoms: C7_7  and  C9_9 
REMARK    5  A    between atoms: C9_9  and  C10_10 
REMARK    6  A    between atoms: C10_10  and  N11_11 
ROOT
HETATM    1  C1  UNL     1     -35.398  16.532  -2.882  1.00 20.00     0.308 A 
HETATM    2  C2  UNL     1     -34.353  16.719  -1.807  1.00 20.00     0.251 A 
HETATM    3  N11 UNL     1     -34.518  15.437  -2.483  1.00 20.00     0.097 N 
ENDROOT
BRANCH   2   4
HETATM    4  C5  UNL     1     -34.757  16.837  -0.379  1.00 20.00     0.037 C 
BRANCH   4   5
HETATM    5  C8  UNL     1     -34.131  18.065   0.280  1.00 20.00     0.002 C 
BRANCH   5   6
HETATM    6  C6  UNL     1     -32.896  18.539  -0.488  1.00 20.00    -0.004 C 
HETATM    7  C3  UNL     1     -31.821  19.058   0.453  1.00 20.00     0.005 C 
ENDBRANCH   5   6
ENDBRANCH   4   5
ENDBRANCH   2   4
BRANCH   3   8
HETATM    8  C10 UNL     1     -33.468  15.164  -3.456  1.00 20.00     0.273 C 
BRANCH   8   9
HETATM    9  C9  UNL     1     -33.435  13.700  -3.881  1.00 20.00     0.030 C 
BRANCH   9  10
HETATM   10  C7  UNL     1     -34.623  13.318  -4.768  1.00 20.00    -0.003 C 
HETATM   11  C4  UNL     1     -34.780  14.286  -5.930  1.00 20.00     0.005 C 
ENDBRANCH   9  10
ENDBRANCH   8   9
ENDBRANCH   3   8
TORSDOF 6
ENDMDL
MODEL 6
REMARK VINA RESULT:      -4.2     11.382     13.295
REMARK  6 active torsions:
REMARK  status: ('A' for Active; 'I' for Inactive)
REMARK    1  A    between atoms: C2_2  and  C5_5 
REMARK    2  A    between atoms: C5_5  and  C8_8 
REMARK    3  A    between atoms: C6_6  and  C8_8 
REMARK    4  A    between atoms: C7_7  and  C9_9 
REMARK    5  A    between atoms: C9_9  and  C10_10 
REMARK    6  A    between atoms: C10_10  and  N11_11 
ROOT
HETATM    1  C1  UNL     1     -33.903  18.116  -5.965  1.00 20.00     0.308 A 
HETATM    2  C2  UNL     1     -34.455  16.716  -5.838  1.00 20.00     0.251 A 
HETATM    3  N11 UNL     1     -33.333  17.161  -5.020  1.00 20.00     0.097 N 
ENDROOT
BRANCH   2   4
HETATM    4  C5  UNL     1     -34.209  15.712  -6.909  1.00 20.00     0.037 C 
BRANCH   4   5
HETATM    5  C8  UNL     1     -35.139  14.507  -6.772  1.00 20.00     0.002 C 
BRANCH   5   6
HETATM    6  C6  UNL     1     -35.517  14.261  -5.311  1.00 20.00    -0.004 C 
HETATM    7  C3  UNL     1     -34.635  13.195  -4.680  1.00 20.00     0.005 C 
ENDBRANCH   5   6
ENDBRANCH   4   5
ENDBRANCH   2   4
BRANCH   3   8
HETATM    8  C10 UNL     1     -33.707  17.433  -3.637  1.00 20.00     0.273 C 
BRANCH   8   9
HETATM    9  C9  UNL     1     -33.619  16.192  -2.756  1.00 20.00     0.030 C 
BRANCH   9  10
HETATM   10  C7  UNL     1     -34.818  16.052  -1.815  1.00 20.00    -0.003 C 
HETATM   11  C4  UNL     1     -34.627  16.870  -0.547  1.00 20.00     0.005 C 
ENDBRANCH   9  10
ENDBRANCH   8   9
ENDBRANCH   3   8
TORSDOF 6
ENDMDL
MODEL 7
REMARK VINA RESULT:      -4.2     11.361     12.160
REMARK  6 active torsions:
REMARK  status: ('A' for Active; 'I' for Inactive)
REMARK    1  A    between atoms: C2_2  and  C5_5 
REMARK    2  A    between atoms: C5_5  and  C8_8 
REMARK    3  A    between atoms: C6_6  and  C8_8 
REMARK    4  A    between atoms: C7_7  and  C9_9 
REMARK    5  A    between atoms: C9_9  and  C10_10 
REMARK    6  A    between atoms: C10_10  and  N11_11 
ROOT
HETATM    1  C1  UNL     1     -36.566  14.499  -3.960  1.00 20.00     0.308 A 
HETATM    2  C2  UNL     1     -35.311  15.285  -3.662  1.00 20.00     0.251 A 
HETATM    3  N11 UNL     1     -35.262  13.845  -3.892  1.00 20.00     0.097 N 
ENDROOT
BRANCH   2   4
HETATM    4  C5  UNL     1     -35.057  15.803  -2.290  1.00 20.00     0.037 C 
BRANCH   4   5
HETATM    5  C8  UNL     1     -33.754  16.599  -2.225  1.00 20.00     0.002 C 
BRANCH   5   6
HETATM    6  C6  UNL     1     -33.703  17.479  -0.976  1.00 20.00    -0.004 C 
HETATM    7  C3  UNL     1     -34.834  17.149  -0.015  1.00 20.00     0.005 C 
ENDBRANCH   5   6
ENDBRANCH   4   5
ENDBRANCH   2   4
BRANCH   3   8
HETATM    8  C10 UNL     1     -34.731  13.493  -5.203  1.00 20.00     0.273 C 
BRANCH   8   9
HETATM    9  C9  UNL     1     -35.369  14.303  -6.326  1.00 20.00     0.030 C 
BRANCH   9  10
HETATM   10  C7  UNL     1     -34.335  15.036  -7.184  1.00 20.00    -0.003 C 
HETATM   11  C4  UNL     1     -34.529  16.543  -7.119  1.00 20.00     0.005 C 
ENDBRANCH   9  10
ENDBRANCH   8   9
ENDBRANCH   3   8
TORSDOF 6
ENDMDL
MODEL 8
REMARK VINA RESULT:      -4.1     10.977     12.222
REMARK  6 active torsions:
REMARK  status: ('A' for Active; 'I' for Inactive)
REMARK    1  A    between atoms: C2_2  and  C5_5 
REMARK    2  A    between atoms: C5_5  and  C8_8 
REMARK    3  A    between atoms: C6_6  and  C8_8 
REMARK    4  A    between atoms: C7_7  and  C9_9 
REMARK    5  A    between atoms: C9_9  and  C10_10 
REMARK    6  A    between atoms: C10_10  and  N11_11 
ROOT
HETATM    1  C1  UNL     1     -34.973  16.983  -3.057  1.00 20.00     0.308 A 
HETATM    2  C2  UNL     1     -33.950  15.915  -2.749  1.00 20.00     0.251 A 
HETATM    3  N11 UNL     1     -33.663  17.325  -2.512  1.00 20.00     0.097 N 
ENDROOT
BRANCH   2   4
HETATM    4  C5  UNL     1     -33.242  15.213  -3.854  1.00 20.00     0.037 C 
BRANCH   4   5
HETATM    5  C8  UNL     1     -33.484  13.705  -3.805  1.00 20.00     0.002 C 
BRANCH   5   6
HETATM    6  C6  UNL     1     -34.821  13.335  -4.448  1.00 20.00    -0.004 C 
HETATM    7  C3  UNL     1     -35.002  14.025  -5.791  1.00 20.00     0.005 C 
ENDBRANCH   5   6
ENDBRANCH   4   5
ENDBRANCH   2   4
BRANCH   3   8
HETATM    8  C10 UNL     1     -33.708  17.688  -1.100  1.00 20.00     0.273 C 
BRANCH   8   9
HETATM    9  C9  UNL     1     -34.772  16.911  -0.334  1.00 20.00     0.030 C 
BRANCH   9  10
HETATM   10  C7  UNL     1     -35.119  17.556   1.010  1.00 20.00    -0.003 C 
HETATM   11  C4  UNL     1     -34.013  18.488   1.479  1.00 20.00     0.005 C 
ENDBRANCH   9  10
ENDBRANCH   8   9
ENDBRANCH   3   8
TORSDOF 6
ENDMDL
MODEL 9
REMARK VINA RESULT:      -4.1     11.420     13.085
REMARK  6 active torsions:
REMARK  status: ('A' for Active; 'I' for Inactive)
REMARK    1  A    between atoms: C2_2  and  C5_5 
REMARK    2  A    between atoms: C5_5  and  C8_8 
REMARK    3  A    between atoms: C6_6  and  C8_8 
REMARK    4  A    between atoms: C7_7  and  C9_9 
REMARK    5  A    between atoms: C9_9  and  C10_10 
REMARK    6  A    between atoms: C10_10  and  N11_11 
ROOT
HETATM    1  C1  UNL     1     -33.989  18.007  -6.055  1.00 20.00     0.308 A 
HETATM    2  C2  UNL     1     -33.461  17.103  -4.967  1.00 20.00     0.251 A 
HETATM    3  N11 UNL     1     -34.568  16.688  -5.820  1.00 20.00     0.097 N 
ENDROOT
BRANCH   2   4
HETATM    4  C5  UNL     1     -33.732  17.411  -3.536  1.00 20.00     0.037 C 
BRANCH   4   5
HETATM    5  C8  UNL     1     -33.689  16.151  -2.673  1.00 20.00     0.002 C 
BRANCH   5   6
HETATM    6  C6  UNL     1     -34.773  16.178  -1.595  1.00 20.00    -0.004 C 
HETATM    7  C3  UNL     1     -34.441  17.176  -0.498  1.00 20.00     0.005 C 
ENDBRANCH   5   6
ENDBRANCH   4   5
ENDBRANCH   2   4
BRANCH   3   8
HETATM    8  C10 UNL     1     -34.178  15.706  -6.825  1.00 20.00     0.273 C 
BRANCH   8   9
HETATM    9  C9  UNL     1     -35.054  14.458  -6.789  1.00 20.00     0.030 C 
BRANCH   9  10
HETATM   10  C7  UNL     1     -35.467  14.069  -5.368  1.00 20.00    -0.003 C 
HETATM   11  C4  UNL     1     -34.410  13.203  -4.700  1.00 20.00     0.005 C 
ENDBRANCH   9  10
ENDBRANCH   8   9
ENDBRANCH   3   8
TORSDOF 6
ENDMDL
