MODEL 1
REMARK VINA RESULT:      -4.3      0.000      0.000
REMARK  1 active torsions:
REMARK  status: ('A' for Active; 'I' for Inactive)
REMARK    1  A    between atoms: C2_2  and  C6_6 
ROOT
HETATM    1  C1  UNL     1     -35.053  18.057  -3.837  1.00 20.00     0.074 C 
HETATM    2  C3  UNL     1     -33.979  16.428  -2.301  1.00 20.00     0.031 C 
HETATM    3  C4  UNL     1     -34.581  15.121  -2.806  1.00 20.00     0.025 C 
HETATM    4  C5  UNL     1     -33.810  17.348  -3.507  1.00 20.00     0.154 C 
HETATM    5  C6  UNL     1     -33.747  14.696  -4.004  1.00 20.00     0.117 C 
HETATM    6  N8  UNL     1     -36.036  18.616  -4.097  1.00 20.00    -0.196 NA
HETATM    7  S10 UNL     1     -33.311  16.235  -4.861  1.00 20.00    -0.137 SA
ENDROOT
BRANCH   5   8
HETATM    8  C2  UNL     1     -34.509  13.829  -4.949  1.00 20.00     0.136 C 
HETATM    9  C7  UNL     1     -34.872  14.434  -6.278  1.00 20.00     0.092 C 
HETATM   10  O9  UNL     1     -34.823  12.677  -4.657  1.00 20.00    -0.297 OA
ENDBRANCH   5   8
TORSDOF 1
ENDMDL
MODEL 2
REMARK VINA RESULT:      -4.2      2.173      2.290
REMARK  1 active torsions:
REMARK  status: ('A' for Active; 'I' for Inactive)
REMARK    1  A    between atoms: C2_2  and  C6_6 
ROOT
HETATM    1  C1  UNL     1     -33.421  17.213  -4.884  1.00 20.00     0.074 C 
HETATM    2  C3  UNL     1     -33.727  15.844  -2.834  1.00 20.00     0.031 C 
HETATM    3  C4  UNL     1     -35.247  15.736  -2.789  1.00 20.00     0.025 C 
HETATM    4  C5  UNL     1     -33.315  15.868  -4.304  1.00 20.00     0.154 C 
HETATM    5  C6  UNL     1     -35.627  14.601  -3.725  1.00 20.00     0.117 C 
HETATM    6  N8  UNL     1     -33.506  18.276  -5.341  1.00 20.00    -0.196 NA
HETATM    7  S10 UNL     1     -34.466  14.711  -5.115  1.00 20.00    -0.137 SA
ENDROOT
BRANCH   5   8
HETATM    8  C2  UNL     1     -37.014  14.742  -4.256  1.00 20.00     0.136 C 
HETATM    9  C7  UNL     1     -37.194  15.648  -5.444  1.00 20.00     0.092 C 
HETATM   10  O9  UNL     1     -37.962  14.145  -3.751  1.00 20.00    -0.297 OA
ENDBRANCH   5   8
TORSDOF 1
ENDMDL
MODEL 3
REMARK VINA RESULT:      -4.2      2.580      3.975
REMARK  1 active torsions:
REMARK  status: ('A' for Active; 'I' for Inactive)
REMARK    1  A    between atoms: C2_2  and  C6_6 
ROOT
HETATM    1  C1  UNL     1     -34.769  14.694  -6.551  1.00 20.00     0.074 C 
HETATM    2  C3  UNL     1     -34.307  13.195  -4.626  1.00 20.00     0.031 C 
HETATM    3  C4  UNL     1     -33.600  14.158  -3.679  1.00 20.00     0.025 C 
HETATM    4  C5  UNL     1     -35.351  13.998  -5.397  1.00 20.00     0.154 C 
HETATM    5  C6  UNL     1     -34.689  14.926  -2.950  1.00 20.00     0.117 C 
HETATM    6  N8  UNL     1     -34.308  15.244  -7.463  1.00 20.00    -0.196 NA
HETATM    7  S10 UNL     1     -36.002  15.185  -4.176  1.00 20.00    -0.137 SA
ENDROOT
BRANCH   5   8
HETATM    8  C2  UNL     1     -34.223  16.259  -2.469  1.00 20.00     0.136 C 
HETATM    9  C7  UNL     1     -34.540  16.612  -1.041  1.00 20.00     0.092 C 
HETATM   10  O9  UNL     1     -33.607  17.030  -3.203  1.00 20.00    -0.297 OA
ENDBRANCH   5   8
TORSDOF 1
ENDMDL
MODEL 4
REMARK VINA RESULT:      -4.1      2.945      4.207
REMARK  1 active torsions:
REMARK  status: ('A' for Active; 'I' for Inactive)
REMARK    1  A    between atoms: C2_2  and  C6_6 
ROOT
HETATM    1  C1  UNL     1     -34.673  13.816  -5.004  1.00 20.00     0.074 C 
HETATM    2  C3  UNL     1     -35.786  15.972  -5.535  1.00 20.00     0.031 C 
HETATM    3  C4  UNL     1     -35.833  16.616  -4.154  1.00 20.00     0.025 C 
HETATM    4  C5  UNL     1     -34.506  15.143  -5.609  1.00 20.00     0.154 C 
HETATM    5  C6  UNL     1     -34.473  17.256  -3.930  1.00 20.00     0.117 C 
HETATM    6  N8  UNL     1     -34.806  12.768  -4.525  1.00 20.00    -0.196 NA
HETATM    7  S10 UNL     1     -33.275  16.130  -4.697  1.00 20.00    -0.137 SA
ENDROOT
BRANCH   5   8
HETATM    8  C2  UNL     1     -34.138  17.388  -2.483  1.00 20.00     0.136 C 
HETATM    9  C7  UNL     1     -34.659  16.314  -1.567  1.00 20.00     0.092 C 
HETATM   10  O9  UNL     1     -33.466  18.327  -2.059  1.00 20.00    -0.297 OA
ENDBRANCH   5   8
TORSDOF 1
ENDMDL
MODEL 5
REMARK VINA RESULT:      -4.1      1.945      2.512
REMARK  1 active torsions:
REMARK  status: ('A' for Active; 'I' for Inactive)
REMARK    1  A    between atoms: C2_2  and  C6_6 
ROOT
HETATM    1  C1  UNL     1     -34.098  15.854  -2.497  1.00 20.00     0.074 C 
HETATM    2  C3  UNL     1     -33.346  13.831  -3.727  1.00 20.00     0.031 C 
HETATM    3  C4  UNL     1     -34.574  13.548  -4.586  1.00 20.00     0.025 C 
HETATM    4  C5  UNL     1     -33.237  15.346  -3.573  1.00 20.00     0.154 C 
HETATM    5  C6  UNL     1     -34.468  14.451  -5.803  1.00 20.00     0.117 C 
HETATM    6  N8  UNL     1     -34.779  16.254  -1.648  1.00 20.00    -0.196 NA
HETATM    7  S10 UNL     1     -33.754  16.004  -5.192  1.00 20.00    -0.137 SA
ENDROOT
BRANCH   5   8
HETATM    8  C2  UNL     1     -35.797  14.749  -6.409  1.00 20.00     0.136 C 
HETATM    9  C7  UNL     1     -35.904  14.617  -7.904  1.00 20.00     0.092 C 
HETATM   10  O9  UNL     1     -36.760  15.084  -5.721  1.00 20.00    -0.297 OA
ENDBRANCH   5   8
TORSDOF 1
ENDMDL
MODEL 6
REMARK VINA RESULT:      -4.0      2.028      2.461
REMARK  1 active torsions:
REMARK  status: ('A' for Active; 'I' for Inactive)
REMARK    1  A    between atoms: C2_2  and  C6_6 
ROOT
HETATM    1  C1  UNL     1     -34.910  16.984  -1.484  1.00 20.00     0.074 C 
HETATM    2  C3  UNL     1     -34.396  17.363  -3.885  1.00 20.00     0.031 C 
HETATM    3  C4  UNL     1     -33.672  16.067  -4.229  1.00 20.00     0.025 C 
HETATM    4  C5  UNL     1     -35.462  17.028  -2.845  1.00 20.00     0.154 C 
HETATM    5  C6  UNL     1     -34.748  15.034  -4.518  1.00 20.00     0.117 C 
HETATM    6  N8  UNL     1     -34.473  16.948  -0.411  1.00 20.00    -0.196 NA
HETATM    7  S10 UNL     1     -36.090  15.394  -3.351  1.00 20.00    -0.137 SA
ENDROOT
BRANCH   5   8
HETATM    8  C2  UNL     1     -34.278  13.639  -4.281  1.00 20.00     0.136 C 
HETATM    9  C7  UNL     1     -32.953  13.481  -3.586  1.00 20.00     0.092 C 
HETATM   10  O9  UNL     1     -34.942  12.666  -4.634  1.00 20.00    -0.297 OA
ENDBRANCH   5   8
TORSDOF 1
ENDMDL
MODEL 7
REMARK VINA RESULT:      -4.0      3.181      3.795
REMARK  1 active torsions:
REMARK  status: ('A' for Active; 'I' for Inactive)
REMARK    1  A    between atoms: C2_2  and  C6_6 
ROOT
HETATM    1  C1  UNL     1     -35.002  13.628  -4.161  1.00 20.00     0.074 C 
HETATM    2  C3  UNL     1     -33.960  15.529  -2.949  1.00 20.00     0.031 C 
HETATM    3  C4  UNL     1     -33.317  16.286  -4.106  1.00 20.00     0.025 C 
HETATM    4  C5  UNL     1     -35.249  14.902  -3.474  1.00 20.00     0.154 C 
HETATM    5  C6  UNL     1     -34.410  17.145  -4.721  1.00 20.00     0.117 C 
HETATM    6  N8  UNL     1     -34.806  12.622  -4.704  1.00 20.00    -0.196 NA
HETATM    7  S10 UNL     1     -35.922  16.147  -4.622  1.00 20.00    -0.137 SA
ENDROOT
BRANCH   5   8
HETATM    8  C2  UNL     1     -34.147  17.463  -6.154  1.00 20.00     0.136 C 
HETATM    9  C7  UNL     1     -34.459  16.384  -7.155  1.00 20.00     0.092 C 
HETATM   10  O9  UNL     1     -33.699  18.554  -6.501  1.00 20.00    -0.297 OA
ENDBRANCH   5   8
TORSDOF 1
ENDMDL
MODEL 8
REMARK VINA RESULT:      -4.0      1.910      2.957
REMARK  1 active torsions:
REMARK  status: ('A' for Active; 'I' for Inactive)
REMARK    1  A    between atoms: C2_2  and  C6_6 
ROOT
HETATM    1  C1  UNL     1     -34.303  17.954  -5.770  1.00 20.00     0.074 C 
HETATM    2  C3  UNL     1     -34.897  16.232  -7.459  1.00 20.00     0.031 C 
HETATM    3  C4  UNL     1     -34.295  14.986  -6.818  1.00 20.00     0.025 C 
HETATM    4  C5  UNL     1     -35.386  17.134  -6.329  1.00 20.00     0.154 C 
HETATM    5  C6  UNL     1     -35.311  14.487  -5.804  1.00 20.00     0.117 C 
HETATM    6  N8  UNL     1     -33.447  18.600  -5.329  1.00 20.00    -0.196 NA
HETATM    7  S10 UNL     1     -36.046  15.981  -5.082  1.00 20.00    -0.137 SA
ENDROOT
BRANCH   5   8
HETATM    8  C2  UNL     1     -34.681  13.695  -4.709  1.00 20.00     0.136 C 
HETATM    9  C7  UNL     1     -33.587  14.371  -3.928  1.00 20.00     0.092 C 
HETATM   10  O9  UNL     1     -35.040  12.546  -4.456  1.00 20.00    -0.297 OA
ENDBRANCH   5   8
TORSDOF 1
ENDMDL
MODEL 9
REMARK VINA RESULT:      -4.0      2.551      2.879
REMARK  1 active torsions:
REMARK  status: ('A' for Active; 'I' for Inactive)
REMARK    1  A    between atoms: C2_2  and  C6_6 
ROOT
HETATM    1  C1  UNL     1     -37.656  15.239  -3.844  1.00 20.00     0.074 C 
HETATM    2  C3  UNL     1     -36.159  16.824  -2.654  1.00 20.00     0.031 C 
HETATM    3  C4  UNL     1     -34.957  15.927  -2.380  1.00 20.00     0.025 C 
HETATM    4  C5  UNL     1     -36.756  16.390  -3.991  1.00 20.00     0.154 C 
HETATM    5  C6  UNL     1     -34.118  15.929  -3.647  1.00 20.00     0.117 C 
HETATM    6  N8  UNL     1     -38.367  14.330  -3.728  1.00 20.00    -0.196 NA
HETATM    7  S10 UNL     1     -35.310  15.966  -5.015  1.00 20.00    -0.137 SA
ENDROOT
BRANCH   5   8
HETATM    8  C2  UNL     1     -33.285  14.700  -3.780  1.00 20.00     0.136 C 
HETATM    9  C7  UNL     1     -33.991  13.448  -4.224  1.00 20.00     0.092 C 
HETATM   10  O9  UNL     1     -32.079  14.709  -3.541  1.00 20.00    -0.297 OA
ENDBRANCH   5   8
TORSDOF 1
ENDMDL
