MODEL 1
REMARK VINA RESULT:      -4.6      0.000      0.000
REMARK  2 active torsions:
REMARK  status: ('A' for Active; 'I' for Inactive)
REMARK    1  A    between atoms: C4_4  and  O10_10 
REMARK    2  A    between atoms: C5_5  and  C6_6 
ROOT
HETATM    1  C1  UNL     1     -33.592  14.066  -3.767  1.00 20.00     0.040 A 
HETATM    2  C2  UNL     1     -33.202  15.343  -3.380  1.00 20.00     0.034 A 
HETATM    3  C3  UNL     1     -35.859  14.774  -3.631  1.00 20.00     0.153 A 
HETATM    4  C4  UNL     1     -34.944  13.767  -3.896  1.00 20.00     0.083 A 
HETATM    5  C5  UNL     1     -34.196  16.279  -3.138  1.00 20.00     0.056 A 
HETATM    6  N9  UNL     1     -35.518  16.026  -3.254  1.00 20.00    -0.258 NA
ENDROOT
BRANCH   5   7
HETATM    7  C6  UNL     1     -33.838  17.629  -2.731  1.00 20.00     0.027 C 
HETATM    8  C7  UNL     1     -33.882  18.114  -1.470  1.00 20.00    -0.029 C 
HETATM    9  C8  UNL     1     -34.315  17.318  -0.280  1.00 20.00     0.036 C 
ENDBRANCH   5   7
BRANCH   4  10
HETATM   10  O10 UNL     1     -35.353  12.531  -4.271  1.00 20.00    -0.359 OA
HETATM   11  H19 UNL     1     -36.281  12.550  -4.560  1.00 20.00     0.217 HD
ENDBRANCH   4  10
TORSDOF 2
ENDMDL
MODEL 2
REMARK VINA RESULT:      -4.5      0.893      1.530
REMARK  2 active torsions:
REMARK  status: ('A' for Active; 'I' for Inactive)
REMARK    1  A    between atoms: C4_4  and  O10_10 
REMARK    2  A    between atoms: C5_5  and  C6_6 
ROOT
HETATM    1  C1  UNL     1     -35.856  14.648  -3.621  1.00 20.00     0.040 A 
HETATM    2  C2  UNL     1     -35.532  15.913  -3.145  1.00 20.00     0.034 A 
HETATM    3  C3  UNL     1     -33.533  14.144  -3.709  1.00 20.00     0.153 A 
HETATM    4  C4  UNL     1     -34.844  13.741  -3.911  1.00 20.00     0.083 A 
HETATM    5  C5  UNL     1     -34.191  16.220  -2.977  1.00 20.00     0.056 A 
HETATM    6  N9  UNL     1     -33.180  15.364  -3.248  1.00 20.00    -0.258 NA
ENDROOT
BRANCH   5   7
HETATM    7  C6  UNL     1     -33.801  17.530  -2.482  1.00 20.00     0.027 C 
HETATM    8  C7  UNL     1     -33.968  17.981  -1.218  1.00 20.00    -0.029 C 
HETATM    9  C8  UNL     1     -34.591  17.182  -0.118  1.00 20.00     0.036 C 
ENDBRANCH   5   7
BRANCH   4  10
HETATM   10  O10 UNL     1     -35.130  12.500  -4.376  1.00 20.00    -0.359 OA
HETATM   11  H19 UNL     1     -35.946  12.513  -4.905  1.00 20.00     0.217 HD
ENDBRANCH   4  10
TORSDOF 2
ENDMDL
MODEL 3
REMARK VINA RESULT:      -4.3      1.212      2.041
REMARK  2 active torsions:
REMARK  status: ('A' for Active; 'I' for Inactive)
REMARK    1  A    between atoms: C4_4  and  O10_10 
REMARK    2  A    between atoms: C5_5  and  C6_6 
ROOT
HETATM    1  C1  UNL     1     -33.587  14.083  -3.822  1.00 20.00     0.040 A 
HETATM    2  C2  UNL     1     -33.196  15.404  -3.634  1.00 20.00     0.034 A 
HETATM    3  C3  UNL     1     -35.851  14.810  -3.841  1.00 20.00     0.153 A 
HETATM    4  C4  UNL     1     -34.937  13.772  -3.927  1.00 20.00     0.083 A 
HETATM    5  C5  UNL     1     -34.188  16.370  -3.561  1.00 20.00     0.056 A 
HETATM    6  N9  UNL     1     -35.510  16.105  -3.661  1.00 20.00    -0.258 NA
ENDROOT
BRANCH   5   7
HETATM    7  C6  UNL     1     -33.830  17.766  -3.366  1.00 20.00     0.027 C 
HETATM    8  C7  UNL     1     -33.581  18.664  -4.346  1.00 20.00    -0.029 C 
HETATM    9  C8  UNL     1     -33.636  18.348  -5.806  1.00 20.00     0.036 C 
ENDBRANCH   5   7
BRANCH   4  10
HETATM   10  O10 UNL     1     -35.347  12.493  -4.110  1.00 20.00    -0.359 OA
HETATM   11  H19 UNL     1     -36.297  12.408  -3.923  1.00 20.00     0.217 HD
ENDBRANCH   4  10
TORSDOF 2
ENDMDL
MODEL 4
REMARK VINA RESULT:      -4.2      2.094      3.896
REMARK  2 active torsions:
REMARK  status: ('A' for Active; 'I' for Inactive)
REMARK    1  A    between atoms: C4_4  and  O10_10 
REMARK    2  A    between atoms: C5_5  and  C6_6 
ROOT
HETATM    1  C1  UNL     1     -33.934  13.521  -4.190  1.00 20.00     0.040 A 
HETATM    2  C2  UNL     1     -35.323  13.523  -4.242  1.00 20.00     0.034 A 
HETATM    3  C3  UNL     1     -34.015  15.743  -3.345  1.00 20.00     0.153 A 
HETATM    4  C4  UNL     1     -33.260  14.648  -3.735  1.00 20.00     0.083 A 
HETATM    5  C5  UNL     1     -35.987  14.668  -3.828  1.00 20.00     0.056 A 
HETATM    6  N9  UNL     1     -35.365  15.781  -3.379  1.00 20.00    -0.258 NA
ENDROOT
BRANCH   5   7
HETATM    7  C6  UNL     1     -37.439  14.719  -3.863  1.00 20.00     0.027 C 
HETATM    8  C7  UNL     1     -38.193  15.122  -4.911  1.00 20.00    -0.029 C 
HETATM    9  C8  UNL     1     -37.633  15.588  -6.216  1.00 20.00     0.036 C 
ENDBRANCH   5   7
BRANCH   4  10
HETATM   10  O10 UNL     1     -31.906  14.675  -3.675  1.00 20.00    -0.359 OA
HETATM   11  H19 UNL     1     -31.527  14.838  -4.555  1.00 20.00     0.217 HD
ENDBRANCH   4  10
TORSDOF 2
ENDMDL
MODEL 5
REMARK VINA RESULT:      -4.1     10.840     11.619
REMARK  2 active torsions:
REMARK  status: ('A' for Active; 'I' for Inactive)
REMARK    1  A    between atoms: C4_4  and  O10_10 
REMARK    2  A    between atoms: C5_5  and  C6_6 
ROOT
HETATM    1  C1  UNL     1     -34.686   5.123   3.681  1.00 20.00     0.040 A 
HETATM    2  C2  UNL     1     -33.761   5.721   2.833  1.00 20.00     0.034 A 
HETATM    3  C3  UNL     1     -33.712   6.310   5.497  1.00 20.00     0.153 A 
HETATM    4  C4  UNL     1     -34.667   5.416   5.040  1.00 20.00     0.083 A 
HETATM    5  C5  UNL     1     -32.846   6.601   3.389  1.00 20.00     0.056 A 
HETATM    6  N9  UNL     1     -32.798   6.912   4.704  1.00 20.00    -0.258 NA
ENDROOT
BRANCH   5   7
HETATM    7  C6  UNL     1     -31.859   7.253   2.544  1.00 20.00     0.027 C 
HETATM    8  C7  UNL     1     -31.995   8.462   1.954  1.00 20.00    -0.029 C 
HETATM    9  C8  UNL     1     -33.207   9.327   2.086  1.00 20.00     0.036 C 
ENDBRANCH   5   7
BRANCH   4  10
HETATM   10  O10 UNL     1     -35.557   4.848   5.890  1.00 20.00    -0.359 OA
HETATM   11  H19 UNL     1     -36.218   4.331   5.398  1.00 20.00     0.217 HD
ENDBRANCH   4  10
TORSDOF 2
ENDMDL
MODEL 6
REMARK VINA RESULT:      -4.1     11.749     12.460
REMARK  2 active torsions:
REMARK  status: ('A' for Active; 'I' for Inactive)
REMARK    1  A    between atoms: C4_4  and  O10_10 
REMARK    2  A    between atoms: C5_5  and  C6_6 
ROOT
HETATM    1  C1  UNL     1     -34.244   5.888   6.111  1.00 20.00     0.040 A 
HETATM    2  C2  UNL     1     -33.614   6.654   5.137  1.00 20.00     0.034 A 
HETATM    3  C3  UNL     1     -35.154   4.533   4.380  1.00 20.00     0.153 A 
HETATM    4  C4  UNL     1     -35.031   4.806   5.733  1.00 20.00     0.083 A 
HETATM    5  C5  UNL     1     -33.799   6.299   3.810  1.00 20.00     0.056 A 
HETATM    6  N9  UNL     1     -34.555   5.254   3.406  1.00 20.00    -0.258 NA
ENDROOT
BRANCH   5   7
HETATM    7  C6  UNL     1     -33.160   7.069   2.756  1.00 20.00     0.027 C 
HETATM    8  C7  UNL     1     -31.956   7.679   2.839  1.00 20.00    -0.029 C 
HETATM    9  C8  UNL     1     -31.084   7.651   4.053  1.00 20.00     0.036 C 
ENDBRANCH   5   7
BRANCH   4  10
HETATM   10  O10 UNL     1     -35.658   4.041   6.660  1.00 20.00    -0.359 OA
HETATM   11  H19 UNL     1     -36.450   3.623   6.281  1.00 20.00     0.217 HD
ENDBRANCH   4  10
TORSDOF 2
ENDMDL
MODEL 7
REMARK VINA RESULT:      -4.1      2.620      4.366
REMARK  2 active torsions:
REMARK  status: ('A' for Active; 'I' for Inactive)
REMARK    1  A    between atoms: C4_4  and  O10_10 
REMARK    2  A    between atoms: C5_5  and  C6_6 
ROOT
HETATM    1  C1  UNL     1     -33.950  17.218  -1.275  1.00 20.00     0.040 A 
HETATM    2  C2  UNL     1     -34.736  16.145  -1.680  1.00 20.00     0.034 A 
HETATM    3  C3  UNL     1     -34.073  18.076  -3.490  1.00 20.00     0.153 A 
HETATM    4  C4  UNL     1     -33.607  18.206  -2.191  1.00 20.00     0.083 A 
HETATM    5  C5  UNL     1     -35.151  16.107  -3.002  1.00 20.00     0.056 A 
HETATM    6  N9  UNL     1     -34.839  17.049  -3.920  1.00 20.00    -0.258 NA
ENDROOT
BRANCH   5   7
HETATM    7  C6  UNL     1     -35.975  15.006  -3.473  1.00 20.00     0.027 C 
HETATM    8  C7  UNL     1     -35.522  13.862  -4.034  1.00 20.00    -0.029 C 
HETATM    9  C8  UNL     1     -34.077  13.553  -4.258  1.00 20.00     0.036 C 
ENDBRANCH   5   7
BRANCH   4  10
HETATM   10  O10 UNL     1     -32.842  19.263  -1.824  1.00 20.00    -0.359 OA
HETATM   11  H19 UNL     1     -31.972  19.222  -2.257  1.00 20.00     0.217 HD
ENDBRANCH   4  10
TORSDOF 2
ENDMDL
MODEL 8
REMARK VINA RESULT:      -4.0     11.825     13.841
REMARK  2 active torsions:
REMARK  status: ('A' for Active; 'I' for Inactive)
REMARK    1  A    between atoms: C4_4  and  O10_10 
REMARK    2  A    between atoms: C5_5  and  C6_6 
ROOT
HETATM    1  C1  UNL     1     -40.946   5.552  -0.710  1.00 20.00     0.040 A 
HETATM    2  C2  UNL     1     -41.464   4.288  -0.970  1.00 20.00     0.034 A 
HETATM    3  C3  UNL     1     -42.223   6.391  -2.533  1.00 20.00     0.153 A 
HETATM    4  C4  UNL     1     -41.327   6.629  -1.503  1.00 20.00     0.083 A 
HETATM    5  C5  UNL     1     -42.354   4.155  -2.024  1.00 20.00     0.056 A 
HETATM    6  N9  UNL     1     -42.748   5.178  -2.815  1.00 20.00    -0.258 NA
ENDROOT
BRANCH   5   7
HETATM    7  C6  UNL     1     -42.923   2.854  -2.334  1.00 20.00     0.027 C 
HETATM    8  C7  UNL     1     -42.370   1.919  -3.140  1.00 20.00    -0.029 C 
HETATM    9  C8  UNL     1     -41.064   2.089  -3.847  1.00 20.00     0.036 C 
ENDBRANCH   5   7
BRANCH   4  10
HETATM   10  O10 UNL     1     -40.838   7.872  -1.274  1.00 20.00    -0.359 OA
HETATM   11  H19 UNL     1     -40.894   8.093  -0.329  1.00 20.00     0.217 HD
ENDBRANCH   4  10
TORSDOF 2
ENDMDL
MODEL 9
REMARK VINA RESULT:      -4.0      2.678      3.995
REMARK  2 active torsions:
REMARK  status: ('A' for Active; 'I' for Inactive)
REMARK    1  A    between atoms: C4_4  and  O10_10 
REMARK    2  A    between atoms: C5_5  and  C6_6 
ROOT
HETATM    1  C1  UNL     1     -33.650  15.914  -2.779  1.00 20.00     0.040 A 
HETATM    2  C2  UNL     1     -33.478  15.430  -4.071  1.00 20.00     0.034 A 
HETATM    3  C3  UNL     1     -35.993  15.588  -3.026  1.00 20.00     0.153 A 
HETATM    4  C4  UNL     1     -34.928  15.999  -2.240  1.00 20.00     0.083 A 
HETATM    5  C5  UNL     1     -34.607  15.044  -4.776  1.00 20.00     0.056 A 
HETATM    6  N9  UNL     1     -35.865  15.111  -4.284  1.00 20.00    -0.258 NA
ENDROOT
BRANCH   5   7
HETATM    7  C6  UNL     1     -34.478  14.531  -6.130  1.00 20.00     0.027 C 
HETATM    8  C7  UNL     1     -34.489  15.271  -7.262  1.00 20.00    -0.029 C 
HETATM    9  C8  UNL     1     -34.640  16.758  -7.290  1.00 20.00     0.036 C 
ENDBRANCH   5   7
BRANCH   4  10
HETATM   10  O10 UNL     1     -35.127  16.467  -0.984  1.00 20.00    -0.359 OA
HETATM   11  H19 UNL     1     -35.396  15.747  -0.389  1.00 20.00     0.217 HD
ENDBRANCH   4  10
TORSDOF 2
ENDMDL
