MODEL 1
REMARK VINA RESULT:      -4.7      0.000      0.000
REMARK  1 active torsions:
REMARK  status: ('A' for Active; 'I' for Inactive)
REMARK    1  A    between atoms: C1_1  and  C7_7 
ROOT
HETATM    1  C2  UNL     1     -33.944  16.639  -2.353  1.00 20.00     0.004 C 
HETATM    2  C3  UNL     1     -33.830  17.549  -3.570  1.00 20.00     0.037 C 
HETATM    3  C4  UNL     1     -34.751  15.377  -2.666  1.00 20.00     0.016 C 
HETATM    4  C5  UNL     1     -34.073  15.556  -5.099  1.00 20.00     0.053 C 
HETATM    5  C6  UNL     1     -33.266  16.808  -4.773  1.00 20.00     0.171 C 
HETATM    6  C7  UNL     1     -34.228  14.608  -3.896  1.00 20.00     0.012 C 
HETATM    7  C8  UNL     1     -32.912  13.883  -3.584  1.00 20.00     0.023 C 
HETATM    8  F10 UNL     1     -33.307  17.639  -5.850  1.00 20.00    -0.249 F 
ENDROOT
BRANCH   6   9
HETATM    9  C1  UNL     1     -35.236  13.546  -4.254  1.00 20.00     0.240 C 
HETATM   10  O9  UNL     1     -34.940  12.493  -4.810  1.00 20.00    -0.306 OA
ENDBRANCH   6   9
TORSDOF 1
ENDMDL
MODEL 2
REMARK VINA RESULT:      -4.5      1.954      2.696
REMARK  1 active torsions:
REMARK  status: ('A' for Active; 'I' for Inactive)
REMARK    1  A    between atoms: C1_1  and  C7_7 
ROOT
HETATM    1  C2  UNL     1     -33.675  17.265  -4.288  1.00 20.00     0.004 C 
HETATM    2  C3  UNL     1     -33.684  17.097  -2.773  1.00 20.00     0.037 C 
HETATM    3  C4  UNL     1     -33.706  15.915  -5.005  1.00 20.00     0.016 C 
HETATM    4  C5  UNL     1     -34.886  14.891  -3.013  1.00 20.00     0.053 C 
HETATM    5  C6  UNL     1     -34.857  16.244  -2.312  1.00 20.00     0.171 C 
HETATM    6  C7  UNL     1     -34.865  15.008  -4.548  1.00 20.00     0.012 C 
HETATM    7  C8  UNL     1     -36.212  15.506  -5.089  1.00 20.00     0.023 C 
HETATM    8  F10 UNL     1     -34.736  16.033  -0.972  1.00 20.00    -0.249 F 
ENDROOT
BRANCH   6   9
HETATM    9  C1  UNL     1     -34.647  13.633  -5.126  1.00 20.00     0.240 C 
HETATM   10  O9  UNL     1     -34.913  12.597  -4.525  1.00 20.00    -0.306 OA
ENDBRANCH   6   9
TORSDOF 1
ENDMDL
MODEL 3
REMARK VINA RESULT:      -4.4      1.696      2.066
REMARK  1 active torsions:
REMARK  status: ('A' for Active; 'I' for Inactive)
REMARK    1  A    between atoms: C1_1  and  C7_7 
ROOT
HETATM    1  C2  UNL     1     -33.191  15.587  -3.619  1.00 20.00     0.004 C 
HETATM    2  C3  UNL     1     -33.162  16.362  -4.930  1.00 20.00     0.037 C 
HETATM    3  C4  UNL     1     -34.616  15.437  -3.083  1.00 20.00     0.016 C 
HETATM    4  C5  UNL     1     -35.513  15.603  -5.445  1.00 20.00     0.053 C 
HETATM    5  C6  UNL     1     -34.088  15.743  -5.967  1.00 20.00     0.171 C 
HETATM    6  C7  UNL     1     -35.594  14.836  -4.113  1.00 20.00     0.012 C 
HETATM    7  C8  UNL     1     -35.341  13.336  -4.315  1.00 20.00     0.023 C 
HETATM    8  F10 UNL     1     -34.108  16.550  -7.064  1.00 20.00    -0.249 F 
ENDROOT
BRANCH   6   9
HETATM    9  C1  UNL     1     -36.994  14.972  -3.571  1.00 20.00     0.240 C 
HETATM   10  O9  UNL     1     -37.883  14.152  -3.780  1.00 20.00    -0.306 OA
ENDBRANCH   6   9
TORSDOF 1
ENDMDL
MODEL 4
REMARK VINA RESULT:      -4.4      1.767      2.540
REMARK  1 active torsions:
REMARK  status: ('A' for Active; 'I' for Inactive)
REMARK    1  A    between atoms: C1_1  and  C7_7 
ROOT
HETATM    1  C2  UNL     1     -33.534  13.622  -4.019  1.00 20.00     0.004 C 
HETATM    2  C3  UNL     1     -32.990  15.003  -3.675  1.00 20.00     0.037 C 
HETATM    3  C4  UNL     1     -35.064  13.610  -4.052  1.00 20.00     0.016 C 
HETATM    4  C5  UNL     1     -35.062  16.073  -4.640  1.00 20.00     0.053 C 
HETATM    5  C6  UNL     1     -33.537  16.070  -4.611  1.00 20.00     0.171 C 
HETATM    6  C7  UNL     1     -35.661  14.695  -4.971  1.00 20.00     0.012 C 
HETATM    7  C8  UNL     1     -35.466  14.342  -6.452  1.00 20.00     0.023 C 
HETATM    8  F10 UNL     1     -33.112  17.287  -4.174  1.00 20.00    -0.249 F 
ENDROOT
BRANCH   6   9
HETATM    9  C1  UNL     1     -37.148  14.753  -4.730  1.00 20.00     0.240 C 
HETATM   10  O9  UNL     1     -37.703  14.195  -3.789  1.00 20.00    -0.306 OA
ENDBRANCH   6   9
TORSDOF 1
ENDMDL
MODEL 5
REMARK VINA RESULT:      -4.3      2.604      3.767
REMARK  1 active torsions:
REMARK  status: ('A' for Active; 'I' for Inactive)
REMARK    1  A    between atoms: C1_1  and  C7_7 
ROOT
HETATM    1  C2  UNL     1     -33.816  13.698  -3.629  1.00 20.00     0.004 C 
HETATM    2  C3  UNL     1     -35.162  13.522  -4.320  1.00 20.00     0.037 C 
HETATM    3  C4  UNL     1     -33.295  15.130  -3.765  1.00 20.00     0.016 C 
HETATM    4  C5  UNL     1     -35.675  15.968  -3.971  1.00 20.00     0.053 C 
HETATM    5  C6  UNL     1     -36.182  14.537  -3.826  1.00 20.00     0.171 C 
HETATM    6  C7  UNL     1     -34.309  16.194  -3.299  1.00 20.00     0.012 C 
HETATM    7  C8  UNL     1     -34.434  16.214  -1.770  1.00 20.00     0.023 C 
HETATM    8  F10 UNL     1     -37.317  14.405  -4.567  1.00 20.00    -0.249 F 
ENDROOT
BRANCH   6   9
HETATM    9  C1  UNL     1     -33.795  17.550  -3.711  1.00 20.00     0.240 C 
HETATM   10  O9  UNL     1     -33.416  17.813  -4.848  1.00 20.00    -0.306 OA
ENDBRANCH   6   9
TORSDOF 1
ENDMDL
MODEL 6
REMARK VINA RESULT:      -4.3     12.068     13.374
REMARK  1 active torsions:
REMARK  status: ('A' for Active; 'I' for Inactive)
REMARK    1  A    between atoms: C1_1  and  C7_7 
ROOT
HETATM    1  C2  UNL     1     -42.647   6.781  -1.971  1.00 20.00     0.004 C 
HETATM    2  C3  UNL     1     -41.475   7.160  -1.074  1.00 20.00     0.037 C 
HETATM    3  C4  UNL     1     -42.376   5.481  -2.733  1.00 20.00     0.016 C 
HETATM    4  C5  UNL     1     -40.818   4.731  -0.883  1.00 20.00     0.053 C 
HETATM    5  C6  UNL     1     -41.102   6.026  -0.130  1.00 20.00     0.171 C 
HETATM    6  C7  UNL     1     -41.969   4.311  -1.816  1.00 20.00     0.012 C 
HETATM    7  C8  UNL     1     -43.169   3.782  -1.019  1.00 20.00     0.023 C 
HETATM    8  F10 UNL     1     -39.979   6.383   0.551  1.00 20.00    -0.249 F 
ENDROOT
BRANCH   6   9
HETATM    9  C1  UNL     1     -41.488   3.175  -2.682  1.00 20.00     0.240 C 
HETATM   10  O9  UNL     1     -42.179   2.204  -2.969  1.00 20.00    -0.306 OA
ENDBRANCH   6   9
TORSDOF 1
ENDMDL
MODEL 7
REMARK VINA RESULT:      -4.2      1.959      2.449
REMARK  1 active torsions:
REMARK  status: ('A' for Active; 'I' for Inactive)
REMARK    1  A    between atoms: C1_1  and  C7_7 
ROOT
HETATM    1  C2  UNL     1     -33.691  16.270  -2.530  1.00 20.00     0.004 C 
HETATM    2  C3  UNL     1     -35.123  16.558  -2.095  1.00 20.00     0.037 C 
HETATM    3  C4  UNL     1     -33.596  14.969  -3.329  1.00 20.00     0.016 C 
HETATM    4  C5  UNL     1     -36.000  15.256  -4.070  1.00 20.00     0.053 C 
HETATM    5  C6  UNL     1     -36.080  16.555  -3.277  1.00 20.00     0.171 C 
HETATM    6  C7  UNL     1     -34.569  14.914  -4.524  1.00 20.00     0.012 C 
HETATM    7  C8  UNL     1     -34.108  15.834  -5.662  1.00 20.00     0.023 C 
HETATM    8  F10 UNL     1     -37.349  16.695  -2.806  1.00 20.00    -0.249 F 
ENDROOT
BRANCH   6   9
HETATM    9  C1  UNL     1     -34.567  13.510  -5.072  1.00 20.00     0.240 C 
HETATM   10  O9  UNL     1     -35.037  12.549  -4.472  1.00 20.00    -0.306 OA
ENDBRANCH   6   9
TORSDOF 1
ENDMDL
MODEL 8
REMARK VINA RESULT:      -4.2     12.140     13.238
REMARK  1 active torsions:
REMARK  status: ('A' for Active; 'I' for Inactive)
REMARK    1  A    between atoms: C1_1  and  C7_7 
ROOT
HETATM    1  C2  UNL     1     -34.252   6.400   6.468  1.00 20.00     0.004 C 
HETATM    2  C3  UNL     1     -34.676   4.950   6.269  1.00 20.00     0.037 C 
HETATM    3  C4  UNL     1     -33.139   6.801   5.498  1.00 20.00     0.016 C 
HETATM    4  C5  UNL     1     -33.957   5.059   3.852  1.00 20.00     0.053 C 
HETATM    5  C6  UNL     1     -35.067   4.674   4.825  1.00 20.00     0.171 C 
HETATM    6  C7  UNL     1     -33.485   6.514   4.023  1.00 20.00     0.012 C 
HETATM    7  C8  UNL     1     -34.527   7.506   3.490  1.00 20.00     0.023 C 
HETATM    8  F10 UNL     1     -35.314   3.342   4.691  1.00 20.00    -0.249 F 
ENDROOT
BRANCH   6   9
HETATM    9  C1  UNL     1     -32.238   6.708   3.198  1.00 20.00     0.240 C 
HETATM   10  O9  UNL     1     -32.044   7.688   2.486  1.00 20.00    -0.306 OA
ENDBRANCH   6   9
TORSDOF 1
ENDMDL
MODEL 9
REMARK VINA RESULT:      -4.2     11.747     12.900
REMARK  1 active torsions:
REMARK  status: ('A' for Active; 'I' for Inactive)
REMARK    1  A    between atoms: C1_1  and  C7_7 
ROOT
HETATM    1  C2  UNL     1     -34.943   4.507   4.102  1.00 20.00     0.004 C 
HETATM    2  C3  UNL     1     -35.167   5.148   5.466  1.00 20.00     0.037 C 
HETATM    3  C4  UNL     1     -34.504   5.539   3.061  1.00 20.00     0.016 C 
HETATM    4  C5  UNL     1     -33.509   6.964   4.902  1.00 20.00     0.053 C 
HETATM    5  C6  UNL     1     -33.944   5.925   5.929  1.00 20.00     0.171 C 
HETATM    6  C7  UNL     1     -33.281   6.367   3.501  1.00 20.00     0.012 C 
HETATM    7  C8  UNL     1     -31.994   5.534   3.451  1.00 20.00     0.023 C 
HETATM    8  F10 UNL     1     -34.254   6.568   7.088  1.00 20.00    -0.249 F 
ENDROOT
BRANCH   6   9
HETATM    9  C1  UNL     1     -33.101   7.502   2.525  1.00 20.00     0.240 C 
HETATM   10  O9  UNL     1     -32.006   7.952   2.205  1.00 20.00    -0.306 OA
ENDBRANCH   6   9
TORSDOF 1
ENDMDL
