MODEL 1
REMARK VINA RESULT:      -5.0      0.000      0.000
REMARK  0 active torsions:
REMARK  status: ('A' for Active; 'I' for Inactive)
ROOT
HETATM    1  C1  UNL     1     -33.902   5.244   3.789  1.00 20.00     0.251 C 
HETATM    2  C2  UNL     1     -33.656   6.518   4.570  1.00 20.00     0.251 C 
HETATM    3  C3  UNL     1     -35.188   4.659   4.334  1.00 20.00     0.271 C 
HETATM    4  C4  UNL     1     -33.743   6.140   6.035  1.00 20.00     0.271 C 
HETATM    5  F5  UNL     1     -34.047   5.529   2.471  1.00 20.00    -0.242 F 
HETATM    6  F6  UNL     1     -32.409   6.984   4.298  1.00 20.00    -0.242 F 
HETATM    7  F7  UNL     1     -36.237   5.401   3.889  1.00 20.00    -0.235 F 
HETATM    8  F8  UNL     1     -34.064   7.233   6.771  1.00 20.00    -0.235 F 
HETATM    9  S9  UNL     1     -35.041   4.880   6.130  1.00 20.00    -0.089 SA
ENDROOT
TORSDOF 0
ENDMDL
MODEL 2
REMARK VINA RESULT:      -4.7      1.349      2.928
REMARK  0 active torsions:
REMARK  status: ('A' for Active; 'I' for Inactive)
ROOT
HETATM    1  C1  UNL     1     -34.008   6.529   5.688  1.00 20.00     0.251 C 
HETATM    2  C2  UNL     1     -33.318   6.197   4.381  1.00 20.00     0.251 C 
HETATM    3  C3  UNL     1     -34.761   5.279   6.093  1.00 20.00     0.271 C 
HETATM    4  C4  UNL     1     -34.389   5.640   3.465  1.00 20.00     0.271 C 
HETATM    5  F5  UNL     1     -33.087   6.839   6.633  1.00 20.00    -0.242 F 
HETATM    6  F6  UNL     1     -32.805   7.332   3.837  1.00 20.00    -0.242 F 
HETATM    7  F7  UNL     1     -33.873   4.350   6.538  1.00 20.00    -0.235 F 
HETATM    8  F8  UNL     1     -33.819   4.850   2.522  1.00 20.00    -0.235 F 
HETATM    9  S9  UNL     1     -35.493   4.687   4.540  1.00 20.00    -0.089 SA
ENDROOT
TORSDOF 0
ENDMDL
MODEL 3
REMARK VINA RESULT:      -4.6      1.565      2.668
REMARK  0 active torsions:
REMARK  status: ('A' for Active; 'I' for Inactive)
ROOT
HETATM    1  C1  UNL     1     -34.637   5.595   3.732  1.00 20.00     0.251 C 
HETATM    2  C2  UNL     1     -34.497   4.493   4.761  1.00 20.00     0.251 C 
HETATM    3  C3  UNL     1     -33.613   6.647   4.103  1.00 20.00     0.271 C 
HETATM    4  C4  UNL     1     -34.574   5.166   6.117  1.00 20.00     0.271 C 
HETATM    5  F5  UNL     1     -34.372   5.110   2.494  1.00 20.00    -0.242 F 
HETATM    6  F6  UNL     1     -35.528   3.618   4.633  1.00 20.00    -0.242 F 
HETATM    7  F7  UNL     1     -32.372   6.194   3.778  1.00 20.00    -0.235 F 
HETATM    8  F8  UNL     1     -33.951   4.399   7.044  1.00 20.00    -0.235 F 
HETATM    9  S9  UNL     1     -33.736   6.759   5.911  1.00 20.00    -0.089 SA
ENDROOT
TORSDOF 0
ENDMDL
MODEL 4
REMARK VINA RESULT:      -4.5      1.726      2.732
REMARK  0 active torsions:
REMARK  status: ('A' for Active; 'I' for Inactive)
ROOT
HETATM    1  C1  UNL     1     -34.940   5.679   5.722  1.00 20.00     0.251 C 
HETATM    2  C2  UNL     1     -33.481   6.021   5.500  1.00 20.00     0.251 C 
HETATM    3  C3  UNL     1     -35.316   4.714   4.617  1.00 20.00     0.271 C 
HETATM    4  C4  UNL     1     -33.363   6.458   4.053  1.00 20.00     0.271 C 
HETATM    5  F5  UNL     1     -35.098   5.083   6.929  1.00 20.00    -0.242 F 
HETATM    6  F6  UNL     1     -33.127   7.051   6.312  1.00 20.00    -0.242 F 
HETATM    7  F7  UNL     1     -34.760   3.501   4.878  1.00 20.00    -0.235 F 
HETATM    8  F8  UNL     1     -32.091   6.272   3.623  1.00 20.00    -0.235 F 
HETATM    9  S9  UNL     1     -34.525   5.411   3.139  1.00 20.00    -0.089 SA
ENDROOT
TORSDOF 0
ENDMDL
MODEL 5
REMARK VINA RESULT:      -4.4      1.735      3.530
REMARK  0 active torsions:
REMARK  status: ('A' for Active; 'I' for Inactive)
ROOT
HETATM    1  C1  UNL     1     -33.844   4.859   5.811  1.00 20.00     0.251 C 
HETATM    2  C2  UNL     1     -35.129   4.710   5.023  1.00 20.00     0.251 C 
HETATM    3  C3  UNL     1     -33.482   6.328   5.745  1.00 20.00     0.271 C 
HETATM    4  C4  UNL     1     -34.878   5.358   3.676  1.00 20.00     0.271 C 
HETATM    5  F5  UNL     1     -34.046   4.491   7.100  1.00 20.00    -0.242 F 
HETATM    6  F6  UNL     1     -35.401   3.390   4.844  1.00 20.00    -0.242 F 
HETATM    7  F7  UNL     1     -34.322   7.030   6.552  1.00 20.00    -0.235 F 
HETATM    8  F8  UNL     1     -36.057   5.744   3.128  1.00 20.00    -0.235 F 
HETATM    9  S9  UNL     1     -33.815   6.784   4.020  1.00 20.00    -0.089 SA
ENDROOT
TORSDOF 0
ENDMDL
MODEL 6
REMARK VINA RESULT:      -4.1     12.600     13.408
REMARK  0 active torsions:
REMARK  status: ('A' for Active; 'I' for Inactive)
ROOT
HETATM    1  C1  UNL     1     -34.049  15.371  -3.545  1.00 20.00     0.251 C 
HETATM    2  C2  UNL     1     -33.612  15.827  -4.921  1.00 20.00     0.251 C 
HETATM    3  C3  UNL     1     -34.062  13.857  -3.590  1.00 20.00     0.271 C 
HETATM    4  C4  UNL     1     -34.515  15.116  -5.910  1.00 20.00     0.271 C 
HETATM    5  F5  UNL     1     -33.162  15.796  -2.612  1.00 20.00    -0.242 F 
HETATM    6  F6  UNL     1     -33.790  17.169  -5.033  1.00 20.00    -0.242 F 
HETATM    7  F7  UNL     1     -32.781  13.401  -3.581  1.00 20.00    -0.235 F 
HETATM    8  F8  UNL     1     -33.897  15.031  -7.113  1.00 20.00    -0.235 F 
HETATM    9  S9  UNL     1     -34.805  13.474  -5.202  1.00 20.00    -0.089 SA
ENDROOT
TORSDOF 0
ENDMDL
MODEL 7
REMARK VINA RESULT:      -4.1     12.657     13.389
REMARK  0 active torsions:
REMARK  status: ('A' for Active; 'I' for Inactive)
ROOT
HETATM    1  C1  UNL     1     -35.339  14.756  -5.506  1.00 20.00     0.251 C 
HETATM    2  C2  UNL     1     -34.470  13.705  -4.849  1.00 20.00     0.251 C 
HETATM    3  C3  UNL     1     -34.400  15.858  -5.949  1.00 20.00     0.271 C 
HETATM    4  C4  UNL     1     -33.631  14.432  -3.817  1.00 20.00     0.271 C 
HETATM    5  F5  UNL     1     -35.971  14.228  -6.583  1.00 20.00    -0.242 F 
HETATM    6  F6  UNL     1     -35.257  12.789  -4.226  1.00 20.00    -0.242 F 
HETATM    7  F7  UNL     1     -33.700  15.436  -7.036  1.00 20.00    -0.235 F 
HETATM    8  F8  UNL     1     -32.500  13.727  -3.568  1.00 20.00    -0.235 F 
HETATM    9  S9  UNL     1     -33.253  16.043  -4.554  1.00 20.00    -0.089 SA
ENDROOT
TORSDOF 0
ENDMDL
MODEL 8
REMARK VINA RESULT:      -4.1      8.531      9.792
REMARK  0 active torsions:
REMARK  status: ('A' for Active; 'I' for Inactive)
ROOT
HETATM    1  C1  UNL     1     -41.310   6.041  -0.182  1.00 20.00     0.251 C 
HETATM    2  C2  UNL     1     -41.233   7.009  -1.343  1.00 20.00     0.251 C 
HETATM    3  C3  UNL     1     -41.394   4.658  -0.795  1.00 20.00     0.271 C 
HETATM    4  C4  UNL     1     -42.391   6.668  -2.259  1.00 20.00     0.271 C 
HETATM    5  F5  UNL     1     -40.193   6.140   0.580  1.00 20.00    -0.242 F 
HETATM    6  F6  UNL     1     -41.381   8.280  -0.885  1.00 20.00    -0.242 F 
HETATM    7  F7  UNL     1     -40.175   4.317  -1.291  1.00 20.00    -0.235 F 
HETATM    8  F8  UNL     1     -42.115   7.083  -3.520  1.00 20.00    -0.235 F 
HETATM    9  S9  UNL     1     -42.549   4.864  -2.181  1.00 20.00    -0.089 SA
ENDROOT
TORSDOF 0
ENDMDL
MODEL 9
REMARK VINA RESULT:      -4.1     11.926     12.484
REMARK  0 active torsions:
REMARK  status: ('A' for Active; 'I' for Inactive)
ROOT
HETATM    1  C1  UNL     1     -34.152  13.721  -3.794  1.00 20.00     0.251 C 
HETATM    2  C2  UNL     1     -33.233  14.924  -3.848  1.00 20.00     0.251 C 
HETATM    3  C3  UNL     1     -35.554  14.256  -3.999  1.00 20.00     0.271 C 
HETATM    4  C4  UNL     1     -33.798  15.934  -2.869  1.00 20.00     0.271 C 
HETATM    5  F5  UNL     1     -33.840  12.854  -4.788  1.00 20.00    -0.242 F 
HETATM    6  F6  UNL     1     -31.986  14.560  -3.451  1.00 20.00    -0.242 F 
HETATM    7  F7  UNL     1     -35.712  14.601  -5.305  1.00 20.00    -0.235 F 
HETATM    8  F8  UNL     1     -33.397  17.181  -3.216  1.00 20.00    -0.235 F 
HETATM    9  S9  UNL     1     -35.598  15.765  -2.990  1.00 20.00    -0.089 SA
ENDROOT
TORSDOF 0
ENDMDL
