MODEL 1
REMARK VINA RESULT:      -5.7      0.000      0.000
REMARK  4 active torsions:
REMARK  status: ('A' for Active; 'I' for Inactive)
REMARK    1  A    between atoms: C2_2  and  C5_5 
REMARK    2  A    between atoms: C4_4  and  C8_8 
REMARK    3  A    between atoms: C7_7  and  C9_9 
REMARK    4  A    between atoms: C8_8  and  C9_9 
ROOT
HETATM    1  C1  UNL     1     -33.776   6.931   6.757  1.00 20.00     0.012 C 
HETATM    2  C3  UNL     1     -34.398   5.935   6.506  1.00 20.00    -0.117 C 
HETATM    3  C7  UNL     1     -35.160   4.716   6.203  1.00 20.00     0.094 C 
ENDROOT
BRANCH   3   4
HETATM    4  C9  UNL     1     -34.802   4.174   4.816  1.00 20.00     0.024 C 
BRANCH   4   5
HETATM    5  C8  UNL     1     -35.115   5.163   3.691  1.00 20.00     0.095 C 
BRANCH   5   6
HETATM    6  C4  UNL     1     -33.979   6.045   3.394  1.00 20.00    -0.098 C 
HETATM    7  C2  UNL     1     -33.049   6.767   3.153  1.00 20.00    -0.029 C 
BRANCH   7   8
HETATM    8  C5  UNL     1     -31.934   7.637   2.868  1.00 20.00     0.198 C 
HETATM    9  C6  UNL     1     -31.952   8.323   1.534  1.00 20.00     0.106 C 
HETATM   10  O10 UNL     1     -31.045   7.781   3.697  1.00 20.00    -0.284 OA
ENDBRANCH   7   8
ENDBRANCH   5   6
ENDBRANCH   4   5
ENDBRANCH   3   4
TORSDOF 4
ENDMDL
MODEL 2
REMARK VINA RESULT:      -5.2      1.392      1.767
REMARK  4 active torsions:
REMARK  status: ('A' for Active; 'I' for Inactive)
REMARK    1  A    between atoms: C2_2  and  C5_5 
REMARK    2  A    between atoms: C4_4  and  C8_8 
REMARK    3  A    between atoms: C7_7  and  C9_9 
REMARK    4  A    between atoms: C8_8  and  C9_9 
ROOT
HETATM    1  C1  UNL     1     -33.486   7.270   6.937  1.00 20.00     0.012 C 
HETATM    2  C3  UNL     1     -34.081   6.428   6.321  1.00 20.00    -0.117 C 
HETATM    3  C7  UNL     1     -34.810   5.395   5.573  1.00 20.00     0.094 C 
ENDROOT
BRANCH   3   4
HETATM    4  C9  UNL     1     -34.477   5.461   4.079  1.00 20.00     0.024 C 
BRANCH   4   5
HETATM    5  C8  UNL     1     -32.974   5.549   3.807  1.00 20.00     0.095 C 
BRANCH   5   6
HETATM    6  C4  UNL     1     -32.628   6.696   2.958  1.00 20.00    -0.098 C 
HETATM    7  C2  UNL     1     -32.347   7.634   2.262  1.00 20.00    -0.029 C 
BRANCH   7   8
HETATM    8  C5  UNL     1     -32.014   8.761   1.423  1.00 20.00     0.198 C 
HETATM    9  C6  UNL     1     -32.634  10.074   1.800  1.00 20.00     0.106 C 
HETATM   10  O10 UNL     1     -31.263   8.609   0.469  1.00 20.00    -0.284 OA
ENDBRANCH   7   8
ENDBRANCH   5   6
ENDBRANCH   4   5
ENDBRANCH   3   4
TORSDOF 4
ENDMDL
MODEL 3
REMARK VINA RESULT:      -5.0      1.406      2.363
REMARK  4 active torsions:
REMARK  status: ('A' for Active; 'I' for Inactive)
REMARK    1  A    between atoms: C2_2  and  C5_5 
REMARK    2  A    between atoms: C4_4  and  C8_8 
REMARK    3  A    between atoms: C7_7  and  C9_9 
REMARK    4  A    between atoms: C8_8  and  C9_9 
ROOT
HETATM    1  C1  UNL     1     -35.213   3.797   5.286  1.00 20.00     0.012 C 
HETATM    2  C3  UNL     1     -34.837   4.809   5.811  1.00 20.00    -0.117 C 
HETATM    3  C7  UNL     1     -34.381   6.048   6.458  1.00 20.00     0.094 C 
ENDROOT
BRANCH   3   4
HETATM    4  C9  UNL     1     -33.330   6.761   5.600  1.00 20.00     0.024 C 
BRANCH   4   5
HETATM    5  C8  UNL     1     -33.078   6.059   4.263  1.00 20.00     0.095 C 
BRANCH   5   6
HETATM    6  C4  UNL     1     -32.666   6.999   3.212  1.00 20.00    -0.098 C 
HETATM    7  C2  UNL     1     -32.330   7.768   2.353  1.00 20.00    -0.029 C 
BRANCH   7   8
HETATM    8  C5  UNL     1     -31.929   8.698   1.324  1.00 20.00     0.198 C 
HETATM    9  C6  UNL     1     -32.502  10.080   1.418  1.00 20.00     0.106 C 
HETATM   10  O10 UNL     1     -31.160   8.336   0.442  1.00 20.00    -0.284 OA
ENDBRANCH   7   8
ENDBRANCH   5   6
ENDBRANCH   4   5
ENDBRANCH   3   4
TORSDOF 4
ENDMDL
MODEL 4
REMARK VINA RESULT:      -4.8     11.649     12.286
REMARK  4 active torsions:
REMARK  status: ('A' for Active; 'I' for Inactive)
REMARK    1  A    between atoms: C2_2  and  C5_5 
REMARK    2  A    between atoms: C4_4  and  C8_8 
REMARK    3  A    between atoms: C7_7  and  C9_9 
REMARK    4  A    between atoms: C8_8  and  C9_9 
ROOT
HETATM    1  C1  UNL     1     -32.099  18.873   0.341  1.00 20.00     0.012 C 
HETATM    2  C3  UNL     1     -33.221  18.471   0.191  1.00 20.00    -0.117 C 
HETATM    3  C7  UNL     1     -34.595  17.983   0.011  1.00 20.00     0.094 C 
ENDROOT
BRANCH   3   4
HETATM    4  C9  UNL     1     -34.610  16.646  -0.737  1.00 20.00     0.024 C 
BRANCH   4   5
HETATM    5  C8  UNL     1     -33.757  16.665  -2.007  1.00 20.00     0.095 C 
BRANCH   5   6
HETATM    6  C4  UNL     1     -34.166  15.630  -2.967  1.00 20.00    -0.098 C 
HETATM    7  C2  UNL     1     -34.498  14.784  -3.752  1.00 20.00    -0.029 C 
BRANCH   7   8
HETATM    8  C5  UNL     1     -34.893  13.767  -4.697  1.00 20.00     0.198 C 
HETATM    9  C6  UNL     1     -35.110  14.222  -6.109  1.00 20.00     0.106 C 
HETATM   10  O10 UNL     1     -35.029  12.609  -4.324  1.00 20.00    -0.284 OA
ENDBRANCH   7   8
ENDBRANCH   5   6
ENDBRANCH   4   5
ENDBRANCH   3   4
TORSDOF 4
ENDMDL
MODEL 5
REMARK VINA RESULT:      -4.8      1.945      5.375
REMARK  4 active torsions:
REMARK  status: ('A' for Active; 'I' for Inactive)
REMARK    1  A    between atoms: C2_2  and  C5_5 
REMARK    2  A    between atoms: C4_4  and  C8_8 
REMARK    3  A    between atoms: C7_7  and  C9_9 
REMARK    4  A    between atoms: C8_8  and  C9_9 
ROOT
HETATM    1  C1  UNL     1     -32.582   8.691  -0.632  1.00 20.00     0.012 C 
HETATM    2  C3  UNL     1     -32.517   8.976   0.533  1.00 20.00    -0.117 C 
HETATM    3  C7  UNL     1     -32.439   9.331   1.957  1.00 20.00     0.094 C 
ENDROOT
BRANCH   3   4
HETATM    4  C9  UNL     1     -31.769   8.215   2.765  1.00 20.00     0.024 C 
BRANCH   4   5
HETATM    5  C8  UNL     1     -32.389   6.839   2.509  1.00 20.00     0.095 C 
BRANCH   5   6
HETATM    6  C4  UNL     1     -33.127   6.336   3.675  1.00 20.00    -0.098 C 
HETATM    7  C2  UNL     1     -33.730   5.924   4.628  1.00 20.00    -0.029 C 
BRANCH   7   8
HETATM    8  C5  UNL     1     -34.460   5.426   5.770  1.00 20.00     0.198 C 
HETATM    9  C6  UNL     1     -35.060   4.058   5.628  1.00 20.00     0.106 C 
HETATM   10  O10 UNL     1     -34.558   6.113   6.778  1.00 20.00    -0.284 OA
ENDBRANCH   7   8
ENDBRANCH   5   6
ENDBRANCH   4   5
ENDBRANCH   3   4
TORSDOF 4
ENDMDL
MODEL 6
REMARK VINA RESULT:      -4.6     11.603     12.122
REMARK  4 active torsions:
REMARK  status: ('A' for Active; 'I' for Inactive)
REMARK    1  A    between atoms: C2_2  and  C5_5 
REMARK    2  A    between atoms: C4_4  and  C8_8 
REMARK    3  A    between atoms: C7_7  and  C9_9 
REMARK    4  A    between atoms: C8_8  and  C9_9 
ROOT
HETATM    1  C1  UNL     1     -35.246  17.762   1.488  1.00 20.00     0.012 C 
HETATM    2  C3  UNL     1     -34.380  17.901   0.668  1.00 20.00    -0.117 C 
HETATM    3  C7  UNL     1     -33.318  18.076  -0.333  1.00 20.00     0.094 C 
ENDROOT
BRANCH   3   4
HETATM    4  C9  UNL     1     -33.708  17.432  -1.667  1.00 20.00     0.024 C 
BRANCH   4   5
HETATM    5  C8  UNL     1     -34.689  16.269  -1.502  1.00 20.00     0.095 C 
BRANCH   5   6
HETATM    6  C4  UNL     1     -34.706  15.386  -2.676  1.00 20.00    -0.098 C 
HETATM    7  C2  UNL     1     -34.722  14.664  -3.635  1.00 20.00    -0.029 C 
BRANCH   7   8
HETATM    8  C5  UNL     1     -34.746  13.795  -4.788  1.00 20.00     0.198 C 
HETATM    9  C6  UNL     1     -34.631  14.463  -6.125  1.00 20.00     0.106 C 
HETATM   10  O10 UNL     1     -34.854  12.585  -4.636  1.00 20.00    -0.284 OA
ENDBRANCH   7   8
ENDBRANCH   5   6
ENDBRANCH   4   5
ENDBRANCH   3   4
TORSDOF 4
ENDMDL
MODEL 7
REMARK VINA RESULT:      -4.6     11.045     11.832
REMARK  4 active torsions:
REMARK  status: ('A' for Active; 'I' for Inactive)
REMARK    1  A    between atoms: C2_2  and  C5_5 
REMARK    2  A    between atoms: C4_4  and  C8_8 
REMARK    3  A    between atoms: C7_7  and  C9_9 
REMARK    4  A    between atoms: C8_8  and  C9_9 
ROOT
HETATM    1  C1  UNL     1     -35.262  17.784   2.350  1.00 20.00     0.012 C 
HETATM    2  C3  UNL     1     -35.148  17.476   1.195  1.00 20.00    -0.117 C 
HETATM    3  C7  UNL     1     -35.013  17.094  -0.218  1.00 20.00     0.094 C 
ENDROOT
BRANCH   3   4
HETATM    4  C9  UNL     1     -33.721  17.659  -0.819  1.00 20.00     0.024 C 
BRANCH   4   5
HETATM    5  C8  UNL     1     -33.704  17.608  -2.348  1.00 20.00     0.095 C 
BRANCH   5   6
HETATM    6  C4  UNL     1     -33.758  16.232  -2.860  1.00 20.00    -0.098 C 
HETATM    7  C2  UNL     1     -33.804  15.108  -3.279  1.00 20.00    -0.029 C 
BRANCH   7   8
HETATM    8  C5  UNL     1     -33.864  13.756  -3.783  1.00 20.00     0.198 C 
HETATM    9  C6  UNL     1     -35.165  13.336  -4.400  1.00 20.00     0.106 C 
HETATM   10  O10 UNL     1     -32.884  13.028  -3.694  1.00 20.00    -0.284 OA
ENDBRANCH   7   8
ENDBRANCH   5   6
ENDBRANCH   4   5
ENDBRANCH   3   4
TORSDOF 4
ENDMDL
MODEL 8
REMARK VINA RESULT:      -4.5     11.652     12.605
REMARK  4 active torsions:
REMARK  status: ('A' for Active; 'I' for Inactive)
REMARK    1  A    between atoms: C2_2  and  C5_5 
REMARK    2  A    between atoms: C4_4  and  C8_8 
REMARK    3  A    between atoms: C7_7  and  C9_9 
REMARK    4  A    between atoms: C8_8  and  C9_9 
ROOT
HETATM    1  C1  UNL     1     -31.642  18.861   2.555  1.00 20.00     0.012 C 
HETATM    2  C3  UNL     1     -31.989  18.844   1.406  1.00 20.00    -0.117 C 
HETATM    3  C7  UNL     1     -32.409  18.823  -0.003  1.00 20.00     0.094 C 
ENDROOT
BRANCH   3   4
HETATM    4  C9  UNL     1     -33.936  18.792  -0.121  1.00 20.00     0.024 C 
BRANCH   4   5
HETATM    5  C8  UNL     1     -34.494  17.372  -0.247  1.00 20.00     0.095 C 
BRANCH   5   6
HETATM    6  C4  UNL     1     -34.082  16.722  -1.498  1.00 20.00    -0.098 C 
HETATM    7  C2  UNL     1     -33.745  16.192  -2.522  1.00 20.00    -0.029 C 
BRANCH   7   8
HETATM    8  C5  UNL     1     -33.340  15.560  -3.755  1.00 20.00     0.198 C 
HETATM    9  C6  UNL     1     -33.597  14.086  -3.861  1.00 20.00     0.106 C 
HETATM   10  O10 UNL     1     -32.821  16.228  -4.640  1.00 20.00    -0.284 OA
ENDBRANCH   7   8
ENDBRANCH   5   6
ENDBRANCH   4   5
ENDBRANCH   3   4
TORSDOF 4
ENDMDL
MODEL 9
REMARK VINA RESULT:      -4.4     11.472     12.685
REMARK  4 active torsions:
REMARK  status: ('A' for Active; 'I' for Inactive)
REMARK    1  A    between atoms: C2_2  and  C5_5 
REMARK    2  A    between atoms: C4_4  and  C8_8 
REMARK    3  A    between atoms: C7_7  and  C9_9 
REMARK    4  A    between atoms: C8_8  and  C9_9 
ROOT
HETATM    1  C1  UNL     1     -34.784  13.310  -4.193  1.00 20.00     0.012 C 
HETATM    2  C3  UNL     1     -34.140  14.266  -3.855  1.00 20.00    -0.117 C 
HETATM    3  C7  UNL     1     -33.348  15.433  -3.441  1.00 20.00     0.094 C 
ENDROOT
BRANCH   3   4
HETATM    4  C9  UNL     1     -34.246  16.648  -3.195  1.00 20.00     0.024 C 
BRANCH   4   5
HETATM    5  C8  UNL     1     -34.759  16.727  -1.754  1.00 20.00     0.095 C 
BRANCH   5   6
HETATM    6  C4  UNL     1     -33.844  17.474  -0.880  1.00 20.00    -0.098 C 
HETATM    7  C2  UNL     1     -33.098  18.084  -0.163  1.00 20.00    -0.029 C 
BRANCH   7   8
HETATM    8  C5  UNL     1     -32.206  18.819   0.701  1.00 20.00     0.198 C 
HETATM    9  C6  UNL     1     -32.654  18.994   2.122  1.00 20.00     0.106 C 
HETATM   10  O10 UNL     1     -31.152  19.256   0.259  1.00 20.00    -0.284 OA
ENDBRANCH   7   8
ENDBRANCH   5   6
ENDBRANCH   4   5
ENDBRANCH   3   4
TORSDOF 4
ENDMDL
