MODEL 1
REMARK VINA RESULT:      -4.3      0.000      0.000
REMARK  2 active torsions:
REMARK  status: ('A' for Active; 'I' for Inactive)
REMARK    1  A    between atoms: C7_7  and  O10_10 
REMARK    2  A    between atoms: C9_9  and  O10_10 
ROOT
HETATM    1  C1  UNL     1     -33.661  17.071  -5.663  1.00 20.00     0.015 C 
HETATM    2  C2  UNL     1     -33.838  16.368  -4.706  1.00 20.00    -0.079 C 
HETATM    3  C3  UNL     1     -35.650  13.877  -4.350  1.00 20.00     0.004 C 
HETATM    4  C4  UNL     1     -34.243  13.302  -4.517  1.00 20.00     0.004 C 
HETATM    5  C5  UNL     1     -35.512  15.066  -3.402  1.00 20.00     0.051 C 
HETATM    6  C6  UNL     1     -33.323  14.173  -3.663  1.00 20.00     0.051 C 
HETATM    7  C7  UNL     1     -34.055  15.507  -3.533  1.00 20.00     0.122 C 
ENDROOT
BRANCH   7   8
HETATM    8  O10 UNL     1     -33.625  16.181  -2.360  1.00 20.00    -0.368 OA
BRANCH   8   9
HETATM    9  C9  UNL     1     -34.690  16.351  -1.433  1.00 20.00     0.165 C 
HETATM   10  C8  UNL     1     -34.256  17.323  -0.357  1.00 20.00     0.033 C 
ENDBRANCH   8   9
ENDBRANCH   7   8
TORSDOF 2
ENDMDL
MODEL 2
REMARK VINA RESULT:      -4.3      1.082      3.248
REMARK  2 active torsions:
REMARK  status: ('A' for Active; 'I' for Inactive)
REMARK    1  A    between atoms: C7_7  and  O10_10 
REMARK    2  A    between atoms: C9_9  and  O10_10 
ROOT
HETATM    1  C1  UNL     1     -34.635  16.546  -0.912  1.00 20.00     0.015 C 
HETATM    2  C2  UNL     1     -34.362  16.373  -2.069  1.00 20.00    -0.079 C 
HETATM    3  C3  UNL     1     -33.925  13.749  -3.661  1.00 20.00     0.004 C 
HETATM    4  C4  UNL     1     -35.331  14.203  -4.056  1.00 20.00     0.004 C 
HETATM    5  C5  UNL     1     -33.053  15.003  -3.683  1.00 20.00     0.051 C 
HETATM    6  C6  UNL     1     -35.240  15.709  -4.295  1.00 20.00     0.051 C 
HETATM    7  C7  UNL     1     -34.028  16.163  -3.486  1.00 20.00     0.122 C 
ENDROOT
BRANCH   7   8
HETATM    8  O10 UNL     1     -33.501  17.361  -4.036  1.00 20.00    -0.368 OA
BRANCH   8   9
HETATM    9  C9  UNL     1     -33.651  17.400  -5.449  1.00 20.00     0.165 C 
HETATM   10  C8  UNL     1     -33.729  18.844  -5.897  1.00 20.00     0.033 C 
ENDBRANCH   8   9
ENDBRANCH   7   8
TORSDOF 2
ENDMDL
MODEL 3
REMARK VINA RESULT:      -4.2      1.592      3.478
REMARK  2 active torsions:
REMARK  status: ('A' for Active; 'I' for Inactive)
REMARK    1  A    between atoms: C7_7  and  O10_10 
REMARK    2  A    between atoms: C9_9  and  O10_10 
ROOT
HETATM    1  C1  UNL     1     -34.444  16.820  -0.650  1.00 20.00     0.015 C 
HETATM    2  C2  UNL     1     -34.771  16.328  -1.696  1.00 20.00    -0.079 C 
HETATM    3  C3  UNL     1     -33.257  16.157  -4.396  1.00 20.00     0.004 C 
HETATM    4  C4  UNL     1     -33.100  14.763  -3.785  1.00 20.00     0.004 C 
HETATM    5  C5  UNL     1     -34.714  16.556  -4.174  1.00 20.00     0.051 C 
HETATM    6  C6  UNL     1     -34.471  14.391  -3.222  1.00 20.00     0.051 C 
HETATM    7  C7  UNL     1     -35.172  15.724  -2.977  1.00 20.00     0.122 C 
ENDROOT
BRANCH   7   8
HETATM    8  O10 UNL     1     -36.579  15.541  -2.999  1.00 20.00    -0.368 OA
BRANCH   8   9
HETATM    9  C9  UNL     1     -36.974  14.637  -4.022  1.00 20.00     0.165 C 
HETATM   10  C8  UNL     1     -38.481  14.684  -4.167  1.00 20.00     0.033 C 
ENDBRANCH   8   9
ENDBRANCH   7   8
TORSDOF 2
ENDMDL
MODEL 4
REMARK VINA RESULT:      -4.2      2.325      3.580
REMARK  2 active torsions:
REMARK  status: ('A' for Active; 'I' for Inactive)
REMARK    1  A    between atoms: C7_7  and  O10_10 
REMARK    2  A    between atoms: C9_9  and  O10_10 
ROOT
HETATM    1  C1  UNL     1     -35.873  15.727  -6.535  1.00 20.00     0.015 C 
HETATM    2  C2  UNL     1     -35.885  15.157  -5.478  1.00 20.00    -0.079 C 
HETATM    3  C3  UNL     1     -33.555  13.989  -3.799  1.00 20.00     0.004 C 
HETATM    4  C4  UNL     1     -33.906  15.303  -3.098  1.00 20.00     0.004 C 
HETATM    5  C5  UNL     1     -34.886  13.318  -4.132  1.00 20.00     0.051 C 
HETATM    6  C6  UNL     1     -35.432  15.361  -3.045  1.00 20.00     0.051 C 
HETATM    7  C7  UNL     1     -35.901  14.459  -4.184  1.00 20.00     0.122 C 
ENDROOT
BRANCH   7   8
HETATM    8  O10 UNL     1     -37.210  13.981  -3.914  1.00 20.00    -0.368 OA
BRANCH   8   9
HETATM    9  C9  UNL     1     -38.123  15.049  -3.697  1.00 20.00     0.165 C 
HETATM   10  C8  UNL     1     -39.439  14.717  -4.367  1.00 20.00     0.033 C 
ENDBRANCH   8   9
ENDBRANCH   7   8
TORSDOF 2
ENDMDL
MODEL 5
REMARK VINA RESULT:      -4.1     11.806     12.776
REMARK  2 active torsions:
REMARK  status: ('A' for Active; 'I' for Inactive)
REMARK    1  A    between atoms: C7_7  and  O10_10 
REMARK    2  A    between atoms: C9_9  and  O10_10 
ROOT
HETATM    1  C1  UNL     1     -36.745   6.104   3.160  1.00 20.00     0.015 C 
HETATM    2  C2  UNL     1     -35.658   5.831   3.590  1.00 20.00    -0.079 C 
HETATM    3  C3  UNL     1     -34.630   5.687   6.512  1.00 20.00     0.004 C 
HETATM    4  C4  UNL     1     -34.844   4.226   6.113  1.00 20.00     0.004 C 
HETATM    5  C5  UNL     1     -33.948   6.356   5.321  1.00 20.00     0.051 C 
HETATM    6  C6  UNL     1     -34.282   4.085   4.699  1.00 20.00     0.051 C 
HETATM    7  C7  UNL     1     -34.325   5.496   4.116  1.00 20.00     0.122 C 
ENDROOT
BRANCH   7   8
HETATM    8  O10 UNL     1     -33.359   5.622   3.084  1.00 20.00    -0.368 OA
BRANCH   8   9
HETATM    9  C9  UNL     1     -32.308   6.505   3.455  1.00 20.00     0.165 C 
HETATM   10  C8  UNL     1     -32.225   7.626   2.441  1.00 20.00     0.033 C 
ENDBRANCH   8   9
ENDBRANCH   7   8
TORSDOF 2
ENDMDL
MODEL 6
REMARK VINA RESULT:      -4.1      1.428      2.452
REMARK  2 active torsions:
REMARK  status: ('A' for Active; 'I' for Inactive)
REMARK    1  A    between atoms: C7_7  and  O10_10 
REMARK    2  A    between atoms: C9_9  and  O10_10 
ROOT
HETATM    1  C1  UNL     1     -38.006  14.910  -3.706  1.00 20.00     0.015 C 
HETATM    2  C2  UNL     1     -36.830  15.119  -3.829  1.00 20.00    -0.079 C 
HETATM    3  C3  UNL     1     -34.546  13.253  -4.785  1.00 20.00     0.004 C 
HETATM    4  C4  UNL     1     -34.835  14.148  -5.991  1.00 20.00     0.004 C 
HETATM    5  C5  UNL     1     -34.543  14.174  -3.566  1.00 20.00     0.051 C 
HETATM    6  C6  UNL     1     -34.994  15.565  -5.441  1.00 20.00     0.051 C 
HETATM    7  C7  UNL     1     -35.389  15.377  -3.979  1.00 20.00     0.122 C 
ENDROOT
BRANCH   7   8
HETATM    8  O10 UNL     1     -35.029  16.527  -3.230  1.00 20.00    -0.368 OA
BRANCH   8   9
HETATM    9  C9  UNL     1     -34.083  16.217  -2.216  1.00 20.00     0.165 C 
HETATM   10  C8  UNL     1     -34.644  16.633  -0.872  1.00 20.00     0.033 C 
ENDBRANCH   8   9
ENDBRANCH   7   8
TORSDOF 2
ENDMDL
MODEL 7
REMARK VINA RESULT:      -4.0      1.476      2.626
REMARK  2 active torsions:
REMARK  status: ('A' for Active; 'I' for Inactive)
REMARK    1  A    between atoms: C7_7  and  O10_10 
REMARK    2  A    between atoms: C9_9  and  O10_10 
ROOT
HETATM    1  C1  UNL     1     -33.264  13.401  -3.713  1.00 20.00     0.015 C 
HETATM    2  C2  UNL     1     -33.823  14.374  -4.141  1.00 20.00    -0.079 C 
HETATM    3  C3  UNL     1     -34.393  15.242  -7.063  1.00 20.00     0.004 C 
HETATM    4  C4  UNL     1     -35.729  14.689  -6.564  1.00 20.00     0.004 C 
HETATM    5  C5  UNL     1     -33.842  16.105  -5.930  1.00 20.00     0.051 C 
HETATM    6  C6  UNL     1     -35.918  15.244  -5.153  1.00 20.00     0.051 C 
HETATM    7  C7  UNL     1     -34.508  15.566  -4.665  1.00 20.00     0.122 C 
ENDROOT
BRANCH   7   8
HETATM    8  O10 UNL     1     -34.562  16.566  -3.659  1.00 20.00    -0.368 OA
BRANCH   8   9
HETATM    9  C9  UNL     1     -35.384  16.169  -2.569  1.00 20.00     0.165 C 
HETATM   10  C8  UNL     1     -34.659  16.461  -1.272  1.00 20.00     0.033 C 
ENDBRANCH   8   9
ENDBRANCH   7   8
TORSDOF 2
ENDMDL
MODEL 8
REMARK VINA RESULT:      -4.0      1.022      2.722
REMARK  2 active torsions:
REMARK  status: ('A' for Active; 'I' for Inactive)
REMARK    1  A    between atoms: C7_7  and  O10_10 
REMARK    2  A    between atoms: C9_9  and  O10_10 
ROOT
HETATM    1  C1  UNL     1     -35.176  13.166  -4.358  1.00 20.00     0.015 C 
HETATM    2  C2  UNL     1     -34.912  14.265  -3.952  1.00 20.00    -0.079 C 
HETATM    3  C3  UNL     1     -33.304  16.563  -5.274  1.00 20.00     0.004 C 
HETATM    4  C4  UNL     1     -34.766  16.975  -5.449  1.00 20.00     0.004 C 
HETATM    5  C5  UNL     1     -33.177  16.047  -3.843  1.00 20.00     0.051 C 
HETATM    6  C6  UNL     1     -35.451  16.685  -4.114  1.00 20.00     0.051 C 
HETATM    7  C7  UNL     1     -34.589  15.612  -3.454  1.00 20.00     0.122 C 
ENDROOT
BRANCH   7   8
HETATM    8  O10 UNL     1     -34.760  15.654  -2.046  1.00 20.00    -0.368 OA
BRANCH   8   9
HETATM    9  C9  UNL     1     -34.133  16.796  -1.476  1.00 20.00     0.165 C 
HETATM   10  C8  UNL     1     -34.764  17.083  -0.129  1.00 20.00     0.033 C 
ENDBRANCH   8   9
ENDBRANCH   7   8
TORSDOF 2
ENDMDL
MODEL 9
REMARK VINA RESULT:      -4.0     11.970     13.953
REMARK  2 active torsions:
REMARK  status: ('A' for Active; 'I' for Inactive)
REMARK    1  A    between atoms: C7_7  and  O10_10 
REMARK    2  A    between atoms: C9_9  and  O10_10 
ROOT
HETATM    1  C1  UNL     1     -43.417   3.938   0.495  1.00 20.00     0.015 C 
HETATM    2  C2  UNL     1     -42.604   4.265  -0.327  1.00 20.00    -0.079 C 
HETATM    3  C3  UNL     1     -41.996   7.045  -1.557  1.00 20.00     0.004 C 
HETATM    4  C4  UNL     1     -40.879   6.830  -0.533  1.00 20.00     0.004 C 
HETATM    5  C5  UNL     1     -42.153   5.719  -2.297  1.00 20.00     0.051 C 
HETATM    6  C6  UNL     1     -40.419   5.383  -0.704  1.00 20.00     0.051 C 
HETATM    7  C7  UNL     1     -41.609   4.664  -1.334  1.00 20.00     0.122 C 
ENDROOT
BRANCH   7   8
HETATM    8  O10 UNL     1     -41.161   3.519  -2.043  1.00 20.00    -0.368 OA
BRANCH   8   9
HETATM    9  C9  UNL     1     -42.139   3.057  -2.965  1.00 20.00     0.165 C 
HETATM   10  C8  UNL     1     -41.550   1.929  -3.786  1.00 20.00     0.033 C 
ENDBRANCH   8   9
ENDBRANCH   7   8
TORSDOF 2
ENDMDL
