MODEL 1
REMARK VINA RESULT:      -4.2      0.000      0.000
REMARK  1 active torsions:
REMARK  status: ('A' for Active; 'I' for Inactive)
REMARK    1  A    between atoms: C5_5  and  N8_8 
ROOT
HETATM    1  C1  UNL     1     -36.423  14.246  -4.057  1.00 20.00     0.069 A 
HETATM    2  C2  UNL     1     -36.214  15.346  -3.329  1.00 20.00     0.095 A 
HETATM    3  C3  UNL     1     -35.084  13.619  -4.110  1.00 20.00     0.168 A 
HETATM    4  C6  UNL     1     -34.067  14.447  -3.349  1.00 20.00     0.211 A 
HETATM    5  N8  UNL     1     -34.921  15.538  -2.890  1.00 20.00    -0.354 N 
HETATM    6  O9  UNL     1     -34.850  12.574  -4.695  1.00 20.00    -0.291 OA
ENDROOT
BRANCH   5   7
HETATM    7  C5  UNL     1     -34.474  16.579  -2.139  1.00 20.00    -0.002 C 
HETATM    8  C4  UNL     1     -34.644  16.588  -0.810  1.00 20.00     0.038 C 
HETATM    9  C7  UNL     1     -33.799  17.689  -2.882  1.00 20.00     0.067 C 
ENDBRANCH   5   7
TORSDOF 1
ENDMDL
MODEL 2
REMARK VINA RESULT:      -4.1      0.909      1.928
REMARK  1 active torsions:
REMARK  status: ('A' for Active; 'I' for Inactive)
REMARK    1  A    between atoms: C5_5  and  N8_8 
ROOT
HETATM    1  C1  UNL     1     -33.299  13.959  -3.844  1.00 20.00     0.069 A 
HETATM    2  C2  UNL     1     -33.500  15.067  -3.124  1.00 20.00     0.095 A 
HETATM    3  C3  UNL     1     -34.672  13.539  -4.205  1.00 20.00     0.168 A 
HETATM    4  C6  UNL     1     -35.699  14.497  -3.635  1.00 20.00     0.211 A 
HETATM    5  N8  UNL     1     -34.817  15.442  -2.958  1.00 20.00    -0.354 N 
HETATM    6  O9  UNL     1     -34.922  12.550  -4.874  1.00 20.00    -0.291 OA
ENDROOT
BRANCH   5   7
HETATM    7  C5  UNL     1     -35.261  16.527  -2.269  1.00 20.00    -0.002 C 
HETATM    8  C4  UNL     1     -36.175  17.349  -2.801  1.00 20.00     0.038 C 
HETATM    9  C7  UNL     1     -34.671  16.734  -0.909  1.00 20.00     0.067 C 
ENDBRANCH   5   7
TORSDOF 1
ENDMDL
MODEL 3
REMARK VINA RESULT:      -4.0      1.203      1.822
REMARK  1 active torsions:
REMARK  status: ('A' for Active; 'I' for Inactive)
REMARK    1  A    between atoms: C5_5  and  N8_8 
ROOT
HETATM    1  C1  UNL     1     -34.461  14.680  -5.786  1.00 20.00     0.069 A 
HETATM    2  C2  UNL     1     -34.303  15.838  -5.139  1.00 20.00     0.095 A 
HETATM    3  C3  UNL     1     -34.604  13.698  -4.688  1.00 20.00     0.168 A 
HETATM    4  C6  UNL     1     -34.516  14.380  -3.337  1.00 20.00     0.211 A 
HETATM    5  N8  UNL     1     -34.321  15.763  -3.763  1.00 20.00    -0.354 N 
HETATM    6  O9  UNL     1     -34.770  12.503  -4.867  1.00 20.00    -0.291 OA
ENDROOT
BRANCH   5   7
HETATM    7  C5  UNL     1     -34.180  16.804  -2.900  1.00 20.00    -0.002 C 
HETATM    8  C4  UNL     1     -33.843  18.022  -3.346  1.00 20.00     0.038 C 
HETATM    9  C7  UNL     1     -34.420  16.503  -1.454  1.00 20.00     0.067 C 
ENDBRANCH   5   7
TORSDOF 1
ENDMDL
MODEL 4
REMARK VINA RESULT:      -3.9      2.319      3.212
REMARK  1 active torsions:
REMARK  status: ('A' for Active; 'I' for Inactive)
REMARK    1  A    between atoms: C5_5  and  N8_8 
ROOT
HETATM    1  C1  UNL     1     -33.447  14.214  -3.757  1.00 20.00     0.069 A 
HETATM    2  C2  UNL     1     -33.282  15.464  -4.199  1.00 20.00     0.095 A 
HETATM    3  C3  UNL     1     -34.453  13.658  -4.688  1.00 20.00     0.168 A 
HETATM    4  C6  UNL     1     -34.867  14.691  -5.719  1.00 20.00     0.211 A 
HETATM    5  N8  UNL     1     -34.038  15.816  -5.297  1.00 20.00    -0.354 N 
HETATM    6  O9  UNL     1     -34.881  12.517  -4.619  1.00 20.00    -0.291 OA
ENDROOT
BRANCH   5   7
HETATM    7  C5  UNL     1     -34.038  17.026  -5.917  1.00 20.00    -0.002 C 
HETATM    8  C4  UNL     1     -34.488  17.151  -7.173  1.00 20.00     0.038 C 
HETATM    9  C7  UNL     1     -33.511  18.178  -5.121  1.00 20.00     0.067 C 
ENDBRANCH   5   7
TORSDOF 1
ENDMDL
MODEL 5
REMARK VINA RESULT:      -3.8     11.512     12.160
REMARK  1 active torsions:
REMARK  status: ('A' for Active; 'I' for Inactive)
REMARK    1  A    between atoms: C5_5  and  N8_8 
ROOT
HETATM    1  C1  UNL     1     -33.404   5.860   2.260  1.00 20.00     0.069 A 
HETATM    2  C2  UNL     1     -34.071   5.299   3.272  1.00 20.00     0.095 A 
HETATM    3  C3  UNL     1     -32.610   6.916   2.925  1.00 20.00     0.168 A 
HETATM    4  C6  UNL     1     -32.868   6.929   4.419  1.00 20.00     0.211 A 
HETATM    5  N8  UNL     1     -33.830   5.836   4.519  1.00 20.00    -0.354 N 
HETATM    6  O9  UNL     1     -31.853   7.668   2.331  1.00 20.00    -0.291 OA
ENDROOT
BRANCH   5   7
HETATM    7  C5  UNL     1     -34.391   5.432   5.690  1.00 20.00    -0.002 C 
HETATM    8  C4  UNL     1     -34.370   6.225   6.769  1.00 20.00     0.038 C 
HETATM    9  C7  UNL     1     -35.015   4.072   5.689  1.00 20.00     0.067 C 
ENDBRANCH   5   7
TORSDOF 1
ENDMDL
MODEL 6
REMARK VINA RESULT:      -3.6      2.555      3.956
REMARK  1 active torsions:
REMARK  status: ('A' for Active; 'I' for Inactive)
REMARK    1  A    between atoms: C5_5  and  N8_8 
ROOT
HETATM    1  C1  UNL     1     -34.491  16.287  -1.943  1.00 20.00     0.069 A 
HETATM    2  C2  UNL     1     -34.710  15.266  -2.777  1.00 20.00     0.095 A 
HETATM    3  C3  UNL     1     -33.846  17.297  -2.811  1.00 20.00     0.168 A 
HETATM    4  C6  UNL     1     -33.704  16.782  -4.230  1.00 20.00     0.211 A 
HETATM    5  N8  UNL     1     -34.301  15.458  -4.080  1.00 20.00    -0.354 N 
HETATM    6  O9  UNL     1     -33.484  18.394  -2.418  1.00 20.00    -0.291 OA
ENDROOT
BRANCH   5   7
HETATM    7  C5  UNL     1     -34.419  14.565  -5.098  1.00 20.00    -0.002 C 
HETATM    8  C4  UNL     1     -34.566  13.257  -4.849  1.00 20.00     0.038 C 
HETATM    9  C7  UNL     1     -34.373  15.131  -6.483  1.00 20.00     0.067 C 
ENDBRANCH   5   7
TORSDOF 1
ENDMDL
MODEL 7
REMARK VINA RESULT:      -3.6     11.191     11.727
REMARK  1 active torsions:
REMARK  status: ('A' for Active; 'I' for Inactive)
REMARK    1  A    between atoms: C5_5  and  N8_8 
ROOT
HETATM    1  C1  UNL     1     -34.805   5.037   3.712  1.00 20.00     0.069 A 
HETATM    2  C2  UNL     1     -33.894   5.759   3.054  1.00 20.00     0.095 A 
HETATM    3  C3  UNL     1     -34.585   5.425   5.123  1.00 20.00     0.168 A 
HETATM    4  C6  UNL     1     -33.464   6.439   5.239  1.00 20.00     0.211 A 
HETATM    5  N8  UNL     1     -33.098   6.574   3.832  1.00 20.00    -0.354 N 
HETATM    6  O9  UNL     1     -35.232   4.976   6.056  1.00 20.00    -0.291 OA
ENDROOT
BRANCH   5   7
HETATM    7  C5  UNL     1     -32.109   7.393   3.386  1.00 20.00    -0.002 C 
HETATM    8  C4  UNL     1     -31.066   7.696   4.170  1.00 20.00     0.038 C 
HETATM    9  C7  UNL     1     -32.265   7.922   1.995  1.00 20.00     0.067 C 
ENDBRANCH   5   7
TORSDOF 1
ENDMDL
MODEL 8
REMARK VINA RESULT:      -3.6      1.823      3.405
REMARK  1 active torsions:
REMARK  status: ('A' for Active; 'I' for Inactive)
REMARK    1  A    between atoms: C5_5  and  N8_8 
ROOT
HETATM    1  C1  UNL     1     -33.996  15.070  -3.101  1.00 20.00     0.069 A 
HETATM    2  C2  UNL     1     -35.201  15.533  -3.443  1.00 20.00     0.095 A 
HETATM    3  C3  UNL     1     -33.927  13.766  -3.797  1.00 20.00     0.168 A 
HETATM    4  C6  UNL     1     -35.199  13.500  -4.579  1.00 20.00     0.211 A 
HETATM    5  N8  UNL     1     -35.944  14.717  -4.270  1.00 20.00    -0.354 N 
HETATM    6  O9  UNL     1     -32.965  13.017  -3.736  1.00 20.00    -0.291 OA
ENDROOT
BRANCH   5   7
HETATM    7  C5  UNL     1     -37.191  14.977  -4.746  1.00 20.00    -0.002 C 
HETATM    8  C4  UNL     1     -37.372  15.368  -6.015  1.00 20.00     0.038 C 
HETATM    9  C7  UNL     1     -38.319  14.804  -3.778  1.00 20.00     0.067 C 
ENDBRANCH   5   7
TORSDOF 1
ENDMDL
MODEL 9
REMARK VINA RESULT:      -3.6      2.163      2.598
REMARK  1 active torsions:
REMARK  status: ('A' for Active; 'I' for Inactive)
REMARK    1  A    between atoms: C5_5  and  N8_8 
ROOT
HETATM    1  C1  UNL     1     -37.193  16.294  -3.584  1.00 20.00     0.069 A 
HETATM    2  C2  UNL     1     -35.899  16.583  -3.748  1.00 20.00     0.095 A 
HETATM    3  C3  UNL     1     -37.241  14.832  -3.806  1.00 20.00     0.168 A 
HETATM    4  C6  UNL     1     -35.861  14.284  -4.115  1.00 20.00     0.211 A 
HETATM    5  N8  UNL     1     -35.080  15.515  -4.047  1.00 20.00    -0.354 N 
HETATM    6  O9  UNL     1     -38.266  14.172  -3.743  1.00 20.00    -0.291 OA
ENDROOT
BRANCH   5   7
HETATM    7  C5  UNL     1     -33.737  15.567  -4.257  1.00 20.00    -0.002 C 
HETATM    8  C4  UNL     1     -32.914  14.710  -3.638  1.00 20.00     0.038 C 
HETATM    9  C7  UNL     1     -33.254  16.623  -5.201  1.00 20.00     0.067 C 
ENDBRANCH   5   7
TORSDOF 1
ENDMDL
