MODEL 1
REMARK VINA RESULT:      -5.2      0.000      0.000
REMARK  1 active torsions:
REMARK  status: ('A' for Active; 'I' for Inactive)
REMARK    1  A    between atoms: C3_3  and  C8_8 
ROOT
HETATM    1  C1  UNL     1     -36.160  16.209  -3.585  1.00 20.00    -0.024 C 
HETATM    2  C2  UNL     1     -35.588  17.245  -4.220  1.00 20.00    -0.021 C 
HETATM    3  C4  UNL     1     -34.500  16.250  -1.776  1.00 20.00     0.010 C 
HETATM    4  C5  UNL     1     -33.818  17.433  -2.505  1.00 20.00     0.014 C 
HETATM    5  C6  UNL     1     -33.475  16.007  -4.542  1.00 20.00     0.026 C 
HETATM    6  C7  UNL     1     -35.198  15.333  -2.806  1.00 20.00     0.019 C 
HETATM    7  C8  UNL     1     -34.105  14.815  -3.775  1.00 20.00     0.063 C 
HETATM    8  C9  UNL     1     -34.082  17.346  -4.035  1.00 20.00    -0.026 C 
HETATM    9  C11 UNL     1     -33.487  18.543  -4.772  1.00 20.00     0.019 C 
ENDROOT
BRANCH   7  10
HETATM   10  C3  UNL     1     -34.648  13.796  -4.734  1.00 20.00     0.128 C 
HETATM   11  C10 UNL     1     -34.716  14.196  -6.182  1.00 20.00     0.091 C 
HETATM   12  O12 UNL     1     -35.018  12.686  -4.353  1.00 20.00    -0.298 OA
ENDBRANCH   7  10
TORSDOF 1
ENDMDL
MODEL 2
REMARK VINA RESULT:      -5.1      1.996      3.784
REMARK  1 active torsions:
REMARK  status: ('A' for Active; 'I' for Inactive)
REMARK    1  A    between atoms: C3_3  and  C8_8 
ROOT
HETATM    1  C1  UNL     1     -33.203  16.011  -4.386  1.00 20.00    -0.024 C 
HETATM    2  C2  UNL     1     -33.993  15.931  -5.469  1.00 20.00    -0.021 C 
HETATM    3  C4  UNL     1     -33.520  13.639  -3.836  1.00 20.00     0.010 C 
HETATM    4  C5  UNL     1     -34.448  13.535  -5.070  1.00 20.00     0.014 C 
HETATM    5  C6  UNL     1     -35.956  15.297  -4.111  1.00 20.00     0.026 C 
HETATM    6  C7  UNL     1     -33.578  15.071  -3.257  1.00 20.00     0.019 C 
HETATM    7  C8  UNL     1     -35.049  15.345  -2.854  1.00 20.00     0.063 C 
HETATM    8  C9  UNL     1     -35.115  14.910  -5.360  1.00 20.00    -0.026 C 
HETATM    9  C11 UNL     1     -35.976  14.857  -6.618  1.00 20.00     0.019 C 
ENDROOT
BRANCH   7  10
HETATM   10  C3  UNL     1     -35.197  16.659  -2.143  1.00 20.00     0.128 C 
HETATM   11  C10 UNL     1     -34.565  16.768  -0.782  1.00 20.00     0.091 C 
HETATM   12  O12 UNL     1     -35.804  17.601  -2.650  1.00 20.00    -0.298 OA
ENDBRANCH   7  10
TORSDOF 1
ENDMDL
MODEL 3
REMARK VINA RESULT:      -4.8      1.578      2.863
REMARK  1 active torsions:
REMARK  status: ('A' for Active; 'I' for Inactive)
REMARK    1  A    between atoms: C3_3  and  C8_8 
ROOT
HETATM    1  C1  UNL     1     -34.778  14.894  -7.031  1.00 20.00    -0.024 C 
HETATM    2  C2  UNL     1     -34.038  16.006  -6.894  1.00 20.00    -0.021 C 
HETATM    3  C4  UNL     1     -36.828  16.029  -6.293  1.00 20.00     0.010 C 
HETATM    4  C5  UNL     1     -35.984  17.314  -6.112  1.00 20.00     0.014 C 
HETATM    5  C6  UNL     1     -34.499  16.133  -4.471  1.00 20.00     0.026 C 
HETATM    6  C7  UNL     1     -35.941  14.784  -6.063  1.00 20.00     0.019 C 
HETATM    7  C8  UNL     1     -35.391  14.872  -4.617  1.00 20.00     0.063 C 
HETATM    8  C9  UNL     1     -34.507  16.947  -5.795  1.00 20.00    -0.026 C 
HETATM    9  C11 UNL     1     -33.634  18.195  -5.688  1.00 20.00     0.019 C 
ENDROOT
BRANCH   7  10
HETATM   10  C3  UNL     1     -34.630  13.636  -4.234  1.00 20.00     0.128 C 
HETATM   11  C10 UNL     1     -33.247  13.838  -3.676  1.00 20.00     0.091 C 
HETATM   12  O12 UNL     1     -35.115  12.514  -4.368  1.00 20.00    -0.298 OA
ENDBRANCH   7  10
TORSDOF 1
ENDMDL
MODEL 4
REMARK VINA RESULT:      -4.7      1.776      3.643
REMARK  1 active torsions:
REMARK  status: ('A' for Active; 'I' for Inactive)
REMARK    1  A    between atoms: C3_3  and  C8_8 
ROOT
HETATM    1  C1  UNL     1     -35.395  13.577  -4.121  1.00 20.00    -0.024 C 
HETATM    2  C2  UNL     1     -34.871  13.654  -5.355  1.00 20.00    -0.021 C 
HETATM    3  C4  UNL     1     -37.310  14.992  -4.721  1.00 20.00     0.010 C 
HETATM    4  C5  UNL     1     -36.709  15.107  -6.142  1.00 20.00     0.014 C 
HETATM    5  C6  UNL     1     -34.610  16.105  -5.196  1.00 20.00     0.026 C 
HETATM    6  C7  UNL     1     -36.178  14.802  -3.687  1.00 20.00     0.019 C 
HETATM    7  C8  UNL     1     -35.252  16.040  -3.786  1.00 20.00     0.063 C 
HETATM    8  C9  UNL     1     -35.162  14.956  -6.086  1.00 20.00    -0.026 C 
HETATM    9  C11 UNL     1     -34.548  14.987  -7.482  1.00 20.00     0.019 C 
ENDROOT
BRANCH   7  10
HETATM   10  C3  UNL     1     -34.193  16.031  -2.721  1.00 20.00     0.128 C 
HETATM   11  C10 UNL     1     -34.632  16.380  -1.326  1.00 20.00     0.091 C 
HETATM   12  O12 UNL     1     -33.023  15.750  -2.979  1.00 20.00    -0.298 OA
ENDBRANCH   7  10
TORSDOF 1
ENDMDL
MODEL 5
REMARK VINA RESULT:      -4.7      1.133      2.208
REMARK  1 active torsions:
REMARK  status: ('A' for Active; 'I' for Inactive)
REMARK    1  A    between atoms: C3_3  and  C8_8 
ROOT
HETATM    1  C1  UNL     1     -34.297  16.504  -5.050  1.00 20.00    -0.024 C 
HETATM    2  C2  UNL     1     -33.704  17.184  -4.055  1.00 20.00    -0.021 C 
HETATM    3  C4  UNL     1     -36.541  16.893  -4.131  1.00 20.00     0.010 C 
HETATM    4  C5  UNL     1     -35.870  17.663  -2.968  1.00 20.00     0.014 C 
HETATM    5  C6  UNL     1     -34.556  15.618  -2.345  1.00 20.00     0.026 C 
HETATM    6  C7  UNL     1     -35.583  15.802  -4.658  1.00 20.00     0.019 C 
HETATM    7  C8  UNL     1     -35.282  14.845  -3.477  1.00 20.00     0.063 C 
HETATM    8  C9  UNL     1     -34.433  17.121  -2.722  1.00 20.00    -0.026 C 
HETATM    9  C11 UNL     1     -33.718  17.914  -1.632  1.00 20.00     0.019 C 
ENDROOT
BRANCH   7  10
HETATM   10  C3  UNL     1     -34.473  13.658  -3.913  1.00 20.00     0.128 C 
HETATM   11  C10 UNL     1     -33.018  13.652  -3.529  1.00 20.00     0.091 C 
HETATM   12  O12 UNL     1     -34.976  12.734  -4.551  1.00 20.00    -0.298 OA
ENDBRANCH   7  10
TORSDOF 1
ENDMDL
MODEL 6
REMARK VINA RESULT:      -4.7      1.435      2.453
REMARK  1 active torsions:
REMARK  status: ('A' for Active; 'I' for Inactive)
REMARK    1  A    between atoms: C3_3  and  C8_8 
ROOT
HETATM    1  C1  UNL     1     -34.785  15.855  -2.209  1.00 20.00    -0.024 C 
HETATM    2  C2  UNL     1     -34.365  17.020  -2.727  1.00 20.00    -0.021 C 
HETATM    3  C4  UNL     1     -33.462  14.536  -3.803  1.00 20.00     0.010 C 
HETATM    4  C5  UNL     1     -32.984  15.871  -4.424  1.00 20.00     0.014 C 
HETATM    5  C6  UNL     1     -35.357  16.509  -4.931  1.00 20.00     0.026 C 
HETATM    6  C7  UNL     1     -34.875  14.714  -3.204  1.00 20.00     0.019 C 
HETATM    7  C8  UNL     1     -35.814  15.141  -4.360  1.00 20.00     0.063 C 
HETATM    8  C9  UNL     1     -34.057  16.976  -4.216  1.00 20.00    -0.026 C 
HETATM    9  C11 UNL     1     -33.580  18.324  -4.750  1.00 20.00     0.019 C 
ENDROOT
BRANCH   7  10
HETATM   10  C3  UNL     1     -37.248  15.203  -3.921  1.00 20.00     0.128 C 
HETATM   11  C10 UNL     1     -37.878  16.567  -3.852  1.00 20.00     0.091 C 
HETATM   12  O12 UNL     1     -37.877  14.185  -3.632  1.00 20.00    -0.298 OA
ENDBRANCH   7  10
TORSDOF 1
ENDMDL
MODEL 7
REMARK VINA RESULT:      -4.6      1.805      3.242
REMARK  1 active torsions:
REMARK  status: ('A' for Active; 'I' for Inactive)
REMARK    1  A    between atoms: C3_3  and  C8_8 
ROOT
HETATM    1  C1  UNL     1     -35.070  13.572  -4.489  1.00 20.00    -0.024 C 
HETATM    2  C2  UNL     1     -34.499  14.169  -3.431  1.00 20.00    -0.021 C 
HETATM    3  C4  UNL     1     -34.284  15.307  -6.039  1.00 20.00     0.010 C 
HETATM    4  C5  UNL     1     -33.637  16.018  -4.826  1.00 20.00     0.014 C 
HETATM    5  C6  UNL     1     -35.877  16.200  -3.710  1.00 20.00     0.026 C 
HETATM    6  C7  UNL     1     -35.532  14.520  -5.580  1.00 20.00     0.019 C 
HETATM    7  C8  UNL     1     -36.518  15.542  -4.960  1.00 20.00     0.063 C 
HETATM    8  C9  UNL     1     -34.422  15.685  -3.525  1.00 20.00    -0.026 C 
HETATM    9  C11 UNL     1     -33.760  16.310  -2.300  1.00 20.00     0.019 C 
ENDROOT
BRANCH   7  10
HETATM   10  C3  UNL     1     -37.833  14.907  -4.609  1.00 20.00     0.128 C 
HETATM   11  C10 UNL     1     -38.929  15.010  -5.634  1.00 20.00     0.091 C 
HETATM   12  O12 UNL     1     -38.003  14.329  -3.537  1.00 20.00    -0.298 OA
ENDBRANCH   7  10
TORSDOF 1
ENDMDL
MODEL 8
REMARK VINA RESULT:      -4.6      2.225      3.987
REMARK  1 active torsions:
REMARK  status: ('A' for Active; 'I' for Inactive)
REMARK    1  A    between atoms: C3_3  and  C8_8 
ROOT
HETATM    1  C1  UNL     1     -35.115  17.788  -4.172  1.00 20.00    -0.024 C 
HETATM    2  C2  UNL     1     -35.999  16.779  -4.221  1.00 20.00    -0.021 C 
HETATM    3  C4  UNL     1     -33.314  16.410  -5.115  1.00 20.00     0.010 C 
HETATM    4  C5  UNL     1     -34.317  15.232  -5.160  1.00 20.00     0.014 C 
HETATM    5  C6  UNL     1     -34.653  15.396  -2.679  1.00 20.00     0.026 C 
HETATM    6  C7  UNL     1     -33.676  17.361  -3.952  1.00 20.00     0.019 C 
HETATM    7  C8  UNL     1     -33.601  16.535  -2.643  1.00 20.00     0.063 C 
HETATM    8  C9  UNL     1     -35.391  15.396  -4.048  1.00 20.00    -0.026 C 
HETATM    9  C11 UNL     1     -36.438  14.288  -4.117  1.00 20.00     0.019 C 
ENDROOT
BRANCH   7  10
HETATM   10  C3  UNL     1     -33.793  17.396  -1.428  1.00 20.00     0.128 C 
HETATM   11  C10 UNL     1     -34.763  16.898  -0.392  1.00 20.00     0.091 C 
HETATM   12  O12 UNL     1     -33.185  18.456  -1.288  1.00 20.00    -0.298 OA
ENDBRANCH   7  10
TORSDOF 1
ENDMDL
MODEL 9
REMARK VINA RESULT:      -4.6      1.916      2.990
REMARK  1 active torsions:
REMARK  status: ('A' for Active; 'I' for Inactive)
REMARK    1  A    between atoms: C3_3  and  C8_8 
ROOT
HETATM    1  C1  UNL     1     -36.241  14.304  -4.236  1.00 20.00    -0.024 C 
HETATM    2  C2  UNL     1     -35.758  15.132  -3.296  1.00 20.00    -0.021 C 
HETATM    3  C4  UNL     1     -34.075  13.187  -4.532  1.00 20.00     0.010 C 
HETATM    4  C5  UNL     1     -33.498  14.147  -3.463  1.00 20.00     0.014 C 
HETATM    5  C6  UNL     1     -34.133  16.126  -4.869  1.00 20.00     0.026 C 
HETATM    6  C7  UNL     1     -35.233  13.878  -5.286  1.00 20.00     0.019 C 
HETATM    7  C8  UNL     1     -34.651  15.149  -5.956  1.00 20.00     0.063 C 
HETATM    8  C9  UNL     1     -34.288  15.486  -3.460  1.00 20.00    -0.026 C 
HETATM    9  C11 UNL     1     -33.791  16.423  -2.364  1.00 20.00     0.019 C 
ENDROOT
BRANCH   7  10
HETATM   10  C3  UNL     1     -35.660  15.825  -6.839  1.00 20.00     0.128 C 
HETATM   11  C10 UNL     1     -36.293  14.982  -7.912  1.00 20.00     0.091 C 
HETATM   12  O12 UNL     1     -35.954  17.010  -6.691  1.00 20.00    -0.298 OA
ENDBRANCH   7  10
TORSDOF 1
ENDMDL
