MODEL 1
REMARK VINA RESULT:      -5.6      0.000      0.000
REMARK  2 active torsions:
REMARK  status: ('A' for Active; 'I' for Inactive)
REMARK    1  A    between atoms: C1_1  and  C4_4 
REMARK    2  A    between atoms: C2_2  and  N10_10 
ROOT
HETATM    1  C5  UNL     1     -35.299   4.897   6.029  1.00 20.00     0.003 C 
HETATM    2  C6  UNL     1     -35.033   4.241   4.678  1.00 20.00     0.029 C 
HETATM    3  C7  UNL     1     -34.083   5.680   6.515  1.00 20.00     0.029 C 
HETATM    4  C8  UNL     1     -34.555   5.252   3.645  1.00 20.00     0.251 C 
HETATM    5  C9  UNL     1     -33.608   6.685   5.475  1.00 20.00     0.251 C 
HETATM    6  N10 UNL     1     -33.343   5.968   4.178  1.00 20.00    -0.006 N 
HETATM    7  H24 UNL     1     -32.606   5.268   4.346  1.00 20.00     0.297 HD
ENDROOT
BRANCH   6   8
HETATM    8  C2  UNL     1     -32.790   6.892   3.169  1.00 20.00     0.118 C 
HETATM    9  C1  UNL     1     -32.340   7.644   2.347  1.00 20.00    -0.049 C 
BRANCH   9  10
HETATM   10  C4  UNL     1     -31.813   8.536   1.376  1.00 20.00     0.056 C 
HETATM   11  C3  UNL     1     -32.335   9.749   1.176  1.00 20.00     0.021 C 
ENDBRANCH   9  10
ENDBRANCH   6   8
TORSDOF 2
ENDMDL
MODEL 2
REMARK VINA RESULT:      -4.4     11.262     12.436
REMARK  2 active torsions:
REMARK  status: ('A' for Active; 'I' for Inactive)
REMARK    1  A    between atoms: C1_1  and  C4_4 
REMARK    2  A    between atoms: C2_2  and  N10_10 
ROOT
HETATM    1  C5  UNL     1     -34.902  14.395  -6.339  1.00 20.00     0.003 C 
HETATM    2  C6  UNL     1     -34.044  15.639  -6.122  1.00 20.00     0.029 C 
HETATM    3  C7  UNL     1     -34.793  13.434  -5.160  1.00 20.00     0.029 C 
HETATM    4  C8  UNL     1     -34.363  16.319  -4.799  1.00 20.00     0.251 C 
HETATM    5  C9  UNL     1     -35.108  14.123  -3.839  1.00 20.00     0.251 C 
HETATM    6  N10 UNL     1     -34.213  15.322  -3.681  1.00 20.00    -0.006 N 
HETATM    7  H24 UNL     1     -33.237  14.993  -3.676  1.00 20.00     0.297 HD
ENDROOT
BRANCH   6   8
HETATM    8  C2  UNL     1     -34.420  15.966  -2.369  1.00 20.00     0.118 C 
HETATM    9  C1  UNL     1     -34.589  16.489  -1.301  1.00 20.00    -0.049 C 
BRANCH   9  10
HETATM   10  C4  UNL     1     -34.793  17.112  -0.042  1.00 20.00     0.056 C 
HETATM   11  C3  UNL     1     -34.041  18.138   0.368  1.00 20.00     0.021 C 
ENDBRANCH   9  10
ENDBRANCH   6   8
TORSDOF 2
ENDMDL
MODEL 3
REMARK VINA RESULT:      -4.3      9.754     11.194
REMARK  2 active torsions:
REMARK  status: ('A' for Active; 'I' for Inactive)
REMARK    1  A    between atoms: C1_1  and  C4_4 
REMARK    2  A    between atoms: C2_2  and  N10_10 
ROOT
HETATM    1  C5  UNL     1     -41.234   7.247  -0.876  1.00 20.00     0.003 C 
HETATM    2  C6  UNL     1     -42.449   6.985  -1.761  1.00 20.00     0.029 C 
HETATM    3  C7  UNL     1     -40.855   6.006  -0.074  1.00 20.00     0.029 C 
HETATM    4  C8  UNL     1     -42.245   5.769  -2.652  1.00 20.00     0.251 C 
HETATM    5  C9  UNL     1     -40.658   4.793  -0.971  1.00 20.00     0.251 C 
HETATM    6  N10 UNL     1     -41.899   4.580  -1.796  1.00 20.00    -0.006 N 
HETATM    7  H24 UNL     1     -42.685   4.411  -1.152  1.00 20.00     0.297 HD
ENDROOT
BRANCH   6   8
HETATM    8  C2  UNL     1     -41.787   3.356  -2.613  1.00 20.00     0.118 C 
HETATM    9  C1  UNL     1     -41.695   2.360  -3.278  1.00 20.00    -0.049 C 
BRANCH   9  10
HETATM   10  C4  UNL     1     -41.580   1.183  -4.063  1.00 20.00     0.056 C 
HETATM   11  C3  UNL     1     -42.097   0.017  -3.666  1.00 20.00     0.021 C 
ENDBRANCH   9  10
ENDBRANCH   6   8
TORSDOF 2
ENDMDL
MODEL 4
REMARK VINA RESULT:      -4.3     11.009     12.152
REMARK  2 active torsions:
REMARK  status: ('A' for Active; 'I' for Inactive)
REMARK    1  A    between atoms: C1_1  and  C4_4 
REMARK    2  A    between atoms: C2_2  and  N10_10 
ROOT
HETATM    1  C5  UNL     1     -34.875  14.083  -5.956  1.00 20.00     0.003 C 
HETATM    2  C6  UNL     1     -34.611  13.253  -4.703  1.00 20.00     0.029 C 
HETATM    3  C7  UNL     1     -35.886  15.193  -5.683  1.00 20.00     0.029 C 
HETATM    4  C8  UNL     1     -34.197  14.126  -3.527  1.00 20.00     0.251 C 
HETATM    5  C9  UNL     1     -35.467  16.058  -4.503  1.00 20.00     0.251 C 
HETATM    6  N10 UNL     1     -35.246  15.181  -3.300  1.00 20.00    -0.006 N 
HETATM    7  H24 UNL     1     -36.135  14.706  -3.084  1.00 20.00     0.297 HD
ENDROOT
BRANCH   6   8
HETATM    8  C2  UNL     1     -34.931  15.991  -2.107  1.00 20.00     0.118 C 
HETATM    9  C1  UNL     1     -34.674  16.650  -1.137  1.00 20.00    -0.049 C 
BRANCH   9  10
HETATM   10  C4  UNL     1     -34.371  17.424   0.014  1.00 20.00     0.056 C 
HETATM   11  C3  UNL     1     -35.241  17.568   1.018  1.00 20.00     0.021 C 
ENDBRANCH   9  10
ENDBRANCH   6   8
TORSDOF 2
ENDMDL
MODEL 5
REMARK VINA RESULT:      -4.0      9.880     11.411
REMARK  2 active torsions:
REMARK  status: ('A' for Active; 'I' for Inactive)
REMARK    1  A    between atoms: C1_1  and  C4_4 
REMARK    2  A    between atoms: C2_2  and  N10_10 
ROOT
HETATM    1  C5  UNL     1     -41.746   7.222  -0.828  1.00 20.00     0.003 C 
HETATM    2  C6  UNL     1     -40.795   6.137  -0.332  1.00 20.00     0.029 C 
HETATM    3  C7  UNL     1     -41.988   7.102  -2.330  1.00 20.00     0.029 C 
HETATM    4  C8  UNL     1     -41.273   4.746  -0.725  1.00 20.00     0.251 C 
HETATM    5  C9  UNL     1     -42.461   5.708  -2.715  1.00 20.00     0.251 C 
HETATM    6  N10 UNL     1     -41.468   4.692  -2.216  1.00 20.00    -0.006 N 
HETATM    7  H24 UNL     1     -40.561   4.887  -2.664  1.00 20.00     0.297 HD
ENDROOT
BRANCH   6   8
HETATM    8  C2  UNL     1     -41.840   3.332  -2.651  1.00 20.00     0.118 C 
HETATM    9  C1  UNL     1     -42.143   2.225  -3.005  1.00 20.00    -0.049 C 
BRANCH   9  10
HETATM   10  C4  UNL     1     -42.496   0.914  -3.421  1.00 20.00     0.056 C 
HETATM   11  C3  UNL     1     -41.619   0.105  -4.023  1.00 20.00     0.021 C 
ENDBRANCH   9  10
ENDBRANCH   6   8
TORSDOF 2
ENDMDL
MODEL 6
REMARK VINA RESULT:      -3.9     11.124     11.892
REMARK  2 active torsions:
REMARK  status: ('A' for Active; 'I' for Inactive)
REMARK    1  A    between atoms: C1_1  and  C4_4 
REMARK    2  A    between atoms: C2_2  and  N10_10 
ROOT
HETATM    1  C5  UNL     1     -35.425  13.431  -4.409  1.00 20.00     0.003 C 
HETATM    2  C6  UNL     1     -36.339  14.638  -4.215  1.00 20.00     0.029 C 
HETATM    3  C7  UNL     1     -33.957  13.847  -4.437  1.00 20.00     0.029 C 
HETATM    4  C8  UNL     1     -35.950  15.447  -2.986  1.00 20.00     0.251 C 
HETATM    5  C9  UNL     1     -33.577  14.660  -3.208  1.00 20.00     0.251 C 
HETATM    6  N10 UNL     1     -34.502  15.842  -3.092  1.00 20.00    -0.006 N 
HETATM    7  H24 UNL     1     -34.390  16.419  -3.937  1.00 20.00     0.297 HD
ENDROOT
BRANCH   6   8
HETATM    8  C2  UNL     1     -34.108  16.710  -1.964  1.00 20.00     0.118 C 
HETATM    9  C1  UNL     1     -33.788  17.417  -1.048  1.00 20.00    -0.049 C 
BRANCH   9  10
HETATM   10  C4  UNL     1     -33.403  18.251   0.035  1.00 20.00     0.056 C 
HETATM   11  C3  UNL     1     -32.210  18.852   0.073  1.00 20.00     0.021 C 
ENDBRANCH   9  10
ENDBRANCH   6   8
TORSDOF 2
ENDMDL
MODEL 7
REMARK VINA RESULT:      -3.9     11.132     12.356
REMARK  2 active torsions:
REMARK  status: ('A' for Active; 'I' for Inactive)
REMARK    1  A    between atoms: C1_1  and  C4_4 
REMARK    2  A    between atoms: C2_2  and  N10_10 
ROOT
HETATM    1  C5  UNL     1     -34.145  19.263  -0.358  1.00 20.00     0.003 C 
HETATM    2  C6  UNL     1     -34.218  17.929   0.381  1.00 20.00     0.029 C 
HETATM    3  C7  UNL     1     -33.306  19.148  -1.627  1.00 20.00     0.029 C 
HETATM    4  C8  UNL     1     -34.704  16.809  -0.527  1.00 20.00     0.251 C 
HETATM    5  C9  UNL     1     -33.794  18.023  -2.527  1.00 20.00     0.251 C 
HETATM    6  N10 UNL     1     -33.819  16.738  -1.743  1.00 20.00    -0.006 N 
HETATM    7  H24 UNL     1     -32.859  16.538  -1.428  1.00 20.00     0.297 HD
ENDROOT
BRANCH   6   8
HETATM    8  C2  UNL     1     -34.198  15.601  -2.605  1.00 20.00     0.118 C 
HETATM    9  C1  UNL     1     -34.505  14.676  -3.307  1.00 20.00    -0.049 C 
BRANCH   9  10
HETATM   10  C4  UNL     1     -34.863  13.582  -4.137  1.00 20.00     0.056 C 
HETATM   11  C3  UNL     1     -34.900  13.688  -5.469  1.00 20.00     0.021 C 
ENDBRANCH   9  10
ENDBRANCH   6   8
TORSDOF 2
ENDMDL
MODEL 8
REMARK VINA RESULT:      -3.8     11.573     13.029
REMARK  2 active torsions:
REMARK  status: ('A' for Active; 'I' for Inactive)
REMARK    1  A    between atoms: C1_1  and  C4_4 
REMARK    2  A    between atoms: C2_2  and  N10_10 
ROOT
HETATM    1  C5  UNL     1     -33.732  17.668  -0.837  1.00 20.00     0.003 C 
HETATM    2  C6  UNL     1     -33.850  18.652  -1.997  1.00 20.00     0.029 C 
HETATM    3  C7  UNL     1     -34.681  16.487  -1.012  1.00 20.00     0.029 C 
HETATM    4  C8  UNL     1     -33.662  17.963  -3.341  1.00 20.00     0.251 C 
HETATM    5  C9  UNL     1     -34.492  15.806  -2.360  1.00 20.00     0.251 C 
HETATM    6  N10 UNL     1     -34.644  16.828  -3.456  1.00 20.00    -0.006 N 
HETATM    7  H24 UNL     1     -35.594  17.220  -3.396  1.00 20.00     0.297 HD
ENDROOT
BRANCH   6   8
HETATM    8  C2  UNL     1     -34.561  16.191  -4.785  1.00 20.00     0.118 C 
HETATM    9  C1  UNL     1     -34.493  15.673  -5.867  1.00 20.00    -0.049 C 
BRANCH   9  10
HETATM   10  C4  UNL     1     -34.408  15.058  -7.143  1.00 20.00     0.056 C 
HETATM   11  C3  UNL     1     -35.469  14.494  -7.727  1.00 20.00     0.021 C 
ENDBRANCH   9  10
ENDBRANCH   6   8
TORSDOF 2
ENDMDL
MODEL 9
REMARK VINA RESULT:      -3.8     10.896     12.424
REMARK  2 active torsions:
REMARK  status: ('A' for Active; 'I' for Inactive)
REMARK    1  A    between atoms: C1_1  and  C4_4 
REMARK    2  A    between atoms: C2_2  and  N10_10 
ROOT
HETATM    1  C5  UNL     1     -32.997  14.993  -3.732  1.00 20.00     0.003 C 
HETATM    2  C6  UNL     1     -33.799  15.921  -2.825  1.00 20.00     0.029 C 
HETATM    3  C7  UNL     1     -33.680  13.637  -3.880  1.00 20.00     0.029 C 
HETATM    4  C8  UNL     1     -35.242  16.056  -3.291  1.00 20.00     0.251 C 
HETATM    5  C9  UNL     1     -35.123  13.779  -4.341  1.00 20.00     0.251 C 
HETATM    6  N10 UNL     1     -35.859  14.687  -3.391  1.00 20.00    -0.006 N 
HETATM    7  H24 UNL     1     -35.834  14.256  -2.456  1.00 20.00     0.297 HD
ENDROOT
BRANCH   6   8
HETATM    8  C2  UNL     1     -37.288  14.777  -3.749  1.00 20.00     0.118 C 
HETATM    9  C1  UNL     1     -38.451  14.850  -4.040  1.00 20.00    -0.049 C 
BRANCH   9  10
HETATM   10  C4  UNL     1     -39.825  14.932  -4.387  1.00 20.00     0.056 C 
HETATM   11  C3  UNL     1     -40.436  13.969  -5.084  1.00 20.00     0.021 C 
ENDBRANCH   9  10
ENDBRANCH   6   8
TORSDOF 2
ENDMDL
