MODEL 1
REMARK VINA RESULT:      -5.0      0.000      0.000
REMARK  1 active torsions:
REMARK  status: ('A' for Active; 'I' for Inactive)
REMARK    1  A    between atoms: C1_1  and  C9_9 
ROOT
HETATM    1  C2  UNL     1     -33.671  17.598  -3.605  1.00 20.00     0.010 C 
HETATM    2  C3  UNL     1     -34.698  15.743  -5.117  1.00 20.00     0.025 C 
HETATM    3  C4  UNL     1     -35.061  15.614  -2.651  1.00 20.00     0.025 C 
HETATM    4  C5  UNL     1     -33.443  14.274  -3.742  1.00 20.00     0.026 C 
HETATM    5  C6  UNL     1     -33.439  16.530  -4.703  1.00 20.00    -0.008 C 
HETATM    6  C7  UNL     1     -33.750  16.421  -2.601  1.00 20.00    -0.008 C 
HETATM    7  C8  UNL     1     -32.810  15.645  -3.578  1.00 20.00    -0.005 C 
HETATM    8  C9  UNL     1     -34.872  14.784  -3.929  1.00 20.00     0.049 C 
ENDROOT
BRANCH   8   9
HETATM    9  C1  UNL     1     -35.867  13.669  -4.117  1.00 20.00     0.181 C 
HETATM   10  O10 UNL     1     -37.073  13.982  -3.912  1.00 20.00    -0.647 OA
HETATM   11  O11 UNL     1     -35.364  12.561  -4.458  1.00 20.00    -0.647 OA
ENDBRANCH   8   9
TORSDOF 1
ENDMDL
MODEL 2
REMARK VINA RESULT:      -4.9      1.248      2.126
REMARK  1 active torsions:
REMARK  status: ('A' for Active; 'I' for Inactive)
REMARK    1  A    between atoms: C1_1  and  C9_9 
ROOT
HETATM    1  C2  UNL     1     -34.696  16.313  -1.583  1.00 20.00     0.010 C 
HETATM    2  C3  UNL     1     -36.077  15.043  -3.389  1.00 20.00     0.025 C 
HETATM    3  C4  UNL     1     -33.596  14.775  -3.373  1.00 20.00     0.025 C 
HETATM    4  C5  UNL     1     -34.683  16.204  -4.916  1.00 20.00     0.026 C 
HETATM    5  C6  UNL     1     -35.750  16.390  -2.716  1.00 20.00    -0.008 C 
HETATM    6  C7  UNL     1     -33.634  16.160  -2.701  1.00 20.00    -0.008 C 
HETATM    7  C8  UNL     1     -34.609  16.977  -3.610  1.00 20.00    -0.005 C 
HETATM    8  C9  UNL     1     -34.839  14.826  -4.273  1.00 20.00     0.049 C 
ENDROOT
BRANCH   8   9
HETATM    9  C1  UNL     1     -34.935  13.718  -5.289  1.00 20.00     0.181 C 
HETATM   10  O10 UNL     1     -35.151  14.092  -6.475  1.00 20.00    -0.647 OA
HETATM   11  O11 UNL     1     -34.788  12.554  -4.820  1.00 20.00    -0.647 OA
ENDBRANCH   8   9
TORSDOF 1
ENDMDL
MODEL 3
REMARK VINA RESULT:      -4.9      1.272      2.345
REMARK  1 active torsions:
REMARK  status: ('A' for Active; 'I' for Inactive)
REMARK    1  A    between atoms: C1_1  and  C9_9 
ROOT
HETATM    1  C2  UNL     1     -33.624  17.687  -5.400  1.00 20.00     0.010 C 
HETATM    2  C3  UNL     1     -33.070  15.705  -3.803  1.00 20.00     0.025 C 
HETATM    3  C4  UNL     1     -34.369  15.239  -5.883  1.00 20.00     0.025 C 
HETATM    4  C5  UNL     1     -35.421  15.400  -3.768  1.00 20.00     0.026 C 
HETATM    5  C6  UNL     1     -33.677  17.113  -3.962  1.00 20.00    -0.008 C 
HETATM    6  C7  UNL     1     -34.783  16.716  -5.736  1.00 20.00    -0.008 C 
HETATM    7  C8  UNL     1     -35.191  16.829  -4.231  1.00 20.00    -0.005 C 
HETATM    8  C9  UNL     1     -34.165  14.821  -4.420  1.00 20.00     0.049 C 
ENDROOT
BRANCH   8   9
HETATM    9  C1  UNL     1     -34.025  13.338  -4.195  1.00 20.00     0.181 C 
HETATM   10  O10 UNL     1     -35.041  12.650  -4.493  1.00 20.00    -0.647 OA
HETATM   11  O11 UNL     1     -32.906  12.975  -3.735  1.00 20.00    -0.647 OA
ENDBRANCH   8   9
TORSDOF 1
ENDMDL
MODEL 4
REMARK VINA RESULT:      -4.9      1.539      2.394
REMARK  1 active torsions:
REMARK  status: ('A' for Active; 'I' for Inactive)
REMARK    1  A    between atoms: C1_1  and  C9_9 
ROOT
HETATM    1  C2  UNL     1     -34.822  17.895  -5.051  1.00 20.00     0.010 C 
HETATM    2  C3  UNL     1     -35.730  15.499  -4.586  1.00 20.00     0.025 C 
HETATM    3  C4  UNL     1     -33.264  15.879  -4.510  1.00 20.00     0.025 C 
HETATM    4  C5  UNL     1     -34.312  14.880  -6.383  1.00 20.00     0.026 C 
HETATM    5  C6  UNL     1     -35.701  16.714  -5.533  1.00 20.00    -0.008 C 
HETATM    6  C7  UNL     1     -33.599  17.039  -5.467  1.00 20.00    -0.008 C 
HETATM    7  C8  UNL     1     -34.540  16.376  -6.524  1.00 20.00    -0.005 C 
HETATM    8  C9  UNL     1     -34.359  14.859  -4.855  1.00 20.00     0.049 C 
ENDROOT
BRANCH   8   9
HETATM    9  C1  UNL     1     -34.147  13.481  -4.286  1.00 20.00     0.181 C 
HETATM   10  O10 UNL     1     -35.098  12.671  -4.466  1.00 20.00    -0.647 OA
HETATM   11  O11 UNL     1     -33.040  13.313  -3.701  1.00 20.00    -0.647 OA
ENDBRANCH   8   9
TORSDOF 1
ENDMDL
MODEL 5
REMARK VINA RESULT:      -4.8      1.335      1.854
REMARK  1 active torsions:
REMARK  status: ('A' for Active; 'I' for Inactive)
REMARK    1  A    between atoms: C1_1  and  C9_9 
ROOT
HETATM    1  C2  UNL     1     -35.485  17.494  -5.484  1.00 20.00     0.010 C 
HETATM    2  C3  UNL     1     -34.395  15.184  -5.995  1.00 20.00     0.025 C 
HETATM    3  C4  UNL     1     -35.402  15.559  -3.743  1.00 20.00     0.025 C 
HETATM    4  C5  UNL     1     -33.063  15.670  -4.094  1.00 20.00     0.026 C 
HETATM    5  C6  UNL     1     -34.238  16.717  -5.975  1.00 20.00    -0.008 C 
HETATM    6  C7  UNL     1     -35.097  17.037  -4.055  1.00 20.00    -0.008 C 
HETATM    7  C8  UNL     1     -33.621  17.002  -4.567  1.00 20.00    -0.005 C 
HETATM    8  C9  UNL     1     -34.279  14.838  -4.503  1.00 20.00     0.049 C 
ENDROOT
BRANCH   8   9
HETATM    9  C1  UNL     1     -34.122  13.377  -4.171  1.00 20.00     0.181 C 
HETATM   10  O10 UNL     1     -35.109  12.648  -4.468  1.00 20.00    -0.647 OA
HETATM   11  O11 UNL     1     -33.020  13.071  -3.635  1.00 20.00    -0.647 OA
ENDBRANCH   8   9
TORSDOF 1
ENDMDL
MODEL 6
REMARK VINA RESULT:      -4.8      1.267      1.833
REMARK  1 active torsions:
REMARK  status: ('A' for Active; 'I' for Inactive)
REMARK    1  A    between atoms: C1_1  and  C9_9 
ROOT
HETATM    1  C2  UNL     1     -35.693  17.723  -3.465  1.00 20.00     0.010 C 
HETATM    2  C3  UNL     1     -35.418  15.534  -4.848  1.00 20.00     0.025 C 
HETATM    3  C4  UNL     1     -34.591  15.573  -2.494  1.00 20.00     0.025 C 
HETATM    4  C5  UNL     1     -33.118  15.791  -4.334  1.00 20.00     0.026 C 
HETATM    5  C6  UNL     1     -35.176  17.053  -4.762  1.00 20.00    -0.008 C 
HETATM    6  C7  UNL     1     -34.472  17.086  -2.755  1.00 20.00    -0.008 C 
HETATM    7  C8  UNL     1     -33.747  17.160  -4.137  1.00 20.00    -0.005 C 
HETATM    8  C9  UNL     1     -34.344  14.991  -3.893  1.00 20.00     0.049 C 
ENDROOT
BRANCH   8   9
HETATM    9  C1  UNL     1     -34.112  13.503  -3.932  1.00 20.00     0.181 C 
HETATM   10  O10 UNL     1     -32.953  13.130  -3.598  1.00 20.00    -0.647 OA
HETATM   11  O11 UNL     1     -35.110  12.820  -4.296  1.00 20.00    -0.647 OA
ENDBRANCH   8   9
TORSDOF 1
ENDMDL
MODEL 7
REMARK VINA RESULT:      -4.7     10.889     12.426
REMARK  1 active torsions:
REMARK  status: ('A' for Active; 'I' for Inactive)
REMARK    1  A    between atoms: C1_1  and  C9_9 
ROOT
HETATM    1  C2  UNL     1     -41.917   4.268   0.424  1.00 20.00     0.010 C 
HETATM    2  C3  UNL     1     -43.237   6.215  -0.693  1.00 20.00     0.025 C 
HETATM    3  C4  UNL     1     -41.640   4.898  -2.088  1.00 20.00     0.025 C 
HETATM    4  C5  UNL     1     -41.080   7.036  -1.238  1.00 20.00     0.026 C 
HETATM    5  C6  UNL     1     -42.315   5.765   0.457  1.00 20.00    -0.008 C 
HETATM    6  C7  UNL     1     -40.955   4.641  -0.732  1.00 20.00    -0.008 C 
HETATM    7  C8  UNL     1     -40.880   6.063  -0.088  1.00 20.00    -0.005 C 
HETATM    8  C9  UNL     1     -42.254   6.289  -1.872  1.00 20.00     0.049 C 
ENDROOT
BRANCH   8   9
HETATM    9  C1  UNL     1     -42.763   6.961  -3.120  1.00 20.00     0.181 C 
HETATM   10  O10 UNL     1     -42.473   8.184  -3.231  1.00 20.00    -0.647 OA
HETATM   11  O11 UNL     1     -43.417   6.209  -3.897  1.00 20.00    -0.647 OA
ENDBRANCH   8   9
TORSDOF 1
ENDMDL
MODEL 8
REMARK VINA RESULT:      -4.7     11.410     12.853
REMARK  1 active torsions:
REMARK  status: ('A' for Active; 'I' for Inactive)
REMARK    1  A    between atoms: C1_1  and  C9_9 
ROOT
HETATM    1  C2  UNL     1     -40.803   7.152  -0.618  1.00 20.00     0.010 C 
HETATM    2  C3  UNL     1     -40.847   4.618  -1.216  1.00 20.00     0.025 C 
HETATM    3  C4  UNL     1     -42.222   6.193  -2.579  1.00 20.00     0.025 C 
HETATM    4  C5  UNL     1     -43.187   4.837  -0.896  1.00 20.00     0.026 C 
HETATM    5  C6  UNL     1     -41.021   5.698  -0.131  1.00 20.00    -0.008 C 
HETATM    6  C7  UNL     1     -42.193   7.041  -1.294  1.00 20.00    -0.008 C 
HETATM    7  C8  UNL     1     -42.552   6.013  -0.173  1.00 20.00    -0.005 C 
HETATM    8  C9  UNL     1     -42.150   4.766  -2.017  1.00 20.00     0.049 C 
ENDROOT
BRANCH   8   9
HETATM    9  C1  UNL     1     -42.445   3.674  -3.012  1.00 20.00     0.181 C 
HETATM   10  O10 UNL     1     -43.417   3.898  -3.785  1.00 20.00    -0.647 OA
HETATM   11  O11 UNL     1     -41.677   2.673  -2.944  1.00 20.00    -0.647 OA
ENDBRANCH   8   9
TORSDOF 1
ENDMDL
MODEL 9
REMARK VINA RESULT:      -4.7      1.423      2.113
REMARK  1 active torsions:
REMARK  status: ('A' for Active; 'I' for Inactive)
REMARK    1  A    between atoms: C1_1  and  C9_9 
ROOT
HETATM    1  C2  UNL     1     -33.085  15.933  -4.410  1.00 20.00     0.010 C 
HETATM    2  C3  UNL     1     -35.558  15.831  -5.219  1.00 20.00     0.025 C 
HETATM    3  C4  UNL     1     -35.083  15.534  -2.787  1.00 20.00     0.025 C 
HETATM    4  C5  UNL     1     -35.544  13.690  -4.199  1.00 20.00     0.026 C 
HETATM    5  C6  UNL     1     -34.119  15.302  -5.375  1.00 20.00    -0.008 C 
HETATM    6  C7  UNL     1     -33.714  15.051  -3.302  1.00 20.00    -0.008 C 
HETATM    7  C8  UNL     1     -34.088  14.049  -4.441  1.00 20.00    -0.005 C 
HETATM    8  C9  UNL     1     -36.015  15.121  -3.936  1.00 20.00     0.049 C 
ENDROOT
BRANCH   8   9
HETATM    9  C1  UNL     1     -37.486  15.200  -3.621  1.00 20.00     0.181 C 
HETATM   10  O10 UNL     1     -38.124  14.119  -3.750  1.00 20.00    -0.647 OA
HETATM   11  O11 UNL     1     -37.892  16.343  -3.267  1.00 20.00    -0.647 OA
ENDBRANCH   8   9
TORSDOF 1
ENDMDL
