MODEL 1
REMARK VINA RESULT:      -6.1      0.000      0.000
REMARK  1 active torsions:
REMARK  status: ('A' for Active; 'I' for Inactive)
REMARK    1  A    between atoms: C1_1  and  C7_7 
ROOT
HETATM    1  C1  UNL     1     -33.058   6.827   3.513  1.00 20.00    -0.057 C 
HETATM    2  C2  UNL     1     -32.421   7.524   2.771  1.00 20.00     0.276 C 
HETATM    3  O10 UNL     1     -31.798   8.208   2.045  1.00 20.00    -0.274 OA
ENDROOT
BRANCH   1   4
HETATM    4  C7  UNL     1     -33.749   6.069   4.317  1.00 20.00     0.023 A 
HETATM    5  C5  UNL     1     -34.485   4.938   3.755  1.00 20.00     0.021 A 
HETATM    6  C3  UNL     1     -35.208   4.140   4.560  1.00 20.00     0.002 A 
HETATM    7  C4  UNL     1     -35.280   4.369   5.993  1.00 20.00     0.001 A 
HETATM    8  C6  UNL     1     -34.628   5.389   6.580  1.00 20.00     0.012 A 
HETATM    9  C8  UNL     1     -33.816   6.310   5.775  1.00 20.00    -0.027 A 
HETATM   10  C9  UNL     1     -33.176   7.322   6.390  1.00 20.00     0.025 C 
ENDBRANCH   1   4
TORSDOF 1
ENDMDL
MODEL 2
REMARK VINA RESULT:      -5.9      0.669      2.248
REMARK  1 active torsions:
REMARK  status: ('A' for Active; 'I' for Inactive)
REMARK    1  A    between atoms: C1_1  and  C7_7 
ROOT
HETATM    1  C1  UNL     1     -32.837   7.128   3.271  1.00 20.00    -0.057 C 
HETATM    2  C2  UNL     1     -32.185   7.774   2.497  1.00 20.00     0.276 C 
HETATM    3  O10 UNL     1     -31.546   8.407   1.739  1.00 20.00    -0.274 OA
ENDROOT
BRANCH   1   4
HETATM    4  C7  UNL     1     -33.544   6.427   4.111  1.00 20.00     0.023 A 
HETATM    5  C5  UNL     1     -33.453   6.740   5.536  1.00 20.00     0.021 A 
HETATM    6  C3  UNL     1     -34.170   6.032   6.426  1.00 20.00     0.002 A 
HETATM    7  C4  UNL     1     -35.046   4.951   6.010  1.00 20.00     0.001 A 
HETATM    8  C6  UNL     1     -35.181   4.608   4.716  1.00 20.00     0.012 A 
HETATM    9  C8  UNL     1     -34.434   5.327   3.677  1.00 20.00    -0.027 A 
HETATM   10  C9  UNL     1     -34.588   4.961   2.391  1.00 20.00     0.025 C 
ENDBRANCH   1   4
TORSDOF 1
ENDMDL
MODEL 3
REMARK VINA RESULT:      -4.7     11.567     13.104
REMARK  1 active torsions:
REMARK  status: ('A' for Active; 'I' for Inactive)
REMARK    1  A    between atoms: C1_1  and  C7_7 
ROOT
HETATM    1  C1  UNL     1     -34.569  14.835  -3.303  1.00 20.00    -0.057 C 
HETATM    2  C2  UNL     1     -34.766  13.763  -3.806  1.00 20.00     0.276 C 
HETATM    3  O10 UNL     1     -34.959  12.713  -4.299  1.00 20.00    -0.274 OA
ENDROOT
BRANCH   1   4
HETATM    4  C7  UNL     1     -34.355  15.999  -2.758  1.00 20.00     0.023 A 
HETATM    5  C5  UNL     1     -34.660  16.175  -1.339  1.00 20.00     0.021 A 
HETATM    6  C3  UNL     1     -34.451  17.365  -0.750  1.00 20.00     0.002 A 
HETATM    7  C4  UNL     1     -33.924  18.499  -1.489  1.00 20.00     0.001 A 
HETATM    8  C6  UNL     1     -33.620  18.410  -2.797  1.00 20.00     0.012 A 
HETATM    9  C8  UNL     1     -33.817  17.148  -3.520  1.00 20.00    -0.027 A 
HETATM   10  C9  UNL     1     -33.505  17.090  -4.828  1.00 20.00     0.025 C 
ENDBRANCH   1   4
TORSDOF 1
ENDMDL
MODEL 4
REMARK VINA RESULT:      -4.5      9.855     11.083
REMARK  1 active torsions:
REMARK  status: ('A' for Active; 'I' for Inactive)
REMARK    1  A    between atoms: C1_1  and  C7_7 
ROOT
HETATM    1  C1  UNL     1     -41.790   3.563  -2.498  1.00 20.00    -0.057 C 
HETATM    2  C2  UNL     1     -41.940   2.483  -3.002  1.00 20.00     0.276 C 
HETATM    3  O10 UNL     1     -42.088   1.426  -3.494  1.00 20.00    -0.274 OA
ENDROOT
BRANCH   1   4
HETATM    4  C7  UNL     1     -41.626   4.735  -1.952  1.00 20.00     0.023 A 
HETATM    5  C5  UNL     1     -40.705   4.859  -0.823  1.00 20.00     0.021 A 
HETATM    6  C3  UNL     1     -40.517   6.055  -0.239  1.00 20.00     0.002 A 
HETATM    7  C4  UNL     1     -41.210   7.245  -0.701  1.00 20.00     0.001 A 
HETATM    8  C6  UNL     1     -42.071   7.206  -1.734  1.00 20.00     0.012 A 
HETATM    9  C8  UNL     1     -42.337   5.941  -2.430  1.00 20.00    -0.027 A 
HETATM   10  C9  UNL     1     -43.204   5.933  -3.459  1.00 20.00     0.025 C 
ENDBRANCH   1   4
TORSDOF 1
ENDMDL
MODEL 5
REMARK VINA RESULT:      -4.4     11.806     13.124
REMARK  1 active torsions:
REMARK  status: ('A' for Active; 'I' for Inactive)
REMARK    1  A    between atoms: C1_1  and  C7_7 
ROOT
HETATM    1  C1  UNL     1     -34.590  16.046  -2.230  1.00 20.00    -0.057 C 
HETATM    2  C2  UNL     1     -34.618  16.496  -1.117  1.00 20.00     0.276 C 
HETATM    3  O10 UNL     1     -34.646  16.938  -0.028  1.00 20.00    -0.274 OA
ENDROOT
BRANCH   1   4
HETATM    4  C7  UNL     1     -34.559  15.556  -3.437  1.00 20.00     0.023 A 
HETATM    5  C5  UNL     1     -34.986  14.174  -3.645  1.00 20.00     0.021 A 
HETATM    6  C3  UNL     1     -34.963  13.642  -4.879  1.00 20.00     0.002 A 
HETATM    7  C4  UNL     1     -34.522  14.409  -6.030  1.00 20.00     0.001 A 
HETATM    8  C6  UNL     1     -34.116  15.687  -5.915  1.00 20.00     0.012 A 
HETATM    9  C8  UNL     1     -34.107  16.347  -4.604  1.00 20.00    -0.027 A 
HETATM   10  C9  UNL     1     -33.695  17.625  -4.520  1.00 20.00     0.025 C 
ENDBRANCH   1   4
TORSDOF 1
ENDMDL
MODEL 6
REMARK VINA RESULT:      -4.3     11.697     12.479
REMARK  1 active torsions:
REMARK  status: ('A' for Active; 'I' for Inactive)
REMARK    1  A    between atoms: C1_1  and  C7_7 
ROOT
HETATM    1  C1  UNL     1     -34.626  16.106  -1.781  1.00 20.00    -0.057 C 
HETATM    2  C2  UNL     1     -34.470  16.797  -0.812  1.00 20.00     0.276 C 
HETATM    3  O10 UNL     1     -34.318  17.474   0.138  1.00 20.00    -0.274 OA
ENDROOT
BRANCH   1   4
HETATM    4  C7  UNL     1     -34.795  15.356  -2.834  1.00 20.00     0.023 A 
HETATM    5  C5  UNL     1     -33.746  14.404  -3.192  1.00 20.00     0.021 A 
HETATM    6  C3  UNL     1     -33.892  13.618  -4.273  1.00 20.00     0.002 A 
HETATM    7  C4  UNL     1     -35.078  13.687  -5.109  1.00 20.00     0.001 A 
HETATM    8  C6  UNL     1     -36.084  14.539  -4.840  1.00 20.00     0.012 A 
HETATM    9  C8  UNL     1     -36.007  15.434  -3.679  1.00 20.00    -0.027 A 
HETATM   10  C9  UNL     1     -37.029  16.276  -3.436  1.00 20.00     0.025 C 
ENDBRANCH   1   4
TORSDOF 1
ENDMDL
MODEL 7
REMARK VINA RESULT:      -4.3     11.808     13.676
REMARK  1 active torsions:
REMARK  status: ('A' for Active; 'I' for Inactive)
REMARK    1  A    between atoms: C1_1  and  C7_7 
ROOT
HETATM    1  C1  UNL     1     -34.440  14.917  -4.121  1.00 20.00    -0.057 C 
HETATM    2  C2  UNL     1     -34.693  13.751  -4.249  1.00 20.00     0.276 C 
HETATM    3  O10 UNL     1     -34.940  12.608  -4.376  1.00 20.00    -0.274 OA
ENDROOT
BRANCH   1   4
HETATM    4  C7  UNL     1     -34.167  16.184  -3.981  1.00 20.00     0.023 A 
HETATM    5  C5  UNL     1     -33.775  16.951  -5.162  1.00 20.00     0.021 A 
HETATM    6  C3  UNL     1     -33.485  18.258  -5.049  1.00 20.00     0.002 A 
HETATM    7  C4  UNL     1     -33.551  18.944  -3.769  1.00 20.00     0.001 A 
HETATM    8  C6  UNL     1     -33.904  18.302  -2.641  1.00 20.00     0.012 A 
HETATM    9  C8  UNL     1     -34.236  16.873  -2.673  1.00 20.00    -0.027 A 
HETATM   10  C9  UNL     1     -34.586  16.258  -1.528  1.00 20.00     0.025 C 
ENDBRANCH   1   4
TORSDOF 1
ENDMDL
MODEL 8
REMARK VINA RESULT:      -4.2     12.036     12.658
REMARK  1 active torsions:
REMARK  status: ('A' for Active; 'I' for Inactive)
REMARK    1  A    between atoms: C1_1  and  C7_7 
ROOT
HETATM    1  C1  UNL     1     -37.273  14.735  -3.824  1.00 20.00    -0.057 C 
HETATM    2  C2  UNL     1     -38.470  14.785  -3.887  1.00 20.00     0.276 C 
HETATM    3  O10 UNL     1     -39.644  14.834  -3.949  1.00 20.00    -0.274 OA
ENDROOT
BRANCH   1   4
HETATM    4  C7  UNL     1     -35.972  14.681  -3.755  1.00 20.00     0.023 A 
HETATM    5  C5  UNL     1     -35.285  13.544  -4.364  1.00 20.00     0.021 A 
HETATM    6  C3  UNL     1     -33.945  13.460  -4.308  1.00 20.00     0.002 A 
HETATM    7  C4  UNL     1     -33.146  14.480  -3.650  1.00 20.00     0.001 A 
HETATM    8  C6  UNL     1     -33.709  15.554  -3.069  1.00 20.00     0.012 A 
HETATM    9  C8  UNL     1     -35.167  15.725  -3.083  1.00 20.00    -0.027 A 
HETATM   10  C9  UNL     1     -35.703  16.809  -2.491  1.00 20.00     0.025 C 
ENDBRANCH   1   4
TORSDOF 1
ENDMDL
MODEL 9
REMARK VINA RESULT:      -4.2     11.665     13.651
REMARK  1 active torsions:
REMARK  status: ('A' for Active; 'I' for Inactive)
REMARK    1  A    between atoms: C1_1  and  C7_7 
ROOT
HETATM    1  C1  UNL     1     -34.534  16.035  -3.019  1.00 20.00    -0.057 C 
HETATM    2  C2  UNL     1     -34.561  16.244  -1.837  1.00 20.00     0.276 C 
HETATM    3  O10 UNL     1     -34.587  16.449  -0.679  1.00 20.00    -0.274 OA
ENDROOT
BRANCH   1   4
HETATM    4  C7  UNL     1     -34.504  15.808  -4.302  1.00 20.00     0.023 A 
HETATM    5  C5  UNL     1     -34.208  16.919  -5.203  1.00 20.00     0.021 A 
HETATM    6  C3  UNL     1     -34.172  16.716  -6.532  1.00 20.00     0.002 A 
HETATM    7  C4  UNL     1     -34.422  15.406  -7.107  1.00 20.00     0.001 A 
HETATM    8  C6  UNL     1     -34.700  14.337  -6.339  1.00 20.00     0.012 A 
HETATM    9  C8  UNL     1     -34.760  14.469  -4.878  1.00 20.00    -0.027 A 
HETATM   10  C9  UNL     1     -35.041  13.382  -4.136  1.00 20.00     0.025 C 
ENDBRANCH   1   4
TORSDOF 1
ENDMDL
