MODEL 1
REMARK VINA RESULT:      -3.7      0.000      0.000
REMARK  0 active torsions:
REMARK  status: ('A' for Active; 'I' for Inactive)
ROOT
HETATM    1  C1  UNL     1     -33.433  13.700  -3.672  1.00 20.00     0.029 C 
HETATM    2  C2  UNL     1     -33.039  15.172  -3.788  1.00 20.00     0.046 C 
HETATM    3  C3  UNL     1     -34.726  13.431  -4.432  1.00 20.00     0.167 C 
HETATM    4  C4  UNL     1     -35.476  15.672  -4.202  1.00 20.00     0.209 C 
HETATM    5  C5  UNL     1     -34.211  16.102  -3.453  1.00 20.00     0.134 C 
HETATM    6  O6  UNL     1     -35.769  14.290  -3.977  1.00 20.00    -0.388 OA
HETATM    7 CL7  UNL     1     -34.532  16.069  -1.683  1.00 20.00    -0.099 Cl
HETATM    8 CL8  UNL     1     -33.790  17.785  -3.900  1.00 20.00    -0.099 Cl
ENDROOT
TORSDOF 0
ENDMDL
MODEL 2
REMARK VINA RESULT:      -3.7      1.831      2.352
REMARK  0 active torsions:
REMARK  status: ('A' for Active; 'I' for Inactive)
ROOT
HETATM    1  C1  UNL     1     -34.265  15.427  -6.200  1.00 20.00     0.029 C 
HETATM    2  C2  UNL     1     -34.407  16.085  -4.828  1.00 20.00     0.046 C 
HETATM    3  C3  UNL     1     -35.088  14.147  -6.267  1.00 20.00     0.167 C 
HETATM    4  C4  UNL     1     -34.975  13.802  -3.921  1.00 20.00     0.209 C 
HETATM    5  C5  UNL     1     -34.170  15.084  -3.691  1.00 20.00     0.134 C 
HETATM    6  O6  UNL     1     -34.722  13.254  -5.218  1.00 20.00    -0.388 OA
HETATM    7 CL7  UNL     1     -32.421  14.674  -3.591  1.00 20.00    -0.099 Cl
HETATM    8 CL8  UNL     1     -34.648  15.822  -2.130  1.00 20.00    -0.099 Cl
ENDROOT
TORSDOF 0
ENDMDL
MODEL 3
REMARK VINA RESULT:      -3.7      2.543      3.271
REMARK  0 active torsions:
REMARK  status: ('A' for Active; 'I' for Inactive)
ROOT
HETATM    1  C1  UNL     1     -33.834  16.705  -2.461  1.00 20.00     0.029 C 
HETATM    2  C2  UNL     1     -34.687  15.462  -2.710  1.00 20.00     0.046 C 
HETATM    3  C3  UNL     1     -33.643  17.491  -3.752  1.00 20.00     0.167 C 
HETATM    4  C4  UNL     1     -33.930  15.567  -5.113  1.00 20.00     0.209 C 
HETATM    5  C5  UNL     1     -34.176  14.654  -3.908  1.00 20.00     0.134 C 
HETATM    6  O6  UNL     1     -33.081  16.665  -4.769  1.00 20.00    -0.388 OA
HETATM    7 CL7  UNL     1     -32.642  13.820  -3.476  1.00 20.00    -0.099 Cl
HETATM    8 CL8  UNL     1     -35.377  13.397  -4.342  1.00 20.00    -0.099 Cl
ENDROOT
TORSDOF 0
ENDMDL
MODEL 4
REMARK VINA RESULT:      -3.6      2.556      2.998
REMARK  0 active torsions:
REMARK  status: ('A' for Active; 'I' for Inactive)
ROOT
HETATM    1  C1  UNL     1     -33.405  15.543  -4.011  1.00 20.00     0.029 C 
HETATM    2  C2  UNL     1     -33.983  15.531  -5.425  1.00 20.00     0.046 C 
HETATM    3  C3  UNL     1     -33.037  14.132  -3.572  1.00 20.00     0.167 C 
HETATM    4  C4  UNL     1     -34.636  13.131  -5.014  1.00 20.00     0.209 C 
HETATM    5  C5  UNL     1     -35.089  14.481  -5.578  1.00 20.00     0.134 C 
HETATM    6  O6  UNL     1     -34.162  13.261  -3.670  1.00 20.00    -0.388 OA
HETATM    7 CL7  UNL     1     -36.569  15.018  -4.708  1.00 20.00    -0.099 Cl
HETATM    8 CL8  UNL     1     -35.510  14.297  -7.310  1.00 20.00    -0.099 Cl
ENDROOT
TORSDOF 0
ENDMDL
MODEL 5
REMARK VINA RESULT:      -3.5      2.578      3.123
REMARK  0 active torsions:
REMARK  status: ('A' for Active; 'I' for Inactive)
ROOT
HETATM    1  C1  UNL     1     -33.512  13.701  -3.873  1.00 20.00     0.029 C 
HETATM    2  C2  UNL     1     -35.032  13.752  -4.016  1.00 20.00     0.046 C 
HETATM    3  C3  UNL     1     -32.947  15.099  -3.655  1.00 20.00     0.167 C 
HETATM    4  C4  UNL     1     -34.765  16.143  -4.771  1.00 20.00     0.209 C 
HETATM    5  C5  UNL     1     -35.471  14.810  -5.034  1.00 20.00     0.134 C 
HETATM    6  O6  UNL     1     -33.345  15.976  -4.706  1.00 20.00    -0.388 OA
HETATM    7 CL7  UNL     1     -35.083  14.255  -6.701  1.00 20.00    -0.099 Cl
HETATM    8 CL8  UNL     1     -37.245  15.041  -4.935  1.00 20.00    -0.099 Cl
ENDROOT
TORSDOF 0
ENDMDL
MODEL 6
REMARK VINA RESULT:      -3.5     12.573     13.253
REMARK  0 active torsions:
REMARK  status: ('A' for Active; 'I' for Inactive)
ROOT
HETATM    1  C1  UNL     1     -34.261   6.407   6.073  1.00 20.00     0.029 C 
HETATM    2  C2  UNL     1     -33.803   6.310   4.619  1.00 20.00     0.046 C 
HETATM    3  C3  UNL     1     -34.418   5.019   6.678  1.00 20.00     0.167 C 
HETATM    4  C4  UNL     1     -34.831   4.009   4.569  1.00 20.00     0.209 C 
HETATM    5  C5  UNL     1     -34.666   5.332   3.815  1.00 20.00     0.134 C 
HETATM    6  O6  UNL     1     -35.310   4.225   5.900  1.00 20.00    -0.388 OA
HETATM    7 CL7  UNL     1     -36.290   6.049   3.518  1.00 20.00    -0.099 Cl
HETATM    8 CL8  UNL     1     -33.905   5.024   2.223  1.00 20.00    -0.099 Cl
ENDROOT
TORSDOF 0
ENDMDL
MODEL 7
REMARK VINA RESULT:      -3.5      1.686      2.189
REMARK  0 active torsions:
REMARK  status: ('A' for Active; 'I' for Inactive)
ROOT
HETATM    1  C1  UNL     1     -34.800  13.443  -5.090  1.00 20.00     0.029 C 
HETATM    2  C2  UNL     1     -34.568  13.948  -3.667  1.00 20.00     0.046 C 
HETATM    3  C3  UNL     1     -34.487  14.536  -6.104  1.00 20.00     0.167 C 
HETATM    4  C4  UNL     1     -34.946  16.277  -4.556  1.00 20.00     0.209 C 
HETATM    5  C5  UNL     1     -35.257  15.295  -3.423  1.00 20.00     0.134 C 
HETATM    6  O6  UNL     1     -35.249  15.711  -5.834  1.00 20.00    -0.388 OA
HETATM    7 CL7  UNL     1     -37.038  15.062  -3.317  1.00 20.00    -0.099 Cl
HETATM    8 CL8  UNL     1     -34.703  15.981  -1.864  1.00 20.00    -0.099 Cl
ENDROOT
TORSDOF 0
ENDMDL
MODEL 8
REMARK VINA RESULT:      -3.5     12.258     13.088
REMARK  0 active torsions:
REMARK  status: ('A' for Active; 'I' for Inactive)
ROOT
HETATM    1  C1  UNL     1     -42.398   6.952  -1.739  1.00 20.00     0.029 C 
HETATM    2  C2  UNL     1     -42.378   5.676  -2.579  1.00 20.00     0.046 C 
HETATM    3  C3  UNL     1     -41.098   7.098  -0.958  1.00 20.00     0.167 C 
HETATM    4  C4  UNL     1     -40.701   4.757  -0.936  1.00 20.00     0.209 C 
HETATM    5  C5  UNL     1     -41.963   4.456  -1.750  1.00 20.00     0.134 C 
HETATM    6  O6  UNL     1     -40.857   5.945  -0.155  1.00 20.00    -0.388 OA
HETATM    7 CL7  UNL     1     -43.292   3.995  -0.629  1.00 20.00    -0.099 Cl
HETATM    8 CL8  UNL     1     -41.659   3.064  -2.837  1.00 20.00    -0.099 Cl
ENDROOT
TORSDOF 0
ENDMDL
MODEL 9
REMARK VINA RESULT:      -3.4      2.519      3.151
REMARK  0 active torsions:
REMARK  status: ('A' for Active; 'I' for Inactive)
ROOT
HETATM    1  C1  UNL     1     -35.779  15.561  -3.019  1.00 20.00     0.029 C 
HETATM    2  C2  UNL     1     -35.715  15.518  -4.545  1.00 20.00     0.046 C 
HETATM    3  C3  UNL     1     -34.566  16.290  -2.454  1.00 20.00     0.167 C 
HETATM    4  C4  UNL     1     -33.215  15.761  -4.333  1.00 20.00     0.209 C 
HETATM    5  C5  UNL     1     -34.353  15.023  -5.044  1.00 20.00     0.134 C 
HETATM    6  O6  UNL     1     -33.356  15.690  -2.912  1.00 20.00    -0.388 OA
HETATM    7 CL7  UNL     1     -34.194  13.257  -4.738  1.00 20.00    -0.099 Cl
HETATM    8 CL8  UNL     1     -34.228  15.284  -6.812  1.00 20.00    -0.099 Cl
ENDROOT
TORSDOF 0
ENDMDL
