MODEL 1
REMARK VINA RESULT:      -5.0      0.000      0.000
REMARK  1 active torsions:
REMARK  status: ('A' for Active; 'I' for Inactive)
REMARK    1  A    between atoms: C4_4  and  C7_7 
ROOT
HETATM    1  C1  UNL     1     -34.555  15.644  -2.573  1.00 20.00    -0.024 C 
HETATM    2  C2  UNL     1     -35.660  15.339  -3.273  1.00 20.00    -0.013 C 
HETATM    3  C3  UNL     1     -34.498  13.603  -4.402  1.00 20.00     0.140 C 
HETATM    4  C5  UNL     1     -33.190  13.889  -3.657  1.00 20.00     0.088 C 
HETATM    5  C6  UNL     1     -33.358  15.419  -3.483  1.00 20.00     0.027 C 
HETATM    6  C7  UNL     1     -33.967  15.810  -4.844  1.00 20.00     0.074 C 
HETATM    7  C8  UNL     1     -35.219  14.933  -4.661  1.00 20.00     0.045 C 
HETATM    8  C9  UNL     1     -36.236  14.947  -5.771  1.00 20.00     0.029 C 
HETATM    9  O10 UNL     1     -34.902  12.492  -4.708  1.00 20.00    -0.297 OA
ENDROOT
BRANCH   6  10
HETATM   10  C4  UNL     1     -34.190  17.288  -5.004  1.00 20.00     0.237 C 
HETATM   11  O11 UNL     1     -33.297  18.122  -4.890  1.00 20.00    -0.306 OA
ENDBRANCH   6  10
TORSDOF 1
ENDMDL
MODEL 2
REMARK VINA RESULT:      -4.8      1.635      2.798
REMARK  1 active torsions:
REMARK  status: ('A' for Active; 'I' for Inactive)
REMARK    1  A    between atoms: C4_4  and  C7_7 
ROOT
HETATM    1  C1  UNL     1     -35.215  16.373  -4.711  1.00 20.00    -0.024 C 
HETATM    2  C2  UNL     1     -34.051  15.718  -4.854  1.00 20.00    -0.013 C 
HETATM    3  C3  UNL     1     -35.100  13.671  -4.263  1.00 20.00     0.140 C 
HETATM    4  C5  UNL     1     -36.464  14.338  -4.064  1.00 20.00     0.088 C 
HETATM    5  C6  UNL     1     -35.971  15.719  -3.566  1.00 20.00     0.027 C 
HETATM    6  C7  UNL     1     -34.796  15.307  -2.657  1.00 20.00     0.074 C 
HETATM    7  C8  UNL     1     -34.005  14.640  -3.796  1.00 20.00     0.045 C 
HETATM    8  C9  UNL     1     -32.671  14.036  -3.443  1.00 20.00     0.029 C 
HETATM    9  O10 UNL     1     -34.924  12.562  -4.742  1.00 20.00    -0.297 OA
ENDROOT
BRANCH   6  10
HETATM   10  C4  UNL     1     -34.138  16.463  -1.958  1.00 20.00     0.237 C 
HETATM   11  O11 UNL     1     -34.307  16.720  -0.770  1.00 20.00    -0.306 OA
ENDBRANCH   6  10
TORSDOF 1
ENDMDL
MODEL 3
REMARK VINA RESULT:      -4.8      1.545      3.170
REMARK  1 active torsions:
REMARK  status: ('A' for Active; 'I' for Inactive)
REMARK    1  A    between atoms: C4_4  and  C7_7 
ROOT
HETATM    1  C1  UNL     1     -34.539  13.511  -3.778  1.00 20.00    -0.024 C 
HETATM    2  C2  UNL     1     -34.390  13.772  -5.087  1.00 20.00    -0.013 C 
HETATM    3  C3  UNL     1     -33.681  15.984  -4.594  1.00 20.00     0.140 C 
HETATM    4  C5  UNL     1     -33.834  15.779  -3.084  1.00 20.00     0.088 C 
HETATM    5  C6  UNL     1     -35.024  14.787  -3.109  1.00 20.00     0.027 C 
HETATM    6  C7  UNL     1     -35.886  15.384  -4.239  1.00 20.00     0.074 C 
HETATM    7  C8  UNL     1     -34.795  15.211  -5.312  1.00 20.00     0.045 C 
HETATM    8  C9  UNL     1     -35.133  15.652  -6.712  1.00 20.00     0.029 C 
HETATM    9  O10 UNL     1     -32.796  16.634  -5.127  1.00 20.00    -0.297 OA
ENDROOT
BRANCH   6  10
HETATM   10  C4  UNL     1     -37.180  14.653  -4.462  1.00 20.00     0.237 C 
HETATM   11  O11 UNL     1     -37.942  14.335  -3.554  1.00 20.00    -0.306 OA
ENDBRANCH   6  10
TORSDOF 1
ENDMDL
MODEL 4
REMARK VINA RESULT:      -4.7      1.643      3.300
REMARK  1 active torsions:
REMARK  status: ('A' for Active; 'I' for Inactive)
REMARK    1  A    between atoms: C4_4  and  C7_7 
ROOT
HETATM    1  C1  UNL     1     -35.199  13.614  -5.683  1.00 20.00    -0.024 C 
HETATM    2  C2  UNL     1     -35.040  14.891  -6.070  1.00 20.00    -0.013 C 
HETATM    3  C3  UNL     1     -33.532  15.274  -4.276  1.00 20.00     0.140 C 
HETATM    4  C5  UNL     1     -33.662  13.839  -3.758  1.00 20.00     0.088 C 
HETATM    5  C6  UNL     1     -35.134  13.583  -4.165  1.00 20.00     0.027 C 
HETATM    6  C7  UNL     1     -35.777  14.945  -3.832  1.00 20.00     0.074 C 
HETATM    7  C8  UNL     1     -34.893  15.728  -4.820  1.00 20.00     0.045 C 
HETATM    8  C9  UNL     1     -35.123  17.213  -4.918  1.00 20.00     0.029 C 
HETATM    9  O10 UNL     1     -32.501  15.929  -4.278  1.00 20.00    -0.297 OA
ENDROOT
BRANCH   6  10
HETATM   10  C4  UNL     1     -37.261  14.986  -4.067  1.00 20.00     0.237 C 
HETATM   11  O11 UNL     1     -38.028  14.103  -3.699  1.00 20.00    -0.306 OA
ENDBRANCH   6  10
TORSDOF 1
ENDMDL
MODEL 5
REMARK VINA RESULT:      -4.6      1.552      3.316
REMARK  1 active torsions:
REMARK  status: ('A' for Active; 'I' for Inactive)
REMARK    1  A    between atoms: C4_4  and  C7_7 
ROOT
HETATM    1  C1  UNL     1     -33.334  16.356  -4.395  1.00 20.00    -0.024 C 
HETATM    2  C2  UNL     1     -34.582  16.491  -4.873  1.00 20.00    -0.013 C 
HETATM    3  C3  UNL     1     -35.443  16.619  -2.663  1.00 20.00     0.140 C 
HETATM    4  C5  UNL     1     -34.057  16.459  -2.031  1.00 20.00     0.088 C 
HETATM    5  C6  UNL     1     -33.420  15.548  -3.110  1.00 20.00     0.027 C 
HETATM    6  C7  UNL     1     -34.599  14.614  -3.447  1.00 20.00     0.074 C 
HETATM    7  C8  UNL     1     -35.510  15.757  -3.931  1.00 20.00     0.045 C 
HETATM    8  C9  UNL     1     -36.882  15.380  -4.423  1.00 20.00     0.029 C 
HETATM    9  O10 UNL     1     -36.330  17.340  -2.235  1.00 20.00    -0.297 OA
ENDROOT
BRANCH   6  10
HETATM   10  C4  UNL     1     -34.257  13.547  -4.449  1.00 20.00     0.237 C 
HETATM   11  O11 UNL     1     -34.930  12.534  -4.614  1.00 20.00    -0.306 OA
ENDBRANCH   6  10
TORSDOF 1
ENDMDL
MODEL 6
REMARK VINA RESULT:      -4.6      1.267      3.385
REMARK  1 active torsions:
REMARK  status: ('A' for Active; 'I' for Inactive)
REMARK    1  A    between atoms: C4_4  and  C7_7 
ROOT
HETATM    1  C1  UNL     1     -32.923  15.279  -3.648  1.00 20.00    -0.024 C 
HETATM    2  C2  UNL     1     -33.222  16.127  -4.646  1.00 20.00    -0.013 C 
HETATM    3  C3  UNL     1     -35.039  17.003  -3.394  1.00 20.00     0.140 C 
HETATM    4  C5  UNL     1     -34.778  16.064  -2.212  1.00 20.00     0.088 C 
HETATM    5  C6  UNL     1     -34.231  14.850  -3.004  1.00 20.00     0.027 C 
HETATM    6  C7  UNL     1     -35.160  14.853  -4.234  1.00 20.00     0.074 C 
HETATM    7  C8  UNL     1     -34.727  16.255  -4.697  1.00 20.00     0.045 C 
HETATM    8  C9  UNL     1     -35.361  16.790  -5.954  1.00 20.00     0.029 C 
HETATM    9  O10 UNL     1     -35.406  18.164  -3.299  1.00 20.00    -0.297 OA
ENDROOT
BRANCH   6  10
HETATM   10  C4  UNL     1     -34.908  13.715  -5.184  1.00 20.00     0.237 C 
HETATM   11  O11 UNL     1     -34.827  12.544  -4.829  1.00 20.00    -0.306 OA
ENDBRANCH   6  10
TORSDOF 1
ENDMDL
MODEL 7
REMARK VINA RESULT:      -4.6      1.068      3.681
REMARK  1 active torsions:
REMARK  status: ('A' for Active; 'I' for Inactive)
REMARK    1  A    between atoms: C4_4  and  C7_7 
ROOT
HETATM    1  C1  UNL     1     -35.730  15.896  -5.370  1.00 20.00    -0.024 C 
HETATM    2  C2  UNL     1     -35.970  16.281  -4.106  1.00 20.00    -0.013 C 
HETATM    3  C3  UNL     1     -33.801  17.236  -3.956  1.00 20.00     0.140 C 
HETATM    4  C5  UNL     1     -33.437  16.824  -5.386  1.00 20.00     0.088 C 
HETATM    5  C6  UNL     1     -34.262  15.515  -5.462  1.00 20.00     0.027 C 
HETATM    6  C7  UNL     1     -34.035  14.937  -4.051  1.00 20.00     0.074 C 
HETATM    7  C8  UNL     1     -34.677  16.140  -3.335  1.00 20.00     0.045 C 
HETATM    8  C9  UNL     1     -34.738  16.091  -1.832  1.00 20.00     0.029 C 
HETATM    9  O10 UNL     1     -33.466  18.281  -3.421  1.00 20.00    -0.297 OA
ENDROOT
BRANCH   6  10
HETATM   10  C4  UNL     1     -34.678  13.596  -3.837  1.00 20.00     0.237 C 
HETATM   11  O11 UNL     1     -34.632  12.685  -4.658  1.00 20.00    -0.306 OA
ENDBRANCH   6  10
TORSDOF 1
ENDMDL
MODEL 8
REMARK VINA RESULT:      -4.4      1.633      3.383
REMARK  1 active torsions:
REMARK  status: ('A' for Active; 'I' for Inactive)
REMARK    1  A    between atoms: C4_4  and  C7_7 
ROOT
HETATM    1  C1  UNL     1     -35.301  17.105  -2.183  1.00 20.00    -0.024 C 
HETATM    2  C2  UNL     1     -34.611  15.955  -2.100  1.00 20.00    -0.013 C 
HETATM    3  C3  UNL     1     -33.725  16.299  -4.277  1.00 20.00     0.140 C 
HETATM    4  C5  UNL     1     -34.485  17.616  -4.462  1.00 20.00     0.088 C 
HETATM    5  C6  UNL     1     -35.744  17.270  -3.628  1.00 20.00     0.027 C 
HETATM    6  C7  UNL     1     -35.967  15.796  -4.021  1.00 20.00     0.074 C 
HETATM    7  C8  UNL     1     -34.605  15.329  -3.476  1.00 20.00     0.045 C 
HETATM    8  C9  UNL     1     -34.283  13.864  -3.598  1.00 20.00     0.029 C 
HETATM    9  O10 UNL     1     -32.593  16.080  -4.679  1.00 20.00    -0.297 OA
ENDROOT
BRANCH   6  10
HETATM   10  C4  UNL     1     -37.193  15.185  -3.401  1.00 20.00     0.237 C 
HETATM   11  O11 UNL     1     -37.726  14.164  -3.822  1.00 20.00    -0.306 OA
ENDBRANCH   6  10
TORSDOF 1
ENDMDL
MODEL 9
REMARK VINA RESULT:      -4.4      1.765      2.860
REMARK  1 active torsions:
REMARK  status: ('A' for Active; 'I' for Inactive)
REMARK    1  A    between atoms: C4_4  and  C7_7 
ROOT
HETATM    1  C1  UNL     1     -34.442  15.437  -6.247  1.00 20.00    -0.024 C 
HETATM    2  C2  UNL     1     -33.650  15.895  -5.264  1.00 20.00    -0.013 C 
HETATM    3  C3  UNL     1     -33.832  13.824  -4.117  1.00 20.00     0.140 C 
HETATM    4  C5  UNL     1     -34.751  13.224  -5.185  1.00 20.00     0.088 C 
HETATM    5  C6  UNL     1     -35.478  14.523  -5.614  1.00 20.00     0.027 C 
HETATM    6  C7  UNL     1     -35.669  15.221  -4.252  1.00 20.00     0.074 C 
HETATM    7  C8  UNL     1     -34.160  15.315  -3.964  1.00 20.00     0.045 C 
HETATM    8  C9  UNL     1     -33.747  15.971  -2.673  1.00 20.00     0.029 C 
HETATM    9  O10 UNL     1     -32.965  13.211  -3.513  1.00 20.00    -0.297 OA
ENDROOT
BRANCH   6  10
HETATM   10  C4  UNL     1     -36.427  16.517  -4.339  1.00 20.00     0.237 C 
HETATM   11  O11 UNL     1     -37.179  16.920  -3.457  1.00 20.00    -0.306 OA
ENDBRANCH   6  10
TORSDOF 1
ENDMDL
