MODEL 1
REMARK VINA RESULT:      -4.9      0.000      0.000
REMARK  0 active torsions:
REMARK  status: ('A' for Active; 'I' for Inactive)
ROOT
HETATM    1  C1  UNL     1     -33.983   5.473   2.773  1.00 20.00     0.041 A 
HETATM    2  C2  UNL     1     -34.408   5.346   4.129  1.00 20.00    -0.008 A 
HETATM    3  C3  UNL     1     -32.993   6.394   2.878  1.00 20.00     0.041 A 
HETATM    4  C4  UNL     1     -33.665   6.176   4.938  1.00 20.00     0.064 A 
HETATM    5  C5  UNL     1     -31.939   7.277   2.476  1.00 20.00     0.047 A 
HETATM    6  C6  UNL     1     -34.087   6.047   6.273  1.00 20.00     0.141 A 
HETATM    7  C7  UNL     1     -31.815   7.640   3.787  1.00 20.00     0.100 A 
HETATM    8  C8  UNL     1     -35.369   4.636   4.990  1.00 20.00     0.189 A 
HETATM    9  N9  UNL     1     -35.063   5.184   6.391  1.00 20.00    -0.295 NA
HETATM   10  N10 UNL     1     -32.819   6.792   4.130  1.00 20.00    -0.320 N 
ENDROOT
TORSDOF 0
ENDMDL
MODEL 2
REMARK VINA RESULT:      -4.3     11.761     13.402
REMARK  0 active torsions:
REMARK  status: ('A' for Active; 'I' for Inactive)
ROOT
HETATM    1  C1  UNL     1     -33.304  16.193  -3.803  1.00 20.00     0.041 A 
HETATM    2  C2  UNL     1     -33.857  14.916  -4.118  1.00 20.00    -0.008 A 
HETATM    3  C3  UNL     1     -33.597  16.906  -4.919  1.00 20.00     0.041 A 
HETATM    4  C4  UNL     1     -34.430  14.945  -5.370  1.00 20.00     0.064 A 
HETATM    5  C5  UNL     1     -33.660  18.020  -5.816  1.00 20.00     0.047 A 
HETATM    6  C6  UNL     1     -34.974  13.685  -5.676  1.00 20.00     0.141 A 
HETATM    7  C7  UNL     1     -34.326  17.210  -6.692  1.00 20.00     0.100 A 
HETATM    8  C8  UNL     1     -34.038  13.557  -3.581  1.00 20.00     0.189 A 
HETATM    9  N9  UNL     1     -34.791  12.830  -4.704  1.00 20.00    -0.295 NA
HETATM   10  N10 UNL     1     -34.246  16.176  -5.815  1.00 20.00    -0.320 N 
ENDROOT
TORSDOF 0
ENDMDL
MODEL 3
REMARK VINA RESULT:      -4.3     11.222     12.449
REMARK  0 active torsions:
REMARK  status: ('A' for Active; 'I' for Inactive)
ROOT
HETATM    1  C1  UNL     1     -33.715  16.122  -2.658  1.00 20.00     0.041 A 
HETATM    2  C2  UNL     1     -34.067  14.904  -3.313  1.00 20.00    -0.008 A 
HETATM    3  C3  UNL     1     -34.906  16.770  -2.621  1.00 20.00     0.041 A 
HETATM    4  C4  UNL     1     -35.409  14.901  -3.618  1.00 20.00     0.064 A 
HETATM    5  C5  UNL     1     -35.858  17.805  -2.348  1.00 20.00     0.047 A 
HETATM    6  C6  UNL     1     -35.751  13.698  -4.263  1.00 20.00     0.141 A 
HETATM    7  C7  UNL     1     -36.806  17.016  -2.935  1.00 20.00     0.100 A 
HETATM    8  C8  UNL     1     -33.503  13.629  -3.788  1.00 20.00     0.189 A 
HETATM    9  N9  UNL     1     -34.715  12.912  -4.401  1.00 20.00    -0.295 NA
HETATM   10  N10 UNL     1     -35.875  16.057  -3.178  1.00 20.00    -0.320 N 
ENDROOT
TORSDOF 0
ENDMDL
MODEL 4
REMARK VINA RESULT:      -4.2     11.283     12.072
REMARK  0 active torsions:
REMARK  status: ('A' for Active; 'I' for Inactive)
ROOT
HETATM    1  C1  UNL     1     -36.416  15.686  -3.236  1.00 20.00     0.041 A 
HETATM    2  C2  UNL     1     -35.594  14.633  -3.739  1.00 20.00    -0.008 A 
HETATM    3  C3  UNL     1     -35.534  16.389  -2.482  1.00 20.00     0.041 A 
HETATM    4  C4  UNL     1     -34.308  14.769  -3.266  1.00 20.00     0.064 A 
HETATM    5  C5  UNL     1     -35.035  17.412  -1.613  1.00 20.00     0.047 A 
HETATM    6  C6  UNL     1     -33.502  13.730  -3.765  1.00 20.00     0.141 A 
HETATM    7  C7  UNL     1     -33.814  16.805  -1.685  1.00 20.00     0.100 A 
HETATM    8  C8  UNL     1     -35.626  13.435  -4.594  1.00 20.00     0.189 A 
HETATM    9  N9  UNL     1     -34.181  12.918  -4.534  1.00 20.00    -0.295 NA
HETATM   10  N10 UNL     1     -34.323  15.851  -2.507  1.00 20.00    -0.320 N 
ENDROOT
TORSDOF 0
ENDMDL
MODEL 5
REMARK VINA RESULT:      -4.2     11.680     13.233
REMARK  0 active torsions:
REMARK  status: ('A' for Active; 'I' for Inactive)
ROOT
HETATM    1  C1  UNL     1     -34.250  15.911  -6.474  1.00 20.00     0.041 A 
HETATM    2  C2  UNL     1     -34.462  14.777  -5.634  1.00 20.00    -0.008 A 
HETATM    3  C3  UNL     1     -33.940  16.872  -5.569  1.00 20.00     0.041 A 
HETATM    4  C4  UNL     1     -34.270  15.123  -4.315  1.00 20.00     0.064 A 
HETATM    5  C5  UNL     1     -33.582  18.160  -5.055  1.00 20.00     0.047 A 
HETATM    6  C6  UNL     1     -34.479  14.002  -3.491  1.00 20.00     0.141 A 
HETATM    7  C7  UNL     1     -33.614  17.612  -3.804  1.00 20.00     0.100 A 
HETATM    8  C8  UNL     1     -34.817  13.348  -5.669  1.00 20.00     0.189 A 
HETATM    9  N9  UNL     1     -34.798  12.942  -4.188  1.00 20.00    -0.295 NA
HETATM   10  N10 UNL     1     -33.955  16.406  -4.328  1.00 20.00    -0.320 N 
ENDROOT
TORSDOF 0
ENDMDL
MODEL 6
REMARK VINA RESULT:      -4.1     11.972     13.629
REMARK  0 active torsions:
REMARK  status: ('A' for Active; 'I' for Inactive)
ROOT
HETATM    1  C1  UNL     1     -33.625  16.539  -5.482  1.00 20.00     0.041 A 
HETATM    2  C2  UNL     1     -33.782  15.299  -4.792  1.00 20.00    -0.008 A 
HETATM    3  C3  UNL     1     -34.317  16.310  -6.625  1.00 20.00     0.041 A 
HETATM    4  C4  UNL     1     -34.538  14.430  -5.547  1.00 20.00     0.064 A 
HETATM    5  C5  UNL     1     -34.888  16.556  -7.915  1.00 20.00     0.047 A 
HETATM    6  C6  UNL     1     -34.690  13.210  -4.864  1.00 20.00     0.141 A 
HETATM    7  C7  UNL     1     -35.396  15.288  -7.874  1.00 20.00     0.100 A 
HETATM    8  C8  UNL     1     -33.421  14.602  -3.546  1.00 20.00     0.189 A 
HETATM    9  N9  UNL     1     -34.079  13.224  -3.707  1.00 20.00    -0.295 NA
HETATM   10  N10 UNL     1     -34.839  15.091  -6.651  1.00 20.00    -0.320 N 
ENDROOT
TORSDOF 0
ENDMDL
MODEL 7
REMARK VINA RESULT:      -4.1      9.859     10.810
REMARK  0 active torsions:
REMARK  status: ('A' for Active; 'I' for Inactive)
ROOT
HETATM    1  C1  UNL     1     -40.695   4.263  -1.192  1.00 20.00     0.041 A 
HETATM    2  C2  UNL     1     -41.688   3.957  -2.170  1.00 20.00    -0.008 A 
HETATM    3  C3  UNL     1     -40.936   5.575  -0.953  1.00 20.00     0.041 A 
HETATM    4  C4  UNL     1     -42.440   5.077  -2.447  1.00 20.00     0.064 A 
HETATM    5  C5  UNL     1     -40.791   6.879  -0.378  1.00 20.00     0.047 A 
HETATM    6  C6  UNL     1     -43.417   4.772  -3.411  1.00 20.00     0.141 A 
HETATM    7  C7  UNL     1     -41.837   7.283  -1.158  1.00 20.00     0.100 A 
HETATM    8  C8  UNL     1     -42.207   2.861  -3.005  1.00 20.00     0.189 A 
HETATM    9  N9  UNL     1     -43.353   3.521  -3.786  1.00 20.00    -0.295 NA
HETATM   10  N10 UNL     1     -41.944   6.034  -1.682  1.00 20.00    -0.320 N 
ENDROOT
TORSDOF 0
ENDMDL
MODEL 8
REMARK VINA RESULT:      -4.1      1.117      3.949
REMARK  0 active torsions:
REMARK  status: ('A' for Active; 'I' for Inactive)
ROOT
HETATM    1  C1  UNL     1     -33.606   6.714   6.203  1.00 20.00     0.041 A 
HETATM    2  C2  UNL     1     -33.064   6.865   4.892  1.00 20.00    -0.008 A 
HETATM    3  C3  UNL     1     -34.373   5.605   6.060  1.00 20.00     0.041 A 
HETATM    4  C4  UNL     1     -33.529   5.863   4.070  1.00 20.00     0.064 A 
HETATM    5  C5  UNL     1     -35.268   4.543   6.411  1.00 20.00     0.047 A 
HETATM    6  C6  UNL     1     -32.992   6.016   2.778  1.00 20.00     0.141 A 
HETATM    7  C7  UNL     1     -35.167   4.103   5.122  1.00 20.00     0.100 A 
HETATM    8  C8  UNL     1     -32.173   7.718   4.088  1.00 20.00     0.189 A 
HETATM    9  N9  UNL     1     -32.204   7.057   2.702  1.00 20.00    -0.295 NA
HETATM   10  N10 UNL     1     -34.321   5.123   4.826  1.00 20.00    -0.320 N 
ENDROOT
TORSDOF 0
ENDMDL
MODEL 9
REMARK VINA RESULT:      -4.0     11.682     13.478
REMARK  0 active torsions:
REMARK  status: ('A' for Active; 'I' for Inactive)
ROOT
HETATM    1  C1  UNL     1     -34.581  15.640  -2.526  1.00 20.00     0.041 A 
HETATM    2  C2  UNL     1     -34.152  16.774  -3.278  1.00 20.00    -0.008 A 
HETATM    3  C3  UNL     1     -34.646  14.682  -3.483  1.00 20.00     0.041 A 
HETATM    4  C4  UNL     1     -33.993  16.431  -4.602  1.00 20.00     0.064 A 
HETATM    5  C5  UNL     1     -34.863  13.396  -4.076  1.00 20.00     0.047 A 
HETATM    6  C6  UNL     1     -33.570  17.552  -5.340  1.00 20.00     0.141 A 
HETATM    7  C7  UNL     1     -34.500  13.945  -5.273  1.00 20.00     0.100 A 
HETATM    8  C8  UNL     1     -33.813  18.202  -3.148  1.00 20.00     0.189 A 
HETATM    9  N9  UNL     1     -33.444  18.610  -4.581  1.00 20.00    -0.295 NA
HETATM   10  N10 UNL     1     -34.305  15.149  -4.676  1.00 20.00    -0.320 N 
ENDROOT
TORSDOF 0
ENDMDL
