MODEL 1
REMARK VINA RESULT:      -5.1      0.000      0.000
REMARK  1 active torsions:
REMARK  status: ('A' for Active; 'I' for Inactive)
REMARK    1  A    between atoms: C3_3  and  C8_8 
ROOT
HETATM    1  C1  UNL     1     -34.724  17.445  -2.437  1.00 20.00    -0.025 C 
HETATM    2  C2  UNL     1     -34.479  16.284  -1.812  1.00 20.00    -0.024 C 
HETATM    3  C4  UNL     1     -36.304  15.938  -3.169  1.00 20.00     0.018 C 
HETATM    4  C5  UNL     1     -35.487  17.121  -3.699  1.00 20.00     0.013 C 
HETATM    5  C6  UNL     1     -35.063  15.182  -2.667  1.00 20.00     0.024 C 
HETATM    6  C7  UNL     1     -34.558  16.398  -4.720  1.00 20.00     0.005 C 
HETATM    7  C8  UNL     1     -34.222  15.046  -3.976  1.00 20.00     0.027 C 
HETATM    8  C10 UNL     1     -33.378  17.247  -5.180  1.00 20.00     0.012 C 
HETATM    9  C11 UNL     1     -32.738  14.770  -3.718  1.00 20.00     0.024 C 
ENDROOT
BRANCH   7  10
HETATM   10  C3  UNL     1     -34.750  13.864  -4.755  1.00 20.00     0.132 C 
HETATM   11  C9  UNL     1     -35.076  14.100  -6.205  1.00 20.00     0.091 C 
HETATM   12  O12 UNL     1     -34.905  12.762  -4.230  1.00 20.00    -0.298 OA
ENDBRANCH   7  10
TORSDOF 1
ENDMDL
MODEL 2
REMARK VINA RESULT:      -5.0      1.424      2.458
REMARK  1 active torsions:
REMARK  status: ('A' for Active; 'I' for Inactive)
REMARK    1  A    between atoms: C3_3  and  C8_8 
ROOT
HETATM    1  C1  UNL     1     -32.673  15.186  -3.771  1.00 20.00    -0.025 C 
HETATM    2  C2  UNL     1     -33.279  13.993  -3.680  1.00 20.00    -0.024 C 
HETATM    3  C4  UNL     1     -34.589  15.495  -2.531  1.00 20.00     0.018 C 
HETATM    4  C5  UNL     1     -33.731  16.242  -3.557  1.00 20.00     0.013 C 
HETATM    5  C6  UNL     1     -34.746  14.253  -3.424  1.00 20.00     0.024 C 
HETATM    6  C7  UNL     1     -34.703  16.285  -4.774  1.00 20.00     0.005 C 
HETATM    7  C8  UNL     1     -35.392  14.865  -4.709  1.00 20.00     0.027 C 
HETATM    8  C10 UNL     1     -34.026  16.666  -6.086  1.00 20.00     0.012 C 
HETATM    9  C11 UNL     1     -35.231  13.981  -5.949  1.00 20.00     0.024 C 
ENDROOT
BRANCH   7  10
HETATM   10  C3  UNL     1     -36.878  15.004  -4.469  1.00 20.00     0.132 C 
HETATM   11  C9  UNL     1     -37.535  16.250  -4.999  1.00 20.00     0.091 C 
HETATM   12  O12 UNL     1     -37.519  14.140  -3.872  1.00 20.00    -0.298 OA
ENDBRANCH   7  10
TORSDOF 1
ENDMDL
MODEL 3
REMARK VINA RESULT:      -5.0      1.345      3.016
REMARK  1 active torsions:
REMARK  status: ('A' for Active; 'I' for Inactive)
REMARK    1  A    between atoms: C3_3  and  C8_8 
ROOT
HETATM    1  C1  UNL     1     -35.467  16.994  -6.670  1.00 20.00    -0.025 C 
HETATM    2  C2  UNL     1     -36.420  16.098  -6.369  1.00 20.00    -0.024 C 
HETATM    3  C4  UNL     1     -34.552  14.904  -6.985  1.00 20.00     0.018 C 
HETATM    4  C5  UNL     1     -34.135  16.300  -6.512  1.00 20.00     0.013 C 
HETATM    5  C6  UNL     1     -35.722  14.811  -5.992  1.00 20.00     0.024 C 
HETATM    6  C7  UNL     1     -33.848  16.022  -5.006  1.00 20.00     0.005 C 
HETATM    7  C8  UNL     1     -34.993  15.003  -4.624  1.00 20.00     0.027 C 
HETATM    8  C10 UNL     1     -33.737  17.286  -4.160  1.00 20.00     0.012 C 
HETATM    9  C11 UNL     1     -35.930  15.436  -3.492  1.00 20.00     0.024 C 
ENDROOT
BRANCH   7  10
HETATM   10  C3  UNL     1     -34.406  13.673  -4.211  1.00 20.00     0.132 C 
HETATM   11  C9  UNL     1     -33.024  13.698  -3.617  1.00 20.00     0.091 C 
HETATM   12  O12 UNL     1     -35.028  12.621  -4.353  1.00 20.00    -0.298 OA
ENDBRANCH   7  10
TORSDOF 1
ENDMDL
MODEL 4
REMARK VINA RESULT:      -5.0      1.119      2.677
REMARK  1 active torsions:
REMARK  status: ('A' for Active; 'I' for Inactive)
REMARK    1  A    between atoms: C3_3  and  C8_8 
ROOT
HETATM    1  C1  UNL     1     -34.834  17.878  -4.278  1.00 20.00    -0.025 C 
HETATM    2  C2  UNL     1     -35.524  17.117  -5.142  1.00 20.00    -0.024 C 
HETATM    3  C4  UNL     1     -33.359  16.339  -5.150  1.00 20.00     0.018 C 
HETATM    4  C5  UNL     1     -33.635  17.075  -3.834  1.00 20.00     0.013 C 
HETATM    5  C6  UNL     1     -34.794  15.799  -5.260  1.00 20.00     0.024 C 
HETATM    6  C7  UNL     1     -34.086  15.891  -2.928  1.00 20.00     0.005 C 
HETATM    7  C8  UNL     1     -34.940  15.008  -3.921  1.00 20.00     0.027 C 
HETATM    8  C10 UNL     1     -34.764  16.332  -1.636  1.00 20.00     0.012 C 
HETATM    9  C11 UNL     1     -36.397  14.760  -3.519  1.00 20.00     0.024 C 
ENDROOT
BRANCH   7  10
HETATM   10  C3  UNL     1     -34.306  13.648  -4.105  1.00 20.00     0.132 C 
HETATM   11  C9  UNL     1     -32.941  13.451  -3.504  1.00 20.00     0.091 C 
HETATM   12  O12 UNL     1     -34.880  12.746  -4.714  1.00 20.00    -0.298 OA
ENDBRANCH   7  10
TORSDOF 1
ENDMDL
MODEL 5
REMARK VINA RESULT:      -4.9      1.778      3.668
REMARK  1 active torsions:
REMARK  status: ('A' for Active; 'I' for Inactive)
REMARK    1  A    between atoms: C3_3  and  C8_8 
ROOT
HETATM    1  C1  UNL     1     -34.850  13.472  -5.594  1.00 20.00    -0.025 C 
HETATM    2  C2  UNL     1     -35.209  14.674  -6.071  1.00 20.00    -0.024 C 
HETATM    3  C4  UNL     1     -36.403  14.341  -4.133  1.00 20.00     0.018 C 
HETATM    4  C5  UNL     1     -35.140  13.474  -4.113  1.00 20.00     0.013 C 
HETATM    5  C6  UNL     1     -35.722  15.485  -4.902  1.00 20.00     0.024 C 
HETATM    6  C7  UNL     1     -34.149  14.420  -3.371  1.00 20.00     0.005 C 
HETATM    7  C8  UNL     1     -34.529  15.837  -3.957  1.00 20.00     0.027 C 
HETATM    8  C10 UNL     1     -32.691  13.991  -3.486  1.00 20.00     0.012 C 
HETATM    9  C11 UNL     1     -33.402  16.598  -4.661  1.00 20.00     0.024 C 
ENDROOT
BRANCH   7  10
HETATM   10  C3  UNL     1     -35.045  16.745  -2.865  1.00 20.00     0.132 C 
HETATM   11  C9  UNL     1     -34.683  16.376  -1.451  1.00 20.00     0.091 C 
HETATM   12  O12 UNL     1     -35.726  17.737  -3.118  1.00 20.00    -0.298 OA
ENDBRANCH   7  10
TORSDOF 1
ENDMDL
MODEL 6
REMARK VINA RESULT:      -4.9      1.576      3.128
REMARK  1 active torsions:
REMARK  status: ('A' for Active; 'I' for Inactive)
REMARK    1  A    between atoms: C3_3  and  C8_8 
ROOT
HETATM    1  C1  UNL     1     -32.932  15.634  -4.203  1.00 20.00    -0.025 C 
HETATM    2  C2  UNL     1     -33.563  16.086  -5.298  1.00 20.00    -0.024 C 
HETATM    3  C4  UNL     1     -34.331  13.951  -4.919  1.00 20.00     0.018 C 
HETATM    4  C5  UNL     1     -33.789  14.540  -3.613  1.00 20.00     0.013 C 
HETATM    5  C6  UNL     1     -34.851  15.306  -5.427  1.00 20.00     0.024 C 
HETATM    6  C7  UNL     1     -35.090  15.145  -3.004  1.00 20.00     0.005 C 
HETATM    7  C8  UNL     1     -35.823  15.724  -4.278  1.00 20.00     0.027 C 
HETATM    8  C10 UNL     1     -34.836  16.111  -1.853  1.00 20.00     0.012 C 
HETATM    9  C11 UNL     1     -36.126  17.225  -4.256  1.00 20.00     0.024 C 
ENDROOT
BRANCH   7  10
HETATM   10  C3  UNL     1     -37.143  15.022  -4.498  1.00 20.00     0.132 C 
HETATM   11  C9  UNL     1     -37.900  15.381  -5.748  1.00 20.00     0.091 C 
HETATM   12  O12 UNL     1     -37.576  14.196  -3.697  1.00 20.00    -0.298 OA
ENDBRANCH   7  10
TORSDOF 1
ENDMDL
MODEL 7
REMARK VINA RESULT:      -4.8      1.559      3.597
REMARK  1 active torsions:
REMARK  status: ('A' for Active; 'I' for Inactive)
REMARK    1  A    between atoms: C3_3  and  C8_8 
ROOT
HETATM    1  C1  UNL     1     -36.384  15.136  -6.854  1.00 20.00    -0.025 C 
HETATM    2  C2  UNL     1     -35.224  14.467  -6.941  1.00 20.00    -0.024 C 
HETATM    3  C4  UNL     1     -34.739  16.532  -6.049  1.00 20.00     0.018 C 
HETATM    4  C5  UNL     1     -36.211  16.196  -5.793  1.00 20.00     0.013 C 
HETATM    5  C6  UNL     1     -34.283  15.070  -5.922  1.00 20.00     0.024 C 
HETATM    6  C7  UNL     1     -36.118  15.536  -4.384  1.00 20.00     0.005 C 
HETATM    7  C8  UNL     1     -34.778  14.706  -4.486  1.00 20.00     0.027 C 
HETATM    8  C10 UNL     1     -37.376  14.775  -3.980  1.00 20.00     0.012 C 
HETATM    9  C11 UNL     1     -34.902  13.197  -4.250  1.00 20.00     0.024 C 
ENDROOT
BRANCH   7  10
HETATM   10  C3  UNL     1     -33.759  15.215  -3.492  1.00 20.00     0.132 C 
HETATM   11  C9  UNL     1     -34.285  16.028  -2.341  1.00 20.00     0.091 C 
HETATM   12  O12 UNL     1     -32.560  14.975  -3.618  1.00 20.00    -0.298 OA
ENDBRANCH   7  10
TORSDOF 1
ENDMDL
MODEL 8
REMARK VINA RESULT:      -4.6      2.046      3.051
REMARK  1 active torsions:
REMARK  status: ('A' for Active; 'I' for Inactive)
REMARK    1  A    between atoms: C3_3  and  C8_8 
ROOT
HETATM    1  C1  UNL     1     -33.868  13.927  -3.756  1.00 20.00    -0.025 C 
HETATM    2  C2  UNL     1     -34.495  13.226  -4.713  1.00 20.00    -0.024 C 
HETATM    3  C4  UNL     1     -36.078  14.574  -3.728  1.00 20.00     0.018 C 
HETATM    4  C5  UNL     1     -34.685  15.172  -3.505  1.00 20.00     0.013 C 
HETATM    5  C6  UNL     1     -35.722  14.014  -5.114  1.00 20.00     0.024 C 
HETATM    6  C7  UNL     1     -34.583  16.136  -4.725  1.00 20.00     0.005 C 
HETATM    7  C8  UNL     1     -35.278  15.304  -5.874  1.00 20.00     0.027 C 
HETATM    8  C10 UNL     1     -33.169  16.639  -4.992  1.00 20.00     0.012 C 
HETATM    9  C11 UNL     1     -34.419  15.016  -7.110  1.00 20.00     0.024 C 
ENDROOT
BRANCH   7  10
HETATM   10  C3  UNL     1     -36.519  16.011  -6.368  1.00 20.00     0.132 C 
HETATM   11  C9  UNL     1     -37.498  15.185  -7.158  1.00 20.00     0.091 C 
HETATM   12  O12 UNL     1     -36.720  17.201  -6.135  1.00 20.00    -0.298 OA
ENDBRANCH   7  10
TORSDOF 1
ENDMDL
MODEL 9
REMARK VINA RESULT:      -4.6      1.712      2.569
REMARK  1 active torsions:
REMARK  status: ('A' for Active; 'I' for Inactive)
REMARK    1  A    between atoms: C3_3  and  C8_8 
ROOT
HETATM    1  C1  UNL     1     -34.049  16.199  -2.218  1.00 20.00    -0.025 C 
HETATM    2  C2  UNL     1     -35.337  16.498  -2.448  1.00 20.00    -0.024 C 
HETATM    3  C4  UNL     1     -34.132  17.329  -4.223  1.00 20.00     0.018 C 
HETATM    4  C5  UNL     1     -33.345  16.197  -3.554  1.00 20.00     0.013 C 
HETATM    5  C6  UNL     1     -35.496  16.678  -3.941  1.00 20.00     0.024 C 
HETATM    6  C7  UNL     1     -33.809  14.977  -4.405  1.00 20.00     0.005 C 
HETATM    7  C8  UNL     1     -35.338  15.292  -4.645  1.00 20.00     0.027 C 
HETATM    8  C10 UNL     1     -33.470  13.629  -3.779  1.00 20.00     0.012 C 
HETATM    9  C11 UNL     1     -36.330  14.239  -4.141  1.00 20.00     0.024 C 
ENDROOT
BRANCH   7  10
HETATM   10  C3  UNL     1     -35.619  15.477  -6.118  1.00 20.00     0.132 C 
HETATM   11  C9  UNL     1     -34.575  14.970  -7.075  1.00 20.00     0.091 C 
HETATM   12  O12 UNL     1     -36.652  16.014  -6.516  1.00 20.00    -0.298 OA
ENDBRANCH   7  10
TORSDOF 1
ENDMDL
