MODEL 1
REMARK VINA RESULT:      -4.5      0.000      0.000
REMARK  1 active torsions:
REMARK  status: ('A' for Active; 'I' for Inactive)
REMARK    1  A    between atoms: C3_3  and  C7_7 
ROOT
HETATM    1  C1  UNL     1     -33.794  17.268  -3.081  1.00 20.00     0.006 C 
HETATM    2  C2  UNL     1     -33.891  16.098  -2.435  1.00 20.00     0.007 C 
HETATM    3  C4  UNL     1     -34.797  16.341  -5.151  1.00 20.00     0.054 C 
HETATM    4  C5  UNL     1     -33.520  16.939  -4.527  1.00 20.00     0.244 C 
HETATM    5  C6  UNL     1     -33.689  15.021  -3.471  1.00 20.00     0.255 C 
HETATM    6  C7  UNL     1     -34.933  14.997  -4.381  1.00 20.00     0.094 C 
HETATM    7  N9  UNL     1     -32.739  15.683  -4.406  1.00 20.00     0.100 N 
HETATM    8  H21 UNL     1     -32.688  15.195  -5.299  1.00 20.00     0.317 HD
ENDROOT
BRANCH   6   9
HETATM    9  C3  UNL     1     -34.960  13.819  -5.309  1.00 20.00     0.129 C 
HETATM   10  C8  UNL     1     -35.235  14.106  -6.759  1.00 20.00     0.091 C 
HETATM   11  O10 UNL     1     -34.763  12.674  -4.904  1.00 20.00    -0.298 OA
ENDBRANCH   6   9
TORSDOF 1
ENDMDL
MODEL 2
REMARK VINA RESULT:      -4.4      2.232      3.806
REMARK  1 active torsions:
REMARK  status: ('A' for Active; 'I' for Inactive)
REMARK    1  A    between atoms: C3_3  and  C7_7 
ROOT
HETATM    1  C1  UNL     1     -34.684  13.664  -5.128  1.00 20.00     0.006 C 
HETATM    2  C2  UNL     1     -35.529  13.692  -4.088  1.00 20.00     0.007 C 
HETATM    3  C4  UNL     1     -33.206  15.382  -4.123  1.00 20.00     0.054 C 
HETATM    4  C5  UNL     1     -34.160  15.068  -5.293  1.00 20.00     0.244 C 
HETATM    5  C6  UNL     1     -35.536  15.112  -3.581  1.00 20.00     0.255 C 
HETATM    6  C7  UNL     1     -34.175  15.383  -2.908  1.00 20.00     0.094 C 
HETATM    7  N9  UNL     1     -35.319  15.877  -4.840  1.00 20.00     0.100 N 
HETATM    8  H21 UNL     1     -35.043  16.840  -4.653  1.00 20.00     0.317 HD
ENDROOT
BRANCH   6   9
HETATM    9  C3  UNL     1     -34.138  16.683  -2.160  1.00 20.00     0.129 C 
HETATM   10  C8  UNL     1     -34.602  16.654  -0.730  1.00 20.00     0.091 C 
HETATM   11  O10 UNL     1     -33.745  17.721  -2.690  1.00 20.00    -0.298 OA
ENDBRANCH   6   9
TORSDOF 1
ENDMDL
MODEL 3
REMARK VINA RESULT:      -4.3      2.205      3.813
REMARK  1 active torsions:
REMARK  status: ('A' for Active; 'I' for Inactive)
REMARK    1  A    between atoms: C3_3  and  C7_7 
ROOT
HETATM    1  C1  UNL     1     -34.395  14.419  -5.636  1.00 20.00     0.006 C 
HETATM    2  C2  UNL     1     -34.138  15.703  -5.919  1.00 20.00     0.007 C 
HETATM    3  C4  UNL     1     -34.841  14.914  -3.247  1.00 20.00     0.054 C 
HETATM    4  C5  UNL     1     -33.905  14.183  -4.230  1.00 20.00     0.244 C 
HETATM    5  C6  UNL     1     -33.492  16.290  -4.689  1.00 20.00     0.255 C 
HETATM    6  C7  UNL     1     -34.571  16.405  -3.594  1.00 20.00     0.094 C 
HETATM    7  N9  UNL     1     -32.753  15.114  -4.153  1.00 20.00     0.100 N 
HETATM    8  H21 UNL     1     -32.463  15.261  -3.187  1.00 20.00     0.317 HD
ENDROOT
BRANCH   6   9
HETATM    9  C3  UNL     1     -34.114  17.186  -2.398  1.00 20.00     0.129 C 
HETATM   10  C8  UNL     1     -34.478  16.631  -1.048  1.00 20.00     0.091 C 
HETATM   11  O10 UNL     1     -33.470  18.227  -2.515  1.00 20.00    -0.298 OA
ENDBRANCH   6   9
TORSDOF 1
ENDMDL
MODEL 4
REMARK VINA RESULT:      -4.3     12.224     13.349
REMARK  1 active torsions:
REMARK  status: ('A' for Active; 'I' for Inactive)
REMARK    1  A    between atoms: C3_3  and  C7_7 
ROOT
HETATM    1  C1  UNL     1     -41.067   7.125  -0.909  1.00 20.00     0.006 C 
HETATM    2  C2  UNL     1     -41.848   7.080  -1.998  1.00 20.00     0.007 C 
HETATM    3  C4  UNL     1     -40.746   4.666  -0.896  1.00 20.00     0.054 C 
HETATM    4  C5  UNL     1     -41.343   5.864  -0.131  1.00 20.00     0.244 C 
HETATM    5  C6  UNL     1     -42.615   5.785  -1.919  1.00 20.00     0.255 C 
HETATM    6  C7  UNL     1     -41.627   4.630  -2.176  1.00 20.00     0.094 C 
HETATM    7  N9  UNL     1     -42.773   5.622  -0.448  1.00 20.00     0.100 N 
HETATM    8  H21 UNL     1     -43.048   4.673  -0.201  1.00 20.00     0.317 HD
ENDROOT
BRANCH   6   9
HETATM    9  C3  UNL     1     -42.306   3.304  -2.354  1.00 20.00     0.129 C 
HETATM   10  C8  UNL     1     -41.662   2.338  -3.310  1.00 20.00     0.091 C 
HETATM   11  O10 UNL     1     -43.336   3.020  -1.745  1.00 20.00    -0.298 OA
ENDBRANCH   6   9
TORSDOF 1
ENDMDL
MODEL 5
REMARK VINA RESULT:      -4.3      2.237      3.378
REMARK  1 active torsions:
REMARK  status: ('A' for Active; 'I' for Inactive)
REMARK    1  A    between atoms: C3_3  and  C7_7 
ROOT
HETATM    1  C1  UNL     1     -35.975  16.508  -7.332  1.00 20.00     0.006 C 
HETATM    2  C2  UNL     1     -34.643  16.395  -7.233  1.00 20.00     0.007 C 
HETATM    3  C4  UNL     1     -36.361  15.039  -5.371  1.00 20.00     0.054 C 
HETATM    4  C5  UNL     1     -36.551  15.185  -6.894  1.00 20.00     0.244 C 
HETATM    5  C6  UNL     1     -34.369  15.003  -6.722  1.00 20.00     0.255 C 
HETATM    6  C7  UNL     1     -34.814  14.942  -5.247  1.00 20.00     0.094 C 
HETATM    7  N9  UNL     1     -35.494  14.239  -7.328  1.00 20.00     0.100 N 
HETATM    8  H21 UNL     1     -35.611  13.328  -6.885  1.00 20.00     0.317 HD
ENDROOT
BRANCH   6   9
HETATM    9  C3  UNL     1     -34.385  13.682  -4.556  1.00 20.00     0.129 C 
HETATM   10  C8  UNL     1     -33.181  13.780  -3.660  1.00 20.00     0.091 C 
HETATM   11  O10 UNL     1     -34.988  12.622  -4.712  1.00 20.00    -0.298 OA
ENDBRANCH   6   9
TORSDOF 1
ENDMDL
MODEL 6
REMARK VINA RESULT:      -4.2     11.829     12.850
REMARK  1 active torsions:
REMARK  status: ('A' for Active; 'I' for Inactive)
REMARK    1  A    between atoms: C3_3  and  C7_7 
ROOT
HETATM    1  C1  UNL     1     -35.118   4.467   4.847  1.00 20.00     0.006 C 
HETATM    2  C2  UNL     1     -34.264   5.049   5.701  1.00 20.00     0.007 C 
HETATM    3  C4  UNL     1     -33.899   5.324   2.864  1.00 20.00     0.054 C 
HETATM    4  C5  UNL     1     -35.222   5.383   3.654  1.00 20.00     0.244 C 
HETATM    5  C6  UNL     1     -33.815   6.332   5.049  1.00 20.00     0.255 C 
HETATM    6  C7  UNL     1     -32.897   5.968   3.865  1.00 20.00     0.094 C 
HETATM    7  N9  UNL     1     -35.031   6.715   4.280  1.00 20.00     0.100 N 
HETATM    8  H21 UNL     1     -34.825   7.425   3.579  1.00 20.00     0.317 HD
ENDROOT
BRANCH   6   9
HETATM    9  C3  UNL     1     -32.200   7.157   3.274  1.00 20.00     0.129 C 
HETATM   10  C8  UNL     1     -31.085   7.759   4.085  1.00 20.00     0.091 C 
HETATM   11  O10 UNL     1     -32.523   7.616   2.179  1.00 20.00    -0.298 OA
ENDBRANCH   6   9
TORSDOF 1
ENDMDL
MODEL 7
REMARK VINA RESULT:      -4.2      1.570      1.790
REMARK  1 active torsions:
REMARK  status: ('A' for Active; 'I' for Inactive)
REMARK    1  A    between atoms: C3_3  and  C7_7 
ROOT
HETATM    1  C1  UNL     1     -35.437  17.295  -1.952  1.00 20.00     0.006 C 
HETATM    2  C2  UNL     1     -34.347  16.668  -1.489  1.00 20.00     0.007 C 
HETATM    3  C4  UNL     1     -35.955  15.467  -3.545  1.00 20.00     0.054 C 
HETATM    4  C5  UNL     1     -35.544  16.947  -3.414  1.00 20.00     0.244 C 
HETATM    5  C6  UNL     1     -33.763  15.911  -2.655  1.00 20.00     0.255 C 
HETATM    6  C7  UNL     1     -34.706  14.735  -2.978  1.00 20.00     0.094 C 
HETATM    7  N9  UNL     1     -34.117  16.802  -3.794  1.00 20.00     0.100 N 
HETATM    8  H21 UNL     1     -34.022  16.324  -4.689  1.00 20.00     0.317 HD
ENDROOT
BRANCH   6   9
HETATM    9  C3  UNL     1     -34.124  13.770  -3.968  1.00 20.00     0.129 C 
HETATM   10  C8  UNL     1     -34.873  13.593  -5.260  1.00 20.00     0.091 C 
HETATM   11  O10 UNL     1     -33.084  13.155  -3.735  1.00 20.00    -0.298 OA
ENDBRANCH   6   9
TORSDOF 1
ENDMDL
MODEL 8
REMARK VINA RESULT:      -4.2      1.813      2.462
REMARK  1 active torsions:
REMARK  status: ('A' for Active; 'I' for Inactive)
REMARK    1  A    between atoms: C3_3  and  C7_7 
ROOT
HETATM    1  C1  UNL     1     -32.475  14.775  -3.675  1.00 20.00     0.006 C 
HETATM    2  C2  UNL     1     -33.183  13.637  -3.638  1.00 20.00     0.007 C 
HETATM    3  C4  UNL     1     -34.505  16.181  -3.448  1.00 20.00     0.054 C 
HETATM    4  C5  UNL     1     -33.337  15.793  -4.376  1.00 20.00     0.244 C 
HETATM    5  C6  UNL     1     -34.501  13.932  -4.307  1.00 20.00     0.255 C 
HETATM    6  C7  UNL     1     -35.312  14.853  -3.374  1.00 20.00     0.094 C 
HETATM    7  N9  UNL     1     -34.098  14.942  -5.324  1.00 20.00     0.100 N 
HETATM    8  H21 UNL     1     -34.904  15.440  -5.700  1.00 20.00     0.317 HD
ENDROOT
BRANCH   6   9
HETATM    9  C3  UNL     1     -36.734  15.035  -3.818  1.00 20.00     0.129 C 
HETATM   10  C8  UNL     1     -37.136  16.419  -4.249  1.00 20.00     0.091 C 
HETATM   11  O10 UNL     1     -37.530  14.098  -3.831  1.00 20.00    -0.298 OA
ENDBRANCH   6   9
TORSDOF 1
ENDMDL
MODEL 9
REMARK VINA RESULT:      -4.1      1.665      2.179
REMARK  1 active torsions:
REMARK  status: ('A' for Active; 'I' for Inactive)
REMARK    1  A    between atoms: C3_3  and  C7_7 
ROOT
HETATM    1  C1  UNL     1     -34.080  15.692  -2.708  1.00 20.00     0.006 C 
HETATM    2  C2  UNL     1     -35.248  15.307  -3.240  1.00 20.00     0.007 C 
HETATM    3  C4  UNL     1     -33.249  16.567  -4.874  1.00 20.00     0.054 C 
HETATM    4  C5  UNL     1     -33.037  15.503  -3.779  1.00 20.00     0.244 C 
HETATM    5  C6  UNL     1     -34.952  14.880  -4.655  1.00 20.00     0.255 C 
HETATM    6  C7  UNL     1     -34.620  16.144  -5.473  1.00 20.00     0.094 C 
HETATM    7  N9  UNL     1     -33.574  14.333  -4.518  1.00 20.00     0.100 N 
HETATM    8  H21 UNL     1     -33.118  14.230  -5.424  1.00 20.00     0.317 HD
ENDROOT
BRANCH   6   9
HETATM    9  C3  UNL     1     -34.532  15.884  -6.948  1.00 20.00     0.129 C 
HETATM   10  C8  UNL     1     -34.697  17.072  -7.855  1.00 20.00     0.091 C 
HETATM   11  O10 UNL     1     -34.332  14.755  -7.393  1.00 20.00    -0.298 OA
ENDBRANCH   6   9
TORSDOF 1
ENDMDL
