MODEL 1
REMARK VINA RESULT:      -4.2      0.000      0.000
REMARK  0 active torsions:
REMARK  status: ('A' for Active; 'I' for Inactive)
ROOT
HETATM    1  C1  UNL     1     -34.550  15.010  -7.455  1.00 20.00     0.015 C 
HETATM    2  C2  UNL     1     -34.399  15.006  -6.264  1.00 20.00    -0.073 C 
HETATM    3  C3  UNL     1     -33.850  13.594  -4.313  1.00 20.00     0.225 C 
HETATM    4  C4  UNL     1     -36.115  13.886  -4.112  1.00 20.00     0.442 C 
HETATM    5  C5  UNL     1     -34.214  15.001  -4.791  1.00 20.00     0.240 C 
HETATM    6  C6  UNL     1     -33.097  16.002  -4.464  1.00 20.00     0.066 C 
HETATM    7  C7  UNL     1     -35.447  15.786  -2.794  1.00 20.00     0.315 C 
HETATM    8  N8  UNL     1     -35.522  15.232  -4.145  1.00 20.00     0.130 N 
HETATM    9  O9  UNL     1     -35.091  12.888  -4.177  1.00 20.00    -0.359 OA
ENDROOT
TORSDOF 0
ENDMDL
MODEL 2
REMARK VINA RESULT:      -4.1      2.093      3.362
REMARK  0 active torsions:
REMARK  status: ('A' for Active; 'I' for Inactive)
ROOT
HETATM    1  C1  UNL     1     -34.593  16.599  -0.954  1.00 20.00     0.015 C 
HETATM    2  C2  UNL     1     -34.502  16.097  -2.040  1.00 20.00    -0.073 C 
HETATM    3  C3  UNL     1     -34.908  16.438  -4.452  1.00 20.00     0.225 C 
HETATM    4  C4  UNL     1     -36.601  15.017  -3.844  1.00 20.00     0.442 C 
HETATM    5  C5  UNL     1     -34.388  15.475  -3.383  1.00 20.00     0.240 C 
HETATM    6  C6  UNL     1     -32.907  15.140  -3.613  1.00 20.00     0.066 C 
HETATM    7  C7  UNL     1     -34.998  13.331  -4.459  1.00 20.00     0.315 C 
HETATM    8  N8  UNL     1     -35.344  14.351  -3.471  1.00 20.00     0.130 N 
HETATM    9  O9  UNL     1     -36.332  16.273  -4.477  1.00 20.00    -0.359 OA
ENDROOT
TORSDOF 0
ENDMDL
MODEL 3
REMARK VINA RESULT:      -4.1      1.626      3.589
REMARK  0 active torsions:
REMARK  status: ('A' for Active; 'I' for Inactive)
ROOT
HETATM    1  C1  UNL     1     -34.613  16.618  -0.903  1.00 20.00     0.015 C 
HETATM    2  C2  UNL     1     -34.816  16.108  -1.970  1.00 20.00    -0.073 C 
HETATM    3  C3  UNL     1     -34.228  14.209  -3.434  1.00 20.00     0.225 C 
HETATM    4  C4  UNL     1     -33.099  15.960  -4.390  1.00 20.00     0.442 C 
HETATM    5  C5  UNL     1     -35.068  15.479  -3.290  1.00 20.00     0.240 C 
HETATM    6  C6  UNL     1     -36.568  15.162  -3.372  1.00 20.00     0.066 C 
HETATM    7  C7  UNL     1     -35.130  16.178  -5.664  1.00 20.00     0.315 C 
HETATM    8  N8  UNL     1     -34.517  16.351  -4.348  1.00 20.00     0.130 N 
HETATM    9  O9  UNL     1     -32.930  14.638  -3.868  1.00 20.00    -0.359 OA
ENDROOT
TORSDOF 0
ENDMDL
MODEL 4
REMARK VINA RESULT:      -4.0      1.182      3.056
REMARK  0 active torsions:
REMARK  status: ('A' for Active; 'I' for Inactive)
ROOT
HETATM    1  C1  UNL     1     -34.361  16.047  -1.925  1.00 20.00     0.015 C 
HETATM    2  C2  UNL     1     -34.797  15.702  -2.988  1.00 20.00    -0.073 C 
HETATM    3  C3  UNL     1     -36.184  14.013  -4.139  1.00 20.00     0.225 C 
HETATM    4  C4  UNL     1     -34.051  13.407  -4.722  1.00 20.00     0.442 C 
HETATM    5  C5  UNL     1     -35.337  15.276  -4.304  1.00 20.00     0.240 C 
HETATM    6  C6  UNL     1     -36.176  16.437  -4.857  1.00 20.00     0.066 C 
HETATM    7  C7  UNL     1     -34.470  14.870  -6.587  1.00 20.00     0.315 C 
HETATM    8  N8  UNL     1     -34.219  14.805  -5.148  1.00 20.00     0.130 N 
HETATM    9  O9  UNL     1     -35.263  12.913  -4.142  1.00 20.00    -0.359 OA
ENDROOT
TORSDOF 0
ENDMDL
MODEL 5
REMARK VINA RESULT:      -4.0      1.932      3.579
REMARK  0 active torsions:
REMARK  status: ('A' for Active; 'I' for Inactive)
ROOT
HETATM    1  C1  UNL     1     -34.684  16.355  -1.326  1.00 20.00     0.015 C 
HETATM    2  C2  UNL     1     -34.504  15.876  -2.411  1.00 20.00    -0.073 C 
HETATM    3  C3  UNL     1     -32.920  15.718  -4.300  1.00 20.00     0.225 C 
HETATM    4  C4  UNL     1     -34.531  17.140  -5.100  1.00 20.00     0.442 C 
HETATM    5  C5  UNL     1     -34.282  15.284  -3.754  1.00 20.00     0.240 C 
HETATM    6  C6  UNL     1     -34.356  13.757  -3.603  1.00 20.00     0.066 C 
HETATM    7  C7  UNL     1     -35.516  15.091  -5.891  1.00 20.00     0.315 C 
HETATM    8  N8  UNL     1     -35.223  15.902  -4.710  1.00 20.00     0.130 N 
HETATM    9  O9  UNL     1     -33.121  17.012  -4.885  1.00 20.00    -0.359 OA
ENDROOT
TORSDOF 0
ENDMDL
MODEL 6
REMARK VINA RESULT:      -3.9      1.054      1.054
REMARK  0 active torsions:
REMARK  status: ('A' for Active; 'I' for Inactive)
ROOT
HETATM    1  C1  UNL     1     -34.345  15.372  -6.875  1.00 20.00     0.015 C 
HETATM    2  C2  UNL     1     -34.336  15.139  -5.698  1.00 20.00    -0.073 C 
HETATM    3  C3  UNL     1     -34.963  13.487  -3.972  1.00 20.00     0.225 C 
HETATM    4  C4  UNL     1     -36.557  15.115  -3.724  1.00 20.00     0.442 C 
HETATM    5  C5  UNL     1     -34.325  14.851  -4.241  1.00 20.00     0.240 C 
HETATM    6  C6  UNL     1     -32.862  14.879  -3.777  1.00 20.00     0.066 C 
HETATM    7  C7  UNL     1     -34.969  16.004  -2.148  1.00 20.00     0.315 C 
HETATM    8  N8  UNL     1     -35.254  15.779  -3.564  1.00 20.00     0.130 N 
HETATM    9  O9  UNL     1     -36.379  13.710  -3.934  1.00 20.00    -0.359 OA
ENDROOT
TORSDOF 0
ENDMDL
MODEL 7
REMARK VINA RESULT:      -3.7      1.310      2.718
REMARK  0 active torsions:
REMARK  status: ('A' for Active; 'I' for Inactive)
ROOT
HETATM    1  C1  UNL     1     -37.877  14.735  -3.838  1.00 20.00     0.015 C 
HETATM    2  C2  UNL     1     -36.798  14.690  -4.362  1.00 20.00    -0.073 C 
HETATM    3  C3  UNL     1     -34.821  13.268  -4.771  1.00 20.00     0.225 C 
HETATM    4  C4  UNL     1     -34.077  14.729  -3.170  1.00 20.00     0.442 C 
HETATM    5  C5  UNL     1     -35.464  14.635  -5.010  1.00 20.00     0.240 C 
HETATM    6  C6  UNL     1     -35.668  14.896  -6.509  1.00 20.00     0.066 C 
HETATM    7  C7  UNL     1     -33.415  16.021  -5.090  1.00 20.00     0.315 C 
HETATM    8  N8  UNL     1     -34.549  15.549  -4.297  1.00 20.00     0.130 N 
HETATM    9  O9  UNL     1     -34.208  13.337  -3.477  1.00 20.00    -0.359 OA
ENDROOT
TORSDOF 0
ENDMDL
MODEL 8
REMARK VINA RESULT:      -3.6      2.551      3.478
REMARK  0 active torsions:
REMARK  status: ('A' for Active; 'I' for Inactive)
ROOT
HETATM    1  C1  UNL     1     -33.719  13.841  -3.669  1.00 20.00     0.015 C 
HETATM    2  C2  UNL     1     -34.105  14.930  -3.347  1.00 20.00    -0.073 C 
HETATM    3  C3  UNL     1     -35.954  16.553  -3.567  1.00 20.00     0.225 C 
HETATM    4  C4  UNL     1     -34.332  17.438  -4.925  1.00 20.00     0.442 C 
HETATM    5  C5  UNL     1     -34.583  16.278  -2.947  1.00 20.00     0.240 C 
HETATM    6  C6  UNL     1     -34.654  16.306  -1.414  1.00 20.00     0.066 C 
HETATM    7  C7  UNL     1     -33.700  18.590  -2.908  1.00 20.00     0.315 C 
HETATM    8  N8  UNL     1     -33.728  17.297  -3.591  1.00 20.00     0.130 N 
HETATM    9  O9  UNL     1     -35.701  17.019  -4.900  1.00 20.00    -0.359 OA
ENDROOT
TORSDOF 0
ENDMDL
MODEL 9
REMARK VINA RESULT:      -3.5      1.729      3.024
REMARK  0 active torsions:
REMARK  status: ('A' for Active; 'I' for Inactive)
ROOT
HETATM    1  C1  UNL     1     -38.156  14.827  -3.793  1.00 20.00     0.015 C 
HETATM    2  C2  UNL     1     -36.962  14.951  -3.813  1.00 20.00    -0.073 C 
HETATM    3  C3  UNL     1     -35.074  16.026  -4.987  1.00 20.00     0.225 C 
HETATM    4  C4  UNL     1     -34.943  13.849  -5.694  1.00 20.00     0.442 C 
HETATM    5  C5  UNL     1     -35.486  15.105  -3.837  1.00 20.00     0.240 C 
HETATM    6  C6  UNL     1     -35.061  15.688  -2.482  1.00 20.00     0.066 C 
HETATM    7  C7  UNL     1     -33.496  13.633  -3.782  1.00 20.00     0.315 C 
HETATM    8  N8  UNL     1     -34.878  13.815  -4.224  1.00 20.00     0.130 N 
HETATM    9  O9  UNL     1     -35.024  15.200  -6.159  1.00 20.00    -0.359 OA
ENDROOT
TORSDOF 0
ENDMDL
