MODEL 1
REMARK VINA RESULT:      -4.6      0.000      0.000
REMARK  1 active torsions:
REMARK  status: ('A' for Active; 'I' for Inactive)
REMARK    1  A    between atoms: C4_4  and  C5_5 
ROOT
HETATM    1  C1  UNL     1     -34.089   5.016   6.417  1.00 20.00     0.014 C 
HETATM    2  C2  UNL     1     -33.999   6.451   5.920  1.00 20.00     0.062 C 
HETATM    3  C3  UNL     1     -35.235   4.370   5.659  1.00 20.00     0.077 C 
HETATM    4  C4  UNL     1     -33.998   6.400   4.396  1.00 20.00     0.209 C 
HETATM    5  F6  UNL     1     -34.463   7.580   3.911  1.00 20.00    -0.225 F 
HETATM    6  S9  UNL     1     -35.144   5.051   3.978  1.00 20.00    -0.121 SA
ENDROOT
BRANCH   4   7
HETATM    7  C5  UNL     1     -32.625   6.142   3.795  1.00 20.00     0.403 C 
HETATM    8  F7  UNL     1     -31.993   7.323   3.606  1.00 20.00    -0.210 F 
HETATM    9  F8  UNL     1     -32.771   5.568   2.580  1.00 20.00    -0.210 F 
ENDBRANCH   4   7
TORSDOF 1
ENDMDL
MODEL 2
REMARK VINA RESULT:      -4.1     11.780     12.579
REMARK  1 active torsions:
REMARK  status: ('A' for Active; 'I' for Inactive)
REMARK    1  A    between atoms: C4_4  and  C5_5 
ROOT
HETATM    1  C1  UNL     1     -34.817  13.595  -5.273  1.00 20.00     0.014 C 
HETATM    2  C2  UNL     1     -34.628  13.659  -3.765  1.00 20.00     0.062 C 
HETATM    3  C3  UNL     1     -35.801  14.696  -5.630  1.00 20.00     0.077 C 
HETATM    4  C4  UNL     1     -34.335  15.112  -3.410  1.00 20.00     0.209 C 
HETATM    5  F6  UNL     1     -34.694  15.336  -2.119  1.00 20.00    -0.225 F 
HETATM    6  S9  UNL     1     -35.386  16.083  -4.533  1.00 20.00    -0.121 SA
ENDROOT
BRANCH   4   7
HETATM    7  C5  UNL     1     -32.874  15.499  -3.576  1.00 20.00     0.403 C 
HETATM    8  F7  UNL     1     -32.698  16.069  -4.790  1.00 20.00    -0.210 F 
HETATM    9  F8  UNL     1     -32.111  14.383  -3.545  1.00 20.00    -0.210 F 
ENDBRANCH   4   7
TORSDOF 1
ENDMDL
MODEL 3
REMARK VINA RESULT:      -4.0     11.809     12.487
REMARK  1 active torsions:
REMARK  status: ('A' for Active; 'I' for Inactive)
REMARK    1  A    between atoms: C4_4  and  C5_5 
ROOT
HETATM    1  C1  UNL     1     -34.416  15.870  -2.296  1.00 20.00     0.014 C 
HETATM    2  C2  UNL     1     -33.496  15.859  -3.507  1.00 20.00     0.062 C 
HETATM    3  C3  UNL     1     -35.784  16.296  -2.800  1.00 20.00     0.077 C 
HETATM    4  C4  UNL     1     -34.204  15.071  -4.603  1.00 20.00     0.209 C 
HETATM    5  F6  UNL     1     -33.735  15.471  -5.814  1.00 20.00    -0.225 F 
HETATM    6  S9  UNL     1     -35.959  15.515  -4.431  1.00 20.00    -0.121 SA
ENDROOT
BRANCH   4   7
HETATM    7  C5  UNL     1     -34.018  13.565  -4.491  1.00 20.00     0.403 C 
HETATM    8  F7  UNL     1     -35.092  13.029  -3.868  1.00 20.00    -0.210 F 
HETATM    9  F8  UNL     1     -32.938  13.306  -3.720  1.00 20.00    -0.210 F 
ENDBRANCH   4   7
TORSDOF 1
ENDMDL
MODEL 4
REMARK VINA RESULT:      -4.0      8.871      9.623
REMARK  1 active torsions:
REMARK  status: ('A' for Active; 'I' for Inactive)
REMARK    1  A    between atoms: C4_4  and  C5_5 
ROOT
HETATM    1  C1  UNL     1     -42.153   4.078  -1.665  1.00 20.00     0.014 C 
HETATM    2  C2  UNL     1     -40.873   4.749  -1.187  1.00 20.00     0.062 C 
HETATM    3  C3  UNL     1     -43.029   3.901  -0.437  1.00 20.00     0.077 C 
HETATM    4  C4  UNL     1     -41.284   5.948  -0.340  1.00 20.00     0.209 C 
HETATM    5  F6  UNL     1     -40.283   6.242   0.530  1.00 20.00    -0.225 F 
HETATM    6  S9  UNL     1     -42.760   5.392   0.564  1.00 20.00    -0.121 SA
ENDROOT
BRANCH   4   7
HETATM    7  C5  UNL     1     -41.592   7.195  -1.155  1.00 20.00     0.403 C 
HETATM    8  F7  UNL     1     -41.221   6.990  -2.439  1.00 20.00    -0.210 F 
HETATM    9  F8  UNL     1     -40.854   8.226  -0.686  1.00 20.00    -0.210 F 
ENDBRANCH   4   7
TORSDOF 1
ENDMDL
MODEL 5
REMARK VINA RESULT:      -4.0     11.977     12.875
REMARK  1 active torsions:
REMARK  status: ('A' for Active; 'I' for Inactive)
REMARK    1  A    between atoms: C4_4  and  C5_5 
ROOT
HETATM    1  C1  UNL     1     -35.213  16.114  -6.014  1.00 20.00     0.014 C 
HETATM    2  C2  UNL     1     -34.526  14.770  -6.206  1.00 20.00     0.062 C 
HETATM    3  C3  UNL     1     -36.549  15.823  -5.354  1.00 20.00     0.077 C 
HETATM    4  C4  UNL     1     -34.594  14.036  -4.871  1.00 20.00     0.209 C 
HETATM    5  F6  UNL     1     -34.517  12.699  -5.094  1.00 20.00    -0.225 F 
HETATM    6  S9  UNL     1     -36.224  14.468  -4.190  1.00 20.00    -0.121 SA
ENDROOT
BRANCH   4   7
HETATM    7  C5  UNL     1     -33.488  14.425  -3.903  1.00 20.00     0.403 C 
HETATM    8  F7  UNL     1     -32.771  13.325  -3.580  1.00 20.00    -0.210 F 
HETATM    9  F8  UNL     1     -34.040  14.891  -2.760  1.00 20.00    -0.210 F 
ENDBRANCH   4   7
TORSDOF 1
ENDMDL
MODEL 6
REMARK VINA RESULT:      -4.0      2.369      3.552
REMARK  1 active torsions:
REMARK  status: ('A' for Active; 'I' for Inactive)
REMARK    1  A    between atoms: C4_4  and  C5_5 
ROOT
HETATM    1  C1  UNL     1     -32.473   5.513   3.005  1.00 20.00     0.014 C 
HETATM    2  C2  UNL     1     -33.956   5.214   2.844  1.00 20.00     0.062 C 
HETATM    3  C3  UNL     1     -32.377   6.905   3.604  1.00 20.00     0.077 C 
HETATM    4  C4  UNL     1     -34.627   5.540   4.173  1.00 20.00     0.209 C 
HETATM    5  F6  UNL     1     -35.937   5.824   3.952  1.00 20.00    -0.225 F 
HETATM    6  S9  UNL     1     -33.757   7.017   4.781  1.00 20.00    -0.121 SA
ENDROOT
BRANCH   4   7
HETATM    7  C5  UNL     1     -34.546   4.413   5.191  1.00 20.00     0.403 C 
HETATM    8  F7  UNL     1     -35.148   3.313   4.685  1.00 20.00    -0.210 F 
HETATM    9  F8  UNL     1     -35.230   4.767   6.302  1.00 20.00    -0.210 F 
ENDBRANCH   4   7
TORSDOF 1
ENDMDL
MODEL 7
REMARK VINA RESULT:      -3.9     11.985     12.873
REMARK  1 active torsions:
REMARK  status: ('A' for Active; 'I' for Inactive)
REMARK    1  A    between atoms: C4_4  and  C5_5 
ROOT
HETATM    1  C1  UNL     1     -34.005  15.859  -5.954  1.00 20.00     0.014 C 
HETATM    2  C2  UNL     1     -35.263  15.305  -5.303  1.00 20.00     0.062 C 
HETATM    3  C3  UNL     1     -33.385  16.813  -4.946  1.00 20.00     0.077 C 
HETATM    4  C4  UNL     1     -34.875  14.825  -3.909  1.00 20.00     0.209 C 
HETATM    5  F6  UNL     1     -35.974  14.841  -3.111  1.00 20.00    -0.225 F 
HETATM    6  S9  UNL     1     -33.655  16.040  -3.325  1.00 20.00    -0.121 SA
ENDROOT
BRANCH   4   7
HETATM    7  C5  UNL     1     -34.288  13.422  -3.888  1.00 20.00     0.403 C 
HETATM    8  F7  UNL     1     -32.940  13.505  -3.816  1.00 20.00    -0.210 F 
HETATM    9  F8  UNL     1     -34.588  12.796  -5.048  1.00 20.00    -0.210 F 
ENDBRANCH   4   7
TORSDOF 1
ENDMDL
MODEL 8
REMARK VINA RESULT:      -3.9     12.000     12.792
REMARK  1 active torsions:
REMARK  status: ('A' for Active; 'I' for Inactive)
REMARK    1  A    between atoms: C4_4  and  C5_5 
ROOT
HETATM    1  C1  UNL     1     -35.339  16.332  -3.231  1.00 20.00     0.014 C 
HETATM    2  C2  UNL     1     -34.218  15.468  -2.673  1.00 20.00     0.062 C 
HETATM    3  C3  UNL     1     -34.692  17.296  -4.210  1.00 20.00     0.077 C 
HETATM    4  C4  UNL     1     -33.413  14.952  -3.861  1.00 20.00     0.209 C 
HETATM    5  F6  UNL     1     -32.151  14.664  -3.451  1.00 20.00    -0.225 F 
HETATM    6  S9  UNL     1     -33.392  16.336  -5.040  1.00 20.00    -0.121 SA
ENDROOT
BRANCH   4   7
HETATM    7  C5  UNL     1     -34.005  13.708  -4.505  1.00 20.00     0.403 C 
HETATM    8  F7  UNL     1     -34.676  14.062  -5.624  1.00 20.00    -0.210 F 
HETATM    9  F8  UNL     1     -34.902  13.152  -3.660  1.00 20.00    -0.210 F 
ENDBRANCH   4   7
TORSDOF 1
ENDMDL
MODEL 9
REMARK VINA RESULT:      -3.8     12.168     12.951
REMARK  1 active torsions:
REMARK  status: ('A' for Active; 'I' for Inactive)
REMARK    1  A    between atoms: C4_4  and  C5_5 
ROOT
HETATM    1  C1  UNL     1     -34.517  15.863  -5.987  1.00 20.00     0.014 C 
HETATM    2  C2  UNL     1     -33.251  16.070  -5.170  1.00 20.00     0.062 C 
HETATM    3  C3  UNL     1     -34.763  14.364  -6.024  1.00 20.00     0.077 C 
HETATM    4  C4  UNL     1     -33.411  15.273  -3.881  1.00 20.00     0.209 C 
HETATM    5  F6  UNL     1     -32.181  14.966  -3.392  1.00 20.00    -0.225 F 
HETATM    6  S9  UNL     1     -34.285  13.758  -4.380  1.00 20.00    -0.121 SA
ENDROOT
BRANCH   4   7
HETATM    7  C5  UNL     1     -34.187  16.008  -2.800  1.00 20.00     0.403 C 
HETATM    8  F7  UNL     1     -33.323  16.469  -1.867  1.00 20.00    -0.210 F 
HETATM    9  F8  UNL     1     -35.019  15.141  -2.180  1.00 20.00    -0.210 F 
ENDBRANCH   4   7
TORSDOF 1
ENDMDL
