MODEL 1
REMARK VINA RESULT:      -5.1      0.000      0.000
REMARK  1 active torsions:
REMARK  status: ('A' for Active; 'I' for Inactive)
REMARK    1  A    between atoms: C1_1  and  C6_6 
ROOT
HETATM    1  C2  UNL     1     -33.394  16.082  -4.706  1.00 20.00     0.010 C 
HETATM    2  C3  UNL     1     -34.659  14.241  -5.888  1.00 20.00     0.010 C 
HETATM    3  C4  UNL     1     -35.907  15.862  -4.781  1.00 20.00     0.010 C 
HETATM    4  C5  UNL     1     -33.441  13.733  -3.806  1.00 20.00     0.010 C 
HETATM    5  C6  UNL     1     -34.691  15.308  -2.649  1.00 20.00     0.081 C 
HETATM    6  C7  UNL     1     -34.622  15.743  -5.602  1.00 20.00    -0.013 C 
HETATM    7  C8  UNL     1     -33.364  15.211  -3.411  1.00 20.00    -0.001 C 
HETATM    8  C9  UNL     1     -34.829  13.683  -4.468  1.00 20.00    -0.009 C 
HETATM    9  C10 UNL     1     -35.671  14.783  -3.711  1.00 20.00     0.003 C 
ENDROOT
BRANCH   5  10
HETATM   10  C1  UNL     1     -34.983  16.668  -2.097  1.00 20.00     0.223 C 
HETATM   11  O11 UNL     1     -36.095  17.178  -2.192  1.00 20.00    -0.279 OA
HETATM   12 CL12 UNL     1     -33.589  17.381  -1.343  1.00 20.00    -0.043 Cl
ENDBRANCH   5  10
TORSDOF 1
ENDMDL
MODEL 2
REMARK VINA RESULT:      -5.1      2.618      3.745
REMARK  1 active torsions:
REMARK  status: ('A' for Active; 'I' for Inactive)
REMARK    1  A    between atoms: C1_1  and  C6_6 
ROOT
HETATM    1  C2  UNL     1     -34.593  16.662  -5.036  1.00 20.00     0.010 C 
HETATM    2  C3  UNL     1     -33.884  17.153  -2.660  1.00 20.00     0.010 C 
HETATM    3  C4  UNL     1     -33.110  15.185  -3.626  1.00 20.00     0.010 C 
HETATM    4  C5  UNL     1     -36.212  16.483  -3.117  1.00 20.00     0.010 C 
HETATM    5  C6  UNL     1     -35.489  14.485  -4.050  1.00 20.00     0.081 C 
HETATM    6  C7  UNL     1     -33.414  16.631  -4.018  1.00 20.00    -0.013 C 
HETATM    7  C8  UNL     1     -35.847  15.910  -4.490  1.00 20.00    -0.001 C 
HETATM    8  C9  UNL     1     -34.957  16.113  -2.308  1.00 20.00    -0.009 C 
HETATM    9  C10 UNL     1     -34.438  14.775  -2.967  1.00 20.00     0.003 C 
ENDROOT
BRANCH   5  10
HETATM   10  C1  UNL     1     -35.056  13.589  -5.168  1.00 20.00     0.223 C 
HETATM   11  O11 UNL     1     -34.494  12.519  -4.956  1.00 20.00    -0.279 OA
HETATM   12 CL12 UNL     1     -35.444  14.252  -6.727  1.00 20.00    -0.043 Cl
ENDBRANCH   5  10
TORSDOF 1
ENDMDL
MODEL 3
REMARK VINA RESULT:      -5.1      1.009      1.009
REMARK  1 active torsions:
REMARK  status: ('A' for Active; 'I' for Inactive)
REMARK    1  A    between atoms: C1_1  and  C6_6 
ROOT
HETATM    1  C2  UNL     1     -33.452  15.958  -4.963  1.00 20.00     0.010 C 
HETATM    2  C3  UNL     1     -35.168  14.197  -5.548  1.00 20.00     0.010 C 
HETATM    3  C4  UNL     1     -35.874  15.997  -4.257  1.00 20.00     0.010 C 
HETATM    4  C5  UNL     1     -33.412  13.679  -3.896  1.00 20.00     0.010 C 
HETATM    5  C6  UNL     1     -34.109  15.437  -2.553  1.00 20.00     0.081 C 
HETATM    6  C7  UNL     1     -34.920  15.700  -5.414  1.00 20.00    -0.013 C 
HETATM    7  C8  UNL     1     -33.095  15.160  -3.669  1.00 20.00    -0.001 C 
HETATM    8  C9  UNL     1     -34.935  13.738  -4.101  1.00 20.00    -0.009 C 
HETATM    9  C10 UNL     1     -35.409  14.960  -3.221  1.00 20.00     0.003 C 
ENDROOT
BRANCH   5  10
HETATM   10  C1  UNL     1     -34.103  16.849  -2.055  1.00 20.00     0.223 C 
HETATM   11  O11 UNL     1     -33.572  17.755  -2.691  1.00 20.00    -0.279 OA
HETATM   12 CL12 UNL     1     -34.915  17.008  -0.527  1.00 20.00    -0.043 Cl
ENDBRANCH   5  10
TORSDOF 1
ENDMDL
MODEL 4
REMARK VINA RESULT:      -5.0      2.023      3.088
REMARK  1 active torsions:
REMARK  status: ('A' for Active; 'I' for Inactive)
REMARK    1  A    between atoms: C1_1  and  C6_6 
ROOT
HETATM    1  C2  UNL     1     -34.908  13.560  -4.116  1.00 20.00     0.010 C 
HETATM    2  C3  UNL     1     -32.974  15.183  -3.994  1.00 20.00     0.010 C 
HETATM    3  C4  UNL     1     -34.828  15.619  -2.660  1.00 20.00     0.010 C 
HETATM    4  C5  UNL     1     -34.405  15.150  -6.002  1.00 20.00     0.010 C 
HETATM    5  C6  UNL     1     -36.277  15.628  -4.717  1.00 20.00     0.081 C 
HETATM    6  C7  UNL     1     -34.021  14.427  -3.174  1.00 20.00    -0.013 C 
HETATM    7  C8  UNL     1     -35.529  14.409  -5.270  1.00 20.00    -0.001 C 
HETATM    8  C9  UNL     1     -33.877  16.057  -4.877  1.00 20.00    -0.009 C 
HETATM    9  C10 UNL     1     -35.140  16.351  -3.976  1.00 20.00     0.003 C 
ENDROOT
BRANCH   5  10
HETATM   10  C1  UNL     1     -37.485  15.288  -3.901  1.00 20.00     0.223 C 
HETATM   11  O11 UNL     1     -37.890  14.134  -3.799  1.00 20.00    -0.279 OA
HETATM   12 CL12 UNL     1     -38.190  16.692  -3.159  1.00 20.00    -0.043 Cl
ENDBRANCH   5  10
TORSDOF 1
ENDMDL
MODEL 5
REMARK VINA RESULT:      -4.9      2.240      3.355
REMARK  1 active torsions:
REMARK  status: ('A' for Active; 'I' for Inactive)
REMARK    1  A    between atoms: C1_1  and  C6_6 
ROOT
HETATM    1  C2  UNL     1     -33.836  16.128  -2.597  1.00 20.00     0.010 C 
HETATM    2  C3  UNL     1     -35.719  17.646  -3.329  1.00 20.00     0.010 C 
HETATM    3  C4  UNL     1     -36.151  15.363  -3.246  1.00 20.00     0.010 C 
HETATM    4  C5  UNL     1     -33.820  17.249  -4.851  1.00 20.00     0.010 C 
HETATM    5  C6  UNL     1     -34.240  14.967  -4.834  1.00 20.00     0.081 C 
HETATM    6  C7  UNL     1     -35.360  16.424  -2.482  1.00 20.00    -0.013 C 
HETATM    7  C8  UNL     1     -33.383  15.995  -4.086  1.00 20.00    -0.001 C 
HETATM    8  C9  UNL     1     -35.350  17.141  -4.732  1.00 20.00    -0.009 C 
HETATM    9  C10 UNL     1     -35.637  15.589  -4.678  1.00 20.00     0.003 C 
ENDROOT
BRANCH   5  10
HETATM   10  C1  UNL     1     -34.083  13.563  -4.339  1.00 20.00     0.223 C 
HETATM   11  O11 UNL     1     -34.917  12.696  -4.585  1.00 20.00    -0.279 OA
HETATM   12 CL12 UNL     1     -32.626  13.353  -3.416  1.00 20.00    -0.043 Cl
ENDBRANCH   5  10
TORSDOF 1
ENDMDL
MODEL 6
REMARK VINA RESULT:      -4.9      2.635      3.667
REMARK  1 active torsions:
REMARK  status: ('A' for Active; 'I' for Inactive)
REMARK    1  A    between atoms: C1_1  and  C6_6 
ROOT
HETATM    1  C2  UNL     1     -35.874  14.056  -4.194  1.00 20.00     0.010 C 
HETATM    2  C3  UNL     1     -34.747  15.521  -2.469  1.00 20.00     0.010 C 
HETATM    3  C4  UNL     1     -35.461  16.534  -4.437  1.00 20.00     0.010 C 
HETATM    4  C5  UNL     1     -33.398  13.915  -3.766  1.00 20.00     0.010 C 
HETATM    5  C6  UNL     1     -34.048  14.921  -5.753  1.00 20.00     0.081 C 
HETATM    6  C7  UNL     1     -35.901  15.435  -3.469  1.00 20.00    -0.013 C 
HETATM    7  C8  UNL     1     -34.482  13.769  -4.839  1.00 20.00    -0.001 C 
HETATM    8  C9  UNL     1     -33.541  15.405  -3.413  1.00 20.00    -0.009 C 
HETATM    9  C10 UNL     1     -34.024  16.087  -4.752  1.00 20.00     0.003 C 
ENDROOT
BRANCH   5  10
HETATM   10  C1  UNL     1     -34.914  15.104  -6.960  1.00 20.00     0.223 C 
HETATM   11  O11 UNL     1     -35.680  14.226  -7.344  1.00 20.00    -0.279 OA
HETATM   12 CL12 UNL     1     -34.686  16.661  -7.698  1.00 20.00    -0.043 Cl
ENDBRANCH   5  10
TORSDOF 1
ENDMDL
MODEL 7
REMARK VINA RESULT:      -4.8      1.803      2.834
REMARK  1 active torsions:
REMARK  status: ('A' for Active; 'I' for Inactive)
REMARK    1  A    between atoms: C1_1  and  C6_6 
ROOT
HETATM    1  C2  UNL     1     -34.811  15.545  -2.697  1.00 20.00     0.010 C 
HETATM    2  C3  UNL     1     -33.188  13.891  -3.707  1.00 20.00     0.010 C 
HETATM    3  C4  UNL     1     -33.251  16.029  -4.621  1.00 20.00     0.010 C 
HETATM    4  C5  UNL     1     -35.605  13.626  -4.119  1.00 20.00     0.010 C 
HETATM    5  C6  UNL     1     -35.707  15.736  -5.079  1.00 20.00     0.081 C 
HETATM    6  C7  UNL     1     -33.373  15.342  -3.260  1.00 20.00    -0.013 C 
HETATM    7  C8  UNL     1     -35.901  15.072  -3.710  1.00 20.00    -0.001 C 
HETATM    8  C9  UNL     1     -34.245  13.797  -4.818  1.00 20.00    -0.009 C 
HETATM    9  C10 UNL     1     -34.295  15.248  -5.437  1.00 20.00     0.003 C 
ENDROOT
BRANCH   5  10
HETATM   10  C1  UNL     1     -35.913  17.218  -5.076  1.00 20.00     0.223 C 
HETATM   11  O11 UNL     1     -36.432  17.796  -4.126  1.00 20.00    -0.279 OA
HETATM   12 CL12 UNL     1     -35.338  17.962  -6.538  1.00 20.00    -0.043 Cl
ENDBRANCH   5  10
TORSDOF 1
ENDMDL
MODEL 8
REMARK VINA RESULT:      -4.8     12.019     13.049
REMARK  1 active torsions:
REMARK  status: ('A' for Active; 'I' for Inactive)
REMARK    1  A    between atoms: C1_1  and  C6_6 
ROOT
HETATM    1  C2  UNL     1     -42.948   4.115  -1.298  1.00 20.00     0.010 C 
HETATM    2  C3  UNL     1     -42.179   4.927   0.969  1.00 20.00     0.010 C 
HETATM    3  C4  UNL     1     -43.413   6.402  -0.339  1.00 20.00     0.010 C 
HETATM    4  C5  UNL     1     -40.533   4.666  -0.849  1.00 20.00     0.010 C 
HETATM    5  C6  UNL     1     -41.707   6.167  -2.173  1.00 20.00     0.081 C 
HETATM    6  C7  UNL     1     -43.347   4.908  -0.019  1.00 20.00    -0.013 C 
HETATM    7  C8  UNL     1     -41.624   4.656  -1.925  1.00 20.00    -0.001 C 
HETATM    8  C9  UNL     1     -41.122   5.679   0.148  1.00 20.00    -0.009 C 
HETATM    9  C10 UNL     1     -41.956   6.679  -0.745  1.00 20.00     0.003 C 
ENDROOT
BRANCH   5  10
HETATM   10  C1  UNL     1     -42.719   6.564  -3.202  1.00 20.00     0.223 C 
HETATM   11  O11 UNL     1     -43.411   5.732  -3.782  1.00 20.00    -0.279 OA
HETATM   12 CL12 UNL     1     -42.768   8.284  -3.442  1.00 20.00    -0.043 Cl
ENDBRANCH   5  10
TORSDOF 1
ENDMDL
MODEL 9
REMARK VINA RESULT:      -4.7      1.412      1.603
REMARK  1 active torsions:
REMARK  status: ('A' for Active; 'I' for Inactive)
REMARK    1  A    between atoms: C1_1  and  C6_6 
ROOT
HETATM    1  C2  UNL     1     -34.047  15.658  -5.633  1.00 20.00     0.010 C 
HETATM    2  C3  UNL     1     -34.505  13.292  -4.873  1.00 20.00     0.010 C 
HETATM    3  C4  UNL     1     -36.102  14.907  -4.377  1.00 20.00     0.010 C 
HETATM    4  C5  UNL     1     -32.777  14.624  -3.722  1.00 20.00     0.010 C 
HETATM    5  C6  UNL     1     -34.346  16.240  -3.166  1.00 20.00     0.081 C 
HETATM    6  C7  UNL     1     -35.125  14.543  -5.495  1.00 20.00    -0.013 C 
HETATM    7  C8  UNL     1     -33.330  15.941  -4.275  1.00 20.00    -0.001 C 
HETATM    8  C9  UNL     1     -34.080  13.835  -3.501  1.00 20.00    -0.009 C 
HETATM    9  C10 UNL     1     -35.159  14.936  -3.163  1.00 20.00     0.003 C 
ENDROOT
BRANCH   5  10
HETATM   10  C1  UNL     1     -35.123  17.503  -3.372  1.00 20.00     0.223 C 
HETATM   11  O11 UNL     1     -34.804  18.326  -4.225  1.00 20.00    -0.279 OA
HETATM   12 CL12 UNL     1     -36.472  17.625  -2.283  1.00 20.00    -0.043 Cl
ENDBRANCH   5  10
TORSDOF 1
ENDMDL
