MODEL 1
REMARK VINA RESULT:      -4.7      0.000      0.000
REMARK  1 active torsions:
REMARK  status: ('A' for Active; 'I' for Inactive)
REMARK    1  A    between atoms: C2_2  and  C6_6 
ROOT
HETATM    1  C3  UNL     1     -34.474  14.033  -5.349  1.00 20.00     0.031 C 
HETATM    2  C4  UNL     1     -35.278  13.731  -4.080  1.00 20.00     0.032 C 
HETATM    3  C5  UNL     1     -33.293  15.935  -4.178  1.00 20.00     0.040 C 
HETATM    4  C6  UNL     1     -34.058  15.589  -2.884  1.00 20.00     0.042 C 
HETATM    5  C7  UNL     1     -34.163  15.534  -5.379  1.00 20.00     0.131 C 
HETATM    6  C8  UNL     1     -35.443  15.037  -3.289  1.00 20.00     0.139 C 
HETATM    7  N10 UNL     1     -35.449  16.262  -5.256  1.00 20.00    -0.192 NA
HETATM    8  N11 UNL     1     -36.092  16.018  -4.198  1.00 20.00    -0.192 NA
ENDROOT
BRANCH   4   9
HETATM    9  C2  UNL     1     -34.165  16.768  -1.963  1.00 20.00    -0.087 C 
HETATM   10  C1  UNL     1     -34.642  16.652  -0.716  1.00 20.00     0.014 C 
HETATM   11  C9  UNL     1     -33.705  18.084  -2.518  1.00 20.00     0.043 C 
ENDBRANCH   4   9
TORSDOF 1
ENDMDL
MODEL 2
REMARK VINA RESULT:      -4.7      1.549      2.187
REMARK  1 active torsions:
REMARK  status: ('A' for Active; 'I' for Inactive)
REMARK    1  A    between atoms: C2_2  and  C6_6 
ROOT
HETATM    1  C3  UNL     1     -35.010  13.974  -5.601  1.00 20.00     0.031 C 
HETATM    2  C4  UNL     1     -34.108  15.184  -5.863  1.00 20.00     0.032 C 
HETATM    3  C5  UNL     1     -35.693  14.936  -3.366  1.00 20.00     0.040 C 
HETATM    4  C6  UNL     1     -34.833  16.182  -3.660  1.00 20.00     0.042 C 
HETATM    5  C7  UNL     1     -35.068  13.732  -4.087  1.00 20.00     0.131 C 
HETATM    6  C8  UNL     1     -33.625  15.731  -4.511  1.00 20.00     0.139 C 
HETATM    7  N10 UNL     1     -33.673  13.600  -3.600  1.00 20.00    -0.192 NA
HETATM    8  N11 UNL     1     -32.947  14.611  -3.806  1.00 20.00    -0.192 NA
ENDROOT
BRANCH   4   9
HETATM    9  C2  UNL     1     -34.411  16.882  -2.403  1.00 20.00    -0.087 C 
HETATM   10  C1  UNL     1     -34.659  16.370  -1.189  1.00 20.00     0.014 C 
HETATM   11  C9  UNL     1     -33.694  18.187  -2.582  1.00 20.00     0.043 C 
ENDBRANCH   4   9
TORSDOF 1
ENDMDL
MODEL 3
REMARK VINA RESULT:      -4.6      2.252      4.073
REMARK  1 active torsions:
REMARK  status: ('A' for Active; 'I' for Inactive)
REMARK    1  A    between atoms: C2_2  and  C6_6 
ROOT
HETATM    1  C3  UNL     1     -34.191  14.917  -3.069  1.00 20.00     0.031 C 
HETATM    2  C4  UNL     1     -35.699  15.186  -3.067  1.00 20.00     0.032 C 
HETATM    3  C5  UNL     1     -34.152  15.016  -5.593  1.00 20.00     0.040 C 
HETATM    4  C6  UNL     1     -35.658  15.349  -5.586  1.00 20.00     0.042 C 
HETATM    5  C7  UNL     1     -33.836  14.163  -4.356  1.00 20.00     0.131 C 
HETATM    6  C8  UNL     1     -36.292  14.634  -4.372  1.00 20.00     0.139 C 
HETATM    7  N10 UNL     1     -34.695  12.955  -4.421  1.00 20.00    -0.192 NA
HETATM    8  N11 UNL     1     -35.934  13.192  -4.437  1.00 20.00    -0.192 NA
ENDROOT
BRANCH   4   9
HETATM    9  C2  UNL     1     -36.322  14.973  -6.876  1.00 20.00    -0.087 C 
HETATM   10  C1  UNL     1     -35.634  14.456  -7.904  1.00 20.00     0.014 C 
HETATM   11  C9  UNL     1     -37.802  15.206  -6.950  1.00 20.00     0.043 C 
ENDBRANCH   4   9
TORSDOF 1
ENDMDL
MODEL 4
REMARK VINA RESULT:      -4.2      1.723      2.621
REMARK  1 active torsions:
REMARK  status: ('A' for Active; 'I' for Inactive)
REMARK    1  A    between atoms: C2_2  and  C6_6 
ROOT
HETATM    1  C3  UNL     1     -36.878  15.140  -6.221  1.00 20.00     0.031 C 
HETATM    2  C4  UNL     1     -35.571  14.417  -6.560  1.00 20.00     0.032 C 
HETATM    3  C5  UNL     1     -35.757  16.308  -4.281  1.00 20.00     0.040 C 
HETATM    4  C6  UNL     1     -34.427  15.627  -4.663  1.00 20.00     0.042 C 
HETATM    5  C7  UNL     1     -36.913  15.392  -4.709  1.00 20.00     0.131 C 
HETATM    6  C8  UNL     1     -34.763  14.244  -5.267  1.00 20.00     0.139 C 
HETATM    7  N10 UNL     1     -36.718  14.087  -4.031  1.00 20.00    -0.192 NA
HETATM    8  N11 UNL     1     -35.629  13.511  -4.306  1.00 20.00    -0.192 NA
ENDROOT
BRANCH   4   9
HETATM    9  C2  UNL     1     -33.493  15.524  -3.495  1.00 20.00    -0.087 C 
HETATM   10  C1  UNL     1     -32.383  14.773  -3.538  1.00 20.00     0.014 C 
HETATM   11  C9  UNL     1     -33.871  16.310  -2.275  1.00 20.00     0.043 C 
ENDBRANCH   4   9
TORSDOF 1
ENDMDL
MODEL 5
REMARK VINA RESULT:      -4.2      1.810      3.921
REMARK  1 active torsions:
REMARK  status: ('A' for Active; 'I' for Inactive)
REMARK    1  A    between atoms: C2_2  and  C6_6 
ROOT
HETATM    1  C3  UNL     1     -33.765  13.918  -3.414  1.00 20.00     0.031 C 
HETATM    2  C4  UNL     1     -33.281  15.322  -3.787  1.00 20.00     0.032 C 
HETATM    3  C5  UNL     1     -34.793  13.637  -5.705  1.00 20.00     0.040 C 
HETATM    4  C6  UNL     1     -34.249  15.025  -6.100  1.00 20.00     0.042 C 
HETATM    5  C7  UNL     1     -35.055  13.629  -4.192  1.00 20.00     0.131 C 
HETATM    6  C8  UNL     1     -34.244  15.906  -4.831  1.00 20.00     0.139 C 
HETATM    7  N10 UNL     1     -36.010  14.726  -3.903  1.00 20.00    -0.192 NA
HETATM    8  N11 UNL     1     -35.605  15.875  -4.233  1.00 20.00    -0.192 NA
ENDROOT
BRANCH   4   9
HETATM    9  C2  UNL     1     -35.039  15.641  -7.215  1.00 20.00    -0.087 C 
HETATM   10  C1  UNL     1     -34.793  16.883  -7.657  1.00 20.00     0.014 C 
HETATM   11  C9  UNL     1     -36.121  14.788  -7.809  1.00 20.00     0.043 C 
ENDBRANCH   4   9
TORSDOF 1
ENDMDL
MODEL 6
REMARK VINA RESULT:      -4.1      1.737      2.660
REMARK  1 active torsions:
REMARK  status: ('A' for Active; 'I' for Inactive)
REMARK    1  A    between atoms: C2_2  and  C6_6 
ROOT
HETATM    1  C3  UNL     1     -36.412  14.879  -7.148  1.00 20.00     0.031 C 
HETATM    2  C4  UNL     1     -36.779  15.947  -6.113  1.00 20.00     0.032 C 
HETATM    3  C5  UNL     1     -34.867  13.766  -5.488  1.00 20.00     0.040 C 
HETATM    4  C6  UNL     1     -35.286  14.805  -4.428  1.00 20.00     0.042 C 
HETATM    5  C7  UNL     1     -34.976  14.415  -6.875  1.00 20.00     0.131 C 
HETATM    6  C8  UNL     1     -35.587  16.131  -5.162  1.00 20.00     0.139 C 
HETATM    7  N10 UNL     1     -34.107  15.618  -6.871  1.00 20.00    -0.192 NA
HETATM    8  N11 UNL     1     -34.410  16.480  -6.001  1.00 20.00    -0.192 NA
ENDROOT
BRANCH   4   9
HETATM    9  C2  UNL     1     -34.245  14.971  -3.362  1.00 20.00    -0.087 C 
HETATM   10  C1  UNL     1     -34.425  15.790  -2.316  1.00 20.00     0.014 C 
HETATM   11  C9  UNL     1     -32.990  14.167  -3.532  1.00 20.00     0.043 C 
ENDBRANCH   4   9
TORSDOF 1
ENDMDL
MODEL 7
REMARK VINA RESULT:      -4.1      1.599      1.969
REMARK  1 active torsions:
REMARK  status: ('A' for Active; 'I' for Inactive)
REMARK    1  A    between atoms: C2_2  and  C6_6 
ROOT
HETATM    1  C3  UNL     1     -34.512  14.749  -5.630  1.00 20.00     0.031 C 
HETATM    2  C4  UNL     1     -35.408  15.989  -5.692  1.00 20.00     0.032 C 
HETATM    3  C5  UNL     1     -34.465  14.878  -3.108  1.00 20.00     0.040 C 
HETATM    4  C6  UNL     1     -35.419  16.089  -3.170  1.00 20.00     0.042 C 
HETATM    5  C7  UNL     1     -33.618  14.859  -4.388  1.00 20.00     0.131 C 
HETATM    6  C8  UNL     1     -35.108  16.867  -4.468  1.00 20.00     0.139 C 
HETATM    7  N10 UNL     1     -32.901  16.156  -4.464  1.00 20.00    -0.192 NA
HETATM    8  N11 UNL     1     -33.653  17.170  -4.496  1.00 20.00    -0.192 NA
ENDROOT
BRANCH   4   9
HETATM    9  C2  UNL     1     -35.309  16.954  -1.950  1.00 20.00    -0.087 C 
HETATM   10  C1  UNL     1     -34.546  16.609  -0.903  1.00 20.00     0.014 C 
HETATM   11  C9  UNL     1     -36.099  18.228  -1.970  1.00 20.00     0.043 C 
ENDBRANCH   4   9
TORSDOF 1
ENDMDL
MODEL 8
REMARK VINA RESULT:      -4.1      1.671      2.484
REMARK  1 active torsions:
REMARK  status: ('A' for Active; 'I' for Inactive)
REMARK    1  A    between atoms: C2_2  and  C6_6 
ROOT
HETATM    1  C3  UNL     1     -33.354  13.738  -3.756  1.00 20.00     0.031 C 
HETATM    2  C4  UNL     1     -34.682  13.352  -4.416  1.00 20.00     0.032 C 
HETATM    3  C5  UNL     1     -34.470  15.683  -2.592  1.00 20.00     0.040 C 
HETATM    4  C6  UNL     1     -35.818  15.254  -3.207  1.00 20.00     0.042 C 
HETATM    5  C7  UNL     1     -33.343  15.257  -3.544  1.00 20.00     0.131 C 
HETATM    6  C8  UNL     1     -35.526  14.623  -4.587  1.00 20.00     0.139 C 
HETATM    7  N10 UNL     1     -33.608  15.896  -4.857  1.00 20.00    -0.192 NA
HETATM    8  N11 UNL     1     -34.713  15.583  -5.379  1.00 20.00    -0.192 NA
ENDROOT
BRANCH   4   9
HETATM    9  C2  UNL     1     -36.782  16.399  -3.301  1.00 20.00    -0.087 C 
HETATM   10  C1  UNL     1     -36.474  17.623  -2.848  1.00 20.00     0.014 C 
HETATM   11  C9  UNL     1     -38.109  16.097  -3.931  1.00 20.00     0.043 C 
ENDBRANCH   4   9
TORSDOF 1
ENDMDL
MODEL 9
REMARK VINA RESULT:      -4.1      1.593      3.648
REMARK  1 active torsions:
REMARK  status: ('A' for Active; 'I' for Inactive)
REMARK    1  A    between atoms: C2_2  and  C6_6 
ROOT
HETATM    1  C3  UNL     1     -35.372  17.822  -1.491  1.00 20.00     0.031 C 
HETATM    2  C4  UNL     1     -34.042  17.105  -1.237  1.00 20.00     0.032 C 
HETATM    3  C5  UNL     1     -36.105  15.968  -3.042  1.00 20.00     0.040 C 
HETATM    4  C6  UNL     1     -34.793  15.217  -2.735  1.00 20.00     0.042 C 
HETATM    5  C7  UNL     1     -35.846  17.475  -2.908  1.00 20.00     0.131 C 
HETATM    6  C8  UNL     1     -33.695  16.273  -2.480  1.00 20.00     0.139 C 
HETATM    7  N10 UNL     1     -34.749  17.821  -3.846  1.00 20.00    -0.192 NA
HETATM    8  N11 UNL     1     -33.666  17.208  -3.636  1.00 20.00    -0.192 NA
ENDROOT
BRANCH   4   9
HETATM    9  C2  UNL     1     -34.421  14.266  -3.833  1.00 20.00    -0.087 C 
HETATM   10  C1  UNL     1     -33.295  13.539  -3.790  1.00 20.00     0.014 C 
HETATM   11  C9  UNL     1     -35.382  14.172  -4.981  1.00 20.00     0.043 C 
ENDBRANCH   4   9
TORSDOF 1
ENDMDL
