MODEL 1
REMARK VINA RESULT:      -4.9      0.000      0.000
REMARK  1 active torsions:
REMARK  status: ('A' for Active; 'I' for Inactive)
REMARK    1  A    between atoms: C2_2  and  C3_3 
ROOT
HETATM    1  C1  UNL     1     -35.859  15.338  -3.096  1.00 20.00    -0.011 C 
HETATM    2  C2  UNL     1     -34.606  15.769  -2.891  1.00 20.00    -0.019 C 
HETATM    3  C4  UNL     1     -35.070  13.307  -4.190  1.00 20.00     0.010 C 
HETATM    4  C5  UNL     1     -33.618  13.813  -3.940  1.00 20.00     0.011 C 
HETATM    5  C6  UNL     1     -35.848  14.624  -4.436  1.00 20.00     0.017 C 
HETATM    6  C7  UNL     1     -33.766  15.351  -4.077  1.00 20.00     0.030 C 
HETATM    7  C8  UNL     1     -34.819  15.497  -5.211  1.00 20.00    -0.033 C 
HETATM    8  C9  UNL     1     -35.281  16.949  -5.474  1.00 20.00     0.016 C 
HETATM    9  C10 UNL     1     -34.385  14.928  -6.575  1.00 20.00     0.016 C 
ENDROOT
BRANCH   2  10
HETATM   10  C3  UNL     1     -34.137  16.495  -1.731  1.00 20.00     0.265 C 
HETATM   11  O11 UNL     1     -34.707  16.462  -0.635  1.00 20.00    -0.302 OA
ENDBRANCH   2  10
TORSDOF 1
ENDMDL
MODEL 2
REMARK VINA RESULT:      -4.8      2.025      3.524
REMARK  1 active torsions:
REMARK  status: ('A' for Active; 'I' for Inactive)
REMARK    1  A    between atoms: C2_2  and  C3_3 
ROOT
HETATM    1  C1  UNL     1     -35.732  15.518  -3.634  1.00 20.00    -0.011 C 
HETATM    2  C2  UNL     1     -34.532  14.924  -3.561  1.00 20.00    -0.019 C 
HETATM    3  C4  UNL     1     -34.803  17.432  -4.826  1.00 20.00     0.010 C 
HETATM    4  C5  UNL     1     -33.416  16.729  -4.742  1.00 20.00     0.011 C 
HETATM    5  C6  UNL     1     -35.476  17.008  -3.496  1.00 20.00     0.017 C 
HETATM    6  C7  UNL     1     -33.486  16.000  -3.376  1.00 20.00     0.030 C 
HETATM    7  C8  UNL     1     -34.287  16.997  -2.493  1.00 20.00    -0.033 C 
HETATM    8  C9  UNL     1     -34.642  16.466  -1.085  1.00 20.00     0.016 C 
HETATM    9  C10 UNL     1     -33.607  18.363  -2.280  1.00 20.00     0.016 C 
ENDROOT
BRANCH   2  10
HETATM   10  C3  UNL     1     -34.282  13.502  -3.657  1.00 20.00     0.265 C 
HETATM   11  O11 UNL     1     -35.011  12.727  -4.284  1.00 20.00    -0.302 OA
ENDBRANCH   2  10
TORSDOF 1
ENDMDL
MODEL 3
REMARK VINA RESULT:      -4.8      1.901      3.000
REMARK  1 active torsions:
REMARK  status: ('A' for Active; 'I' for Inactive)
REMARK    1  A    between atoms: C2_2  and  C3_3 
ROOT
HETATM    1  C1  UNL     1     -35.790  16.314  -4.746  1.00 20.00    -0.011 C 
HETATM    2  C2  UNL     1     -36.301  15.287  -4.053  1.00 20.00    -0.019 C 
HETATM    3  C4  UNL     1     -34.317  14.836  -6.008  1.00 20.00     0.010 C 
HETATM    4  C5  UNL     1     -34.924  13.649  -5.202  1.00 20.00     0.011 C 
HETATM    5  C6  UNL     1     -34.324  15.986  -4.969  1.00 20.00     0.017 C 
HETATM    6  C7  UNL     1     -35.195  14.284  -3.814  1.00 20.00     0.030 C 
HETATM    7  C8  UNL     1     -33.994  15.253  -3.637  1.00 20.00    -0.033 C 
HETATM    8  C9  UNL     1     -34.071  16.148  -2.378  1.00 20.00     0.016 C 
HETATM    9  C10 UNL     1     -32.612  14.573  -3.598  1.00 20.00     0.016 C 
ENDROOT
BRANCH   2  10
HETATM   10  C3  UNL     1     -37.676  15.155  -3.621  1.00 20.00     0.265 C 
HETATM   11  O11 UNL     1     -38.347  14.134  -3.800  1.00 20.00    -0.302 OA
ENDBRANCH   2  10
TORSDOF 1
ENDMDL
MODEL 4
REMARK VINA RESULT:      -4.8      2.091      3.392
REMARK  1 active torsions:
REMARK  status: ('A' for Active; 'I' for Inactive)
REMARK    1  A    between atoms: C2_2  and  C3_3 
ROOT
HETATM    1  C1  UNL     1     -33.184  15.131  -3.438  1.00 20.00    -0.011 C 
HETATM    2  C2  UNL     1     -34.241  14.771  -4.179  1.00 20.00    -0.019 C 
HETATM    3  C4  UNL     1     -34.606  16.251  -1.804  1.00 20.00     0.010 C 
HETATM    4  C5  UNL     1     -35.828  15.819  -2.668  1.00 20.00     0.011 C 
HETATM    5  C6  UNL     1     -33.511  16.502  -2.871  1.00 20.00     0.017 C 
HETATM    6  C7  UNL     1     -35.263  15.882  -4.111  1.00 20.00     0.030 C 
HETATM    7  C8  UNL     1     -34.314  17.111  -4.056  1.00 20.00    -0.033 C 
HETATM    8  C9  UNL     1     -33.484  17.339  -5.342  1.00 20.00     0.016 C 
HETATM    9  C10 UNL     1     -35.007  18.452  -3.747  1.00 20.00     0.016 C 
ENDROOT
BRANCH   2  10
HETATM   10  C3  UNL     1     -34.384  13.527  -4.905  1.00 20.00     0.265 C 
HETATM   11  O11 UNL     1     -35.027  12.564  -4.478  1.00 20.00    -0.302 OA
ENDBRANCH   2  10
TORSDOF 1
ENDMDL
MODEL 5
REMARK VINA RESULT:      -4.7      1.986      3.428
REMARK  1 active torsions:
REMARK  status: ('A' for Active; 'I' for Inactive)
REMARK    1  A    between atoms: C2_2  and  C3_3 
ROOT
HETATM    1  C1  UNL     1     -33.264  15.876  -3.860  1.00 20.00    -0.011 C 
HETATM    2  C2  UNL     1     -34.167  14.967  -3.467  1.00 20.00    -0.019 C 
HETATM    3  C4  UNL     1     -33.699  17.272  -1.908  1.00 20.00     0.010 C 
HETATM    4  C5  UNL     1     -34.740  16.204  -1.457  1.00 20.00     0.011 C 
HETATM    5  C6  UNL     1     -33.821  17.229  -3.453  1.00 20.00     0.017 C 
HETATM    6  C7  UNL     1     -35.313  15.698  -2.806  1.00 20.00     0.030 C 
HETATM    7  C8  UNL     1     -35.341  16.986  -3.675  1.00 20.00    -0.033 C 
HETATM    8  C9  UNL     1     -35.744  16.756  -5.150  1.00 20.00     0.016 C 
HETATM    9  C10 UNL     1     -36.259  18.104  -3.147  1.00 20.00     0.016 C 
ENDROOT
BRANCH   2  10
HETATM   10  C3  UNL     1     -34.056  13.534  -3.635  1.00 20.00     0.265 C 
HETATM   11  O11 UNL     1     -34.932  12.844  -4.166  1.00 20.00    -0.302 OA
ENDBRANCH   2  10
TORSDOF 1
ENDMDL
MODEL 6
REMARK VINA RESULT:      -4.6      0.992      2.411
REMARK  1 active torsions:
REMARK  status: ('A' for Active; 'I' for Inactive)
REMARK    1  A    between atoms: C2_2  and  C3_3 
ROOT
HETATM    1  C1  UNL     1     -33.633  16.670  -3.734  1.00 20.00    -0.011 C 
HETATM    2  C2  UNL     1     -34.195  16.276  -2.582  1.00 20.00    -0.019 C 
HETATM    3  C4  UNL     1     -35.630  16.083  -5.005  1.00 20.00     0.010 C 
HETATM    4  C5  UNL     1     -36.276  15.635  -3.659  1.00 20.00     0.011 C 
HETATM    5  C6  UNL     1     -34.139  15.715  -4.800  1.00 20.00     0.017 C 
HETATM    6  C7  UNL     1     -35.064  15.073  -2.871  1.00 20.00     0.030 C 
HETATM    7  C8  UNL     1     -34.215  14.394  -3.981  1.00 20.00    -0.033 C 
HETATM    8  C9  UNL     1     -32.845  13.857  -3.503  1.00 20.00     0.016 C 
HETATM    9  C10 UNL     1     -34.909  13.224  -4.704  1.00 20.00     0.016 C 
ENDROOT
BRANCH   2  10
HETATM   10  C3  UNL     1     -34.011  16.902  -1.291  1.00 20.00     0.265 C 
HETATM   11  O11 UNL     1     -34.734  16.670  -0.317  1.00 20.00    -0.302 OA
ENDBRANCH   2  10
TORSDOF 1
ENDMDL
MODEL 7
REMARK VINA RESULT:      -4.5      2.332      3.662
REMARK  1 active torsions:
REMARK  status: ('A' for Active; 'I' for Inactive)
REMARK    1  A    between atoms: C2_2  and  C3_3 
ROOT
HETATM    1  C1  UNL     1     -33.762  15.878  -5.623  1.00 20.00    -0.011 C 
HETATM    2  C2  UNL     1     -34.711  14.933  -5.589  1.00 20.00    -0.019 C 
HETATM    3  C4  UNL     1     -32.618  14.915  -3.696  1.00 20.00     0.010 C 
HETATM    4  C5  UNL     1     -33.722  13.816  -3.671  1.00 20.00     0.011 C 
HETATM    5  C6  UNL     1     -33.398  16.165  -4.176  1.00 20.00     0.017 C 
HETATM    6  C7  UNL     1     -34.981  14.589  -4.142  1.00 20.00     0.030 C 
HETATM    7  C8  UNL     1     -34.787  15.990  -3.498  1.00 20.00    -0.033 C 
HETATM    8  C9  UNL     1     -35.842  17.041  -3.917  1.00 20.00     0.016 C 
HETATM    9  C10 UNL     1     -34.761  15.997  -1.957  1.00 20.00     0.016 C 
ENDROOT
BRANCH   2  10
HETATM   10  C3  UNL     1     -35.354  14.335  -6.739  1.00 20.00     0.265 C 
HETATM   11  O11 UNL     1     -36.399  14.769  -7.233  1.00 20.00    -0.302 OA
ENDBRANCH   2  10
TORSDOF 1
ENDMDL
MODEL 8
REMARK VINA RESULT:      -4.5      2.363      3.789
REMARK  1 active torsions:
REMARK  status: ('A' for Active; 'I' for Inactive)
REMARK    1  A    between atoms: C2_2  and  C3_3 
ROOT
HETATM    1  C1  UNL     1     -34.820  13.721  -5.350  1.00 20.00    -0.011 C 
HETATM    2  C2  UNL     1     -34.716  14.945  -5.887  1.00 20.00    -0.019 C 
HETATM    3  C4  UNL     1     -36.652  14.422  -3.901  1.00 20.00     0.010 C 
HETATM    4  C5  UNL     1     -36.528  15.838  -4.538  1.00 20.00     0.011 C 
HETATM    5  C6  UNL     1     -35.183  13.929  -3.890  1.00 20.00     0.017 C 
HETATM    6  C7  UNL     1     -35.005  15.959  -4.804  1.00 20.00     0.030 C 
HETATM    7  C8  UNL     1     -34.382  15.227  -3.583  1.00 20.00    -0.033 C 
HETATM    8  C9  UNL     1     -32.846  15.062  -3.649  1.00 20.00     0.016 C 
HETATM    9  C10 UNL     1     -34.689  15.869  -2.217  1.00 20.00     0.016 C 
ENDROOT
BRANCH   2  10
HETATM   10  C3  UNL     1     -34.397  15.241  -7.267  1.00 20.00     0.265 C 
HETATM   11  O11 UNL     1     -34.577  16.349  -7.781  1.00 20.00    -0.302 OA
ENDBRANCH   2  10
TORSDOF 1
ENDMDL
MODEL 9
REMARK VINA RESULT:      -4.5      2.434      3.407
REMARK  1 active torsions:
REMARK  status: ('A' for Active; 'I' for Inactive)
REMARK    1  A    between atoms: C2_2  and  C3_3 
ROOT
HETATM    1  C1  UNL     1     -35.916  15.312  -5.142  1.00 20.00    -0.011 C 
HETATM    2  C2  UNL     1     -34.884  14.561  -5.552  1.00 20.00    -0.019 C 
HETATM    3  C4  UNL     1     -36.718  15.603  -7.427  1.00 20.00     0.010 C 
HETATM    4  C5  UNL     1     -35.520  14.722  -7.891  1.00 20.00     0.011 C 
HETATM    5  C6  UNL     1     -36.125  16.366  -6.215  1.00 20.00     0.017 C 
HETATM    6  C7  UNL     1     -34.407  15.102  -6.880  1.00 20.00     0.030 C 
HETATM    7  C8  UNL     1     -34.653  16.619  -6.650  1.00 20.00    -0.033 C 
HETATM    8  C9  UNL     1     -33.763  17.255  -5.557  1.00 20.00     0.016 C 
HETATM    9  C10 UNL     1     -34.491  17.499  -7.904  1.00 20.00     0.016 C 
ENDROOT
BRANCH   2  10
HETATM   10  C3  UNL     1     -34.334  13.421  -4.850  1.00 20.00     0.265 C 
HETATM   11  O11 UNL     1     -35.029  12.581  -4.271  1.00 20.00    -0.302 OA
ENDBRANCH   2  10
TORSDOF 1
ENDMDL
