MODEL 1
REMARK VINA RESULT:      -5.3      0.000      0.000
REMARK  2 active torsions:
REMARK  status: ('A' for Active; 'I' for Inactive)
REMARK    1  A    between atoms: C1_1  and  C5_5 
REMARK    2  A    between atoms: C1_1  and  O10_10 
ROOT
HETATM    1  C2  UNL     1     -35.548   5.299   4.119  1.00 20.00     0.015 C 
HETATM    2  C3  UNL     1     -35.167   4.186   5.107  1.00 20.00     0.006 C 
HETATM    3  C4  UNL     1     -34.494   6.146   6.725  1.00 20.00     0.011 A 
HETATM    4  C5  UNL     1     -34.337   6.251   4.100  1.00 20.00     0.090 C 
HETATM    5  C6  UNL     1     -34.205   4.824   6.066  1.00 20.00    -0.009 A 
HETATM    6  C7  UNL     1     -33.692   6.082   5.450  1.00 20.00     0.004 A 
ENDROOT
BRANCH   4   7
HETATM    7  C1  UNL     1     -33.404   5.891   2.983  1.00 20.00     0.263 C 
HETATM    8  O9  UNL     1     -33.691   5.131   2.067  1.00 20.00    -0.265 OA
BRANCH   7   9
HETATM    9  O10 UNL     1     -32.215   6.535   3.158  1.00 20.00    -0.326 OA
HETATM   10  C8  UNL     1     -32.088   7.786   2.475  1.00 20.00     0.213 C 
ENDBRANCH   7   9
ENDBRANCH   4   7
TORSDOF 2
ENDMDL
MODEL 2
REMARK VINA RESULT:      -4.5     11.458     12.541
REMARK  2 active torsions:
REMARK  status: ('A' for Active; 'I' for Inactive)
REMARK    1  A    between atoms: C1_1  and  C5_5 
REMARK    2  A    between atoms: C1_1  and  O10_10 
ROOT
HETATM    1  C2  UNL     1     -32.994  14.853  -3.760  1.00 20.00     0.015 C 
HETATM    2  C3  UNL     1     -33.274  16.321  -4.113  1.00 20.00     0.006 C 
HETATM    3  C4  UNL     1     -34.307  16.482  -1.701  1.00 20.00     0.011 A 
HETATM    4  C5  UNL     1     -34.322  14.316  -3.195  1.00 20.00     0.090 C 
HETATM    5  C6  UNL     1     -34.370  16.748  -3.181  1.00 20.00    -0.009 A 
HETATM    6  C7  UNL     1     -35.015  15.524  -2.624  1.00 20.00     0.004 A 
ENDROOT
BRANCH   4   7
HETATM    7  C1  UNL     1     -35.128  13.665  -4.277  1.00 20.00     0.263 C 
HETATM    8  O9  UNL     1     -34.819  12.615  -4.825  1.00 20.00    -0.265 OA
BRANCH   7   9
HETATM    9  O10 UNL     1     -36.232  14.421  -4.541  1.00 20.00    -0.326 OA
HETATM   10  C8  UNL     1     -36.335  14.912  -5.881  1.00 20.00     0.213 C 
ENDBRANCH   7   9
ENDBRANCH   4   7
TORSDOF 2
ENDMDL
MODEL 3
REMARK VINA RESULT:      -4.2     11.866     12.966
REMARK  2 active torsions:
REMARK  status: ('A' for Active; 'I' for Inactive)
REMARK    1  A    between atoms: C1_1  and  C5_5 
REMARK    2  A    between atoms: C1_1  and  O10_10 
ROOT
HETATM    1  C2  UNL     1     -35.178  16.049  -3.024  1.00 20.00     0.015 C 
HETATM    2  C3  UNL     1     -33.689  15.813  -2.730  1.00 20.00     0.006 C 
HETATM    3  C4  UNL     1     -33.293  16.607  -5.205  1.00 20.00     0.011 A 
HETATM    4  C5  UNL     1     -35.440  15.337  -4.364  1.00 20.00     0.090 C 
HETATM    5  C6  UNL     1     -33.044  15.645  -4.075  1.00 20.00    -0.009 A 
HETATM    6  C7  UNL     1     -34.111  15.348  -5.073  1.00 20.00     0.004 A 
ENDROOT
BRANCH   4   7
HETATM    7  C1  UNL     1     -35.940  13.944  -4.131  1.00 20.00     0.263 C 
HETATM    8  O9  UNL     1     -35.255  12.938  -4.266  1.00 20.00    -0.265 OA
BRANCH   7   9
HETATM    9  O10 UNL     1     -37.250  13.986  -3.755  1.00 20.00    -0.326 OA
HETATM   10  C8  UNL     1     -38.097  14.804  -4.569  1.00 20.00     0.213 C 
ENDBRANCH   7   9
ENDBRANCH   4   7
TORSDOF 2
ENDMDL
MODEL 4
REMARK VINA RESULT:      -4.2     11.816     12.708
REMARK  2 active torsions:
REMARK  status: ('A' for Active; 'I' for Inactive)
REMARK    1  A    between atoms: C1_1  and  C5_5 
REMARK    2  A    between atoms: C1_1  and  O10_10 
ROOT
HETATM    1  C2  UNL     1     -33.145  15.392  -3.864  1.00 20.00     0.015 C 
HETATM    2  C3  UNL     1     -33.584  16.861  -3.961  1.00 20.00     0.006 C 
HETATM    3  C4  UNL     1     -34.285  16.596  -1.441  1.00 20.00     0.011 A 
HETATM    4  C5  UNL     1     -34.338  14.659  -3.223  1.00 20.00     0.090 C 
HETATM    5  C6  UNL     1     -34.571  17.051  -2.846  1.00 20.00    -0.009 A 
HETATM    6  C7  UNL     1     -35.038  15.708  -2.399  1.00 20.00     0.004 A 
ENDROOT
BRANCH   4   7
HETATM    7  C1  UNL     1     -35.233  14.086  -4.279  1.00 20.00     0.263 C 
HETATM    8  O9  UNL     1     -36.415  13.818  -4.105  1.00 20.00    -0.265 OA
BRANCH   7   9
HETATM    9  O10 UNL     1     -34.526  13.918  -5.433  1.00 20.00    -0.326 OA
HETATM   10  C8  UNL     1     -35.220  14.269  -6.635  1.00 20.00     0.213 C 
ENDBRANCH   7   9
ENDBRANCH   4   7
TORSDOF 2
ENDMDL
MODEL 5
REMARK VINA RESULT:      -4.1     12.077     12.993
REMARK  2 active torsions:
REMARK  status: ('A' for Active; 'I' for Inactive)
REMARK    1  A    between atoms: C1_1  and  C5_5 
REMARK    2  A    between atoms: C1_1  and  O10_10 
ROOT
HETATM    1  C2  UNL     1     -35.007  14.391  -5.405  1.00 20.00     0.015 C 
HETATM    2  C3  UNL     1     -34.132  15.637  -5.607  1.00 20.00     0.006 C 
HETATM    3  C4  UNL     1     -32.699  14.692  -3.615  1.00 20.00     0.011 A 
HETATM    4  C5  UNL     1     -35.293  14.344  -3.892  1.00 20.00     0.090 C 
HETATM    5  C6  UNL     1     -33.408  15.825  -4.306  1.00 20.00    -0.009 A 
HETATM    6  C7  UNL     1     -34.120  15.042  -3.256  1.00 20.00     0.004 A 
ENDROOT
BRANCH   4   7
HETATM    7  C1  UNL     1     -36.589  15.027  -3.580  1.00 20.00     0.263 C 
HETATM    8  O9  UNL     1     -36.681  16.198  -3.232  1.00 20.00    -0.265 OA
BRANCH   7   9
HETATM    9  O10 UNL     1     -37.620  14.148  -3.744  1.00 20.00    -0.326 OA
HETATM   10  C8  UNL     1     -38.875  14.733  -4.104  1.00 20.00     0.213 C 
ENDBRANCH   7   9
ENDBRANCH   4   7
TORSDOF 2
ENDMDL
MODEL 6
REMARK VINA RESULT:      -4.0     11.717     12.774
REMARK  2 active torsions:
REMARK  status: ('A' for Active; 'I' for Inactive)
REMARK    1  A    between atoms: C1_1  and  C5_5 
REMARK    2  A    between atoms: C1_1  and  O10_10 
ROOT
HETATM    1  C2  UNL     1     -33.708  16.917  -3.970  1.00 20.00     0.015 C 
HETATM    2  C3  UNL     1     -35.102  17.471  -3.638  1.00 20.00     0.006 C 
HETATM    3  C4  UNL     1     -34.414  17.102  -1.127  1.00 20.00     0.011 A 
HETATM    4  C5  UNL     1     -33.581  15.627  -3.140  1.00 20.00     0.090 C 
HETATM    5  C6  UNL     1     -35.403  16.973  -2.254  1.00 20.00    -0.009 A 
HETATM    6  C7  UNL     1     -34.480  15.842  -1.952  1.00 20.00     0.004 A 
ENDROOT
BRANCH   4   7
HETATM    7  C1  UNL     1     -33.998  14.437  -3.951  1.00 20.00     0.263 C 
HETATM    8  O9  UNL     1     -34.234  13.333  -3.477  1.00 20.00    -0.265 OA
BRANCH   7   9
HETATM    9  O10 UNL     1     -34.066  14.783  -5.268  1.00 20.00    -0.326 OA
HETATM   10  C8  UNL     1     -35.082  14.119  -6.026  1.00 20.00     0.213 C 
ENDBRANCH   7   9
ENDBRANCH   4   7
TORSDOF 2
ENDMDL
MODEL 7
REMARK VINA RESULT:      -4.0     11.811     12.936
REMARK  2 active torsions:
REMARK  status: ('A' for Active; 'I' for Inactive)
REMARK    1  A    between atoms: C1_1  and  C5_5 
REMARK    2  A    between atoms: C1_1  and  O10_10 
ROOT
HETATM    1  C2  UNL     1     -33.535  14.230  -3.894  1.00 20.00     0.015 C 
HETATM    2  C3  UNL     1     -34.493  13.259  -4.603  1.00 20.00     0.006 C 
HETATM    3  C4  UNL     1     -34.395  14.961  -6.605  1.00 20.00     0.011 A 
HETATM    4  C5  UNL     1     -34.175  15.620  -4.066  1.00 20.00     0.090 C 
HETATM    5  C6  UNL     1     -35.169  14.078  -5.663  1.00 20.00    -0.009 A 
HETATM    6  C7  UNL     1     -34.982  15.520  -5.333  1.00 20.00     0.004 A 
ENDROOT
BRANCH   4   7
HETATM    7  C1  UNL     1     -35.030  15.956  -2.882  1.00 20.00     0.263 C 
HETATM    8  O9  UNL     1     -36.228  16.199  -2.948  1.00 20.00    -0.265 OA
BRANCH   7   9
HETATM    9  O10 UNL     1     -34.267  15.945  -1.751  1.00 20.00    -0.326 OA
HETATM   10  C8  UNL     1     -34.727  16.791  -0.693  1.00 20.00     0.213 C 
ENDBRANCH   7   9
ENDBRANCH   4   7
TORSDOF 2
ENDMDL
MODEL 8
REMARK VINA RESULT:      -3.9     11.577     12.866
REMARK  2 active torsions:
REMARK  status: ('A' for Active; 'I' for Inactive)
REMARK    1  A    between atoms: C1_1  and  C5_5 
REMARK    2  A    between atoms: C1_1  and  O10_10 
ROOT
HETATM    1  C2  UNL     1     -34.640  16.091  -1.612  1.00 20.00     0.015 C 
HETATM    2  C3  UNL     1     -33.779  17.363  -1.585  1.00 20.00     0.006 C 
HETATM    3  C4  UNL     1     -35.340  18.203  -3.528  1.00 20.00     0.011 A 
HETATM    4  C5  UNL     1     -34.709  15.684  -3.096  1.00 20.00     0.090 C 
HETATM    5  C6  UNL     1     -33.974  17.998  -2.931  1.00 20.00    -0.009 A 
HETATM    6  C7  UNL     1     -34.535  16.972  -3.857  1.00 20.00     0.004 A 
ENDROOT
BRANCH   4   7
HETATM    7  C1  UNL     1     -33.634  14.692  -3.420  1.00 20.00     0.263 C 
HETATM    8  O9  UNL     1     -32.459  14.986  -3.594  1.00 20.00    -0.265 OA
BRANCH   7   9
HETATM    9  O10 UNL     1     -34.173  13.441  -3.486  1.00 20.00    -0.326 OA
HETATM   10  C8  UNL     1     -34.804  13.109  -4.727  1.00 20.00     0.213 C 
ENDBRANCH   7   9
ENDBRANCH   4   7
TORSDOF 2
ENDMDL
MODEL 9
REMARK VINA RESULT:      -3.9     11.519     12.685
REMARK  2 active torsions:
REMARK  status: ('A' for Active; 'I' for Inactive)
REMARK    1  A    between atoms: C1_1  and  C5_5 
REMARK    2  A    between atoms: C1_1  and  O10_10 
ROOT
HETATM    1  C2  UNL     1     -33.093  15.904  -4.294  1.00 20.00     0.015 C 
HETATM    2  C3  UNL     1     -32.646  14.537  -3.753  1.00 20.00     0.006 C 
HETATM    3  C4  UNL     1     -35.084  13.746  -4.341  1.00 20.00     0.011 A 
HETATM    4  C5  UNL     1     -34.439  16.188  -3.602  1.00 20.00     0.090 C 
HETATM    5  C6  UNL     1     -33.916  13.822  -3.395  1.00 20.00    -0.009 A 
HETATM    6  C7  UNL     1     -35.010  14.829  -3.295  1.00 20.00     0.004 A 
ENDROOT
BRANCH   4   7
HETATM    7  C1  UNL     1     -34.230  17.002  -2.361  1.00 20.00     0.263 C 
HETATM    8  O9  UNL     1     -33.543  18.014  -2.312  1.00 20.00    -0.265 OA
BRANCH   7   9
HETATM    9  O10 UNL     1     -34.916  16.438  -1.325  1.00 20.00    -0.326 OA
HETATM   10  C8  UNL     1     -34.784  17.106  -0.066  1.00 20.00     0.213 C 
ENDBRANCH   7   9
ENDBRANCH   4   7
TORSDOF 2
ENDMDL
