MODEL 1
REMARK VINA RESULT:      -4.7      0.000      0.000
REMARK  0 active torsions:
REMARK  status: ('A' for Active; 'I' for Inactive)
ROOT
HETATM    1  C1  UNL     1     -34.714  17.028  -0.102  1.00 20.00     0.017 C 
HETATM    2  C2  UNL     1     -34.793  16.653  -1.239  1.00 20.00    -0.082 C 
HETATM    3  C3  UNL     1     -34.889  16.206  -2.591  1.00 20.00     0.000 C 
HETATM    4  C4  UNL     1     -35.946  16.532  -3.367  1.00 20.00    -0.041 C 
HETATM    5  C5  UNL     1     -33.768  15.344  -3.123  1.00 20.00     0.083 C 
HETATM    6  C6  UNL     1     -36.037  16.060  -4.807  1.00 20.00     0.307 C 
HETATM    7  C7  UNL     1     -34.100  14.615  -4.441  1.00 20.00     0.223 C 
HETATM    8  C8  UNL     1     -37.127  17.354  -2.916  1.00 20.00     0.046 C 
HETATM    9  C9  UNL     1     -34.895  13.326  -4.184  1.00 20.00     0.043 C 
HETATM   10  C10 UNL     1     -33.945  16.525  -5.946  1.00 20.00     0.310 C 
HETATM   11  N11 UNL     1     -34.815  15.484  -5.393  1.00 20.00     0.092 N 
ENDROOT
TORSDOF 0
ENDMDL
MODEL 2
REMARK VINA RESULT:      -4.5      1.693      3.614
REMARK  0 active torsions:
REMARK  status: ('A' for Active; 'I' for Inactive)
ROOT
HETATM    1  C1  UNL     1     -38.705  14.703  -3.972  1.00 20.00     0.017 C 
HETATM    2  C2  UNL     1     -37.598  15.096  -3.724  1.00 20.00    -0.082 C 
HETATM    3  C3  UNL     1     -36.283  15.563  -3.430  1.00 20.00     0.000 C 
HETATM    4  C4  UNL     1     -35.194  14.803  -3.677  1.00 20.00    -0.041 C 
HETATM    5  C5  UNL     1     -36.149  16.939  -2.819  1.00 20.00     0.083 C 
HETATM    6  C6  UNL     1     -33.796  15.310  -3.369  1.00 20.00     0.307 C 
HETATM    7  C7  UNL     1     -34.764  17.229  -2.207  1.00 20.00     0.223 C 
HETATM    8  C8  UNL     1     -35.227  13.408  -4.249  1.00 20.00     0.046 C 
HETATM    9  C9  UNL     1     -34.644  16.649  -0.789  1.00 20.00     0.043 C 
HETATM   10  C10 UNL     1     -33.524  17.542  -4.280  1.00 20.00     0.310 C 
HETATM   11  N11 UNL     1     -33.666  16.743  -3.060  1.00 20.00     0.092 N 
ENDROOT
TORSDOF 0
ENDMDL
MODEL 3
REMARK VINA RESULT:      -4.5      1.973      4.068
REMARK  0 active torsions:
REMARK  status: ('A' for Active; 'I' for Inactive)
ROOT
HETATM    1  C1  UNL     1     -33.656  13.659  -3.780  1.00 20.00     0.017 C 
HETATM    2  C2  UNL     1     -33.883  14.775  -3.401  1.00 20.00    -0.082 C 
HETATM    3  C3  UNL     1     -34.152  16.102  -2.952  1.00 20.00     0.000 C 
HETATM    4  C4  UNL     1     -33.939  17.171  -3.748  1.00 20.00    -0.041 C 
HETATM    5  C5  UNL     1     -34.676  16.270  -1.544  1.00 20.00     0.083 C 
HETATM    6  C6  UNL     1     -34.236  18.581  -3.266  1.00 20.00     0.307 C 
HETATM    7  C7  UNL     1     -34.605  17.715  -1.010  1.00 20.00     0.223 C 
HETATM    8  C8  UNL     1     -33.386  17.108  -5.149  1.00 20.00     0.046 C 
HETATM    9  C9  UNL     1     -33.205  18.045  -0.469  1.00 20.00     0.043 C 
HETATM   10  C10 UNL     1     -36.455  18.652  -2.288  1.00 20.00     0.310 C 
HETATM   11  N11 UNL     1     -35.015  18.704  -2.023  1.00 20.00     0.092 N 
ENDROOT
TORSDOF 0
ENDMDL
MODEL 4
REMARK VINA RESULT:      -4.3      1.521      2.420
REMARK  0 active torsions:
REMARK  status: ('A' for Active; 'I' for Inactive)
ROOT
HETATM    1  C1  UNL     1     -35.065  17.485   0.959  1.00 20.00     0.017 C 
HETATM    2  C2  UNL     1     -34.837  17.224  -0.191  1.00 20.00    -0.082 C 
HETATM    3  C3  UNL     1     -34.567  16.916  -1.557  1.00 20.00     0.000 C 
HETATM    4  C4  UNL     1     -33.869  17.762  -2.345  1.00 20.00    -0.041 C 
HETATM    5  C5  UNL     1     -35.099  15.608  -2.097  1.00 20.00     0.083 C 
HETATM    6  C6  UNL     1     -33.578  17.423  -3.796  1.00 20.00     0.307 C 
HETATM    7  C7  UNL     1     -35.083  15.504  -3.635  1.00 20.00     0.223 C 
HETATM    8  C8  UNL     1     -33.331  19.101  -1.910  1.00 20.00     0.046 C 
HETATM    9  C9  UNL     1     -36.308  16.194  -4.256  1.00 20.00     0.043 C 
HETATM   10  C10 UNL     1     -32.690  15.170  -3.940  1.00 20.00     0.310 C 
HETATM   11  N11 UNL     1     -33.838  16.036  -4.217  1.00 20.00     0.092 N 
ENDROOT
TORSDOF 0
ENDMDL
MODEL 5
REMARK VINA RESULT:      -4.2      1.871      3.085
REMARK  0 active torsions:
REMARK  status: ('A' for Active; 'I' for Inactive)
ROOT
HETATM    1  C1  UNL     1     -38.740  14.772  -3.867  1.00 20.00     0.017 C 
HETATM    2  C2  UNL     1     -37.581  14.959  -4.118  1.00 20.00    -0.082 C 
HETATM    3  C3  UNL     1     -36.203  15.181  -4.416  1.00 20.00     0.000 C 
HETATM    4  C4  UNL     1     -35.762  15.252  -5.690  1.00 20.00    -0.041 C 
HETATM    5  C5  UNL     1     -35.250  15.323  -3.252  1.00 20.00     0.083 C 
HETATM    6  C6  UNL     1     -34.296  15.497  -6.000  1.00 20.00     0.307 C 
HETATM    7  C7  UNL     1     -33.761  15.202  -3.634  1.00 20.00     0.223 C 
HETATM    8  C8  UNL     1     -36.626  15.087  -6.914  1.00 20.00     0.046 C 
HETATM    9  C9  UNL     1     -33.326  13.732  -3.738  1.00 20.00     0.043 C 
HETATM   10  C10 UNL     1     -33.494  17.378  -4.695  1.00 20.00     0.310 C 
HETATM   11  N11 UNL     1     -33.445  15.926  -4.878  1.00 20.00     0.092 N 
ENDROOT
TORSDOF 0
ENDMDL
MODEL 6
REMARK VINA RESULT:      -4.2      1.257      2.948
REMARK  0 active torsions:
REMARK  status: ('A' for Active; 'I' for Inactive)
ROOT
HETATM    1  C1  UNL     1     -34.586  16.406  -1.103  1.00 20.00     0.017 C 
HETATM    2  C2  UNL     1     -34.712  16.261  -2.287  1.00 20.00    -0.082 C 
HETATM    3  C3  UNL     1     -34.861  16.087  -3.696  1.00 20.00     0.000 C 
HETATM    4  C4  UNL     1     -34.370  14.999  -4.327  1.00 20.00    -0.041 C 
HETATM    5  C5  UNL     1     -35.581  17.174  -4.461  1.00 20.00     0.083 C 
HETATM    6  C6  UNL     1     -34.540  14.817  -5.825  1.00 20.00     0.307 C 
HETATM    7  C7  UNL     1     -35.396  17.101  -5.990  1.00 20.00     0.223 C 
HETATM    8  C8  UNL     1     -33.608  13.884  -3.658  1.00 20.00     0.046 C 
HETATM    9  C9  UNL     1     -34.072  17.748  -6.426  1.00 20.00     0.043 C 
HETATM   10  C10 UNL     1     -36.858  15.203  -6.430  1.00 20.00     0.310 C 
HETATM   11  N11 UNL     1     -35.489  15.720  -6.497  1.00 20.00     0.092 N 
ENDROOT
TORSDOF 0
ENDMDL
MODEL 7
REMARK VINA RESULT:      -4.2      1.832      3.786
REMARK  0 active torsions:
REMARK  status: ('A' for Active; 'I' for Inactive)
ROOT
HETATM    1  C1  UNL     1     -34.509  13.067  -4.861  1.00 20.00     0.017 C 
HETATM    2  C2  UNL     1     -34.638  14.079  -4.228  1.00 20.00    -0.082 C 
HETATM    3  C3  UNL     1     -34.793  15.282  -3.476  1.00 20.00     0.000 C 
HETATM    4  C4  UNL     1     -36.014  15.771  -3.174  1.00 20.00    -0.041 C 
HETATM    5  C5  UNL     1     -33.535  15.997  -3.036  1.00 20.00     0.083 C 
HETATM    6  C6  UNL     1     -36.171  17.048  -2.367  1.00 20.00     0.307 C 
HETATM    7  C7  UNL     1     -33.766  17.443  -2.553  1.00 20.00     0.223 C 
HETATM    8  C8  UNL     1     -37.322  15.152  -3.598  1.00 20.00     0.046 C 
HETATM    9  C9  UNL     1     -33.844  18.423  -3.733  1.00 20.00     0.043 C 
HETATM   10  C10 UNL     1     -34.767  16.933  -0.391  1.00 20.00     0.310 C 
HETATM   11  N11 UNL     1     -34.962  17.561  -1.700  1.00 20.00     0.092 N 
ENDROOT
TORSDOF 0
ENDMDL
MODEL 8
REMARK VINA RESULT:      -4.1      1.663      3.716
REMARK  0 active torsions:
REMARK  status: ('A' for Active; 'I' for Inactive)
ROOT
HETATM    1  C1  UNL     1     -34.434  18.062  -7.538  1.00 20.00     0.017 C 
HETATM    2  C2  UNL     1     -34.466  17.329  -6.589  1.00 20.00    -0.082 C 
HETATM    3  C3  UNL     1     -34.506  16.457  -5.460  1.00 20.00     0.000 C 
HETATM    4  C4  UNL     1     -35.641  15.816  -5.105  1.00 20.00    -0.041 C 
HETATM    5  C5  UNL     1     -33.232  16.284  -4.665  1.00 20.00     0.083 C 
HETATM    6  C6  UNL     1     -35.674  14.884  -3.907  1.00 20.00     0.307 C 
HETATM    7  C7  UNL     1     -33.431  15.630  -3.283  1.00 20.00     0.223 C 
HETATM    8  C8  UNL     1     -36.966  15.953  -5.810  1.00 20.00     0.046 C 
HETATM    9  C9  UNL     1     -33.879  16.660  -2.235  1.00 20.00     0.043 C 
HETATM   10  C10 UNL     1     -33.805  13.341  -4.029  1.00 20.00     0.310 C 
HETATM   11  N11 UNL     1     -34.374  14.498  -3.333  1.00 20.00     0.092 N 
ENDROOT
TORSDOF 0
ENDMDL
MODEL 9
REMARK VINA RESULT:      -4.1      0.731      2.791
REMARK  0 active torsions:
REMARK  status: ('A' for Active; 'I' for Inactive)
ROOT
HETATM    1  C1  UNL     1     -37.705  18.145  -2.220  1.00 20.00     0.017 C 
HETATM    2  C2  UNL     1     -36.894  17.407  -2.707  1.00 20.00    -0.082 C 
HETATM    3  C3  UNL     1     -35.929  16.530  -3.286  1.00 20.00     0.000 C 
HETATM    4  C4  UNL     1     -34.881  16.067  -2.571  1.00 20.00    -0.041 C 
HETATM    5  C5  UNL     1     -36.116  16.143  -4.735  1.00 20.00     0.083 C 
HETATM    6  C6  UNL     1     -33.862  15.127  -3.191  1.00 20.00     0.307 C 
HETATM    7  C7  UNL     1     -34.874  15.500  -5.384  1.00 20.00     0.223 C 
HETATM    8  C8  UNL     1     -34.589  16.424  -1.136  1.00 20.00     0.046 C 
HETATM    9  C9  UNL     1     -33.873  16.566  -5.856  1.00 20.00     0.043 C 
HETATM   10  C10 UNL     1     -35.014  13.314  -4.319  1.00 20.00     0.310 C 
HETATM   11  N11 UNL     1     -34.217  14.531  -4.490  1.00 20.00     0.092 N 
ENDROOT
TORSDOF 0
ENDMDL
