MODEL 1
REMARK VINA RESULT:      -4.4      0.000      0.000
REMARK  2 active torsions:
REMARK  status: ('A' for Active; 'I' for Inactive)
REMARK    1  A    between atoms: C1_1  and  N9_9 
REMARK    2  A    between atoms: C4_4  and  C8_8 
ROOT
HETATM    1  C2  UNL     1     -33.236  16.167  -2.844  1.00 20.00     0.031 C 
HETATM    2  C3  UNL     1     -35.410  15.165  -2.857  1.00 20.00     0.130 C 
HETATM    3  C4  UNL     1     -34.674  16.411  -2.371  1.00 20.00     0.005 C 
HETATM    4  C5  UNL     1     -33.416  15.465  -4.194  1.00 20.00     0.083 C 
HETATM    5  C6  UNL     1     -33.461  16.451  -5.358  1.00 20.00     0.032 C 
HETATM    6  N9  UNL     1     -34.685  14.755  -4.048  1.00 20.00    -0.355 N 
ENDROOT
BRANCH   3   7
HETATM    7  C8  UNL     1     -34.781  16.624  -0.871  1.00 20.00     0.002 C 
HETATM    8  C7  UNL     1     -33.874  17.715  -0.393  1.00 20.00     0.005 C 
ENDBRANCH   3   7
BRANCH   6   9
HETATM    9  C1  UNL     1     -35.110  13.748  -4.882  1.00 20.00     0.351 C 
HETATM   10  O10 UNL     1     -34.825  12.559  -4.808  1.00 20.00    -0.284 OA
ENDBRANCH   6   9
TORSDOF 2
ENDMDL
MODEL 2
REMARK VINA RESULT:      -4.4      1.285      1.973
REMARK  2 active torsions:
REMARK  status: ('A' for Active; 'I' for Inactive)
REMARK    1  A    between atoms: C1_1  and  N9_9 
REMARK    2  A    between atoms: C4_4  and  C8_8 
ROOT
HETATM    1  C2  UNL     1     -35.810  16.662  -3.169  1.00 20.00     0.031 C 
HETATM    2  C3  UNL     1     -34.085  15.017  -2.950  1.00 20.00     0.130 C 
HETATM    3  C4  UNL     1     -34.933  15.974  -2.116  1.00 20.00     0.005 C 
HETATM    4  C5  UNL     1     -36.099  15.548  -4.181  1.00 20.00     0.083 C 
HETATM    5  C6  UNL     1     -37.377  14.784  -3.850  1.00 20.00     0.032 C 
HETATM    6  N9  UNL     1     -34.924  14.685  -4.090  1.00 20.00    -0.355 N 
ENDROOT
BRANCH   3   7
HETATM    7  C8  UNL     1     -34.107  16.949  -1.296  1.00 20.00     0.002 C 
HETATM    8  C7  UNL     1     -34.737  17.240   0.031  1.00 20.00     0.005 C 
ENDBRANCH   3   7
BRANCH   6   9
HETATM    9  C1  UNL     1     -34.590  13.728  -5.020  1.00 20.00     0.351 C 
HETATM   10  O10 UNL     1     -34.767  12.520  -4.930  1.00 20.00    -0.284 OA
ENDBRANCH   6   9
TORSDOF 2
ENDMDL
MODEL 3
REMARK VINA RESULT:      -4.3      1.879      2.292
REMARK  2 active torsions:
REMARK  status: ('A' for Active; 'I' for Inactive)
REMARK    1  A    between atoms: C1_1  and  N9_9 
REMARK    2  A    between atoms: C4_4  and  C8_8 
ROOT
HETATM    1  C2  UNL     1     -34.121  14.496  -3.297  1.00 20.00     0.031 C 
HETATM    2  C3  UNL     1     -35.905  16.086  -3.166  1.00 20.00     0.130 C 
HETATM    3  C4  UNL     1     -34.382  16.003  -3.183  1.00 20.00     0.005 C 
HETATM    4  C5  UNL     1     -35.250  14.003  -4.208  1.00 20.00     0.083 C 
HETATM    5  C6  UNL     1     -34.853  14.019  -5.681  1.00 20.00     0.032 C 
HETATM    6  N9  UNL     1     -36.342  14.936  -3.940  1.00 20.00    -0.355 N 
ENDROOT
BRANCH   3   7
HETATM    7  C8  UNL     1     -33.732  16.631  -1.962  1.00 20.00     0.002 C 
HETATM    8  C7  UNL     1     -34.654  16.647  -0.782  1.00 20.00     0.005 C 
ENDBRANCH   3   7
BRANCH   6   9
HETATM    9  C1  UNL     1     -37.653  14.717  -4.294  1.00 20.00     0.351 C 
HETATM   10  O10 UNL     1     -38.551  14.299  -3.574  1.00 20.00    -0.284 OA
ENDBRANCH   6   9
TORSDOF 2
ENDMDL
MODEL 4
REMARK VINA RESULT:      -4.3      1.482      2.353
REMARK  2 active torsions:
REMARK  status: ('A' for Active; 'I' for Inactive)
REMARK    1  A    between atoms: C1_1  and  N9_9 
REMARK    2  A    between atoms: C4_4  and  C8_8 
ROOT
HETATM    1  C2  UNL     1     -35.049  15.183  -3.093  1.00 20.00     0.031 C 
HETATM    2  C3  UNL     1     -33.490  16.506  -4.337  1.00 20.00     0.130 C 
HETATM    3  C4  UNL     1     -33.706  15.909  -2.949  1.00 20.00     0.005 C 
HETATM    4  C5  UNL     1     -35.010  14.633  -4.522  1.00 20.00     0.083 C 
HETATM    5  C6  UNL     1     -34.426  13.225  -4.584  1.00 20.00     0.032 C 
HETATM    6  N9  UNL     1     -34.170  15.590  -5.238  1.00 20.00    -0.355 N 
ENDROOT
BRANCH   3   7
HETATM    7  C8  UNL     1     -33.703  16.948  -1.842  1.00 20.00     0.002 C 
HETATM    8  C7  UNL     1     -34.694  16.625  -0.767  1.00 20.00     0.005 C 
ENDBRANCH   3   7
BRANCH   6   9
HETATM    9  C1  UNL     1     -34.096  15.683  -6.608  1.00 20.00     0.351 C 
HETATM   10  O10 UNL     1     -34.460  14.846  -7.425  1.00 20.00    -0.284 OA
ENDBRANCH   6   9
TORSDOF 2
ENDMDL
MODEL 5
REMARK VINA RESULT:      -4.1     11.764     12.446
REMARK  2 active torsions:
REMARK  status: ('A' for Active; 'I' for Inactive)
REMARK    1  A    between atoms: C1_1  and  N9_9 
REMARK    2  A    between atoms: C4_4  and  C8_8 
ROOT
HETATM    1  C2  UNL     1     -33.729   5.673   2.781  1.00 20.00     0.031 C 
HETATM    2  C3  UNL     1     -33.182   6.593   4.922  1.00 20.00     0.130 C 
HETATM    3  C4  UNL     1     -33.187   6.948   3.438  1.00 20.00     0.005 C 
HETATM    4  C5  UNL     1     -34.771   5.167   3.783  1.00 20.00     0.083 C 
HETATM    5  C6  UNL     1     -36.165   5.715   3.495  1.00 20.00     0.032 C 
HETATM    6  N9  UNL     1     -34.268   5.639   5.072  1.00 20.00    -0.355 N 
ENDROOT
BRANCH   3   7
HETATM    7  C8  UNL     1     -31.821   7.356   2.914  1.00 20.00     0.002 C 
HETATM    8  C7  UNL     1     -31.923   8.304   1.759  1.00 20.00     0.005 C 
ENDBRANCH   3   7
BRANCH   6   9
HETATM    9  C1  UNL     1     -34.702   5.173   6.291  1.00 20.00     0.351 C 
HETATM   10  O10 UNL     1     -35.331   4.144   6.505  1.00 20.00    -0.284 OA
ENDBRANCH   6   9
TORSDOF 2
ENDMDL
MODEL 6
REMARK VINA RESULT:      -4.0      2.262      2.786
REMARK  2 active torsions:
REMARK  status: ('A' for Active; 'I' for Inactive)
REMARK    1  A    between atoms: C1_1  and  N9_9 
REMARK    2  A    between atoms: C4_4  and  C8_8 
ROOT
HETATM    1  C2  UNL     1     -35.058  15.496  -2.363  1.00 20.00     0.031 C 
HETATM    2  C3  UNL     1     -33.791  17.491  -2.739  1.00 20.00     0.130 C 
HETATM    3  C4  UNL     1     -34.160  16.504  -1.636  1.00 20.00     0.005 C 
HETATM    4  C5  UNL     1     -34.426  15.389  -3.755  1.00 20.00     0.083 C 
HETATM    5  C6  UNL     1     -33.387  14.275  -3.834  1.00 20.00     0.032 C 
HETATM    6  N9  UNL     1     -33.817  16.701  -3.959  1.00 20.00    -0.355 N 
ENDROOT
BRANCH   3   7
HETATM    7  C8  UNL     1     -34.839  17.159  -0.446  1.00 20.00     0.002 C 
HETATM    8  C7  UNL     1     -33.923  18.100   0.274  1.00 20.00     0.005 C 
ENDBRANCH   3   7
BRANCH   6   9
HETATM    9  C1  UNL     1     -33.399  17.181  -5.179  1.00 20.00     0.351 C 
HETATM   10  O10 UNL     1     -33.406  18.347  -5.555  1.00 20.00    -0.284 OA
ENDBRANCH   6   9
TORSDOF 2
ENDMDL
MODEL 7
REMARK VINA RESULT:      -3.9      1.315      3.370
REMARK  2 active torsions:
REMARK  status: ('A' for Active; 'I' for Inactive)
REMARK    1  A    between atoms: C1_1  and  N9_9 
REMARK    2  A    between atoms: C4_4  and  C8_8 
ROOT
HETATM    1  C2  UNL     1     -35.129  17.262  -3.885  1.00 20.00     0.031 C 
HETATM    2  C3  UNL     1     -33.509  15.770  -4.823  1.00 20.00     0.130 C 
HETATM    3  C4  UNL     1     -33.737  17.250  -4.527  1.00 20.00     0.005 C 
HETATM    4  C5  UNL     1     -35.157  15.969  -3.062  1.00 20.00     0.083 C 
HETATM    5  C6  UNL     1     -34.671  16.183  -1.632  1.00 20.00     0.032 C 
HETATM    6  N9  UNL     1     -34.268  15.073  -3.798  1.00 20.00    -0.355 N 
ENDROOT
BRANCH   3   7
HETATM    7  C8  UNL     1     -33.641  18.131  -5.761  1.00 20.00     0.002 C 
HETATM    8  C7  UNL     1     -34.400  17.559  -6.919  1.00 20.00     0.005 C 
ENDBRANCH   3   7
BRANCH   6   9
HETATM    9  C1  UNL     1     -34.215  13.711  -3.615  1.00 20.00     0.351 C 
HETATM   10  O10 UNL     1     -34.906  12.865  -4.170  1.00 20.00    -0.284 OA
ENDBRANCH   6   9
TORSDOF 2
ENDMDL
MODEL 8
REMARK VINA RESULT:      -3.8      2.507      4.117
REMARK  2 active torsions:
REMARK  status: ('A' for Active; 'I' for Inactive)
REMARK    1  A    between atoms: C1_1  and  N9_9 
REMARK    2  A    between atoms: C4_4  and  C8_8 
ROOT
HETATM    1  C2  UNL     1     -33.603  15.919  -2.812  1.00 20.00     0.031 C 
HETATM    2  C3  UNL     1     -35.794  15.243  -3.497  1.00 20.00     0.130 C 
HETATM    3  C4  UNL     1     -34.445  14.665  -3.078  1.00 20.00     0.005 C 
HETATM    4  C5  UNL     1     -34.605  16.903  -2.199  1.00 20.00     0.083 C 
HETATM    5  C6  UNL     1     -34.652  16.807  -0.677  1.00 20.00     0.032 C 
HETATM    6  N9  UNL     1     -35.880  16.514  -2.797  1.00 20.00    -0.355 N 
ENDROOT
BRANCH   3   7
HETATM    7  C8  UNL     1     -33.835  13.747  -4.123  1.00 20.00     0.002 C 
HETATM    8  C7  UNL     1     -34.838  13.319  -5.149  1.00 20.00     0.005 C 
ENDBRANCH   3   7
BRANCH   6   9
HETATM    9  C1  UNL     1     -37.012  17.295  -2.785  1.00 20.00     0.351 C 
HETATM   10  O10 UNL     1     -37.064  18.517  -2.717  1.00 20.00    -0.284 OA
ENDBRANCH   6   9
TORSDOF 2
ENDMDL
MODEL 9
REMARK VINA RESULT:      -3.8     11.682     13.577
REMARK  2 active torsions:
REMARK  status: ('A' for Active; 'I' for Inactive)
REMARK    1  A    between atoms: C1_1  and  N9_9 
REMARK    2  A    between atoms: C4_4  and  C8_8 
ROOT
HETATM    1  C2  UNL     1     -41.063   4.079  -1.662  1.00 20.00     0.031 C 
HETATM    2  C3  UNL     1     -42.896   4.967  -2.920  1.00 20.00     0.130 C 
HETATM    3  C4  UNL     1     -42.485   3.734  -2.119  1.00 20.00     0.005 C 
HETATM    4  C5  UNL     1     -41.128   5.586  -1.388  1.00 20.00     0.083 C 
HETATM    5  C6  UNL     1     -41.495   5.894   0.060  1.00 20.00     0.032 C 
HETATM    6  N9  UNL     1     -42.156   6.060  -2.311  1.00 20.00    -0.355 N 
ENDROOT
BRANCH   3   7
HETATM    7  C8  UNL     1     -42.559   2.446  -2.920  1.00 20.00     0.002 C 
HETATM    8  C7  UNL     1     -41.265   2.136  -3.605  1.00 20.00     0.005 C 
ENDBRANCH   3   7
BRANCH   6   9
HETATM    9  C1  UNL     1     -42.350   7.381  -2.644  1.00 20.00     0.351 C 
HETATM   10  O10 UNL     1     -42.167   7.899  -3.738  1.00 20.00    -0.284 OA
ENDBRANCH   6   9
TORSDOF 2
ENDMDL
