MODEL 1
REMARK VINA RESULT:      -4.5      0.000      0.000
REMARK  2 active torsions:
REMARK  status: ('A' for Active; 'I' for Inactive)
REMARK    1  A    between atoms: C3_3  and  C4_4 
REMARK    2  A    between atoms: C3_3  and  O10_10 
ROOT
HETATM    1  C1  UNL     1     -33.953  16.027  -3.945  1.00 20.00    -0.066 A 
HETATM    2  C2  UNL     1     -33.398  16.939  -4.716  1.00 20.00     0.016 C 
HETATM    3  C4  UNL     1     -33.978  14.665  -3.576  1.00 20.00     0.126 A 
HETATM    4  C5  UNL     1     -34.914  15.776  -2.935  1.00 20.00    -0.008 A 
HETATM    5  C6  UNL     1     -36.373  15.824  -3.302  1.00 20.00     0.021 C 
HETATM    6  C7  UNL     1     -34.610  16.209  -1.527  1.00 20.00     0.021 C 
ENDROOT
BRANCH   3   7
HETATM    7  C3  UNL     1     -34.503  13.739  -4.580  1.00 20.00     0.267 C 
HETATM    8  O9  UNL     1     -35.054  12.679  -4.313  1.00 20.00    -0.264 OA
BRANCH   7   9
HETATM    9  O10 UNL     1     -34.281  14.244  -5.827  1.00 20.00    -0.326 OA
HETATM   10  C8  UNL     1     -35.423  14.274  -6.690  1.00 20.00     0.213 C 
ENDBRANCH   7   9
ENDBRANCH   3   7
TORSDOF 2
ENDMDL
MODEL 2
REMARK VINA RESULT:      -4.4      1.505      2.737
REMARK  2 active torsions:
REMARK  status: ('A' for Active; 'I' for Inactive)
REMARK    1  A    between atoms: C3_3  and  C4_4 
REMARK    2  A    between atoms: C3_3  and  O10_10 
ROOT
HETATM    1  C1  UNL     1     -33.633  15.102  -4.197  1.00 20.00    -0.066 A 
HETATM    2  C2  UNL     1     -32.473  14.760  -3.677  1.00 20.00     0.016 C 
HETATM    3  C4  UNL     1     -35.036  15.103  -4.032  1.00 20.00     0.126 A 
HETATM    4  C5  UNL     1     -34.289  15.720  -5.290  1.00 20.00    -0.008 A 
HETATM    5  C6  UNL     1     -34.327  14.995  -6.609  1.00 20.00     0.021 C 
HETATM    6  C7  UNL     1     -34.247  17.220  -5.402  1.00 20.00     0.021 C 
ENDROOT
BRANCH   3   7
HETATM    7  C3  UNL     1     -35.691  13.797  -4.122  1.00 20.00     0.267 C 
HETATM    8  O9  UNL     1     -35.094  12.740  -4.275  1.00 20.00    -0.264 OA
BRANCH   7   9
HETATM    9  O10 UNL     1     -37.041  13.955  -4.010  1.00 20.00    -0.326 OA
HETATM   10  C8  UNL     1     -37.471  15.228  -3.517  1.00 20.00     0.213 C 
ENDBRANCH   7   9
ENDBRANCH   3   7
TORSDOF 2
ENDMDL
MODEL 3
REMARK VINA RESULT:      -4.3      1.674      2.308
REMARK  2 active torsions:
REMARK  status: ('A' for Active; 'I' for Inactive)
REMARK    1  A    between atoms: C3_3  and  C4_4 
REMARK    2  A    between atoms: C3_3  and  O10_10 
ROOT
HETATM    1  C1  UNL     1     -34.028  15.332  -3.225  1.00 20.00    -0.066 A 
HETATM    2  C2  UNL     1     -32.832  15.142  -3.739  1.00 20.00     0.016 C 
HETATM    3  C4  UNL     1     -35.299  14.769  -2.975  1.00 20.00     0.126 A 
HETATM    4  C5  UNL     1     -34.882  16.241  -2.551  1.00 20.00    -0.008 A 
HETATM    5  C6  UNL     1     -35.425  17.419  -3.314  1.00 20.00     0.021 C 
HETATM    6  C7  UNL     1     -34.648  16.499  -1.087  1.00 20.00     0.021 C 
ENDROOT
BRANCH   3   7
HETATM    7  C3  UNL     1     -36.142  14.544  -4.151  1.00 20.00     0.267 C 
HETATM    8  O9  UNL     1     -35.769  14.716  -5.304  1.00 20.00    -0.264 OA
BRANCH   7   9
HETATM    9  O10 UNL     1     -37.377  14.123  -3.754  1.00 20.00    -0.326 OA
HETATM   10  C8  UNL     1     -38.382  15.140  -3.693  1.00 20.00     0.213 C 
ENDBRANCH   7   9
ENDBRANCH   3   7
TORSDOF 2
ENDMDL
MODEL 4
REMARK VINA RESULT:      -4.2     11.665     12.618
REMARK  2 active torsions:
REMARK  status: ('A' for Active; 'I' for Inactive)
REMARK    1  A    between atoms: C3_3  and  C4_4 
REMARK    2  A    between atoms: C3_3  and  O10_10 
ROOT
HETATM    1  C1  UNL     1     -33.897   6.148   5.516  1.00 20.00    -0.066 A 
HETATM    2  C2  UNL     1     -33.816   7.138   6.379  1.00 20.00     0.016 C 
HETATM    3  C4  UNL     1     -33.219   5.391   4.536  1.00 20.00     0.126 A 
HETATM    4  C5  UNL     1     -34.726   5.137   4.968  1.00 20.00    -0.008 A 
HETATM    5  C6  UNL     1     -35.844   5.545   4.047  1.00 20.00     0.021 C 
HETATM    6  C7  UNL     1     -35.012   3.913   5.795  1.00 20.00     0.021 C 
ENDROOT
BRANCH   3   7
HETATM    7  C3  UNL     1     -32.911   6.090   3.287  1.00 20.00     0.267 C 
HETATM    8  O9  UNL     1     -33.276   5.711   2.182  1.00 20.00    -0.264 OA
BRANCH   7   9
HETATM    9  O10 UNL     1     -32.171   7.203   3.557  1.00 20.00    -0.326 OA
HETATM   10  C8  UNL     1     -31.971   8.090   2.453  1.00 20.00     0.213 C 
ENDBRANCH   7   9
ENDBRANCH   3   7
TORSDOF 2
ENDMDL
MODEL 5
REMARK VINA RESULT:      -4.2      1.897      2.889
REMARK  2 active torsions:
REMARK  status: ('A' for Active; 'I' for Inactive)
REMARK    1  A    between atoms: C3_3  and  C4_4 
REMARK    2  A    between atoms: C3_3  and  O10_10 
ROOT
HETATM    1  C1  UNL     1     -35.311  14.771  -6.432  1.00 20.00    -0.066 A 
HETATM    2  C2  UNL     1     -35.542  14.388  -7.670  1.00 20.00     0.016 C 
HETATM    3  C4  UNL     1     -34.413  14.733  -5.343  1.00 20.00     0.126 A 
HETATM    4  C5  UNL     1     -35.803  15.500  -5.321  1.00 20.00    -0.008 A 
HETATM    5  C6  UNL     1     -36.956  14.930  -4.540  1.00 20.00     0.021 C 
HETATM    6  C7  UNL     1     -35.764  17.003  -5.372  1.00 20.00     0.021 C 
ENDROOT
BRANCH   3   7
HETATM    7  C3  UNL     1     -34.268  13.437  -4.678  1.00 20.00     0.267 C 
HETATM    8  O9  UNL     1     -34.795  12.404  -5.068  1.00 20.00    -0.264 OA
BRANCH   7   9
HETATM    9  O10 UNL     1     -33.467  13.573  -3.582  1.00 20.00    -0.326 OA
HETATM   10  C8  UNL     1     -32.655  14.751  -3.558  1.00 20.00     0.213 C 
ENDBRANCH   7   9
ENDBRANCH   3   7
TORSDOF 2
ENDMDL
MODEL 6
REMARK VINA RESULT:      -4.2      1.326      2.373
REMARK  2 active torsions:
REMARK  status: ('A' for Active; 'I' for Inactive)
REMARK    1  A    between atoms: C3_3  and  C4_4 
REMARK    2  A    between atoms: C3_3  and  O10_10 
ROOT
HETATM    1  C1  UNL     1     -34.760  16.029  -2.279  1.00 20.00    -0.066 A 
HETATM    2  C2  UNL     1     -34.337  16.622  -1.183  1.00 20.00     0.016 C 
HETATM    3  C4  UNL     1     -34.804  14.827  -3.018  1.00 20.00     0.126 A 
HETATM    4  C5  UNL     1     -35.478  16.184  -3.491  1.00 20.00    -0.008 A 
HETATM    5  C6  UNL     1     -34.850  16.980  -4.603  1.00 20.00     0.021 C 
HETATM    6  C7  UNL     1     -36.979  16.268  -3.434  1.00 20.00     0.021 C 
ENDROOT
BRANCH   3   7
HETATM    7  C3  UNL     1     -33.534  14.384  -3.598  1.00 20.00     0.267 C 
HETATM    8  O9  UNL     1     -32.488  15.013  -3.516  1.00 20.00    -0.264 OA
BRANCH   7   9
HETATM    9  O10 UNL     1     -33.712  13.187  -4.225  1.00 20.00    -0.326 OA
HETATM   10  C8  UNL     1     -34.786  13.142  -5.170  1.00 20.00     0.213 C 
ENDBRANCH   7   9
ENDBRANCH   3   7
TORSDOF 2
ENDMDL
MODEL 7
REMARK VINA RESULT:      -4.0      2.122      3.056
REMARK  2 active torsions:
REMARK  status: ('A' for Active; 'I' for Inactive)
REMARK    1  A    between atoms: C3_3  and  C4_4 
REMARK    2  A    between atoms: C3_3  and  O10_10 
ROOT
HETATM    1  C1  UNL     1     -34.562  15.173  -5.197  1.00 20.00    -0.066 A 
HETATM    2  C2  UNL     1     -34.051  15.908  -6.161  1.00 20.00     0.016 C 
HETATM    3  C4  UNL     1     -35.657  14.385  -4.780  1.00 20.00     0.126 A 
HETATM    4  C5  UNL     1     -34.366  14.649  -3.895  1.00 20.00    -0.008 A 
HETATM    5  C6  UNL     1     -34.446  15.588  -2.722  1.00 20.00     0.021 C 
HETATM    6  C7  UNL     1     -33.405  13.505  -3.715  1.00 20.00     0.021 C 
ENDROOT
BRANCH   3   7
HETATM    7  C3  UNL     1     -36.902  15.108  -4.515  1.00 20.00     0.267 C 
HETATM    8  O9  UNL     1     -37.110  16.263  -4.860  1.00 20.00    -0.264 OA
BRANCH   7   9
HETATM    9  O10 UNL     1     -37.766  14.298  -3.838  1.00 20.00    -0.326 OA
HETATM   10  C8  UNL     1     -39.149  14.646  -3.949  1.00 20.00     0.213 C 
ENDBRANCH   7   9
ENDBRANCH   3   7
TORSDOF 2
ENDMDL
MODEL 8
REMARK VINA RESULT:      -3.9      1.989      3.368
REMARK  2 active torsions:
REMARK  status: ('A' for Active; 'I' for Inactive)
REMARK    1  A    between atoms: C3_3  and  C4_4 
REMARK    2  A    between atoms: C3_3  and  O10_10 
ROOT
HETATM    1  C1  UNL     1     -34.387  15.703  -5.106  1.00 20.00    -0.066 A 
HETATM    2  C2  UNL     1     -33.326  16.471  -4.972  1.00 20.00     0.016 C 
HETATM    3  C4  UNL     1     -35.765  15.553  -4.838  1.00 20.00     0.126 A 
HETATM    4  C5  UNL     1     -34.891  14.485  -5.625  1.00 20.00    -0.008 A 
HETATM    5  C6  UNL     1     -34.500  13.199  -4.950  1.00 20.00     0.021 C 
HETATM    6  C7  UNL     1     -35.112  14.370  -7.109  1.00 20.00     0.021 C 
ENDROOT
BRANCH   3   7
HETATM    7  C3  UNL     1     -36.124  15.332  -3.436  1.00 20.00     0.267 C 
HETATM    8  O9  UNL     1     -35.467  15.741  -2.489  1.00 20.00    -0.264 OA
BRANCH   7   9
HETATM    9  O10 UNL     1     -37.282  14.615  -3.369  1.00 20.00    -0.326 OA
HETATM   10  C8  UNL     1     -38.304  15.012  -4.288  1.00 20.00     0.213 C 
ENDBRANCH   7   9
ENDBRANCH   3   7
TORSDOF 2
ENDMDL
MODEL 9
REMARK VINA RESULT:      -3.9      1.505      2.451
REMARK  2 active torsions:
REMARK  status: ('A' for Active; 'I' for Inactive)
REMARK    1  A    between atoms: C3_3  and  C4_4 
REMARK    2  A    between atoms: C3_3  and  O10_10 
ROOT
HETATM    1  C1  UNL     1     -36.195  16.630  -4.001  1.00 20.00    -0.066 A 
HETATM    2  C2  UNL     1     -37.165  17.519  -4.019  1.00 20.00     0.016 C 
HETATM    3  C4  UNL     1     -35.723  15.401  -4.511  1.00 20.00     0.126 A 
HETATM    4  C5  UNL     1     -34.932  16.287  -3.457  1.00 20.00    -0.008 A 
HETATM    5  C6  UNL     1     -34.862  15.850  -2.019  1.00 20.00     0.021 C 
HETATM    6  C7  UNL     1     -33.713  17.020  -3.947  1.00 20.00     0.021 C 
ENDROOT
BRANCH   3   7
HETATM    7  C3  UNL     1     -36.453  14.207  -4.080  1.00 20.00     0.267 C 
HETATM    8  O9  UNL     1     -37.610  14.218  -3.683  1.00 20.00    -0.264 OA
BRANCH   7   9
HETATM    9  O10 UNL     1     -35.646  13.113  -4.194  1.00 20.00    -0.326 OA
HETATM   10  C8  UNL     1     -34.620  13.207  -5.187  1.00 20.00     0.213 C 
ENDBRANCH   7   9
ENDBRANCH   3   7
TORSDOF 2
ENDMDL
