MODEL 1
REMARK VINA RESULT:      -4.7      0.000      0.000
REMARK  1 active torsions:
REMARK  status: ('A' for Active; 'I' for Inactive)
REMARK    1  A    between atoms: C2_2  and  C3_3 
ROOT
HETATM    1  C1  UNL     1     -33.118   7.123   5.356  1.00 20.00    -0.015 C 
HETATM    2  C2  UNL     1     -33.215   6.338   4.281  1.00 20.00    -0.012 C 
HETATM    3  C4  UNL     1     -33.941   6.587   6.483  1.00 20.00     0.032 C 
HETATM    4  C5  UNL     1     -34.114   5.157   4.492  1.00 20.00     0.022 C 
HETATM    5  C6  UNL     1     -34.197   5.137   6.039  1.00 20.00    -0.007 C 
HETATM    6  C8  UNL     1     -35.446   5.335   3.770  1.00 20.00     0.015 C 
HETATM    7  C9  UNL     1     -35.465   4.552   6.642  1.00 20.00     0.011 C 
ENDROOT
BRANCH   2   8
HETATM    8  C3  UNL     1     -32.509   6.612   3.041  1.00 20.00     0.151 C 
HETATM    9  C7  UNL     1     -32.257   8.055   2.660  1.00 20.00     0.096 C 
HETATM   10  O10 UNL     1     -32.125   5.691   2.306  1.00 20.00    -0.293 OA
ENDBRANCH   2   8
TORSDOF 1
ENDMDL
MODEL 2
REMARK VINA RESULT:      -4.6     11.947     12.452
REMARK  1 active torsions:
REMARK  status: ('A' for Active; 'I' for Inactive)
REMARK    1  A    between atoms: C2_2  and  C3_3 
ROOT
HETATM    1  C1  UNL     1     -33.391  15.413  -3.664  1.00 20.00    -0.015 C 
HETATM    2  C2  UNL     1     -34.598  14.852  -3.775  1.00 20.00    -0.012 C 
HETATM    3  C4  UNL     1     -33.381  16.442  -2.580  1.00 20.00     0.032 C 
HETATM    4  C5  UNL     1     -35.597  15.404  -2.803  1.00 20.00     0.022 C 
HETATM    5  C6  UNL     1     -34.653  16.095  -1.788  1.00 20.00    -0.007 C 
HETATM    6  C8  UNL     1     -36.597  16.325  -3.497  1.00 20.00     0.015 C 
HETATM    7  C9  UNL     1     -35.223  17.290  -1.038  1.00 20.00     0.011 C 
ENDROOT
BRANCH   2   8
HETATM    8  C3  UNL     1     -34.893  13.808  -4.742  1.00 20.00     0.151 C 
HETATM    9  C7  UNL     1     -35.035  14.194  -6.198  1.00 20.00     0.096 C 
HETATM   10  O10 UNL     1     -35.032  12.629  -4.387  1.00 20.00    -0.293 OA
ENDBRANCH   2   8
TORSDOF 1
ENDMDL
MODEL 3
REMARK VINA RESULT:      -4.4     11.555     14.268
REMARK  1 active torsions:
REMARK  status: ('A' for Active; 'I' for Inactive)
REMARK    1  A    between atoms: C2_2  and  C3_3 
ROOT
HETATM    1  C1  UNL     1     -35.143  14.152  -6.857  1.00 20.00    -0.015 C 
HETATM    2  C2  UNL     1     -34.608  14.519  -5.690  1.00 20.00    -0.012 C 
HETATM    3  C4  UNL     1     -35.257  15.320  -7.782  1.00 20.00     0.032 C 
HETATM    4  C5  UNL     1     -34.281  15.981  -5.627  1.00 20.00     0.022 C 
HETATM    5  C6  UNL     1     -34.313  16.345  -7.131  1.00 20.00    -0.007 C 
HETATM    6  C8  UNL     1     -35.276  16.737  -4.751  1.00 20.00     0.015 C 
HETATM    7  C9  UNL     1     -34.679  17.782  -7.474  1.00 20.00     0.011 C 
ENDROOT
BRANCH   2   8
HETATM    8  C3  UNL     1     -34.368  13.583  -4.605  1.00 20.00     0.151 C 
HETATM    9  C7  UNL     1     -33.195  13.836  -3.683  1.00 20.00     0.096 C 
HETATM   10  O10 UNL     1     -35.099  12.597  -4.438  1.00 20.00    -0.293 OA
ENDBRANCH   2   8
TORSDOF 1
ENDMDL
MODEL 4
REMARK VINA RESULT:      -4.4     11.928     12.676
REMARK  1 active torsions:
REMARK  status: ('A' for Active; 'I' for Inactive)
REMARK    1  A    between atoms: C2_2  and  C3_3 
ROOT
HETATM    1  C1  UNL     1     -36.049  15.954  -2.906  1.00 20.00    -0.015 C 
HETATM    2  C2  UNL     1     -34.771  16.118  -2.553  1.00 20.00    -0.012 C 
HETATM    3  C4  UNL     1     -36.198  14.802  -3.846  1.00 20.00     0.032 C 
HETATM    4  C5  UNL     1     -33.851  15.121  -3.192  1.00 20.00     0.022 C 
HETATM    5  C6  UNL     1     -34.870  14.051  -3.655  1.00 20.00    -0.007 C 
HETATM    6  C8  UNL     1     -33.025  15.760  -4.305  1.00 20.00     0.015 C 
HETATM    7  C9  UNL     1     -34.480  13.225  -4.873  1.00 20.00     0.011 C 
ENDROOT
BRANCH   2   8
HETATM    8  C3  UNL     1     -34.335  17.157  -1.636  1.00 20.00     0.151 C 
HETATM    9  C7  UNL     1     -34.707  17.030  -0.175  1.00 20.00     0.096 C 
HETATM   10  O10 UNL     1     -33.680  18.130  -2.037  1.00 20.00    -0.293 OA
ENDBRANCH   2   8
TORSDOF 1
ENDMDL
MODEL 5
REMARK VINA RESULT:      -4.2      9.797     11.339
REMARK  1 active torsions:
REMARK  status: ('A' for Active; 'I' for Inactive)
REMARK    1  A    between atoms: C2_2  and  C3_3 
ROOT
HETATM    1  C1  UNL     1     -43.083   5.072  -3.069  1.00 20.00    -0.015 C 
HETATM    2  C2  UNL     1     -42.328   4.184  -2.417  1.00 20.00    -0.012 C 
HETATM    3  C4  UNL     1     -42.782   6.463  -2.612  1.00 20.00     0.032 C 
HETATM    4  C5  UNL     1     -41.405   4.815  -1.418  1.00 20.00     0.022 C 
HETATM    5  C6  UNL     1     -41.431   6.287  -1.898  1.00 20.00    -0.007 C 
HETATM    6  C8  UNL     1     -41.891   4.586   0.010  1.00 20.00     0.015 C 
HETATM    7  C9  UNL     1     -41.184   7.351  -0.838  1.00 20.00     0.011 C 
ENDROOT
BRANCH   2   8
HETATM    8  C3  UNL     1     -42.400   2.755  -2.669  1.00 20.00     0.151 C 
HETATM    9  C7  UNL     1     -41.380   2.135  -3.598  1.00 20.00     0.096 C 
HETATM   10  O10 UNL     1     -43.279   2.056  -2.143  1.00 20.00    -0.293 OA
ENDBRANCH   2   8
TORSDOF 1
ENDMDL
MODEL 6
REMARK VINA RESULT:      -4.2     11.908     13.315
REMARK  1 active torsions:
REMARK  status: ('A' for Active; 'I' for Inactive)
REMARK    1  A    between atoms: C2_2  and  C3_3 
ROOT
HETATM    1  C1  UNL     1     -34.436  14.379  -3.319  1.00 20.00    -0.015 C 
HETATM    2  C2  UNL     1     -34.440  15.687  -3.588  1.00 20.00    -0.012 C 
HETATM    3  C4  UNL     1     -34.743  13.582  -4.546  1.00 20.00     0.032 C 
HETATM    4  C5  UNL     1     -34.754  15.993  -5.022  1.00 20.00     0.022 C 
HETATM    5  C6  UNL     1     -34.507  14.607  -5.668  1.00 20.00    -0.007 C 
HETATM    6  C8  UNL     1     -36.169  16.543  -5.177  1.00 20.00     0.015 C 
HETATM    7  C9  UNL     1     -35.304  14.295  -6.927  1.00 20.00     0.011 C 
ENDROOT
BRANCH   2   8
HETATM    8  C3  UNL     1     -34.160  16.697  -2.583  1.00 20.00     0.151 C 
HETATM    9  C7  UNL     1     -34.626  16.450  -1.164  1.00 20.00     0.096 C 
HETATM   10  O10 UNL     1     -33.559  17.741  -2.874  1.00 20.00    -0.293 OA
ENDBRANCH   2   8
TORSDOF 1
ENDMDL
MODEL 7
REMARK VINA RESULT:      -4.2     12.276     12.939
REMARK  1 active torsions:
REMARK  status: ('A' for Active; 'I' for Inactive)
REMARK    1  A    between atoms: C2_2  and  C3_3 
ROOT
HETATM    1  C1  UNL     1     -33.609  16.716  -4.418  1.00 20.00    -0.015 C 
HETATM    2  C2  UNL     1     -34.266  15.555  -4.352  1.00 20.00    -0.012 C 
HETATM    3  C4  UNL     1     -33.655  17.430  -3.105  1.00 20.00     0.032 C 
HETATM    4  C5  UNL     1     -34.866  15.294  -3.003  1.00 20.00     0.022 C 
HETATM    5  C6  UNL     1     -34.078  16.309  -2.140  1.00 20.00    -0.007 C 
HETATM    6  C8  UNL     1     -36.380  15.489  -3.020  1.00 20.00     0.015 C 
HETATM    7  C9  UNL     1     -34.784  16.837  -0.899  1.00 20.00     0.011 C 
ENDROOT
BRANCH   2   8
HETATM    8  C3  UNL     1     -34.372  14.647  -5.480  1.00 20.00     0.151 C 
HETATM    9  C7  UNL     1     -34.642  13.184  -5.204  1.00 20.00     0.096 C 
HETATM   10  O10 UNL     1     -34.241  15.053  -6.644  1.00 20.00    -0.293 OA
ENDBRANCH   2   8
TORSDOF 1
ENDMDL
MODEL 8
REMARK VINA RESULT:      -4.2     11.759     12.823
REMARK  1 active torsions:
REMARK  status: ('A' for Active; 'I' for Inactive)
REMARK    1  A    between atoms: C2_2  and  C3_3 
ROOT
HETATM    1  C1  UNL     1     -35.931  15.781  -2.701  1.00 20.00    -0.015 C 
HETATM    2  C2  UNL     1     -36.166  15.123  -3.839  1.00 20.00    -0.012 C 
HETATM    3  C4  UNL     1     -34.465  15.851  -2.419  1.00 20.00     0.032 C 
HETATM    4  C5  UNL     1     -34.915  14.635  -4.506  1.00 20.00     0.022 C 
HETATM    5  C6  UNL     1     -33.853  15.502  -3.786  1.00 20.00    -0.007 C 
HETATM    6  C8  UNL     1     -34.748  13.127  -4.342  1.00 20.00     0.015 C 
HETATM    7  C9  UNL     1     -32.457  14.906  -3.671  1.00 20.00     0.011 C 
ENDROOT
BRANCH   2   8
HETATM    8  C3  UNL     1     -37.504  14.915  -4.365  1.00 20.00     0.151 C 
HETATM    9  C7  UNL     1     -37.871  15.571  -5.678  1.00 20.00     0.096 C 
HETATM   10  O10 UNL     1     -38.331  14.222  -3.755  1.00 20.00    -0.293 OA
ENDBRANCH   2   8
TORSDOF 1
ENDMDL
MODEL 9
REMARK VINA RESULT:      -4.1     11.510     12.731
REMARK  1 active torsions:
REMARK  status: ('A' for Active; 'I' for Inactive)
REMARK    1  A    between atoms: C2_2  and  C3_3 
ROOT
HETATM    1  C1  UNL     1     -36.845  14.820  -3.813  1.00 20.00    -0.015 C 
HETATM    2  C2  UNL     1     -35.524  14.867  -3.623  1.00 20.00    -0.012 C 
HETATM    3  C4  UNL     1     -37.478  16.133  -3.482  1.00 20.00     0.032 C 
HETATM    4  C5  UNL     1     -35.047  16.200  -3.131  1.00 20.00     0.022 C 
HETATM    5  C6  UNL     1     -36.269  17.085  -3.477  1.00 20.00    -0.007 C 
HETATM    6  C8  UNL     1     -34.677  16.147  -1.651  1.00 20.00     0.015 C 
HETATM    7  C9  UNL     1     -36.489  18.310  -2.601  1.00 20.00     0.011 C 
ENDROOT
BRANCH   2   8
HETATM    8  C3  UNL     1     -34.653  13.733  -3.878  1.00 20.00     0.151 C 
HETATM    9  C7  UNL     1     -33.160  13.920  -3.713  1.00 20.00     0.096 C 
HETATM   10  O10 UNL     1     -35.114  12.637  -4.229  1.00 20.00    -0.293 OA
ENDBRANCH   2   8
TORSDOF 1
ENDMDL
