MODEL 1
REMARK VINA RESULT:      -5.1      0.000      0.000
REMARK  0 active torsions:
REMARK  status: ('A' for Active; 'I' for Inactive)
ROOT
HETATM    1  C1  UNL     1     -34.778  14.385  -5.983  1.00 20.00     0.053 A 
HETATM    2  C2  UNL     1     -34.784  15.704  -5.724  1.00 20.00    -0.070 A 
HETATM    3  C3  UNL     1     -35.043  13.705  -4.698  1.00 20.00     0.155 A 
HETATM    4  C4  UNL     1     -35.260  14.721  -3.633  1.00 20.00     0.082 A 
HETATM    5  C5  UNL     1     -35.113  16.085  -4.317  1.00 20.00    -0.002 A 
HETATM    6  C6  UNL     1     -34.178  15.680  -3.170  1.00 20.00    -0.024 A 
HETATM    7  C7  UNL     1     -34.464  16.758  -6.731  1.00 20.00     0.044 C 
HETATM    8  C8  UNL     1     -36.184  17.122  -4.122  1.00 20.00     0.021 C 
HETATM    9  C9  UNL     1     -34.366  16.314  -1.807  1.00 20.00     0.016 C 
HETATM   10  C10 UNL     1     -32.722  15.386  -3.455  1.00 20.00     0.016 C 
HETATM   11  O11 UNL     1     -35.082  12.500  -4.518  1.00 20.00    -0.293 OA
ENDROOT
TORSDOF 0
ENDMDL
MODEL 2
REMARK VINA RESULT:      -4.9      2.108      3.537
REMARK  0 active torsions:
REMARK  status: ('A' for Active; 'I' for Inactive)
ROOT
HETATM    1  C1  UNL     1     -33.722  17.407  -3.087  1.00 20.00     0.053 A 
HETATM    2  C2  UNL     1     -34.481  16.489  -2.464  1.00 20.00    -0.070 A 
HETATM    3  C3  UNL     1     -33.659  17.005  -4.507  1.00 20.00     0.155 A 
HETATM    4  C4  UNL     1     -34.484  15.783  -4.714  1.00 20.00     0.082 A 
HETATM    5  C5  UNL     1     -35.070  15.434  -3.341  1.00 20.00    -0.002 A 
HETATM    6  C6  UNL     1     -34.158  14.444  -4.078  1.00 20.00    -0.024 A 
HETATM    7  C7  UNL     1     -34.727  16.464  -0.992  1.00 20.00     0.044 C 
HETATM    8  C8  UNL     1     -36.548  15.188  -3.217  1.00 20.00     0.021 C 
HETATM    9  C9  UNL     1     -34.768  13.216  -4.721  1.00 20.00     0.016 C 
HETATM   10  C10 UNL     1     -32.768  14.168  -3.549  1.00 20.00     0.016 C 
HETATM   11  O11 UNL     1     -33.034  17.570  -5.387  1.00 20.00    -0.293 OA
ENDROOT
TORSDOF 0
ENDMDL
MODEL 3
REMARK VINA RESULT:      -4.9      1.114      3.076
REMARK  0 active torsions:
REMARK  status: ('A' for Active; 'I' for Inactive)
ROOT
HETATM    1  C1  UNL     1     -34.288  14.060  -3.335  1.00 20.00     0.053 A 
HETATM    2  C2  UNL     1     -34.222  15.401  -3.415  1.00 20.00    -0.070 A 
HETATM    3  C3  UNL     1     -34.585  13.574  -4.698  1.00 20.00     0.155 A 
HETATM    4  C4  UNL     1     -34.651  14.729  -5.634  1.00 20.00     0.082 A 
HETATM    5  C5  UNL     1     -34.381  15.976  -4.784  1.00 20.00    -0.002 A 
HETATM    6  C6  UNL     1     -35.707  15.815  -5.539  1.00 20.00    -0.024 A 
HETATM    7  C7  UNL     1     -34.032  16.301  -2.240  1.00 20.00     0.044 C 
HETATM    8  C8  UNL     1     -33.339  16.960  -5.238  1.00 20.00     0.021 C 
HETATM    9  C9  UNL     1     -35.952  16.641  -6.785  1.00 20.00     0.016 C 
HETATM   10  C10 UNL     1     -36.986  15.572  -4.768  1.00 20.00     0.016 C 
HETATM   11  O11 UNL     1     -34.755  12.413  -5.025  1.00 20.00    -0.293 OA
ENDROOT
TORSDOF 0
ENDMDL
MODEL 4
REMARK VINA RESULT:      -4.8      1.504      2.468
REMARK  0 active torsions:
REMARK  status: ('A' for Active; 'I' for Inactive)
ROOT
HETATM    1  C1  UNL     1     -35.233  13.418  -4.001  1.00 20.00     0.053 A 
HETATM    2  C2  UNL     1     -35.923  14.571  -4.014  1.00 20.00    -0.070 A 
HETATM    3  C3  UNL     1     -33.810  13.782  -3.832  1.00 20.00     0.155 A 
HETATM    4  C4  UNL     1     -33.689  15.259  -3.695  1.00 20.00     0.082 A 
HETATM    5  C5  UNL     1     -35.117  15.809  -3.791  1.00 20.00    -0.002 A 
HETATM    6  C6  UNL     1     -34.047  16.228  -4.808  1.00 20.00    -0.024 A 
HETATM    7  C7  UNL     1     -37.392  14.666  -4.258  1.00 20.00     0.044 C 
HETATM    8  C8  UNL     1     -35.606  16.763  -2.736  1.00 20.00     0.021 C 
HETATM    9  C9  UNL     1     -33.450  17.617  -4.722  1.00 20.00     0.016 C 
HETATM   10  C10 UNL     1     -34.142  15.746  -6.239  1.00 20.00     0.016 C 
HETATM   11  O11 UNL     1     -32.869  13.009  -3.808  1.00 20.00    -0.293 OA
ENDROOT
TORSDOF 0
ENDMDL
MODEL 5
REMARK VINA RESULT:      -4.6      1.564      2.566
REMARK  0 active torsions:
REMARK  status: ('A' for Active; 'I' for Inactive)
ROOT
HETATM    1  C1  UNL     1     -34.750  13.754  -3.681  1.00 20.00     0.053 A 
HETATM    2  C2  UNL     1     -33.731  14.629  -3.728  1.00 20.00    -0.070 A 
HETATM    3  C3  UNL     1     -35.990  14.547  -3.817  1.00 20.00     0.155 A 
HETATM    4  C4  UNL     1     -35.643  15.983  -3.998  1.00 20.00     0.082 A 
HETATM    5  C5  UNL     1     -34.112  16.053  -3.966  1.00 20.00    -0.002 A 
HETATM    6  C6  UNL     1     -34.952  16.811  -2.930  1.00 20.00    -0.024 A 
HETATM    7  C7  UNL     1     -32.299  14.257  -3.533  1.00 20.00     0.044 C 
HETATM    8  C8  UNL     1     -33.389  16.779  -5.066  1.00 20.00     0.021 C 
HETATM    9  C9  UNL     1     -35.082  18.316  -3.043  1.00 20.00     0.016 C 
HETATM   10  C10 UNL     1     -34.957  16.355  -1.488  1.00 20.00     0.016 C 
HETATM   11  O11 UNL     1     -37.128  14.113  -3.786  1.00 20.00    -0.293 OA
ENDROOT
TORSDOF 0
ENDMDL
MODEL 6
REMARK VINA RESULT:      -4.6      1.562      2.607
REMARK  0 active torsions:
REMARK  status: ('A' for Active; 'I' for Inactive)
ROOT
HETATM    1  C1  UNL     1     -36.990  16.359  -4.288  1.00 20.00     0.053 A 
HETATM    2  C2  UNL     1     -35.727  16.803  -4.165  1.00 20.00    -0.070 A 
HETATM    3  C3  UNL     1     -36.992  14.963  -3.803  1.00 20.00     0.155 A 
HETATM    4  C4  UNL     1     -35.630  14.601  -3.327  1.00 20.00     0.082 A 
HETATM    5  C5  UNL     1     -34.763  15.847  -3.542  1.00 20.00    -0.002 A 
HETATM    6  C6  UNL     1     -34.422  14.527  -4.245  1.00 20.00    -0.024 A 
HETATM    7  C7  UNL     1     -35.261  18.143  -4.630  1.00 20.00     0.044 C 
HETATM    8  C8  UNL     1     -33.928  16.363  -2.403  1.00 20.00     0.021 C 
HETATM    9  C9  UNL     1     -33.242  13.713  -3.756  1.00 20.00     0.016 C 
HETATM   10  C10 UNL     1     -34.607  14.403  -5.741  1.00 20.00     0.016 C 
HETATM   11  O11 UNL     1     -37.949  14.210  -3.789  1.00 20.00    -0.293 OA
ENDROOT
TORSDOF 0
ENDMDL
MODEL 7
REMARK VINA RESULT:      -4.6      2.148      3.165
REMARK  0 active torsions:
REMARK  status: ('A' for Active; 'I' for Inactive)
ROOT
HETATM    1  C1  UNL     1     -34.172  16.373  -6.364  1.00 20.00     0.053 A 
HETATM    2  C2  UNL     1     -34.426  15.253  -5.664  1.00 20.00    -0.070 A 
HETATM    3  C3  UNL     1     -33.646  17.360  -5.398  1.00 20.00     0.155 A 
HETATM    4  C4  UNL     1     -33.555  16.736  -4.050  1.00 20.00     0.082 A 
HETATM    5  C5  UNL     1     -34.056  15.297  -4.217  1.00 20.00    -0.002 A 
HETATM    6  C6  UNL     1     -34.769  16.269  -3.268  1.00 20.00    -0.024 A 
HETATM    7  C7  UNL     1     -35.060  14.031  -6.240  1.00 20.00     0.044 C 
HETATM    8  C8  UNL     1     -33.220  14.164  -3.691  1.00 20.00     0.021 C 
HETATM    9  C9  UNL     1     -34.595  16.102  -1.773  1.00 20.00     0.016 C 
HETATM   10  C10 UNL     1     -36.147  16.786  -3.617  1.00 20.00     0.016 C 
HETATM   11  O11 UNL     1     -33.332  18.511  -5.647  1.00 20.00    -0.293 OA
ENDROOT
TORSDOF 0
ENDMDL
MODEL 8
REMARK VINA RESULT:      -4.5      1.494      1.587
REMARK  0 active torsions:
REMARK  status: ('A' for Active; 'I' for Inactive)
ROOT
HETATM    1  C1  UNL     1     -36.396  14.841  -5.614  1.00 20.00     0.053 A 
HETATM    2  C2  UNL     1     -35.350  15.685  -5.600  1.00 20.00    -0.070 A 
HETATM    3  C3  UNL     1     -36.937  14.822  -4.238  1.00 20.00     0.155 A 
HETATM    4  C4  UNL     1     -36.162  15.764  -3.387  1.00 20.00     0.082 A 
HETATM    5  C5  UNL     1     -35.096  16.378  -4.301  1.00 20.00    -0.002 A 
HETATM    6  C6  UNL     1     -34.692  15.571  -3.061  1.00 20.00    -0.024 A 
HETATM    7  C7  UNL     1     -34.454  15.927  -6.768  1.00 20.00     0.044 C 
HETATM    8  C8  UNL     1     -34.940  17.873  -4.344  1.00 20.00     0.021 C 
HETATM    9  C9  UNL     1     -34.160  16.301  -1.846  1.00 20.00     0.016 C 
HETATM   10  C10 UNL     1     -34.045  14.213  -3.227  1.00 20.00     0.016 C 
HETATM   11  O11 UNL     1     -37.871  14.147  -3.843  1.00 20.00    -0.293 OA
ENDROOT
TORSDOF 0
ENDMDL
MODEL 9
REMARK VINA RESULT:      -4.5      1.570      3.476
REMARK  0 active torsions:
REMARK  status: ('A' for Active; 'I' for Inactive)
ROOT
HETATM    1  C1  UNL     1     -36.339  15.519  -2.647  1.00 20.00     0.053 A 
HETATM    2  C2  UNL     1     -35.031  15.634  -2.934  1.00 20.00    -0.070 A 
HETATM    3  C3  UNL     1     -36.931  14.689  -3.717  1.00 20.00     0.155 A 
HETATM    4  C4  UNL     1     -35.864  14.265  -4.664  1.00 20.00     0.082 A 
HETATM    5  C5  UNL     1     -34.563  14.877  -4.133  1.00 20.00    -0.002 A 
HETATM    6  C6  UNL     1     -35.086  15.240  -5.529  1.00 20.00    -0.024 A 
HETATM    7  C7  UNL     1     -34.074  16.473  -2.155  1.00 20.00     0.044 C 
HETATM    8  C8  UNL     1     -33.358  13.995  -3.957  1.00 20.00     0.021 C 
HETATM    9  C9  UNL     1     -34.394  14.669  -6.748  1.00 20.00     0.016 C 
HETATM   10  C10 UNL     1     -35.626  16.629  -5.789  1.00 20.00     0.016 C 
HETATM   11  O11 UNL     1     -38.107  14.390  -3.826  1.00 20.00    -0.293 OA
ENDROOT
TORSDOF 0
ENDMDL
