MODEL 1
REMARK VINA RESULT:      -6.0      0.000      0.000
REMARK  0 active torsions:
REMARK  status: ('A' for Active; 'I' for Inactive)
ROOT
HETATM    1  C1  UNL     1     -34.421   5.404   6.510  1.00 20.00     0.044 A 
HETATM    2  C2  UNL     1     -35.205   4.520   5.867  1.00 20.00     0.014 A 
HETATM    3  C3  UNL     1     -33.647   6.370   5.763  1.00 20.00     0.156 A 
HETATM    4  C4  UNL     1     -33.688   6.414   4.422  1.00 20.00     0.202 A 
HETATM    5  C5  UNL     1     -35.322   4.461   4.395  1.00 20.00     0.224 A 
HETATM    6  C6  UNL     1     -34.503   5.491   3.615  1.00 20.00     0.293 A 
HETATM    7  O7  UNL     1     -35.937   5.501   3.622  1.00 20.00    -0.328 OA
HETATM    8  F8  UNL     1     -32.880   7.239   6.454  1.00 20.00    -0.203 F 
HETATM    9  F9  UNL     1     -32.947   7.345   3.781  1.00 20.00    -0.201 F 
HETATM   10  F10 UNL     1     -33.906   5.026   2.449  1.00 20.00    -0.200 F 
ENDROOT
TORSDOF 0
ENDMDL
MODEL 2
REMARK VINA RESULT:      -5.4      1.504      2.879
REMARK  0 active torsions:
REMARK  status: ('A' for Active; 'I' for Inactive)
ROOT
HETATM    1  C1  UNL     1     -34.672   5.241   3.412  1.00 20.00     0.044 A 
HETATM    2  C2  UNL     1     -35.383   4.806   4.468  1.00 20.00     0.014 A 
HETATM    3  C3  UNL     1     -33.565   6.151   3.602  1.00 20.00     0.156 A 
HETATM    4  C4  UNL     1     -33.215   6.582   4.825  1.00 20.00     0.202 A 
HETATM    5  C5  UNL     1     -35.104   5.222   5.859  1.00 20.00     0.224 A 
HETATM    6  C6  UNL     1     -33.926   6.180   6.049  1.00 20.00     0.293 A 
HETATM    7  O7  UNL     1     -33.911   4.840   6.559  1.00 20.00    -0.328 OA
HETATM    8  F8  UNL     1     -32.881   6.553   2.512  1.00 20.00    -0.203 F 
HETATM    9  F9  UNL     1     -32.166   7.426   4.938  1.00 20.00    -0.201 F 
HETATM   10  F10 UNL     1     -34.116   7.184   6.992  1.00 20.00    -0.200 F 
ENDROOT
TORSDOF 0
ENDMDL
MODEL 3
REMARK VINA RESULT:      -5.0      1.949      2.729
REMARK  0 active torsions:
REMARK  status: ('A' for Active; 'I' for Inactive)
ROOT
HETATM    1  C1  UNL     1     -34.184   6.311   6.384  1.00 20.00     0.044 A 
HETATM    2  C2  UNL     1     -33.529   7.087   5.502  1.00 20.00     0.014 A 
HETATM    3  C3  UNL     1     -34.815   5.085   5.949  1.00 20.00     0.156 A 
HETATM    4  C4  UNL     1     -34.766   4.689   4.667  1.00 20.00     0.202 A 
HETATM    5  C5  UNL     1     -33.420   6.765   4.064  1.00 20.00     0.224 A 
HETATM    6  C6  UNL     1     -34.086   5.463   3.616  1.00 20.00     0.293 A 
HETATM    7  O7  UNL     1     -32.665   5.647   3.573  1.00 20.00    -0.328 OA
HETATM    8  F8  UNL     1     -35.455   4.339   6.873  1.00 20.00    -0.203 F 
HETATM    9  F9  UNL     1     -35.370   3.530   4.324  1.00 20.00    -0.201 F 
HETATM   10  F10 UNL     1     -34.740   5.514   2.389  1.00 20.00    -0.200 F 
ENDROOT
TORSDOF 0
ENDMDL
MODEL 4
REMARK VINA RESULT:      -4.9      1.571      2.389
REMARK  0 active torsions:
REMARK  status: ('A' for Active; 'I' for Inactive)
ROOT
HETATM    1  C1  UNL     1     -35.238   4.916   4.715  1.00 20.00     0.044 A 
HETATM    2  C2  UNL     1     -34.837   5.011   3.434  1.00 20.00     0.014 A 
HETATM    3  C3  UNL     1     -34.563   5.669   5.748  1.00 20.00     0.156 A 
HETATM    4  C4  UNL     1     -33.529   6.478   5.463  1.00 20.00     0.202 A 
HETATM    5  C5  UNL     1     -33.704   5.854   3.000  1.00 20.00     0.224 A 
HETATM    6  C6  UNL     1     -33.001   6.651   4.100  1.00 20.00     0.293 A 
HETATM    7  O7  UNL     1     -33.739   7.288   3.048  1.00 20.00    -0.328 OA
HETATM    8  F8  UNL     1     -35.005   5.545   7.016  1.00 20.00    -0.203 F 
HETATM    9  F9  UNL     1     -32.944   7.161   6.471  1.00 20.00    -0.201 F 
HETATM   10  F10 UNL     1     -31.616   6.724   3.997  1.00 20.00    -0.200 F 
ENDROOT
TORSDOF 0
ENDMDL
MODEL 5
REMARK VINA RESULT:      -4.7     12.311     13.508
REMARK  0 active torsions:
REMARK  status: ('A' for Active; 'I' for Inactive)
ROOT
HETATM    1  C1  UNL     1     -34.191  15.871  -6.250  1.00 20.00     0.044 A 
HETATM    2  C2  UNL     1     -33.440  16.419  -5.277  1.00 20.00     0.014 A 
HETATM    3  C3  UNL     1     -34.662  14.510  -6.128  1.00 20.00     0.156 A 
HETATM    4  C4  UNL     1     -34.370  13.761  -5.052  1.00 20.00     0.202 A 
HETATM    5  C5  UNL     1     -33.040  15.690  -4.055  1.00 20.00     0.224 A 
HETATM    6  C6  UNL     1     -33.550  14.253  -3.934  1.00 20.00     0.293 A 
HETATM    7  O7  UNL     1     -33.980  15.294  -3.045  1.00 20.00    -0.328 OA
HETATM    8  F8  UNL     1     -35.416  14.008  -7.128  1.00 20.00    -0.203 F 
HETATM    9  F9  UNL     1     -34.847  12.498  -4.994  1.00 20.00    -0.201 F 
HETATM   10  F10 UNL     1     -32.647  13.338  -3.403  1.00 20.00    -0.200 F 
ENDROOT
TORSDOF 0
ENDMDL
MODEL 6
REMARK VINA RESULT:      -4.7      8.298      9.371
REMARK  0 active torsions:
REMARK  status: ('A' for Active; 'I' for Inactive)
ROOT
HETATM    1  C1  UNL     1     -41.985   6.942  -2.265  1.00 20.00     0.044 A 
HETATM    2  C2  UNL     1     -42.371   5.697  -2.599  1.00 20.00     0.014 A 
HETATM    3  C3  UNL     1     -41.197   7.167  -1.074  1.00 20.00     0.156 A 
HETATM    4  C4  UNL     1     -40.829   6.152  -0.276  1.00 20.00     0.202 A 
HETATM    5  C5  UNL     1     -42.041   4.503  -1.792  1.00 20.00     0.224 A 
HETATM    6  C6  UNL     1     -41.202   4.752  -0.537  1.00 20.00     0.293 A 
HETATM    7  O7  UNL     1     -40.703   4.004  -1.655  1.00 20.00    -0.328 OA
HETATM    8  F8  UNL     1     -40.830   8.432  -0.786  1.00 20.00    -0.203 F 
HETATM    9  F9  UNL     1     -40.087   6.425   0.819  1.00 20.00    -0.201 F 
HETATM   10  F10 UNL     1     -41.558   4.006   0.581  1.00 20.00    -0.200 F 
ENDROOT
TORSDOF 0
ENDMDL
MODEL 7
REMARK VINA RESULT:      -4.6      8.860     10.246
REMARK  0 active torsions:
REMARK  status: ('A' for Active; 'I' for Inactive)
ROOT
HETATM    1  C1  UNL     1     -42.031   7.417  -1.916  1.00 20.00     0.044 A 
HETATM    2  C2  UNL     1     -41.269   7.356  -0.810  1.00 20.00     0.014 A 
HETATM    3  C3  UNL     1     -42.350   6.212  -2.650  1.00 20.00     0.156 A 
HETATM    4  C4  UNL     1     -41.901   5.011  -2.252  1.00 20.00     0.202 A 
HETATM    5  C5  UNL     1     -40.705   6.096  -0.283  1.00 20.00     0.224 A 
HETATM    6  C6  UNL     1     -41.053   4.827  -1.063  1.00 20.00     0.293 A 
HETATM    7  O7  UNL     1     -41.518   5.053   0.274  1.00 20.00    -0.328 OA
HETATM    8  F8  UNL     1     -43.122   6.325  -3.750  1.00 20.00    -0.203 F 
HETATM    9  F9  UNL     1     -42.239   3.921  -2.976  1.00 20.00    -0.201 F 
HETATM   10  F10 UNL     1     -40.023   3.902  -1.197  1.00 20.00    -0.200 F 
ENDROOT
TORSDOF 0
ENDMDL
MODEL 8
REMARK VINA RESULT:      -4.5     12.496     13.619
REMARK  0 active torsions:
REMARK  status: ('A' for Active; 'I' for Inactive)
ROOT
HETATM    1  C1  UNL     1     -34.816  14.238  -6.003  1.00 20.00     0.044 A 
HETATM    2  C2  UNL     1     -34.734  13.432  -4.928  1.00 20.00     0.014 A 
HETATM    3  C3  UNL     1     -34.210  15.550  -5.979  1.00 20.00     0.156 A 
HETATM    4  C4  UNL     1     -33.552  15.997  -4.897  1.00 20.00     0.202 A 
HETATM    5  C5  UNL     1     -34.051  13.819  -3.676  1.00 20.00     0.224 A 
HETATM    6  C6  UNL     1     -33.407  15.207  -3.664  1.00 20.00     0.293 A 
HETATM    7  O7  UNL     1     -32.630  14.003  -3.591  1.00 20.00    -0.328 OA
HETATM    8  F8  UNL     1     -34.315  16.318  -7.083  1.00 20.00    -0.203 F 
HETATM    9  F9  UNL     1     -33.000  17.230  -4.938  1.00 20.00    -0.201 F 
HETATM   10  F10 UNL     1     -33.535  15.917  -2.476  1.00 20.00    -0.200 F 
ENDROOT
TORSDOF 0
ENDMDL
MODEL 9
REMARK VINA RESULT:      -4.5     12.085     12.642
REMARK  0 active torsions:
REMARK  status: ('A' for Active; 'I' for Inactive)
ROOT
HETATM    1  C1  UNL     1     -35.708  14.029  -4.044  1.00 20.00     0.044 A 
HETATM    2  C2  UNL     1     -36.297  15.068  -3.423  1.00 20.00     0.014 A 
HETATM    3  C3  UNL     1     -34.267  13.926  -4.086  1.00 20.00     0.156 A 
HETATM    4  C4  UNL     1     -33.482  14.851  -3.510  1.00 20.00     0.202 A 
HETATM    5  C5  UNL     1     -35.540  16.154  -2.767  1.00 20.00     0.224 A 
HETATM    6  C6  UNL     1     -34.016  16.032  -2.812  1.00 20.00     0.293 A 
HETATM    7  O7  UNL     1     -34.753  15.950  -1.585  1.00 20.00    -0.328 OA
HETATM    8  F8  UNL     1     -33.725  12.864  -4.716  1.00 20.00    -0.203 F 
HETATM    9  F9  UNL     1     -32.141  14.694  -3.576  1.00 20.00    -0.201 F 
HETATM   10  F10 UNL     1     -33.323  17.219  -3.023  1.00 20.00    -0.200 F 
ENDROOT
TORSDOF 0
ENDMDL
