MODEL 1
REMARK VINA RESULT:      -4.6      0.000      0.000
REMARK  1 active torsions:
REMARK  status: ('A' for Active; 'I' for Inactive)
REMARK    1  A    between atoms: C1_1  and  C3_3 
ROOT
HETATM    1  C1  UNL     1     -33.783   6.147   4.775  1.00 20.00     0.163 C 
HETATM    2  C2  UNL     1     -32.975   6.384   3.727  1.00 20.00    -0.045 C 
HETATM    3  C4  UNL     1     -31.830   7.358   3.703  1.00 20.00     0.046 C 
HETATM    4  C5  UNL     1     -33.162   5.631   2.434  1.00 20.00     0.046 C 
HETATM    5  F8  UNL     1     -33.600   6.825   5.931  1.00 20.00    -0.202 F 
ENDROOT
BRANCH   1   6
HETATM    6  C3  UNL     1     -34.922   5.193   4.831  1.00 20.00     0.183 C 
HETATM    7  C6  UNL     1     -34.837   4.102   5.865  1.00 20.00     0.099 C 
HETATM    8  O7  UNL     1     -35.867   5.252   4.049  1.00 20.00    -0.290 OA
ENDBRANCH   1   6
TORSDOF 1
ENDMDL
MODEL 2
REMARK VINA RESULT:      -4.5      1.923      3.542
REMARK  1 active torsions:
REMARK  status: ('A' for Active; 'I' for Inactive)
REMARK    1  A    between atoms: C1_1  and  C3_3 
ROOT
HETATM    1  C1  UNL     1     -34.211   5.540   4.248  1.00 20.00     0.163 C 
HETATM    2  C2  UNL     1     -34.441   5.481   5.571  1.00 20.00    -0.045 C 
HETATM    3  C4  UNL     1     -35.220   4.408   6.280  1.00 20.00     0.046 C 
HETATM    4  C5  UNL     1     -33.884   6.538   6.490  1.00 20.00     0.046 C 
HETATM    5  F8  UNL     1     -34.711   4.581   3.436  1.00 20.00    -0.202 F 
ENDROOT
BRANCH   1   6
HETATM    6  C3  UNL     1     -33.446   6.585   3.516  1.00 20.00     0.183 C 
HETATM    7  C6  UNL     1     -32.021   6.253   3.162  1.00 20.00     0.099 C 
HETATM    8  O7  UNL     1     -33.925   7.684   3.251  1.00 20.00    -0.290 OA
ENDBRANCH   1   6
TORSDOF 1
ENDMDL
MODEL 3
REMARK VINA RESULT:      -4.4      2.367      3.917
REMARK  1 active torsions:
REMARK  status: ('A' for Active; 'I' for Inactive)
REMARK    1  A    between atoms: C1_1  and  C3_3 
ROOT
HETATM    1  C1  UNL     1     -33.419   6.099   3.478  1.00 20.00     0.163 C 
HETATM    2  C2  UNL     1     -34.116   5.840   4.598  1.00 20.00    -0.045 C 
HETATM    3  C4  UNL     1     -35.193   4.801   4.742  1.00 20.00     0.046 C 
HETATM    4  C5  UNL     1     -33.836   6.606   5.866  1.00 20.00     0.046 C 
HETATM    5  F8  UNL     1     -33.676   5.399   2.350  1.00 20.00    -0.202 F 
ENDROOT
BRANCH   1   6
HETATM    6  C3  UNL     1     -32.350   7.118   3.303  1.00 20.00     0.183 C 
HETATM    7  C6  UNL     1     -32.470   8.022   2.106  1.00 20.00     0.099 C 
HETATM    8  O7  UNL     1     -31.387   7.196   4.061  1.00 20.00    -0.290 OA
ENDBRANCH   1   6
TORSDOF 1
ENDMDL
MODEL 4
REMARK VINA RESULT:      -4.3     11.969     12.370
REMARK  1 active torsions:
REMARK  status: ('A' for Active; 'I' for Inactive)
REMARK    1  A    between atoms: C1_1  and  C3_3 
ROOT
HETATM    1  C1  UNL     1     -34.008  14.641  -3.697  1.00 20.00     0.163 C 
HETATM    2  C2  UNL     1     -34.739  15.449  -2.910  1.00 20.00    -0.045 C 
HETATM    3  C4  UNL     1     -34.202  16.329  -1.815  1.00 20.00     0.046 C 
HETATM    4  C5  UNL     1     -36.232  15.550  -3.095  1.00 20.00     0.046 C 
HETATM    5  F8  UNL     1     -32.670  14.565  -3.524  1.00 20.00    -0.202 F 
ENDROOT
BRANCH   1   6
HETATM    6  C3  UNL     1     -34.507  13.760  -4.787  1.00 20.00     0.183 C 
HETATM    7  C6  UNL     1     -34.618  14.377  -6.155  1.00 20.00     0.099 C 
HETATM    8  O7  UNL     1     -34.860  12.601  -4.584  1.00 20.00    -0.290 OA
ENDBRANCH   1   6
TORSDOF 1
ENDMDL
MODEL 5
REMARK VINA RESULT:      -4.1      1.610      1.955
REMARK  1 active torsions:
REMARK  status: ('A' for Active; 'I' for Inactive)
REMARK    1  A    between atoms: C1_1  and  C3_3 
ROOT
HETATM    1  C1  UNL     1     -34.035   5.628   3.558  1.00 20.00     0.163 C 
HETATM    2  C2  UNL     1     -33.138   6.483   4.081  1.00 20.00    -0.045 C 
HETATM    3  C4  UNL     1     -31.936   7.038   3.369  1.00 20.00     0.046 C 
HETATM    4  C5  UNL     1     -33.297   6.985   5.493  1.00 20.00     0.046 C 
HETATM    5  F8  UNL     1     -33.884   5.191   2.287  1.00 20.00    -0.202 F 
ENDROOT
BRANCH   1   6
HETATM    6  C3  UNL     1     -35.233   5.061   4.233  1.00 20.00     0.183 C 
HETATM    7  C6  UNL     1     -34.982   3.997   5.268  1.00 20.00     0.099 C 
HETATM    8  O7  UNL     1     -36.375   5.399   3.936  1.00 20.00    -0.290 OA
ENDBRANCH   1   6
TORSDOF 1
ENDMDL
MODEL 6
REMARK VINA RESULT:      -4.0      1.281      3.135
REMARK  1 active torsions:
REMARK  status: ('A' for Active; 'I' for Inactive)
REMARK    1  A    between atoms: C1_1  and  C3_3 
ROOT
HETATM    1  C1  UNL     1     -33.558   6.186   4.696  1.00 20.00     0.163 C 
HETATM    2  C2  UNL     1     -34.465   5.387   5.284  1.00 20.00    -0.045 C 
HETATM    3  C4  UNL     1     -34.811   5.378   6.747  1.00 20.00     0.046 C 
HETATM    4  C5  UNL     1     -35.259   4.400   4.464  1.00 20.00     0.046 C 
HETATM    5  F8  UNL     1     -32.858   7.070   5.442  1.00 20.00    -0.202 F 
ENDROOT
BRANCH   1   6
HETATM    6  C3  UNL     1     -33.193   6.219   3.255  1.00 20.00     0.183 C 
HETATM    7  C6  UNL     1     -32.185   7.257   2.839  1.00 20.00     0.099 C 
HETATM    8  O7  UNL     1     -33.716   5.477   2.428  1.00 20.00    -0.290 OA
ENDBRANCH   1   6
TORSDOF 1
ENDMDL
MODEL 7
REMARK VINA RESULT:      -4.0      1.679      2.312
REMARK  1 active torsions:
REMARK  status: ('A' for Active; 'I' for Inactive)
REMARK    1  A    between atoms: C1_1  and  C3_3 
ROOT
HETATM    1  C1  UNL     1     -34.641   5.593   5.856  1.00 20.00     0.163 C 
HETATM    2  C2  UNL     1     -33.688   6.535   5.761  1.00 20.00    -0.045 C 
HETATM    3  C4  UNL     1     -33.217   7.424   6.878  1.00 20.00     0.046 C 
HETATM    4  C5  UNL     1     -32.970   6.766   4.455  1.00 20.00     0.046 C 
HETATM    5  F8  UNL     1     -35.273   5.392   7.034  1.00 20.00    -0.202 F 
ENDROOT
BRANCH   1   6
HETATM    6  C3  UNL     1     -35.129   4.698   4.772  1.00 20.00     0.183 C 
HETATM    7  C6  UNL     1     -35.736   5.368   3.568  1.00 20.00     0.099 C 
HETATM    8  O7  UNL     1     -35.088   3.475   4.863  1.00 20.00    -0.290 OA
ENDBRANCH   1   6
TORSDOF 1
ENDMDL
MODEL 8
REMARK VINA RESULT:      -4.0     11.562     12.526
REMARK  1 active torsions:
REMARK  status: ('A' for Active; 'I' for Inactive)
REMARK    1  A    between atoms: C1_1  and  C3_3 
ROOT
HETATM    1  C1  UNL     1     -34.104  15.372  -3.155  1.00 20.00     0.163 C 
HETATM    2  C2  UNL     1     -33.765  16.505  -3.794  1.00 20.00    -0.045 C 
HETATM    3  C4  UNL     1     -33.826  17.891  -3.216  1.00 20.00     0.046 C 
HETATM    4  C5  UNL     1     -33.254  16.458  -5.212  1.00 20.00     0.046 C 
HETATM    5  F8  UNL     1     -34.555  15.428  -1.882  1.00 20.00    -0.202 F 
ENDROOT
BRANCH   1   6
HETATM    6  C3  UNL     1     -34.055  13.987  -3.697  1.00 20.00     0.183 C 
HETATM    7  C6  UNL     1     -35.329  13.452  -4.294  1.00 20.00     0.099 C 
HETATM    8  O7  UNL     1     -33.048  13.289  -3.624  1.00 20.00    -0.290 OA
ENDBRANCH   1   6
TORSDOF 1
ENDMDL
MODEL 9
REMARK VINA RESULT:      -3.9      9.623     10.300
REMARK  1 active torsions:
REMARK  status: ('A' for Active; 'I' for Inactive)
REMARK    1  A    between atoms: C1_1  and  C3_3 
ROOT
HETATM    1  C1  UNL     1     -41.109   4.423  -1.676  1.00 20.00     0.163 C 
HETATM    2  C2  UNL     1     -41.916   3.813  -2.562  1.00 20.00    -0.045 C 
HETATM    3  C4  UNL     1     -41.701   2.445  -3.149  1.00 20.00     0.046 C 
HETATM    4  C5  UNL     1     -43.174   4.491  -3.042  1.00 20.00     0.046 C 
HETATM    5  F8  UNL     1     -39.988   3.800  -1.249  1.00 20.00    -0.202 F 
ENDROOT
BRANCH   1   6
HETATM    6  C3  UNL     1     -41.292   5.772  -1.077  1.00 20.00     0.183 C 
HETATM    7  C6  UNL     1     -42.069   5.838   0.210  1.00 20.00     0.099 C 
HETATM    8  O7  UNL     1     -40.878   6.792  -1.620  1.00 20.00    -0.290 OA
ENDBRANCH   1   6
TORSDOF 1
ENDMDL
