MODEL 1
REMARK VINA RESULT:      -5.1      0.000      0.000
REMARK  0 active torsions:
REMARK  status: ('A' for Active; 'I' for Inactive)
ROOT
HETATM    1  C1  UNL     1     -34.694  16.411  -1.298  1.00 20.00     0.015 C 
HETATM    2  C2  UNL     1     -34.429  15.870  -2.336  1.00 20.00    -0.076 C 
HETATM    3  C3  UNL     1     -34.798  13.840  -3.665  1.00 20.00     0.057 C 
HETATM    4  C4  UNL     1     -34.921  13.554  -5.152  1.00 20.00     0.044 C 
HETATM    5  C5  UNL     1     -34.104  15.205  -3.613  1.00 20.00     0.218 C 
HETATM    6  C6  UNL     1     -35.111  14.939  -5.799  1.00 20.00     0.154 C 
HETATM    7  C7  UNL     1     -32.577  15.052  -3.730  1.00 20.00     0.064 C 
HETATM    8  C8  UNL     1     -34.312  15.012  -7.110  1.00 20.00     0.049 C 
HETATM    9  C9  UNL     1     -36.600  15.171  -6.111  1.00 20.00     0.049 C 
HETATM   10  C10 UNL     1     -34.106  17.142  -5.178  1.00 20.00     0.313 C 
HETATM   11  N11 UNL     1     -34.733  15.905  -4.745  1.00 20.00     0.114 N 
ENDROOT
TORSDOF 0
ENDMDL
MODEL 2
REMARK VINA RESULT:      -4.8      1.106      1.359
REMARK  0 active torsions:
REMARK  status: ('A' for Active; 'I' for Inactive)
ROOT
HETATM    1  C1  UNL     1     -34.598  16.445  -1.109  1.00 20.00     0.015 C 
HETATM    2  C2  UNL     1     -34.739  15.897  -2.167  1.00 20.00    -0.076 C 
HETATM    3  C3  UNL     1     -36.405  14.991  -3.725  1.00 20.00     0.057 C 
HETATM    4  C4  UNL     1     -36.502  14.899  -5.238  1.00 20.00     0.044 C 
HETATM    5  C5  UNL     1     -34.913  15.224  -3.470  1.00 20.00     0.218 C 
HETATM    6  C6  UNL     1     -35.406  15.850  -5.756  1.00 20.00     0.154 C 
HETATM    7  C7  UNL     1     -34.142  13.892  -3.457  1.00 20.00     0.064 C 
HETATM    8  C8  UNL     1     -34.707  15.221  -6.971  1.00 20.00     0.049 C 
HETATM    9  C9  UNL     1     -36.033  17.190  -6.181  1.00 20.00     0.049 C 
HETATM   10  C10 UNL     1     -33.137  16.328  -4.822  1.00 20.00     0.313 C 
HETATM   11  N11 UNL     1     -34.555  16.124  -4.578  1.00 20.00     0.114 N 
ENDROOT
TORSDOF 0
ENDMDL
MODEL 3
REMARK VINA RESULT:      -4.6      1.378      2.437
REMARK  0 active torsions:
REMARK  status: ('A' for Active; 'I' for Inactive)
ROOT
HETATM    1  C1  UNL     1     -34.598  16.685  -0.702  1.00 20.00     0.015 C 
HETATM    2  C2  UNL     1     -34.722  16.594  -1.892  1.00 20.00    -0.076 C 
HETATM    3  C3  UNL     1     -33.489  16.377  -4.003  1.00 20.00     0.057 C 
HETATM    4  C4  UNL     1     -33.758  15.670  -5.320  1.00 20.00     0.044 C 
HETATM    5  C5  UNL     1     -34.873  16.482  -3.356  1.00 20.00     0.218 C 
HETATM    6  C6  UNL     1     -34.935  14.723  -5.019  1.00 20.00     0.154 C 
HETATM    7  C7  UNL     1     -35.635  17.712  -3.882  1.00 20.00     0.064 C 
HETATM    8  C8  UNL     1     -35.913  14.718  -6.205  1.00 20.00     0.049 C 
HETATM    9  C9  UNL     1     -34.412  13.292  -4.800  1.00 20.00     0.049 C 
HETATM   10  C10 UNL     1     -36.908  15.056  -3.521  1.00 20.00     0.313 C 
HETATM   11  N11 UNL     1     -35.476  15.190  -3.724  1.00 20.00     0.114 N 
ENDROOT
TORSDOF 0
ENDMDL
MODEL 4
REMARK VINA RESULT:      -4.4      1.404      3.816
REMARK  0 active torsions:
REMARK  status: ('A' for Active; 'I' for Inactive)
ROOT
HETATM    1  C1  UNL     1     -35.550  14.392  -7.589  1.00 20.00     0.015 C 
HETATM    2  C2  UNL     1     -35.119  14.614  -6.491  1.00 20.00    -0.076 C 
HETATM    3  C3  UNL     1     -33.461  15.918  -5.237  1.00 20.00     0.057 C 
HETATM    4  C4  UNL     1     -33.436  16.556  -3.859  1.00 20.00     0.044 C 
HETATM    5  C5  UNL     1     -34.589  14.887  -5.140  1.00 20.00     0.218 C 
HETATM    6  C6  UNL     1     -34.905  16.534  -3.394  1.00 20.00     0.154 C 
HETATM    7  C7  UNL     1     -34.082  13.572  -4.520  1.00 20.00     0.064 C 
HETATM    8  C8  UNL     1     -34.970  16.176  -1.901  1.00 20.00     0.049 C 
HETATM    9  C9  UNL     1     -35.541  17.920  -3.602  1.00 20.00     0.049 C 
HETATM   10  C10 UNL     1     -36.675  14.812  -3.782  1.00 20.00     0.313 C 
HETATM   11  N11 UNL     1     -35.582  15.602  -4.322  1.00 20.00     0.114 N 
ENDROOT
TORSDOF 0
ENDMDL
MODEL 5
REMARK VINA RESULT:      -4.4      0.729      3.795
REMARK  0 active torsions:
REMARK  status: ('A' for Active; 'I' for Inactive)
ROOT
HETATM    1  C1  UNL     1     -37.851  15.524  -6.364  1.00 20.00     0.015 C 
HETATM    2  C2  UNL     1     -36.681  15.512  -6.095  1.00 20.00    -0.076 C 
HETATM    3  C3  UNL     1     -34.767  16.932  -5.507  1.00 20.00     0.057 C 
HETATM    4  C4  UNL     1     -33.550  16.755  -4.616  1.00 20.00     0.044 C 
HETATM    5  C5  UNL     1     -35.243  15.499  -5.763  1.00 20.00     0.218 C 
HETATM    6  C6  UNL     1     -33.866  15.506  -3.772  1.00 20.00     0.154 C 
HETATM    7  C7  UNL     1     -34.462  14.858  -6.925  1.00 20.00     0.064 C 
HETATM    8  C8  UNL     1     -32.599  14.649  -3.621  1.00 20.00     0.049 C 
HETATM    9  C9  UNL     1     -34.351  15.928  -2.373  1.00 20.00     0.049 C 
HETATM   10  C10 UNL     1     -35.083  13.417  -4.407  1.00 20.00     0.313 C 
HETATM   11  N11 UNL     1     -35.012  14.867  -4.454  1.00 20.00     0.114 N 
ENDROOT
TORSDOF 0
ENDMDL
MODEL 6
REMARK VINA RESULT:      -4.3      1.638      2.593
REMARK  0 active torsions:
REMARK  status: ('A' for Active; 'I' for Inactive)
ROOT
HETATM    1  C1  UNL     1     -38.770  14.764  -3.895  1.00 20.00     0.015 C 
HETATM    2  C2  UNL     1     -37.582  14.935  -3.899  1.00 20.00    -0.076 C 
HETATM    3  C3  UNL     1     -35.414  13.799  -4.088  1.00 20.00     0.057 C 
HETATM    4  C4  UNL     1     -34.069  14.174  -4.684  1.00 20.00     0.044 C 
HETATM    5  C5  UNL     1     -36.120  15.146  -3.904  1.00 20.00     0.218 C 
HETATM    6  C6  UNL     1     -34.358  15.420  -5.543  1.00 20.00     0.154 C 
HETATM    7  C7  UNL     1     -35.700  15.813  -2.583  1.00 20.00     0.064 C 
HETATM    8  C8  UNL     1     -33.214  16.434  -5.387  1.00 20.00     0.049 C 
HETATM    9  C9  UNL     1     -34.471  15.019  -7.025  1.00 20.00     0.049 C 
HETATM   10  C10 UNL     1     -35.951  17.304  -5.135  1.00 20.00     0.313 C 
HETATM   11  N11 UNL     1     -35.700  15.873  -5.113  1.00 20.00     0.114 N 
ENDROOT
TORSDOF 0
ENDMDL
MODEL 7
REMARK VINA RESULT:      -4.3      1.447      2.244
REMARK  0 active torsions:
REMARK  status: ('A' for Active; 'I' for Inactive)
ROOT
HETATM    1  C1  UNL     1     -34.609  17.063  -0.190  1.00 20.00     0.015 C 
HETATM    2  C2  UNL     1     -34.543  16.905  -1.378  1.00 20.00    -0.076 C 
HETATM    3  C3  UNL     1     -33.315  15.743  -3.158  1.00 20.00     0.057 C 
HETATM    4  C4  UNL     1     -33.704  15.155  -4.503  1.00 20.00     0.044 C 
HETATM    5  C5  UNL     1     -34.460  16.710  -2.839  1.00 20.00     0.218 C 
HETATM    6  C6  UNL     1     -35.243  15.107  -4.476  1.00 20.00     0.154 C 
HETATM    7  C7  UNL     1     -34.238  18.072  -3.520  1.00 20.00     0.064 C 
HETATM    8  C8  UNL     1     -35.798  15.511  -5.851  1.00 20.00     0.049 C 
HETATM    9  C9  UNL     1     -35.717  13.680  -4.148  1.00 20.00     0.049 C 
HETATM   10  C10 UNL     1     -36.872  16.708  -3.459  1.00 20.00     0.313 C 
HETATM   11  N11 UNL     1     -35.629  15.966  -3.335  1.00 20.00     0.114 N 
ENDROOT
TORSDOF 0
ENDMDL
MODEL 8
REMARK VINA RESULT:      -4.2      1.249      3.673
REMARK  0 active torsions:
REMARK  status: ('A' for Active; 'I' for Inactive)
ROOT
HETATM    1  C1  UNL     1     -36.099  18.229  -6.878  1.00 20.00     0.015 C 
HETATM    2  C2  UNL     1     -35.451  17.327  -6.424  1.00 20.00    -0.076 C 
HETATM    3  C3  UNL     1     -33.372  16.777  -5.240  1.00 20.00     0.057 C 
HETATM    4  C4  UNL     1     -32.983  15.729  -4.213  1.00 20.00     0.044 C 
HETATM    5  C5  UNL     1     -34.654  16.217  -5.865  1.00 20.00     0.218 C 
HETATM    6  C6  UNL     1     -34.324  15.159  -3.712  1.00 20.00     0.154 C 
HETATM    7  C7  UNL     1     -34.327  15.214  -6.985  1.00 20.00     0.064 C 
HETATM    8  C8  UNL     1     -34.204  13.638  -3.531  1.00 20.00     0.049 C 
HETATM    9  C9  UNL     1     -34.690  15.794  -2.359  1.00 20.00     0.049 C 
HETATM   10  C10 UNL     1     -36.447  14.744  -4.963  1.00 20.00     0.313 C 
HETATM   11  N11 UNL     1     -35.325  15.626  -4.696  1.00 20.00     0.114 N 
ENDROOT
TORSDOF 0
ENDMDL
MODEL 9
REMARK VINA RESULT:      -4.2      1.457      2.484
REMARK  0 active torsions:
REMARK  status: ('A' for Active; 'I' for Inactive)
ROOT
HETATM    1  C1  UNL     1     -33.561  19.015  -3.287  1.00 20.00     0.015 C 
HETATM    2  C2  UNL     1     -34.065  17.926  -3.336  1.00 20.00    -0.076 C 
HETATM    3  C3  UNL     1     -36.023  16.682  -4.138  1.00 20.00     0.057 C 
HETATM    4  C4  UNL     1     -36.240  15.276  -4.671  1.00 20.00     0.044 C 
HETATM    5  C5  UNL     1     -34.685  16.588  -3.398  1.00 20.00     0.218 C 
HETATM    6  C6  UNL     1     -34.823  14.751  -4.969  1.00 20.00     0.154 C 
HETATM    7  C7  UNL     1     -34.883  16.055  -1.968  1.00 20.00     0.064 C 
HETATM    8  C8  UNL     1     -34.719  13.275  -4.551  1.00 20.00     0.049 C 
HETATM    9  C9  UNL     1     -34.529  14.863  -6.476  1.00 20.00     0.049 C 
HETATM   10  C10 UNL     1     -32.683  15.147  -3.739  1.00 20.00     0.313 C 
HETATM   11  N11 UNL     1     -33.916  15.694  -4.279  1.00 20.00     0.114 N 
ENDROOT
TORSDOF 0
ENDMDL
