MODEL 1
REMARK VINA RESULT:      -4.3      0.000      0.000
REMARK  1 active torsions:
REMARK  status: ('A' for Active; 'I' for Inactive)
REMARK    1  A    between atoms: C3_3  and  C6_6 
ROOT
HETATM    1  C1  UNL     1     -33.226  16.395  -4.715  1.00 20.00     0.005 C 
HETATM    2  C2  UNL     1     -34.315  16.567  -5.482  1.00 20.00     0.040 C 
HETATM    3  C4  UNL     1     -33.235  15.546  -3.486  1.00 20.00     0.033 C 
HETATM    4  C5  UNL     1     -34.661  15.209  -3.062  1.00 20.00     0.049 C 
HETATM    5  C6  UNL     1     -35.548  14.904  -4.275  1.00 20.00     0.116 C 
HETATM    6  C7  UNL     1     -34.314  17.450  -6.690  1.00 20.00     0.076 C 
HETATM    7  C8  UNL     1     -37.002  14.728  -3.834  1.00 20.00     0.054 C 
HETATM    8  O10 UNL     1     -35.529  15.952  -5.249  1.00 20.00    -0.338 OA
ENDROOT
BRANCH   5   9
HETATM    9  C3  UNL     1     -35.134  13.626  -4.958  1.00 20.00     0.269 C 
HETATM   10  O9  UNL     1     -34.948  12.570  -4.362  1.00 20.00    -0.304 OA
ENDBRANCH   5   9
TORSDOF 1
ENDMDL
MODEL 2
REMARK VINA RESULT:      -4.2      1.467      2.183
REMARK  1 active torsions:
REMARK  status: ('A' for Active; 'I' for Inactive)
REMARK    1  A    between atoms: C3_3  and  C6_6 
ROOT
HETATM    1  C1  UNL     1     -34.625  14.424  -6.152  1.00 20.00     0.005 C 
HETATM    2  C2  UNL     1     -34.605  15.728  -5.828  1.00 20.00     0.040 C 
HETATM    3  C4  UNL     1     -34.819  13.347  -5.136  1.00 20.00     0.033 C 
HETATM    4  C5  UNL     1     -34.650  13.889  -3.721  1.00 20.00     0.049 C 
HETATM    5  C6  UNL     1     -35.284  15.278  -3.574  1.00 20.00     0.116 C 
HETATM    6  C7  UNL     1     -34.370  16.804  -6.841  1.00 20.00     0.076 C 
HETATM    7  C8  UNL     1     -34.961  15.862  -2.198  1.00 20.00     0.054 C 
HETATM    8  O10 UNL     1     -34.805  16.209  -4.549  1.00 20.00    -0.338 OA
ENDROOT
BRANCH   5   9
HETATM    9  C3  UNL     1     -36.786  15.216  -3.688  1.00 20.00     0.269 C 
HETATM   10  O9  UNL     1     -37.430  14.178  -3.579  1.00 20.00    -0.304 OA
ENDBRANCH   5   9
TORSDOF 1
ENDMDL
MODEL 3
REMARK VINA RESULT:      -4.1      1.752      2.913
REMARK  1 active torsions:
REMARK  status: ('A' for Active; 'I' for Inactive)
REMARK    1  A    between atoms: C3_3  and  C6_6 
ROOT
HETATM    1  C1  UNL     1     -34.564  17.268  -3.448  1.00 20.00     0.005 C 
HETATM    2  C2  UNL     1     -34.674  16.283  -2.540  1.00 20.00     0.040 C 
HETATM    3  C4  UNL     1     -34.613  17.014  -4.919  1.00 20.00     0.033 C 
HETATM    4  C5  UNL     1     -34.461  15.527  -5.225  1.00 20.00     0.049 C 
HETATM    5  C6  UNL     1     -35.235  14.667  -4.219  1.00 20.00     0.116 C 
HETATM    6  C7  UNL     1     -34.585  16.535  -1.068  1.00 20.00     0.076 C 
HETATM    7  C8  UNL     1     -34.936  13.185  -4.452  1.00 20.00     0.054 C 
HETATM    8  O10 UNL     1     -34.886  14.957  -2.862  1.00 20.00    -0.338 OA
ENDROOT
BRANCH   5   9
HETATM    9  C3  UNL     1     -36.725  14.847  -4.365  1.00 20.00     0.269 C 
HETATM   10  O9  UNL     1     -37.550  14.183  -3.746  1.00 20.00    -0.304 OA
ENDBRANCH   5   9
TORSDOF 1
ENDMDL
MODEL 4
REMARK VINA RESULT:      -4.1      1.557      2.875
REMARK  1 active torsions:
REMARK  status: ('A' for Active; 'I' for Inactive)
REMARK    1  A    between atoms: C3_3  and  C6_6 
ROOT
HETATM    1  C1  UNL     1     -36.077  15.603  -2.919  1.00 20.00     0.005 C 
HETATM    2  C2  UNL     1     -34.797  15.861  -3.237  1.00 20.00     0.040 C 
HETATM    3  C4  UNL     1     -37.039  14.998  -3.888  1.00 20.00     0.033 C 
HETATM    4  C5  UNL     1     -36.486  15.038  -5.309  1.00 20.00     0.049 C 
HETATM    5  C6  UNL     1     -34.987  14.719  -5.335  1.00 20.00     0.116 C 
HETATM    6  C7  UNL     1     -33.846  16.505  -2.278  1.00 20.00     0.076 C 
HETATM    7  C8  UNL     1     -34.429  14.923  -6.745  1.00 20.00     0.054 C 
HETATM    8  O10 UNL     1     -34.229  15.557  -4.458  1.00 20.00    -0.338 OA
ENDROOT
BRANCH   5   9
HETATM    9  C3  UNL     1     -34.718  13.285  -4.955  1.00 20.00     0.269 C 
HETATM   10  O9  UNL     1     -33.723  12.925  -4.334  1.00 20.00    -0.304 OA
ENDBRANCH   5   9
TORSDOF 1
ENDMDL
MODEL 5
REMARK VINA RESULT:      -4.0      1.847      2.791
REMARK  1 active torsions:
REMARK  status: ('A' for Active; 'I' for Inactive)
REMARK    1  A    between atoms: C3_3  and  C6_6 
ROOT
HETATM    1  C1  UNL     1     -33.662  14.852  -3.156  1.00 20.00     0.005 C 
HETATM    2  C2  UNL     1     -34.578  15.651  -2.582  1.00 20.00     0.040 C 
HETATM    3  C4  UNL     1     -34.016  13.842  -4.197  1.00 20.00     0.033 C 
HETATM    4  C5  UNL     1     -35.524  13.619  -4.256  1.00 20.00     0.049 C 
HETATM    5  C6  UNL     1     -36.291  14.937  -4.099  1.00 20.00     0.116 C 
HETATM    6  C7  UNL     1     -34.228  16.634  -1.511  1.00 20.00     0.076 C 
HETATM    7  C8  UNL     1     -37.793  14.664  -4.001  1.00 20.00     0.054 C 
HETATM    8  O10 UNL     1     -35.917  15.656  -2.920  1.00 20.00    -0.338 OA
ENDROOT
BRANCH   5   9
HETATM    9  C3  UNL     1     -36.082  15.845  -5.284  1.00 20.00     0.269 C 
HETATM   10  O9  UNL     1     -36.242  15.487  -6.447  1.00 20.00    -0.304 OA
ENDBRANCH   5   9
TORSDOF 1
ENDMDL
MODEL 6
REMARK VINA RESULT:      -4.0      1.814      3.176
REMARK  1 active torsions:
REMARK  status: ('A' for Active; 'I' for Inactive)
REMARK    1  A    between atoms: C3_3  and  C6_6 
ROOT
HETATM    1  C1  UNL     1     -36.625  14.959  -7.117  1.00 20.00     0.005 C 
HETATM    2  C2  UNL     1     -36.819  15.240  -5.818  1.00 20.00     0.040 C 
HETATM    3  C4  UNL     1     -35.267  14.732  -7.696  1.00 20.00     0.033 C 
HETATM    4  C5  UNL     1     -34.176  15.184  -6.731  1.00 20.00     0.049 C 
HETATM    5  C6  UNL     1     -34.522  14.816  -5.283  1.00 20.00     0.116 C 
HETATM    6  C7  UNL     1     -38.177  15.507  -5.249  1.00 20.00     0.076 C 
HETATM    7  C8  UNL     1     -33.493  15.420  -4.325  1.00 20.00     0.054 C 
HETATM    8  O10 UNL     1     -35.806  15.303  -4.882  1.00 20.00    -0.338 OA
ENDROOT
BRANCH   5   9
HETATM    9  C3  UNL     1     -34.503  13.324  -5.071  1.00 20.00     0.269 C 
HETATM   10  O9  UNL     1     -35.151  12.757  -4.197  1.00 20.00    -0.304 OA
ENDBRANCH   5   9
TORSDOF 1
ENDMDL
MODEL 7
REMARK VINA RESULT:      -3.9      1.431      2.152
REMARK  1 active torsions:
REMARK  status: ('A' for Active; 'I' for Inactive)
REMARK    1  A    between atoms: C3_3  and  C6_6 
ROOT
HETATM    1  C1  UNL     1     -34.534  16.160  -6.304  1.00 20.00     0.005 C 
HETATM    2  C2  UNL     1     -35.602  15.654  -5.666  1.00 20.00     0.040 C 
HETATM    3  C4  UNL     1     -33.305  16.609  -5.583  1.00 20.00     0.033 C 
HETATM    4  C5  UNL     1     -33.561  16.730  -4.085  1.00 20.00     0.049 C 
HETATM    5  C6  UNL     1     -34.437  15.581  -3.572  1.00 20.00     0.116 C 
HETATM    6  C7  UNL     1     -36.847  15.242  -6.386  1.00 20.00     0.076 C 
HETATM    7  C8  UNL     1     -34.808  15.813  -2.106  1.00 20.00     0.054 C 
HETATM    8  O10 UNL     1     -35.662  15.455  -4.301  1.00 20.00    -0.338 OA
ENDROOT
BRANCH   5   9
HETATM    9  C3  UNL     1     -33.716  14.259  -3.643  1.00 20.00     0.269 C 
HETATM   10  O9  UNL     1     -34.276  13.175  -3.511  1.00 20.00    -0.304 OA
ENDBRANCH   5   9
TORSDOF 1
ENDMDL
MODEL 8
REMARK VINA RESULT:      -3.9      1.946      3.537
REMARK  1 active torsions:
REMARK  status: ('A' for Active; 'I' for Inactive)
REMARK    1  A    between atoms: C3_3  and  C6_6 
ROOT
HETATM    1  C1  UNL     1     -35.116  13.805  -3.929  1.00 20.00     0.005 C 
HETATM    2  C2  UNL     1     -35.978  14.835  -3.958  1.00 20.00     0.040 C 
HETATM    3  C4  UNL     1     -33.652  13.988  -3.698  1.00 20.00     0.033 C 
HETATM    4  C5  UNL     1     -33.253  15.454  -3.842  1.00 20.00     0.049 C 
HETATM    5  C6  UNL     1     -34.303  16.383  -3.222  1.00 20.00     0.116 C 
HETATM    6  C7  UNL     1     -37.438  14.652  -4.229  1.00 20.00     0.076 C 
HETATM    7  C8  UNL     1     -33.957  17.843  -3.521  1.00 20.00     0.054 C 
HETATM    8  O10 UNL     1     -35.618  16.149  -3.735  1.00 20.00    -0.338 OA
ENDROOT
BRANCH   5   9
HETATM    9  C3  UNL     1     -34.356  16.238  -1.722  1.00 20.00     0.269 C 
HETATM   10  O9  UNL     1     -33.879  17.060  -0.946  1.00 20.00    -0.304 OA
ENDBRANCH   5   9
TORSDOF 1
ENDMDL
MODEL 9
REMARK VINA RESULT:      -3.9      1.819      2.916
REMARK  1 active torsions:
REMARK  status: ('A' for Active; 'I' for Inactive)
REMARK    1  A    between atoms: C3_3  and  C6_6 
ROOT
HETATM    1  C1  UNL     1     -34.450  13.524  -5.106  1.00 20.00     0.005 C 
HETATM    2  C2  UNL     1     -34.802  14.551  -5.897  1.00 20.00     0.040 C 
HETATM    3  C4  UNL     1     -33.754  13.719  -3.799  1.00 20.00     0.033 C 
HETATM    4  C5  UNL     1     -33.221  15.142  -3.666  1.00 20.00     0.049 C 
HETATM    5  C6  UNL     1     -34.216  16.166  -4.225  1.00 20.00     0.116 C 
HETATM    6  C7  UNL     1     -35.463  14.352  -7.224  1.00 20.00     0.076 C 
HETATM    7  C8  UNL     1     -33.591  17.562  -4.226  1.00 20.00     0.054 C 
HETATM    8  O10 UNL     1     -34.605  15.879  -5.572  1.00 20.00    -0.338 OA
ENDROOT
BRANCH   5   9
HETATM    9  C3  UNL     1     -35.466  16.241  -3.386  1.00 20.00     0.269 C 
HETATM   10  O9  UNL     1     -35.455  16.402  -2.169  1.00 20.00    -0.304 OA
ENDBRANCH   5   9
TORSDOF 1
ENDMDL
