MODEL 1
REMARK VINA RESULT:      -4.8      0.000      0.000
REMARK  0 active torsions:
REMARK  status: ('A' for Active; 'I' for Inactive)
ROOT
HETATM    1  C1  UNL     1     -37.224  14.601  -3.699  1.00 20.00     0.095 C 
HETATM    2  C2  UNL     1     -33.452  14.104  -3.793  1.00 20.00     0.005 C 
HETATM    3  C3  UNL     1     -35.155  17.222  -1.370  1.00 20.00     0.032 C 
HETATM    4  C4  UNL     1     -34.925  13.887  -4.110  1.00 20.00     0.051 C 
HETATM    5  C5  UNL     1     -33.075  15.552  -4.060  1.00 20.00     0.036 C 
HETATM    6  C6  UNL     1     -33.822  16.685  -1.876  1.00 20.00     0.037 C 
HETATM    7  C7  UNL     1     -36.092  17.169  -2.572  1.00 20.00     0.275 C 
HETATM    8  C8  UNL     1     -35.820  14.849  -3.309  1.00 20.00     0.329 C 
HETATM    9  C9  UNL     1     -34.018  16.545  -3.384  1.00 20.00     0.224 C 
HETATM   10  N10 UNL     1     -38.326  14.406  -4.005  1.00 20.00    -0.195 NA
HETATM   11  N11 UNL     1     -35.460  16.263  -3.552  1.00 20.00     0.111 N 
ENDROOT
TORSDOF 0
ENDMDL
MODEL 2
REMARK VINA RESULT:      -4.7      2.277      2.896
REMARK  0 active torsions:
REMARK  status: ('A' for Active; 'I' for Inactive)
ROOT
HETATM    1  C1  UNL     1     -34.743  16.344  -6.884  1.00 20.00     0.095 C 
HETATM    2  C2  UNL     1     -34.678  13.390  -4.485  1.00 20.00     0.005 C 
HETATM    3  C3  UNL     1     -34.147  17.390  -2.995  1.00 20.00     0.032 C 
HETATM    4  C4  UNL     1     -34.773  14.158  -5.796  1.00 20.00     0.051 C 
HETATM    5  C5  UNL     1     -33.391  13.758  -3.764  1.00 20.00     0.036 C 
HETATM    6  C6  UNL     1     -34.077  15.928  -2.568  1.00 20.00     0.037 C 
HETATM    7  C7  UNL     1     -33.480  17.441  -4.365  1.00 20.00     0.275 C 
HETATM    8  C8  UNL     1     -34.681  15.677  -5.566  1.00 20.00     0.329 C 
HETATM    9  C9  UNL     1     -33.198  15.267  -3.627  1.00 20.00     0.224 C 
HETATM   10  N10 UNL     1     -34.792  16.868  -7.918  1.00 20.00    -0.195 NA
HETATM   11  N11 UNL     1     -33.437  16.049  -4.859  1.00 20.00     0.111 N 
ENDROOT
TORSDOF 0
ENDMDL
MODEL 3
REMARK VINA RESULT:      -4.6      1.674      2.882
REMARK  0 active torsions:
REMARK  status: ('A' for Active; 'I' for Inactive)
ROOT
HETATM    1  C1  UNL     1     -37.369  14.820  -3.852  1.00 20.00     0.095 C 
HETATM    2  C2  UNL     1     -34.005  16.164  -2.686  1.00 20.00     0.005 C 
HETATM    3  C3  UNL     1     -34.867  15.867  -6.889  1.00 20.00     0.032 C 
HETATM    4  C4  UNL     1     -35.409  15.584  -2.611  1.00 20.00     0.051 C 
HETATM    5  C5  UNL     1     -33.132  15.289  -3.571  1.00 20.00     0.036 C 
HETATM    6  C6  UNL     1     -33.737  16.165  -5.912  1.00 20.00     0.037 C 
HETATM    7  C7  UNL     1     -35.600  14.666  -6.301  1.00 20.00     0.275 C 
HETATM    8  C8  UNL     1     -36.027  15.421  -4.011  1.00 20.00     0.329 C 
HETATM    9  C9  UNL     1     -33.768  14.997  -4.929  1.00 20.00     0.224 C 
HETATM   10  N10 UNL     1     -38.421  14.349  -3.729  1.00 20.00    -0.195 NA
HETATM   11  N11 UNL     1     -35.185  14.577  -4.886  1.00 20.00     0.111 N 
ENDROOT
TORSDOF 0
ENDMDL
MODEL 4
REMARK VINA RESULT:      -4.6      1.679      2.033
REMARK  0 active torsions:
REMARK  status: ('A' for Active; 'I' for Inactive)
ROOT
HETATM    1  C1  UNL     1     -37.227  14.570  -4.165  1.00 20.00     0.095 C 
HETATM    2  C2  UNL     1     -34.580  14.906  -6.878  1.00 20.00     0.005 C 
HETATM    3  C3  UNL     1     -33.642  15.943  -2.810  1.00 20.00     0.032 C 
HETATM    4  C4  UNL     1     -35.926  14.614  -6.231  1.00 20.00     0.051 C 
HETATM    5  C5  UNL     1     -34.145  16.325  -6.546  1.00 20.00     0.036 C 
HETATM    6  C6  UNL     1     -33.082  16.005  -4.227  1.00 20.00     0.037 C 
HETATM    7  C7  UNL     1     -35.107  16.345  -2.940  1.00 20.00     0.275 C 
HETATM    8  C8  UNL     1     -35.879  14.838  -4.709  1.00 20.00     0.329 C 
HETATM    9  C9  UNL     1     -34.206  16.630  -5.051  1.00 20.00     0.224 C 
HETATM   10  N10 UNL     1     -38.285  14.360  -3.737  1.00 20.00    -0.195 NA
HETATM   11  N11 UNL     1     -35.450  16.212  -4.370  1.00 20.00     0.111 N 
ENDROOT
TORSDOF 0
ENDMDL
MODEL 5
REMARK VINA RESULT:      -4.5      2.087      2.963
REMARK  0 active torsions:
REMARK  status: ('A' for Active; 'I' for Inactive)
ROOT
HETATM    1  C1  UNL     1     -33.482  14.427  -3.785  1.00 20.00     0.095 C 
HETATM    2  C2  UNL     1     -33.458  17.913  -5.311  1.00 20.00     0.005 C 
HETATM    3  C3  UNL     1     -33.767  17.428  -1.049  1.00 20.00     0.032 C 
HETATM    4  C4  UNL     1     -33.436  16.394  -5.232  1.00 20.00     0.051 C 
HETATM    5  C5  UNL     1     -34.679  18.450  -4.581  1.00 20.00     0.036 C 
HETATM    6  C6  UNL     1     -33.848  18.481  -2.148  1.00 20.00     0.037 C 
HETATM    7  C7  UNL     1     -34.529  16.223  -1.589  1.00 20.00     0.275 C 
HETATM    8  C8  UNL     1     -33.468  15.905  -3.773  1.00 20.00     0.329 C 
HETATM    9  C9  UNL     1     -34.819  17.889  -3.167  1.00 20.00     0.224 C 
HETATM   10  N10 UNL     1     -33.492  13.267  -3.793  1.00 20.00    -0.195 NA
HETATM   11  N11 UNL     1     -34.647  16.426  -3.047  1.00 20.00     0.111 N 
ENDROOT
TORSDOF 0
ENDMDL
MODEL 6
REMARK VINA RESULT:      -4.5      1.837      3.179
REMARK  0 active torsions:
REMARK  status: ('A' for Active; 'I' for Inactive)
ROOT
HETATM    1  C1  UNL     1     -34.443  16.057  -2.020  1.00 20.00     0.095 C 
HETATM    2  C2  UNL     1     -34.271  13.434  -4.771  1.00 20.00     0.005 C 
HETATM    3  C3  UNL     1     -33.727  17.593  -5.722  1.00 20.00     0.032 C 
HETATM    4  C4  UNL     1     -34.439  14.030  -3.382  1.00 20.00     0.051 C 
HETATM    5  C5  UNL     1     -35.224  14.112  -5.743  1.00 20.00     0.036 C 
HETATM    6  C6  UNL     1     -33.896  16.223  -6.370  1.00 20.00     0.037 C 
HETATM    7  C7  UNL     1     -34.744  17.628  -4.586  1.00 20.00     0.275 C 
HETATM    8  C8  UNL     1     -34.226  15.554  -3.393  1.00 20.00     0.329 C 
HETATM    9  C9  UNL     1     -35.134  15.636  -5.694  1.00 20.00     0.224 C 
HETATM   10  N10 UNL     1     -34.613  16.453  -0.943  1.00 20.00    -0.195 NA
HETATM   11  N11 UNL     1     -35.141  16.227  -4.340  1.00 20.00     0.111 N 
ENDROOT
TORSDOF 0
ENDMDL
MODEL 7
REMARK VINA RESULT:      -4.4      2.095      3.989
REMARK  0 active torsions:
REMARK  status: ('A' for Active; 'I' for Inactive)
ROOT
HETATM    1  C1  UNL     1     -33.723  17.648  -3.979  1.00 20.00     0.095 C 
HETATM    2  C2  UNL     1     -33.426  13.858  -3.793  1.00 20.00     0.005 C 
HETATM    3  C3  UNL     1     -34.993  15.726  -7.336  1.00 20.00     0.032 C 
HETATM    4  C4  UNL     1     -33.346  15.315  -3.361  1.00 20.00     0.051 C 
HETATM    5  C5  UNL     1     -34.839  13.533  -4.250  1.00 20.00     0.036 C 
HETATM    6  C6  UNL     1     -34.793  14.364  -6.683  1.00 20.00     0.037 C 
HETATM    7  C7  UNL     1     -35.487  16.638  -6.218  1.00 20.00     0.275 C 
HETATM    8  C8  UNL     1     -33.795  16.262  -4.489  1.00 20.00     0.329 C 
HETATM    9  C9  UNL     1     -35.373  14.527  -5.280  1.00 20.00     0.224 C 
HETATM   10  N10 UNL     1     -33.666  18.735  -3.580  1.00 20.00    -0.195 NA
HETATM   11  N11 UNL     1     -35.166  15.953  -4.950  1.00 20.00     0.111 N 
ENDROOT
TORSDOF 0
ENDMDL
MODEL 8
REMARK VINA RESULT:      -4.4      1.898      3.829
REMARK  0 active torsions:
REMARK  status: ('A' for Active; 'I' for Inactive)
ROOT
HETATM    1  C1  UNL     1     -34.248  17.078  -6.333  1.00 20.00     0.095 C 
HETATM    2  C2  UNL     1     -33.661  16.712  -2.591  1.00 20.00     0.005 C 
HETATM    3  C3  UNL     1     -34.527  13.246  -4.985  1.00 20.00     0.032 C 
HETATM    4  C4  UNL     1     -33.815  17.381  -3.949  1.00 20.00     0.051 C 
HETATM    5  C5  UNL     1     -34.895  15.877  -2.285  1.00 20.00     0.036 C 
HETATM    6  C6  UNL     1     -34.361  13.697  -3.539  1.00 20.00     0.037 C 
HETATM    7  C7  UNL     1     -35.347  14.343  -5.657  1.00 20.00     0.275 C 
HETATM    8  C8  UNL     1     -34.074  16.347  -5.059  1.00 20.00     0.329 C 
HETATM    9  C9  UNL     1     -35.263  14.924  -3.420  1.00 20.00     0.224 C 
HETATM   10  N10 UNL     1     -34.383  17.650  -7.333  1.00 20.00    -0.195 NA
HETATM   11  N11 UNL     1     -35.267  15.522  -4.772  1.00 20.00     0.111 N 
ENDROOT
TORSDOF 0
ENDMDL
MODEL 9
REMARK VINA RESULT:      -4.4      2.098      3.169
REMARK  0 active torsions:
REMARK  status: ('A' for Active; 'I' for Inactive)
ROOT
HETATM    1  C1  UNL     1     -34.815  13.809  -4.438  1.00 20.00     0.095 C 
HETATM    2  C2  UNL     1     -34.873  16.818  -2.108  1.00 20.00     0.005 C 
HETATM    3  C3  UNL     1     -34.862  17.393  -6.370  1.00 20.00     0.032 C 
HETATM    4  C4  UNL     1     -34.836  15.363  -2.554  1.00 20.00     0.051 C 
HETATM    5  C5  UNL     1     -33.733  17.586  -2.759  1.00 20.00     0.036 C 
HETATM    6  C6  UNL     1     -34.744  18.152  -5.054  1.00 20.00     0.037 C 
HETATM    7  C7  UNL     1     -34.011  16.140  -6.189  1.00 20.00     0.275 C 
HETATM    8  C8  UNL     1     -34.892  15.244  -4.087  1.00 20.00     0.329 C 
HETATM    9  C9  UNL     1     -33.675  17.391  -4.273  1.00 20.00     0.224 C 
HETATM   10  N10 UNL     1     -34.755  12.684  -4.714  1.00 20.00    -0.195 NA
HETATM   11  N11 UNL     1     -33.793  15.992  -4.736  1.00 20.00     0.111 N 
ENDROOT
TORSDOF 0
ENDMDL
