MODEL 1
REMARK VINA RESULT:      -5.1      0.000      0.000
REMARK  4 active torsions:
REMARK  status: ('A' for Active; 'I' for Inactive)
REMARK    1  A    between atoms: C1_1  and  C7_7 
REMARK    2  A    between atoms: C2_2  and  C9_9 
REMARK    3  A    between atoms: C4_4  and  C9_9 
REMARK    4  A    between atoms: C9_9  and  O10_10 
ROOT
HETATM    1  C1  UNL     1     -33.659   6.004   4.176  1.00 20.00    -0.094 C 
HETATM    2  C2  UNL     1     -32.754   6.608   3.669  1.00 20.00    -0.070 C 
ENDROOT
BRANCH   2   3
HETATM    3  C9  UNL     1     -31.651   7.356   3.050  1.00 20.00     0.219 C 
BRANCH   3   4
HETATM    4  C4  UNL     1     -32.198   8.420   2.149  1.00 20.00     0.007 C 
HETATM    5  C3  UNL     1     -31.765   8.636   0.902  1.00 20.00     0.010 C 
ENDBRANCH   3   4
BRANCH   3   6
HETATM    6  O10 UNL     1     -30.866   7.989   4.057  1.00 20.00    -0.380 OA
HETATM    7  H22 UNL     1     -30.745   8.909   3.774  1.00 20.00     0.211 HD
ENDBRANCH   3   6
ENDBRANCH   2   3
BRANCH   1   8
HETATM    8  C7  UNL     1     -34.744   5.276   4.784  1.00 20.00     0.020 A 
HETATM    9  C5  UNL     1     -34.388   4.059   5.606  1.00 20.00     0.024 A 
HETATM   10  C6  UNL     1     -34.843   5.313   6.292  1.00 20.00     0.024 A 
HETATM   11  C8  UNL     1     -36.021   5.247   3.992  1.00 20.00     0.029 C 
ENDBRANCH   1   8
TORSDOF 4
ENDMDL
MODEL 2
REMARK VINA RESULT:      -4.9      0.435      1.333
REMARK  4 active torsions:
REMARK  status: ('A' for Active; 'I' for Inactive)
REMARK    1  A    between atoms: C1_1  and  C7_7 
REMARK    2  A    between atoms: C2_2  and  C9_9 
REMARK    3  A    between atoms: C4_4  and  C9_9 
REMARK    4  A    between atoms: C9_9  and  O10_10 
ROOT
HETATM    1  C1  UNL     1     -33.525   6.051   4.328  1.00 20.00    -0.094 C 
HETATM    2  C2  UNL     1     -32.700   6.649   3.693  1.00 20.00    -0.070 C 
ENDROOT
BRANCH   2   3
HETATM    3  C9  UNL     1     -31.688   7.384   2.924  1.00 20.00     0.219 C 
BRANCH   3   4
HETATM    4  C4  UNL     1     -32.352   8.400   2.045  1.00 20.00     0.007 C 
HETATM    5  C3  UNL     1     -31.858   8.808   0.871  1.00 20.00     0.010 C 
ENDBRANCH   3   4
BRANCH   3   6
HETATM    6  O10 UNL     1     -30.809   8.073   3.808  1.00 20.00    -0.380 OA
HETATM    7  H22 UNL     1     -30.007   8.275   3.299  1.00 20.00     0.211 HD
ENDBRANCH   3   6
ENDBRANCH   2   3
BRANCH   1   8
HETATM    8  C7  UNL     1     -34.516   5.332   5.088  1.00 20.00     0.020 A 
HETATM    9  C5  UNL     1     -35.781   4.925   4.368  1.00 20.00     0.024 A 
HETATM   10  C6  UNL     1     -34.757   3.887   4.719  1.00 20.00     0.024 A 
HETATM   11  C8  UNL     1     -34.620   5.719   6.536  1.00 20.00     0.029 C 
ENDBRANCH   1   8
TORSDOF 4
ENDMDL
MODEL 3
REMARK VINA RESULT:      -4.5      2.008      5.082
REMARK  4 active torsions:
REMARK  status: ('A' for Active; 'I' for Inactive)
REMARK    1  A    between atoms: C1_1  and  C7_7 
REMARK    2  A    between atoms: C2_2  and  C9_9 
REMARK    3  A    between atoms: C4_4  and  C9_9 
REMARK    4  A    between atoms: C9_9  and  O10_10 
ROOT
HETATM    1  C1  UNL     1     -33.073   6.805   3.265  1.00 20.00    -0.094 C 
HETATM    2  C2  UNL     1     -33.908   6.000   3.574  1.00 20.00    -0.070 C 
ENDROOT
BRANCH   2   3
HETATM    3  C9  UNL     1     -34.934   5.021   3.955  1.00 20.00     0.219 C 
BRANCH   3   4
HETATM    4  C4  UNL     1     -34.835   4.721   5.420  1.00 20.00     0.007 C 
HETATM    5  C3  UNL     1     -34.472   5.620   6.341  1.00 20.00     0.010 C 
ENDBRANCH   3   4
BRANCH   3   6
HETATM    6  O10 UNL     1     -36.232   5.551   3.699  1.00 20.00    -0.380 OA
HETATM    7  H22 UNL     1     -36.137   6.165   2.954  1.00 20.00     0.211 HD
ENDBRANCH   3   6
ENDBRANCH   2   3
BRANCH   1   8
HETATM    8  C7  UNL     1     -32.069   7.771   2.894  1.00 20.00     0.020 A 
HETATM    9  C5  UNL     1     -31.797   7.955   1.418  1.00 20.00     0.024 A 
HETATM   10  C6  UNL     1     -32.539   9.016   2.176  1.00 20.00     0.024 A 
HETATM   11  C8  UNL     1     -30.915   7.897   3.848  1.00 20.00     0.029 C 
ENDBRANCH   1   8
TORSDOF 4
ENDMDL
MODEL 4
REMARK VINA RESULT:      -4.5     10.773     11.903
REMARK  4 active torsions:
REMARK  status: ('A' for Active; 'I' for Inactive)
REMARK    1  A    between atoms: C1_1  and  C7_7 
REMARK    2  A    between atoms: C2_2  and  C9_9 
REMARK    3  A    between atoms: C4_4  and  C9_9 
REMARK    4  A    between atoms: C9_9  and  O10_10 
ROOT
HETATM    1  C1  UNL     1     -34.627  15.782  -2.512  1.00 20.00    -0.094 C 
HETATM    2  C2  UNL     1     -34.491  14.758  -3.123  1.00 20.00    -0.070 C 
ENDROOT
BRANCH   2   3
HETATM    3  C9  UNL     1     -34.330  13.501  -3.866  1.00 20.00     0.219 C 
BRANCH   3   4
HETATM    4  C4  UNL     1     -34.865  13.658  -5.257  1.00 20.00     0.007 C 
HETATM    5  C3  UNL     1     -34.525  14.658  -6.078  1.00 20.00     0.010 C 
ENDBRANCH   3   4
BRANCH   3   6
HETATM    6  O10 UNL     1     -32.949  13.164  -3.960  1.00 20.00    -0.380 OA
HETATM    7  H22 UNL     1     -32.873  12.234  -3.694  1.00 20.00     0.211 HD
ENDBRANCH   3   6
ENDBRANCH   2   3
BRANCH   1   8
HETATM    8  C7  UNL     1     -34.790  17.012  -1.780  1.00 20.00     0.020 A 
HETATM    9  C5  UNL     1     -34.719  16.935  -0.271  1.00 20.00     0.024 A 
HETATM   10  C6  UNL     1     -33.582  17.541  -1.040  1.00 20.00     0.024 A 
HETATM   11  C8  UNL     1     -35.734  18.006  -2.394  1.00 20.00     0.029 C 
ENDBRANCH   1   8
TORSDOF 4
ENDMDL
MODEL 5
REMARK VINA RESULT:      -4.4     11.232     12.350
REMARK  4 active torsions:
REMARK  status: ('A' for Active; 'I' for Inactive)
REMARK    1  A    between atoms: C1_1  and  C7_7 
REMARK    2  A    between atoms: C2_2  and  C9_9 
REMARK    3  A    between atoms: C4_4  and  C9_9 
REMARK    4  A    between atoms: C9_9  and  O10_10 
ROOT
HETATM    1  C1  UNL     1     -33.714  16.836  -1.807  1.00 20.00    -0.094 C 
HETATM    2  C2  UNL     1     -33.497  16.089  -2.721  1.00 20.00    -0.070 C 
ENDROOT
BRANCH   2   3
HETATM    3  C9  UNL     1     -33.239  15.173  -3.840  1.00 20.00     0.219 C 
BRANCH   3   4
HETATM    4  C4  UNL     1     -34.535  14.662  -4.391  1.00 20.00     0.007 C 
HETATM    5  C3  UNL     1     -34.973  13.409  -4.224  1.00 20.00     0.010 C 
ENDBRANCH   3   4
BRANCH   3   6
HETATM    6  O10 UNL     1     -32.557  15.861  -4.885  1.00 20.00    -0.380 OA
HETATM    7  H22 UNL     1     -31.865  15.260  -5.205  1.00 20.00     0.211 HD
ENDBRANCH   3   6
ENDBRANCH   2   3
BRANCH   1   8
HETATM    8  C7  UNL     1     -33.974  17.733  -0.709  1.00 20.00     0.020 A 
HETATM    9  C5  UNL     1     -32.811  18.549  -0.191  1.00 20.00     0.024 A 
HETATM   10  C6  UNL     1     -33.890  19.216  -0.993  1.00 20.00     0.024 A 
HETATM   11  C8  UNL     1     -35.001  17.259   0.279  1.00 20.00     0.029 C 
ENDBRANCH   1   8
TORSDOF 4
ENDMDL
MODEL 6
REMARK VINA RESULT:      -4.4     10.953     12.033
REMARK  4 active torsions:
REMARK  status: ('A' for Active; 'I' for Inactive)
REMARK    1  A    between atoms: C1_1  and  C7_7 
REMARK    2  A    between atoms: C2_2  and  C9_9 
REMARK    3  A    between atoms: C4_4  and  C9_9 
REMARK    4  A    between atoms: C9_9  and  O10_10 
ROOT
HETATM    1  C1  UNL     1     -34.341  15.656  -2.611  1.00 20.00    -0.094 C 
HETATM    2  C2  UNL     1     -34.531  16.254  -1.587  1.00 20.00    -0.070 C 
ENDROOT
BRANCH   2   3
HETATM    3  C9  UNL     1     -34.759  16.979  -0.330  1.00 20.00     0.219 C 
BRANCH   3   4
HETATM    4  C4  UNL     1     -33.704  18.026  -0.146  1.00 20.00     0.007 C 
HETATM    5  C3  UNL     1     -33.270  18.828  -1.125  1.00 20.00     0.010 C 
ENDBRANCH   3   4
BRANCH   3   6
HETATM    6  O10 UNL     1     -36.026  17.629  -0.366  1.00 20.00    -0.380 OA
HETATM    7  H22 UNL     1     -35.987  18.269  -1.095  1.00 20.00     0.211 HD
ENDBRANCH   3   6
ENDBRANCH   2   3
BRANCH   1   8
HETATM    8  C7  UNL     1     -34.113  14.940  -3.841  1.00 20.00     0.020 A 
HETATM    9  C5  UNL     1     -33.353  13.637  -3.753  1.00 20.00     0.024 A 
HETATM   10  C6  UNL     1     -34.830  13.621  -4.015  1.00 20.00     0.024 A 
HETATM   11  C8  UNL     1     -33.907  15.800  -5.056  1.00 20.00     0.029 C 
ENDBRANCH   1   8
TORSDOF 4
ENDMDL
MODEL 7
REMARK VINA RESULT:      -4.1     11.108     12.045
REMARK  4 active torsions:
REMARK  status: ('A' for Active; 'I' for Inactive)
REMARK    1  A    between atoms: C1_1  and  C7_7 
REMARK    2  A    between atoms: C2_2  and  C9_9 
REMARK    3  A    between atoms: C4_4  and  C9_9 
REMARK    4  A    between atoms: C9_9  and  O10_10 
ROOT
HETATM    1  C1  UNL     1     -34.877  16.821  -1.398  1.00 20.00    -0.094 C 
HETATM    2  C2  UNL     1     -35.213  16.109  -2.305  1.00 20.00    -0.070 C 
ENDROOT
BRANCH   2   3
HETATM    3  C9  UNL     1     -35.631  15.241  -3.413  1.00 20.00     0.219 C 
BRANCH   3   4
HETATM    4  C4  UNL     1     -34.684  14.088  -3.545  1.00 20.00     0.007 C 
HETATM    5  C3  UNL     1     -33.364  14.223  -3.712  1.00 20.00     0.010 C 
ENDBRANCH   3   4
BRANCH   3   6
HETATM    6  O10 UNL     1     -36.931  14.717  -3.158  1.00 20.00    -0.380 OA
HETATM    7  H22 UNL     1     -37.247  15.146  -2.346  1.00 20.00     0.211 HD
ENDBRANCH   3   6
ENDBRANCH   2   3
BRANCH   1   8
HETATM    8  C7  UNL     1     -34.472  17.674  -0.310  1.00 20.00     0.020 A 
HETATM    9  C5  UNL     1     -35.509  18.620   0.251  1.00 20.00     0.024 A 
HETATM   10  C6  UNL     1     -35.095  17.414   1.042  1.00 20.00     0.024 A 
HETATM   11  C8  UNL     1     -33.043  18.136  -0.353  1.00 20.00     0.029 C 
ENDBRANCH   1   8
TORSDOF 4
ENDMDL
MODEL 8
REMARK VINA RESULT:      -4.0      1.945      5.308
REMARK  4 active torsions:
REMARK  status: ('A' for Active; 'I' for Inactive)
REMARK    1  A    between atoms: C1_1  and  C7_7 
REMARK    2  A    between atoms: C2_2  and  C9_9 
REMARK    3  A    between atoms: C4_4  and  C9_9 
REMARK    4  A    between atoms: C9_9  and  O10_10 
ROOT
HETATM    1  C1  UNL     1     -32.787   7.817   2.430  1.00 20.00    -0.094 C 
HETATM    2  C2  UNL     1     -33.115   6.902   3.134  1.00 20.00    -0.070 C 
ENDROOT
BRANCH   2   3
HETATM    3  C9  UNL     1     -33.524   5.784   3.994  1.00 20.00     0.219 C 
BRANCH   3   4
HETATM    4  C4  UNL     1     -33.918   6.296   5.346  1.00 20.00     0.007 C 
HETATM    5  C3  UNL     1     -34.496   5.545   6.289  1.00 20.00     0.010 C 
ENDBRANCH   3   4
BRANCH   3   6
HETATM    6  O10 UNL     1     -34.651   5.120   3.428  1.00 20.00    -0.380 OA
HETATM    7  H22 UNL     1     -34.836   4.356   3.997  1.00 20.00     0.211 HD
ENDBRANCH   3   6
ENDBRANCH   2   3
BRANCH   1   8
HETATM    8  C7  UNL     1     -32.392   8.915   1.584  1.00 20.00     0.020 A 
HETATM    9  C5  UNL     1     -31.189   8.706   0.693  1.00 20.00     0.024 A 
HETATM   10  C6  UNL     1     -32.564   8.737   0.093  1.00 20.00     0.024 A 
HETATM   11  C8  UNL     1     -32.615  10.284   2.163  1.00 20.00     0.029 C 
ENDBRANCH   1   8
TORSDOF 4
ENDMDL
MODEL 9
REMARK VINA RESULT:      -3.9      9.850     11.538
REMARK  4 active torsions:
REMARK  status: ('A' for Active; 'I' for Inactive)
REMARK    1  A    between atoms: C1_1  and  C7_7 
REMARK    2  A    between atoms: C2_2  and  C9_9 
REMARK    3  A    between atoms: C4_4  and  C9_9 
REMARK    4  A    between atoms: C9_9  and  O10_10 
ROOT
HETATM    1  C1  UNL     1     -41.872   2.655  -2.963  1.00 20.00    -0.094 C 
HETATM    2  C2  UNL     1     -41.468   3.509  -2.224  1.00 20.00    -0.070 C 
ENDROOT
BRANCH   2   3
HETATM    3  C9  UNL     1     -40.968   4.550  -1.316  1.00 20.00     0.219 C 
BRANCH   3   4
HETATM    4  C4  UNL     1     -41.539   5.881  -1.701  1.00 20.00     0.007 C 
HETATM    5  C3  UNL     1     -41.196   7.036  -1.120  1.00 20.00     0.010 C 
ENDBRANCH   3   4
BRANCH   3   6
HETATM    6  O10 UNL     1     -41.372   4.266   0.020  1.00 20.00    -0.380 OA
HETATM    7  H22 UNL     1     -40.645   4.556   0.595  1.00 20.00     0.211 HD
ENDBRANCH   3   6
ENDBRANCH   2   3
BRANCH   1   8
HETATM    8  C7  UNL     1     -42.358   1.629  -3.852  1.00 20.00     0.020 A 
HETATM    9  C5  UNL     1     -41.485   0.411  -4.048  1.00 20.00     0.024 A 
HETATM   10  C6  UNL     1     -42.741   0.304  -3.234  1.00 20.00     0.024 A 
HETATM   11  C8  UNL     1     -43.159   2.122  -5.024  1.00 20.00     0.029 C 
ENDBRANCH   1   8
TORSDOF 4
ENDMDL
