MODEL 1
REMARK VINA RESULT:      -5.2      0.000      0.000
REMARK  1 active torsions:
REMARK  status: ('A' for Active; 'I' for Inactive)
REMARK    1  A    between atoms: C4_4  and  C5_5 
ROOT
HETATM    1  C1  UNL     1     -34.377  13.551  -3.669  1.00 20.00    -0.021 C 
HETATM    2  C2  UNL     1     -33.152  14.080  -3.788  1.00 20.00    -0.025 C 
HETATM    3  C3  UNL     1     -35.610  15.593  -5.724  1.00 20.00    -0.015 C 
HETATM    4  C4  UNL     1     -36.139  15.061  -4.608  1.00 20.00    -0.009 C 
HETATM    5  C6  UNL     1     -34.154  15.843  -6.030  1.00 20.00     0.028 C 
HETATM    6  C7  UNL     1     -33.215  16.348  -4.919  1.00 20.00     0.012 C 
HETATM    7  C8  UNL     1     -34.507  15.732  -2.824  1.00 20.00     0.022 C 
HETATM    8  C9  UNL     1     -35.399  14.616  -3.374  1.00 20.00     0.045 C 
HETATM    9  C10 UNL     1     -33.194  15.568  -3.597  1.00 20.00     0.009 C 
ENDROOT
BRANCH   4  10
HETATM   10  C5  UNL     1     -37.602  14.907  -4.606  1.00 20.00     0.152 C 
HETATM   11  C11 UNL     1     -38.385  15.617  -5.678  1.00 20.00     0.096 C 
HETATM   12  O12 UNL     1     -38.154  14.223  -3.746  1.00 20.00    -0.293 OA
ENDBRANCH   4  10
TORSDOF 1
ENDMDL
MODEL 2
REMARK VINA RESULT:      -5.1      2.159      3.699
REMARK  1 active torsions:
REMARK  status: ('A' for Active; 'I' for Inactive)
REMARK    1  A    between atoms: C4_4  and  C5_5 
ROOT
HETATM    1  C1  UNL     1     -33.443  13.951  -3.649  1.00 20.00    -0.021 C 
HETATM    2  C2  UNL     1     -34.093  13.373  -4.668  1.00 20.00    -0.025 C 
HETATM    3  C3  UNL     1     -35.908  15.774  -2.931  1.00 20.00    -0.015 C 
HETATM    4  C4  UNL     1     -34.590  16.039  -2.877  1.00 20.00    -0.009 C 
HETATM    5  C6  UNL     1     -36.622  14.809  -3.843  1.00 20.00     0.028 C 
HETATM    6  C7  UNL     1     -36.174  14.669  -5.310  1.00 20.00     0.012 C 
HETATM    7  C8  UNL     1     -33.829  15.632  -5.233  1.00 20.00     0.022 C 
HETATM    8  C9  UNL     1     -33.510  15.452  -3.747  1.00 20.00     0.045 C 
HETATM    9  C10 UNL     1     -34.686  14.409  -5.578  1.00 20.00     0.009 C 
ENDROOT
BRANCH   4  10
HETATM   10  C5  UNL     1     -34.175  17.011  -1.856  1.00 20.00     0.152 C 
HETATM   11  C11 UNL     1     -34.665  16.803  -0.447  1.00 20.00     0.096 C 
HETATM   12  O12 UNL     1     -33.457  17.963  -2.157  1.00 20.00    -0.293 OA
ENDBRANCH   4  10
TORSDOF 1
ENDMDL
MODEL 3
REMARK VINA RESULT:      -5.1      2.131      3.896
REMARK  1 active torsions:
REMARK  status: ('A' for Active; 'I' for Inactive)
REMARK    1  A    between atoms: C4_4  and  C5_5 
ROOT
HETATM    1  C1  UNL     1     -33.983  16.274  -5.941  1.00 20.00    -0.021 C 
HETATM    2  C2  UNL     1     -34.263  15.132  -6.583  1.00 20.00    -0.025 C 
HETATM    3  C3  UNL     1     -33.731  14.813  -3.163  1.00 20.00    -0.015 C 
HETATM    4  C4  UNL     1     -34.219  16.031  -3.460  1.00 20.00    -0.009 C 
HETATM    5  C6  UNL     1     -33.693  13.591  -4.046  1.00 20.00     0.028 C 
HETATM    6  C7  UNL     1     -34.884  13.277  -4.971  1.00 20.00     0.012 C 
HETATM    7  C8  UNL     1     -36.043  15.530  -5.110  1.00 20.00     0.022 C 
HETATM    8  C9  UNL     1     -34.879  16.456  -4.746  1.00 20.00     0.045 C 
HETATM    9  C10 UNL     1     -35.378  14.396  -5.898  1.00 20.00     0.009 C 
ENDROOT
BRANCH   4  10
HETATM   10  C5  UNL     1     -34.090  17.045  -2.404  1.00 20.00     0.152 C 
HETATM   11  C11 UNL     1     -34.523  16.670  -1.012  1.00 20.00     0.096 C 
HETATM   12  O12 UNL     1     -33.647  18.163  -2.665  1.00 20.00    -0.293 OA
ENDBRANCH   4  10
TORSDOF 1
ENDMDL
MODEL 4
REMARK VINA RESULT:      -5.0      1.106      1.981
REMARK  1 active torsions:
REMARK  status: ('A' for Active; 'I' for Inactive)
REMARK    1  A    between atoms: C4_4  and  C5_5 
ROOT
HETATM    1  C1  UNL     1     -35.283  16.370  -2.079  1.00 20.00    -0.021 C 
HETATM    2  C2  UNL     1     -33.944  16.326  -2.057  1.00 20.00    -0.025 C 
HETATM    3  C3  UNL     1     -35.469  13.896  -4.018  1.00 20.00    -0.015 C 
HETATM    4  C4  UNL     1     -36.228  15.005  -3.953  1.00 20.00    -0.009 C 
HETATM    5  C6  UNL     1     -34.023  13.739  -3.618  1.00 20.00     0.028 C 
HETATM    6  C7  UNL     1     -33.021  14.870  -3.915  1.00 20.00     0.012 C 
HETATM    7  C8  UNL     1     -34.562  16.857  -4.254  1.00 20.00     0.022 C 
HETATM    8  C9  UNL     1     -35.800  16.373  -3.493  1.00 20.00     0.045 C 
HETATM    9  C10 UNL     1     -33.389  16.286  -3.450  1.00 20.00     0.009 C 
ENDROOT
BRANCH   4  10
HETATM   10  C5  UNL     1     -37.625  14.848  -4.385  1.00 20.00     0.152 C 
HETATM   11  C11 UNL     1     -38.058  15.565  -5.637  1.00 20.00     0.096 C 
HETATM   12  O12 UNL     1     -38.405  14.157  -3.732  1.00 20.00    -0.293 OA
ENDBRANCH   4  10
TORSDOF 1
ENDMDL
MODEL 5
REMARK VINA RESULT:      -4.9      2.351      3.394
REMARK  1 active torsions:
REMARK  status: ('A' for Active; 'I' for Inactive)
REMARK    1  A    between atoms: C4_4  and  C5_5 
ROOT
HETATM    1  C1  UNL     1     -34.412  16.387  -1.506  1.00 20.00    -0.021 C 
HETATM    2  C2  UNL     1     -34.725  17.681  -1.650  1.00 20.00    -0.025 C 
HETATM    3  C3  UNL     1     -33.485  16.137  -4.506  1.00 20.00    -0.015 C 
HETATM    4  C4  UNL     1     -34.118  15.249  -3.718  1.00 20.00    -0.009 C 
HETATM    5  C6  UNL     1     -33.531  17.642  -4.426  1.00 20.00     0.028 C 
HETATM    6  C7  UNL     1     -34.856  18.351  -4.091  1.00 20.00     0.012 C 
HETATM    7  C8  UNL     1     -36.194  16.478  -3.024  1.00 20.00     0.022 C 
HETATM    8  C9  UNL     1     -35.058  15.552  -2.580  1.00 20.00     0.045 C 
HETATM    9  C10 UNL     1     -35.615  17.885  -2.841  1.00 20.00     0.009 C 
ENDROOT
BRANCH   4  10
HETATM   10  C5  UNL     1     -33.858  13.833  -4.014  1.00 20.00     0.152 C 
HETATM   11  C11 UNL     1     -34.824  13.115  -4.919  1.00 20.00     0.096 C 
HETATM   12  O12 UNL     1     -32.883  13.264  -3.526  1.00 20.00    -0.293 OA
ENDBRANCH   4  10
TORSDOF 1
ENDMDL
MODEL 6
REMARK VINA RESULT:      -4.8      2.036      3.322
REMARK  1 active torsions:
REMARK  status: ('A' for Active; 'I' for Inactive)
REMARK    1  A    between atoms: C4_4  and  C5_5 
ROOT
HETATM    1  C1  UNL     1     -35.773  17.366  -4.773  1.00 20.00    -0.021 C 
HETATM    2  C2  UNL     1     -35.363  18.243  -3.848  1.00 20.00    -0.025 C 
HETATM    3  C3  UNL     1     -34.774  14.905  -3.080  1.00 20.00    -0.015 C 
HETATM    4  C4  UNL     1     -34.776  15.097  -4.411  1.00 20.00    -0.009 C 
HETATM    5  C6  UNL     1     -34.700  15.949  -1.994  1.00 20.00     0.028 C 
HETATM    6  C7  UNL     1     -33.786  17.176  -2.174  1.00 20.00     0.012 C 
HETATM    7  C8  UNL     1     -33.438  17.203  -4.687  1.00 20.00     0.022 C 
HETATM    8  C9  UNL     1     -34.668  16.411  -5.140  1.00 20.00     0.045 C 
HETATM    9  C10 UNL     1     -33.933  17.988  -3.468  1.00 20.00     0.009 C 
ENDROOT
BRANCH   4  10
HETATM   10  C5  UNL     1     -34.892  13.883  -5.231  1.00 20.00     0.152 C 
HETATM   11  C11 UNL     1     -35.131  14.052  -6.708  1.00 20.00     0.096 C 
HETATM   12  O12 UNL     1     -34.800  12.771  -4.713  1.00 20.00    -0.293 OA
ENDBRANCH   4  10
TORSDOF 1
ENDMDL
MODEL 7
REMARK VINA RESULT:      -4.8      2.351      3.599
REMARK  1 active torsions:
REMARK  status: ('A' for Active; 'I' for Inactive)
REMARK    1  A    between atoms: C4_4  and  C5_5 
ROOT
HETATM    1  C1  UNL     1     -35.947  14.834  -3.548  1.00 20.00    -0.021 C 
HETATM    2  C2  UNL     1     -35.826  14.345  -4.789  1.00 20.00    -0.025 C 
HETATM    3  C3  UNL     1     -34.183  17.355  -4.223  1.00 20.00    -0.015 C 
HETATM    4  C4  UNL     1     -34.267  16.634  -3.090  1.00 20.00    -0.009 C 
HETATM    5  C6  UNL     1     -34.432  16.890  -5.636  1.00 20.00     0.028 C 
HETATM    6  C7  UNL     1     -33.965  15.489  -6.073  1.00 20.00     0.012 C 
HETATM    7  C8  UNL     1     -33.682  14.313  -3.843  1.00 20.00     0.022 C 
HETATM    8  C9  UNL     1     -34.599  15.170  -2.966  1.00 20.00     0.045 C 
HETATM    9  C10 UNL     1     -34.385  14.296  -5.205  1.00 20.00     0.009 C 
ENDROOT
BRANCH   4  10
HETATM   10  C5  UNL     1     -33.999  17.369  -1.845  1.00 20.00     0.152 C 
HETATM   11  C11 UNL     1     -34.577  16.821  -0.567  1.00 20.00     0.096 C 
HETATM   12  O12 UNL     1     -33.328  18.400  -1.863  1.00 20.00    -0.293 OA
ENDBRANCH   4  10
TORSDOF 1
ENDMDL
MODEL 8
REMARK VINA RESULT:      -4.8      1.587      2.470
REMARK  1 active torsions:
REMARK  status: ('A' for Active; 'I' for Inactive)
REMARK    1  A    between atoms: C4_4  and  C5_5 
ROOT
HETATM    1  C1  UNL     1     -35.723  15.956  -3.163  1.00 20.00    -0.021 C 
HETATM    2  C2  UNL     1     -34.654  15.840  -2.366  1.00 20.00    -0.025 C 
HETATM    3  C3  UNL     1     -34.626  13.799  -5.179  1.00 20.00    -0.015 C 
HETATM    4  C4  UNL     1     -35.326  14.925  -5.410  1.00 20.00    -0.009 C 
HETATM    5  C6  UNL     1     -33.687  13.513  -4.034  1.00 20.00     0.028 C 
HETATM    6  C7  UNL     1     -32.752  14.622  -3.516  1.00 20.00     0.012 C 
HETATM    7  C8  UNL     1     -33.884  16.713  -4.400  1.00 20.00     0.022 C 
HETATM    8  C9  UNL     1     -35.310  16.189  -4.592  1.00 20.00     0.045 C 
HETATM    9  C10 UNL     1     -33.384  15.972  -3.155  1.00 20.00     0.009 C 
ENDROOT
BRANCH   4  10
HETATM   10  C5  UNL     1     -36.193  14.905  -6.597  1.00 20.00     0.152 C 
HETATM   11  C11 UNL     1     -35.569  14.539  -7.918  1.00 20.00     0.096 C 
HETATM   12  O12 UNL     1     -37.387  15.186  -6.501  1.00 20.00    -0.293 OA
ENDBRANCH   4  10
TORSDOF 1
ENDMDL
MODEL 9
REMARK VINA RESULT:      -4.8      1.871      3.543
REMARK  1 active torsions:
REMARK  status: ('A' for Active; 'I' for Inactive)
REMARK    1  A    between atoms: C4_4  and  C5_5 
ROOT
HETATM    1  C1  UNL     1     -35.397  16.069  -5.396  1.00 20.00    -0.021 C 
HETATM    2  C2  UNL     1     -34.941  14.955  -5.984  1.00 20.00    -0.025 C 
HETATM    3  C3  UNL     1     -33.745  15.524  -2.771  1.00 20.00    -0.015 C 
HETATM    4  C4  UNL     1     -34.968  16.062  -2.929  1.00 20.00    -0.009 C 
HETATM    5  C6  UNL     1     -33.049  14.530  -3.666  1.00 20.00     0.028 C 
HETATM    6  C7  UNL     1     -33.854  13.389  -4.314  1.00 20.00     0.012 C 
HETATM    7  C8  UNL     1     -36.228  14.268  -4.150  1.00 20.00     0.022 C 
HETATM    8  C9  UNL     1     -35.954  15.770  -4.030  1.00 20.00     0.045 C 
HETATM    9  C10 UNL     1     -35.125  13.766  -5.087  1.00 20.00     0.009 C 
ENDROOT
BRANCH   4  10
HETATM   10  C5  UNL     1     -35.374  17.037  -1.906  1.00 20.00     0.152 C 
HETATM   11  C11 UNL     1     -34.716  16.952  -0.554  1.00 20.00     0.096 C 
HETATM   12  O12 UNL     1     -36.228  17.885  -2.159  1.00 20.00    -0.293 OA
ENDBRANCH   4  10
TORSDOF 1
ENDMDL
