MODEL 1
REMARK VINA RESULT:      -4.5      0.000      0.000
REMARK  3 active torsions:
REMARK  status: ('A' for Active; 'I' for Inactive)
REMARK    1  A    between atoms: C3_3  and  C7_7 
REMARK    2  A    between atoms: C4_4  and  O11_11 
REMARK    3  A    between atoms: C7_7  and  C8_8 
ROOT
HETATM    1  C1  UNL     1     -33.280  16.144  -4.715  1.00 20.00     0.180 C 
HETATM    2  C2  UNL     1     -33.419  13.840  -3.769  1.00 20.00     0.180 C 
HETATM    3  C3  UNL     1     -33.267  15.324  -3.422  1.00 20.00     0.034 C 
HETATM    4  C4  UNL     1     -34.493  14.427  -5.783  1.00 20.00     0.412 C 
HETATM    5  O9  UNL     1     -34.430  15.828  -5.501  1.00 20.00    -0.339 OA
HETATM    6  O10 UNL     1     -34.562  13.630  -4.598  1.00 20.00    -0.339 OA
ENDROOT
BRANCH   3   7
HETATM    7  C7  UNL     1     -34.395  15.775  -2.489  1.00 20.00     0.008 C 
BRANCH   7   8
HETATM    8  C8  UNL     1     -33.956  16.939  -1.606  1.00 20.00    -0.004 C 
HETATM    9  C5  UNL     1     -34.719  16.957  -0.292  1.00 20.00     0.005 C 
ENDBRANCH   7   8
ENDBRANCH   3   7
BRANCH   4  10
HETATM   10  O11 UNL     1     -35.625  14.156  -6.609  1.00 20.00    -0.344 OA
HETATM   11  C6  UNL     1     -35.448  14.681  -7.915  1.00 20.00     0.207 C 
ENDBRANCH   4  10
TORSDOF 3
ENDMDL
MODEL 2
REMARK VINA RESULT:      -4.2      2.405      2.641
REMARK  3 active torsions:
REMARK  status: ('A' for Active; 'I' for Inactive)
REMARK    1  A    between atoms: C3_3  and  C7_7 
REMARK    2  A    between atoms: C4_4  and  O11_11 
REMARK    3  A    between atoms: C7_7  and  C8_8 
ROOT
HETATM    1  C1  UNL     1     -35.360  16.201  -4.619  1.00 20.00     0.180 C 
HETATM    2  C2  UNL     1     -34.781  13.783  -4.808  1.00 20.00     0.180 C 
HETATM    3  C3  UNL     1     -34.255  15.164  -4.408  1.00 20.00     0.034 C 
HETATM    4  C4  UNL     1     -36.985  14.508  -4.388  1.00 20.00     0.412 C 
HETATM    5  O9  UNL     1     -36.560  15.803  -3.954  1.00 20.00    -0.339 OA
HETATM    6  O10 UNL     1     -36.008  13.495  -4.135  1.00 20.00    -0.339 OA
ENDROOT
BRANCH   3   7
HETATM    7  C7  UNL     1     -33.796  15.159  -2.946  1.00 20.00     0.008 C 
BRANCH   7   8
HETATM    8  C8  UNL     1     -33.817  16.564  -2.351  1.00 20.00    -0.004 C 
HETATM    9  C5  UNL     1     -34.554  16.594  -1.022  1.00 20.00     0.005 C 
ENDBRANCH   7   8
ENDBRANCH   3   7
BRANCH   4  10
HETATM   10  O11 UNL     1     -38.210  14.164  -3.741  1.00 20.00    -0.344 OA
HETATM   11  C6  UNL     1     -38.984  15.318  -3.456  1.00 20.00     0.207 C 
ENDBRANCH   4  10
TORSDOF 3
ENDMDL
MODEL 3
REMARK VINA RESULT:      -4.2      1.063      1.228
REMARK  3 active torsions:
REMARK  status: ('A' for Active; 'I' for Inactive)
REMARK    1  A    between atoms: C3_3  and  C7_7 
REMARK    2  A    between atoms: C4_4  and  O11_11 
REMARK    3  A    between atoms: C7_7  and  C8_8 
ROOT
HETATM    1  C1  UNL     1     -32.986  15.107  -3.783  1.00 20.00     0.180 C 
HETATM    2  C2  UNL     1     -35.148  13.904  -4.103  1.00 20.00     0.180 C 
HETATM    3  C3  UNL     1     -34.267  14.638  -3.088  1.00 20.00     0.034 C 
HETATM    4  C4  UNL     1     -34.115  15.098  -5.853  1.00 20.00     0.412 C 
HETATM    5  O9  UNL     1     -33.296  15.856  -4.959  1.00 20.00    -0.339 OA
HETATM    6  O10 UNL     1     -35.358  14.708  -5.264  1.00 20.00    -0.339 OA
ENDROOT
BRANCH   3   7
HETATM    7  C7  UNL     1     -35.020  15.830  -2.489  1.00 20.00     0.008 C 
BRANCH   7   8
HETATM    8  C8  UNL     1     -34.111  16.671  -1.596  1.00 20.00    -0.004 C 
HETATM    9  C5  UNL     1     -34.789  17.014  -0.280  1.00 20.00     0.005 C 
ENDBRANCH   7   8
ENDBRANCH   3   7
BRANCH   4  10
HETATM   10  O11 UNL     1     -34.363  15.858  -7.036  1.00 20.00    -0.344 OA
HETATM   11  C6  UNL     1     -35.245  15.174  -7.912  1.00 20.00     0.207 C 
ENDBRANCH   4  10
TORSDOF 3
ENDMDL
MODEL 4
REMARK VINA RESULT:      -4.2      1.175      1.703
REMARK  3 active torsions:
REMARK  status: ('A' for Active; 'I' for Inactive)
REMARK    1  A    between atoms: C3_3  and  C7_7 
REMARK    2  A    between atoms: C4_4  and  O11_11 
REMARK    3  A    between atoms: C7_7  and  C8_8 
ROOT
HETATM    1  C1  UNL     1     -34.052  13.970  -3.534  1.00 20.00     0.180 C 
HETATM    2  C2  UNL     1     -36.325  14.998  -3.556  1.00 20.00     0.180 C 
HETATM    3  C3  UNL     1     -34.941  15.043  -2.900  1.00 20.00     0.034 C 
HETATM    4  C4  UNL     1     -35.372  14.038  -5.486  1.00 20.00     0.412 C 
HETATM    5  O9  UNL     1     -34.044  14.095  -4.956  1.00 20.00    -0.339 OA
HETATM    6  O10 UNL     1     -36.213  15.077  -4.977  1.00 20.00    -0.339 OA
ENDROOT
BRANCH   3   7
HETATM    7  C7  UNL     1     -34.313  16.430  -3.071  1.00 20.00     0.008 C 
BRANCH   7   8
HETATM    8  C8  UNL     1     -33.725  16.940  -1.758  1.00 20.00    -0.004 C 
HETATM    9  C5  UNL     1     -34.698  16.755  -0.605  1.00 20.00     0.005 C 
ENDBRANCH   7   8
ENDBRANCH   3   7
BRANCH   4  10
HETATM   10  O11 UNL     1     -35.322  14.118  -6.911  1.00 20.00    -0.344 OA
HETATM   11  C6  UNL     1     -34.406  15.113  -7.340  1.00 20.00     0.207 C 
ENDBRANCH   4  10
TORSDOF 3
ENDMDL
MODEL 5
REMARK VINA RESULT:      -4.0      1.515      2.239
REMARK  3 active torsions:
REMARK  status: ('A' for Active; 'I' for Inactive)
REMARK    1  A    between atoms: C3_3  and  C7_7 
REMARK    2  A    between atoms: C4_4  and  O11_11 
REMARK    3  A    between atoms: C7_7  and  C8_8 
ROOT
HETATM    1  C1  UNL     1     -35.764  16.712  -3.622  1.00 20.00     0.180 C 
HETATM    2  C2  UNL     1     -33.528  17.378  -4.505  1.00 20.00     0.180 C 
HETATM    3  C3  UNL     1     -34.435  17.387  -3.271  1.00 20.00     0.034 C 
HETATM    4  C4  UNL     1     -34.690  15.504  -5.338  1.00 20.00     0.412 C 
HETATM    5  O9  UNL     1     -35.540  15.422  -4.191  1.00 20.00    -0.339 OA
HETATM    6  O10 UNL     1     -33.407  16.057  -5.034  1.00 20.00    -0.339 OA
ENDROOT
BRANCH   3   7
HETATM    7  C7  UNL     1     -33.758  16.662  -2.104  1.00 20.00     0.008 C 
BRANCH   7   8
HETATM    8  C8  UNL     1     -34.693  16.544  -0.903  1.00 20.00    -0.004 C 
HETATM    9  C5  UNL     1     -34.443  17.653   0.106  1.00 20.00     0.005 C 
ENDBRANCH   7   8
ENDBRANCH   3   7
BRANCH   4  10
HETATM   10  O11 UNL     1     -34.528  14.205  -5.908  1.00 20.00    -0.344 OA
HETATM   11  C6  UNL     1     -34.634  13.192  -4.921  1.00 20.00     0.207 C 
ENDBRANCH   4  10
TORSDOF 3
ENDMDL
MODEL 6
REMARK VINA RESULT:      -4.0      2.370      2.612
REMARK  3 active torsions:
REMARK  status: ('A' for Active; 'I' for Inactive)
REMARK    1  A    between atoms: C3_3  and  C7_7 
REMARK    2  A    between atoms: C4_4  and  O11_11 
REMARK    3  A    between atoms: C7_7  and  C8_8 
ROOT
HETATM    1  C1  UNL     1     -35.553  17.020  -3.675  1.00 20.00     0.180 C 
HETATM    2  C2  UNL     1     -34.208  14.919  -3.621  1.00 20.00     0.180 C 
HETATM    3  C3  UNL     1     -34.315  16.347  -3.077  1.00 20.00     0.034 C 
HETATM    4  C4  UNL     1     -36.533  14.902  -4.013  1.00 20.00     0.412 C 
HETATM    5  O9  UNL     1     -36.714  16.214  -3.471  1.00 20.00    -0.339 OA
HETATM    6  O10 UNL     1     -35.431  14.210  -3.420  1.00 20.00    -0.339 OA
ENDROOT
BRANCH   3   7
HETATM    7  C7  UNL     1     -34.399  16.331  -1.547  1.00 20.00     0.008 C 
BRANCH   7   8
HETATM    8  C8  UNL     1     -33.786  17.592  -0.943  1.00 20.00    -0.004 C 
HETATM    9  C5  UNL     1     -34.338  17.866   0.447  1.00 20.00     0.005 C 
ENDBRANCH   7   8
ENDBRANCH   3   7
BRANCH   4  10
HETATM   10  O11 UNL     1     -37.728  14.142  -3.835  1.00 20.00    -0.344 OA
HETATM   11  C6  UNL     1     -38.872  14.980  -3.799  1.00 20.00     0.207 C 
ENDBRANCH   4  10
TORSDOF 3
ENDMDL
MODEL 7
REMARK VINA RESULT:      -3.9      1.687      4.685
REMARK  3 active torsions:
REMARK  status: ('A' for Active; 'I' for Inactive)
REMARK    1  A    between atoms: C3_3  and  C7_7 
REMARK    2  A    between atoms: C4_4  and  O11_11 
REMARK    3  A    between atoms: C7_7  and  C8_8 
ROOT
HETATM    1  C1  UNL     1     -36.022  14.495  -4.175  1.00 20.00     0.180 C 
HETATM    2  C2  UNL     1     -33.687  13.619  -4.133  1.00 20.00     0.180 C 
HETATM    3  C3  UNL     1     -34.920  13.841  -5.013  1.00 20.00     0.034 C 
HETATM    4  C4  UNL     1     -34.386  15.372  -2.721  1.00 20.00     0.412 C 
HETATM    5  O9  UNL     1     -35.532  15.668  -3.524  1.00 20.00    -0.339 OA
HETATM    6  O10 UNL     1     -33.304  14.832  -3.485  1.00 20.00    -0.339 OA
ENDROOT
BRANCH   3   7
HETATM    7  C7  UNL     1     -34.568  14.721  -6.216  1.00 20.00     0.008 C 
BRANCH   7   8
HETATM    8  C8  UNL     1     -35.423  14.371  -7.432  1.00 20.00    -0.004 C 
HETATM    9  C5  UNL     1     -36.384  15.496  -7.777  1.00 20.00     0.005 C 
ENDBRANCH   7   8
ENDBRANCH   3   7
BRANCH   4  10
HETATM   10  O11 UNL     1     -33.954  16.555  -2.050  1.00 20.00    -0.344 OA
HETATM   11  C6  UNL     1     -34.596  16.698  -0.793  1.00 20.00     0.207 C 
ENDBRANCH   4  10
TORSDOF 3
ENDMDL
MODEL 8
REMARK VINA RESULT:      -3.9      1.992      4.889
REMARK  3 active torsions:
REMARK  status: ('A' for Active; 'I' for Inactive)
REMARK    1  A    between atoms: C3_3  and  C7_7 
REMARK    2  A    between atoms: C4_4  and  O11_11 
REMARK    3  A    between atoms: C7_7  and  C8_8 
ROOT
HETATM    1  C1  UNL     1     -32.827  15.517  -4.174  1.00 20.00     0.180 C 
HETATM    2  C2  UNL     1     -33.640  17.875  -4.174  1.00 20.00     0.180 C 
HETATM    3  C3  UNL     1     -33.355  16.654  -5.053  1.00 20.00     0.034 C 
HETATM    4  C4  UNL     1     -33.918  16.461  -2.309  1.00 20.00     0.412 C 
HETATM    5  O9  UNL     1     -33.711  15.273  -3.079  1.00 20.00    -0.339 OA
HETATM    6  O10 UNL     1     -34.486  17.524  -3.079  1.00 20.00    -0.339 OA
ENDROOT
BRANCH   3   7
HETATM    7  C7  UNL     1     -34.625  16.216  -5.790  1.00 20.00     0.008 C 
BRANCH   7   8
HETATM    8  C8  UNL     1     -34.294  15.361  -7.010  1.00 20.00    -0.004 C 
HETATM    9  C5  UNL     1     -35.444  14.433  -7.366  1.00 20.00     0.005 C 
ENDBRANCH   7   8
ENDBRANCH   3   7
BRANCH   4  10
HETATM   10  O11 UNL     1     -34.766  16.170  -1.198  1.00 20.00    -0.344 OA
HETATM   11  C6  UNL     1     -34.658  17.165  -0.193  1.00 20.00     0.207 C 
ENDBRANCH   4  10
TORSDOF 3
ENDMDL
MODEL 9
REMARK VINA RESULT:      -3.7      3.383      3.597
REMARK  3 active torsions:
REMARK  status: ('A' for Active; 'I' for Inactive)
REMARK    1  A    between atoms: C3_3  and  C7_7 
REMARK    2  A    between atoms: C4_4  and  O11_11 
REMARK    3  A    between atoms: C7_7  and  C8_8 
ROOT
HETATM    1  C1  UNL     1     -36.309  16.829  -3.909  1.00 20.00     0.180 C 
HETATM    2  C2  UNL     1     -36.249  14.387  -4.414  1.00 20.00     0.180 C 
HETATM    3  C3  UNL     1     -35.424  15.580  -3.923  1.00 20.00     0.034 C 
HETATM    4  C4  UNL     1     -38.220  15.465  -3.699  1.00 20.00     0.412 C 
HETATM    5  O9  UNL     1     -37.509  16.589  -3.173  1.00 20.00    -0.339 OA
HETATM    6  O10 UNL     1     -37.452  14.259  -3.656  1.00 20.00    -0.339 OA
ENDROOT
BRANCH   3   7
HETATM    7  C7  UNL     1     -34.864  15.303  -2.524  1.00 20.00     0.008 C 
BRANCH   7   8
HETATM    8  C8  UNL     1     -34.153  16.529  -1.956  1.00 20.00    -0.004 C 
HETATM    9  C5  UNL     1     -34.636  16.851  -0.552  1.00 20.00     0.005 C 
ENDBRANCH   7   8
ENDBRANCH   3   7
BRANCH   4  10
HETATM   10  O11 UNL     1     -39.436  15.284  -2.973  1.00 20.00    -0.344 OA
HETATM   11  C6  UNL     1     -40.566  15.569  -3.782  1.00 20.00     0.207 C 
ENDBRANCH   4  10
TORSDOF 3
ENDMDL
