MODEL 1
REMARK VINA RESULT:      -4.3      0.000      0.000
REMARK  2 active torsions:
REMARK  status: ('A' for Active; 'I' for Inactive)
REMARK    1  A    between atoms: C1_1  and  C4_4 
REMARK    2  A    between atoms: C1_1  and  C6_6 
ROOT
HETATM    1  C1  UNL     1     -34.120   5.934   4.023  1.00 20.00     0.145 C 
HETATM    2  O7  UNL     1     -34.619   5.441   3.019  1.00 20.00    -0.296 OA
ENDROOT
BRANCH   1   3
HETATM    3  C4  UNL     1     -32.814   6.653   3.924  1.00 20.00     0.057 A 
HETATM    4  C2  UNL     1     -31.781   6.125   2.986  1.00 20.00     0.013 A 
HETATM    5  C3  UNL     1     -32.507   7.398   2.667  1.00 20.00     0.013 A 
ENDBRANCH   1   3
BRANCH   1   6
HETATM    6  C6  UNL     1     -34.754   5.886   5.393  1.00 20.00     0.123 C 
HETATM    7  C5  UNL     1     -33.924   6.603   6.441  1.00 20.00     0.030 C 
HETATM    8 BR8  UNL     1     -34.882   3.995   5.842  1.00 20.00    -0.084 Br
ENDBRANCH   1   6
TORSDOF 2
ENDMDL
MODEL 2
REMARK VINA RESULT:      -4.1      1.491      1.942
REMARK  2 active torsions:
REMARK  status: ('A' for Active; 'I' for Inactive)
REMARK    1  A    between atoms: C1_1  and  C4_4 
REMARK    2  A    between atoms: C1_1  and  C6_6 
ROOT
HETATM    1  C1  UNL     1     -33.498   6.159   4.407  1.00 20.00     0.145 C 
HETATM    2  O7  UNL     1     -33.471   6.811   5.444  1.00 20.00    -0.296 OA
ENDROOT
BRANCH   1   3
HETATM    3  C4  UNL     1     -32.429   6.353   3.383  1.00 20.00     0.057 A 
HETATM    4  C2  UNL     1     -32.482   7.570   2.520  1.00 20.00     0.013 A 
HETATM    5  C3  UNL     1     -31.437   7.450   3.589  1.00 20.00     0.013 A 
ENDBRANCH   1   3
BRANCH   1   6
HETATM    6  C6  UNL     1     -34.552   5.126   4.084  1.00 20.00     0.123 C 
HETATM    7  C5  UNL     1     -35.822   5.747   3.533  1.00 20.00     0.030 C 
HETATM    8 BR8  UNL     1     -34.941   4.233   5.771  1.00 20.00    -0.084 Br
ENDBRANCH   1   6
TORSDOF 2
ENDMDL
MODEL 3
REMARK VINA RESULT:      -4.0      2.447      3.835
REMARK  2 active torsions:
REMARK  status: ('A' for Active; 'I' for Inactive)
REMARK    1  A    between atoms: C1_1  and  C4_4 
REMARK    2  A    between atoms: C1_1  and  C6_6 
ROOT
HETATM    1  C1  UNL     1     -34.057   6.154   4.962  1.00 20.00     0.145 C 
HETATM    2  O7  UNL     1     -33.480   6.687   5.901  1.00 20.00    -0.296 OA
ENDROOT
BRANCH   1   3
HETATM    3  C4  UNL     1     -35.053   5.072   5.222  1.00 20.00     0.057 A 
HETATM    4  C2  UNL     1     -34.552   3.724   5.619  1.00 20.00     0.013 A 
HETATM    5  C3  UNL     1     -35.237   4.599   6.626  1.00 20.00     0.013 A 
ENDBRANCH   1   3
BRANCH   1   6
HETATM    6  C6  UNL     1     -33.845   6.533   3.515  1.00 20.00     0.123 C 
HETATM    7  C5  UNL     1     -34.161   5.393   2.565  1.00 20.00     0.030 C 
HETATM    8 BR8  UNL     1     -31.960   7.002   3.369  1.00 20.00    -0.084 Br
ENDBRANCH   1   6
TORSDOF 2
ENDMDL
MODEL 4
REMARK VINA RESULT:      -3.7     11.683     12.797
REMARK  2 active torsions:
REMARK  status: ('A' for Active; 'I' for Inactive)
REMARK    1  A    between atoms: C1_1  and  C4_4 
REMARK    2  A    between atoms: C1_1  and  C6_6 
ROOT
HETATM    1  C1  UNL     1     -34.677  13.797  -4.873  1.00 20.00     0.145 C 
HETATM    2  O7  UNL     1     -34.943  12.732  -4.330  1.00 20.00    -0.296 OA
ENDROOT
BRANCH   1   3
HETATM    3  C4  UNL     1     -35.114  14.041  -6.280  1.00 20.00     0.057 A 
HETATM    4  C2  UNL     1     -35.760  15.345  -6.609  1.00 20.00     0.013 A 
HETATM    5  C3  UNL     1     -34.371  15.050  -7.091  1.00 20.00     0.013 A 
ENDBRANCH   1   3
BRANCH   1   6
HETATM    6  C6  UNL     1     -33.931  14.926  -4.200  1.00 20.00     0.123 C 
HETATM    7  C5  UNL     1     -32.625  14.470  -3.580  1.00 20.00     0.030 C 
HETATM    8 BR8  UNL     1     -35.124  15.580  -2.805  1.00 20.00    -0.084 Br
ENDBRANCH   1   6
TORSDOF 2
ENDMDL
MODEL 5
REMARK VINA RESULT:      -3.7     11.862     12.585
REMARK  2 active torsions:
REMARK  status: ('A' for Active; 'I' for Inactive)
REMARK    1  A    between atoms: C1_1  and  C4_4 
REMARK    2  A    between atoms: C1_1  and  C6_6 
ROOT
HETATM    1  C1  UNL     1     -34.921  13.813  -4.400  1.00 20.00     0.145 C 
HETATM    2  O7  UNL     1     -35.112  12.613  -4.554  1.00 20.00    -0.296 OA
ENDROOT
BRANCH   1   3
HETATM    3  C4  UNL     1     -33.913  14.280  -3.401  1.00 20.00     0.057 A 
HETATM    4  C2  UNL     1     -33.021  15.418  -3.769  1.00 20.00     0.013 A 
HETATM    5  C3  UNL     1     -34.113  15.612  -2.760  1.00 20.00     0.013 A 
ENDBRANCH   1   3
BRANCH   1   6
HETATM    6  C6  UNL     1     -35.637  14.890  -5.181  1.00 20.00     0.123 C 
HETATM    7  C5  UNL     1     -37.130  14.904  -4.915  1.00 20.00     0.030 C 
HETATM    8 BR8  UNL     1     -35.309  14.479  -7.056  1.00 20.00    -0.084 Br
ENDBRANCH   1   6
TORSDOF 2
ENDMDL
MODEL 6
REMARK VINA RESULT:      -3.7     12.562     13.121
REMARK  2 active torsions:
REMARK  status: ('A' for Active; 'I' for Inactive)
REMARK    1  A    between atoms: C1_1  and  C4_4 
REMARK    2  A    between atoms: C1_1  and  C6_6 
ROOT
HETATM    1  C1  UNL     1     -33.625  15.708  -4.335  1.00 20.00     0.145 C 
HETATM    2  O7  UNL     1     -32.842  16.438  -4.929  1.00 20.00    -0.296 OA
ENDROOT
BRANCH   1   3
HETATM    3  C4  UNL     1     -33.620  15.676  -2.841  1.00 20.00     0.057 A 
HETATM    4  C2  UNL     1     -33.779  16.962  -2.102  1.00 20.00     0.013 A 
HETATM    5  C3  UNL     1     -34.895  15.962  -2.121  1.00 20.00     0.013 A 
ENDBRANCH   1   3
BRANCH   1   6
HETATM    6  C6  UNL     1     -34.640  14.822  -5.018  1.00 20.00     0.123 C 
HETATM    7  C5  UNL     1     -34.402  13.350  -4.745  1.00 20.00     0.030 C 
HETATM    8 BR8  UNL     1     -34.439  15.174  -6.924  1.00 20.00    -0.084 Br
ENDBRANCH   1   6
TORSDOF 2
ENDMDL
MODEL 7
REMARK VINA RESULT:      -3.7     11.804     12.599
REMARK  2 active torsions:
REMARK  status: ('A' for Active; 'I' for Inactive)
REMARK    1  A    between atoms: C1_1  and  C4_4 
REMARK    2  A    between atoms: C1_1  and  C6_6 
ROOT
HETATM    1  C1  UNL     1     -33.316  14.835  -3.793  1.00 20.00     0.145 C 
HETATM    2  O7  UNL     1     -32.127  14.751  -3.510  1.00 20.00    -0.296 OA
ENDROOT
BRANCH   1   3
HETATM    3  C4  UNL     1     -34.069  13.611  -4.197  1.00 20.00     0.057 A 
HETATM    4  C2  UNL     1     -35.560  13.647  -4.157  1.00 20.00     0.013 A 
HETATM    5  C3  UNL     1     -34.842  13.641  -5.473  1.00 20.00     0.013 A 
ENDBRANCH   1   3
BRANCH   1   6
HETATM    6  C6  UNL     1     -34.107  16.121  -3.745  1.00 20.00     0.123 C 
HETATM    7  C5  UNL     1     -33.505  17.206  -4.618  1.00 20.00     0.030 C 
HETATM    8 BR8  UNL     1     -34.070  16.687  -1.881  1.00 20.00    -0.084 Br
ENDBRANCH   1   6
TORSDOF 2
ENDMDL
MODEL 8
REMARK VINA RESULT:      -3.6     11.989     13.038
REMARK  2 active torsions:
REMARK  status: ('A' for Active; 'I' for Inactive)
REMARK    1  A    between atoms: C1_1  and  C4_4 
REMARK    2  A    between atoms: C1_1  and  C6_6 
ROOT
HETATM    1  C1  UNL     1     -34.751  13.809  -5.232  1.00 20.00     0.145 C 
HETATM    2  O7  UNL     1     -34.823  12.679  -4.765  1.00 20.00    -0.296 OA
ENDROOT
BRANCH   1   3
HETATM    3  C4  UNL     1     -33.953  14.853  -4.523  1.00 20.00     0.057 A 
HETATM    4  C2  UNL     1     -34.194  15.066  -3.066  1.00 20.00     0.013 A 
HETATM    5  C3  UNL     1     -32.927  14.413  -3.532  1.00 20.00     0.013 A 
ENDBRANCH   1   3
BRANCH   1   6
HETATM    6  C6  UNL     1     -35.413  14.235  -6.521  1.00 20.00     0.123 C 
HETATM    7  C5  UNL     1     -34.480  15.022  -7.420  1.00 20.00     0.030 C 
HETATM    8 BR8  UNL     1     -36.913  15.359  -5.990  1.00 20.00    -0.084 Br
ENDBRANCH   1   6
TORSDOF 2
ENDMDL
MODEL 9
REMARK VINA RESULT:      -3.5     12.306     12.713
REMARK  2 active torsions:
REMARK  status: ('A' for Active; 'I' for Inactive)
REMARK    1  A    between atoms: C1_1  and  C4_4 
REMARK    2  A    between atoms: C1_1  and  C6_6 
ROOT
HETATM    1  C1  UNL     1     -33.559  15.909  -3.524  1.00 20.00     0.145 C 
HETATM    2  O7  UNL     1     -32.790  16.051  -4.465  1.00 20.00    -0.296 OA
ENDROOT
BRANCH   1   3
HETATM    3  C4  UNL     1     -34.185  14.577  -3.273  1.00 20.00     0.057 A 
HETATM    4  C2  UNL     1     -35.363  14.177  -4.097  1.00 20.00     0.013 A 
HETATM    5  C3  UNL     1     -34.035  13.515  -4.311  1.00 20.00     0.013 A 
ENDBRANCH   1   3
BRANCH   1   6
HETATM    6  C6  UNL     1     -33.921  17.010  -2.554  1.00 20.00     0.123 C 
HETATM    7  C5  UNL     1     -34.530  16.476  -1.272  1.00 20.00     0.030 C 
HETATM    8 BR8  UNL     1     -35.226  18.117  -3.486  1.00 20.00    -0.084 Br
ENDBRANCH   1   6
TORSDOF 2
ENDMDL
