MODEL 1
REMARK VINA RESULT:      -5.1      0.000      0.000
REMARK  2 active torsions:
REMARK  status: ('A' for Active; 'I' for Inactive)
REMARK    1  A    between atoms: C1_1  and  C5_5 
REMARK    2  A    between atoms: C6_6  and  C9_9 
ROOT
HETATM    1  C2  UNL     1     -35.345   5.351   3.743  1.00 20.00     0.012 C 
HETATM    2  C3  UNL     1     -34.145   5.632   2.848  1.00 20.00     0.006 C 
HETATM    3  C4  UNL     1     -33.606   6.542   4.999  1.00 20.00     0.016 C 
HETATM    4  C5  UNL     1     -34.862   5.674   5.159  1.00 20.00     0.047 C 
HETATM    5  C6  UNL     1     -33.511   6.853   3.503  1.00 20.00    -0.010 C 
ENDROOT
BRANCH   5   6
HETATM    6  C9  UNL     1     -32.091   7.114   3.034  1.00 20.00    -0.019 C 
HETATM    7  C7  UNL     1     -32.077   8.091   1.856  1.00 20.00     0.010 C 
HETATM    8  C8  UNL     1     -31.230   7.651   4.178  1.00 20.00     0.010 C 
ENDBRANCH   5   6
BRANCH   4   9
HETATM    9  C1  UNL     1     -34.532   4.417   5.903  1.00 20.00     0.235 C 
HETATM   10  O10 UNL     1     -34.863   3.299   5.524  1.00 20.00    -0.306 OA
ENDBRANCH   4   9
TORSDOF 2
ENDMDL
MODEL 2
REMARK VINA RESULT:      -4.9      2.505      4.269
REMARK  2 active torsions:
REMARK  status: ('A' for Active; 'I' for Inactive)
REMARK    1  A    between atoms: C1_1  and  C5_5 
REMARK    2  A    between atoms: C6_6  and  C9_9 
ROOT
HETATM    1  C2  UNL     1     -33.096   5.763   2.096  1.00 20.00     0.012 C 
HETATM    2  C3  UNL     1     -34.295   5.543   3.009  1.00 20.00     0.006 C 
HETATM    3  C4  UNL     1     -32.637   6.656   4.335  1.00 20.00     0.016 C 
HETATM    4  C5  UNL     1     -32.185   6.720   2.869  1.00 20.00     0.047 C 
HETATM    5  C6  UNL     1     -33.666   5.524   4.397  1.00 20.00    -0.010 C 
ENDROOT
BRANCH   5   6
HETATM    6  C9  UNL     1     -34.679   5.695   5.515  1.00 20.00    -0.019 C 
HETATM    7  C7  UNL     1     -35.089   4.338   6.092  1.00 20.00     0.010 C 
HETATM    8  C8  UNL     1     -34.122   6.594   6.620  1.00 20.00     0.010 C 
ENDBRANCH   5   6
BRANCH   4   9
HETATM    9  C1  UNL     1     -32.321   8.117   2.346  1.00 20.00     0.235 C 
HETATM   10  O10 UNL     1     -31.832   8.492   1.285  1.00 20.00    -0.306 OA
ENDBRANCH   4   9
TORSDOF 2
ENDMDL
MODEL 3
REMARK VINA RESULT:      -4.5     11.370     12.433
REMARK  2 active torsions:
REMARK  status: ('A' for Active; 'I' for Inactive)
REMARK    1  A    between atoms: C1_1  and  C5_5 
REMARK    2  A    between atoms: C6_6  and  C9_9 
ROOT
HETATM    1  C2  UNL     1     -34.084  15.345  -5.132  1.00 20.00     0.012 C 
HETATM    2  C3  UNL     1     -33.234  15.983  -4.042  1.00 20.00     0.006 C 
HETATM    3  C4  UNL     1     -35.396  15.611  -3.076  1.00 20.00     0.016 C 
HETATM    4  C5  UNL     1     -35.343  14.857  -4.411  1.00 20.00     0.047 C 
HETATM    5  C6  UNL     1     -34.273  16.650  -3.148  1.00 20.00    -0.010 C 
ENDROOT
BRANCH   5   6
HETATM    6  C9  UNL     1     -33.728  17.038  -1.784  1.00 20.00    -0.019 C 
HETATM    7  C7  UNL     1     -33.428  18.538  -1.725  1.00 20.00     0.010 C 
HETATM    8  C8  UNL     1     -34.708  16.650  -0.676  1.00 20.00     0.010 C 
ENDBRANCH   5   6
BRANCH   4   9
HETATM    9  C1  UNL     1     -35.276  13.381  -4.171  1.00 20.00     0.235 C 
HETATM   10  O10 UNL     1     -34.674  12.602  -4.904  1.00 20.00    -0.306 OA
ENDBRANCH   4   9
TORSDOF 2
ENDMDL
MODEL 4
REMARK VINA RESULT:      -4.4     12.019     12.668
REMARK  2 active torsions:
REMARK  status: ('A' for Active; 'I' for Inactive)
REMARK    1  A    between atoms: C1_1  and  C5_5 
REMARK    2  A    between atoms: C6_6  and  C9_9 
ROOT
HETATM    1  C2  UNL     1     -36.018  14.061  -4.229  1.00 20.00     0.012 C 
HETATM    2  C3  UNL     1     -35.856  15.257  -3.301  1.00 20.00     0.006 C 
HETATM    3  C4  UNL     1     -33.659  14.721  -4.096  1.00 20.00     0.016 C 
HETATM    4  C5  UNL     1     -34.668  13.930  -4.938  1.00 20.00     0.047 C 
HETATM    5  C6  UNL     1     -34.413  15.126  -2.826  1.00 20.00    -0.010 C 
ENDROOT
BRANCH   5   6
HETATM    6  C9  UNL     1     -33.875  16.394  -2.187  1.00 20.00    -0.019 C 
HETATM    7  C7  UNL     1     -34.012  17.584  -3.139  1.00 20.00     0.010 C 
HETATM    8  C8  UNL     1     -34.593  16.685  -0.868  1.00 20.00     0.010 C 
ENDBRANCH   5   6
BRANCH   4   9
HETATM    9  C1  UNL     1     -34.742  14.494  -6.323  1.00 20.00     0.235 C 
HETATM   10  O10 UNL     1     -34.068  15.446  -6.704  1.00 20.00    -0.306 OA
ENDBRANCH   4   9
TORSDOF 2
ENDMDL
MODEL 5
REMARK VINA RESULT:      -4.1     12.257     12.794
REMARK  2 active torsions:
REMARK  status: ('A' for Active; 'I' for Inactive)
REMARK    1  A    between atoms: C1_1  and  C5_5 
REMARK    2  A    between atoms: C6_6  and  C9_9 
ROOT
HETATM    1  C2  UNL     1     -35.595  15.114  -3.470  1.00 20.00     0.012 C 
HETATM    2  C3  UNL     1     -35.929  16.267  -2.533  1.00 20.00     0.006 C 
HETATM    3  C4  UNL     1     -33.541  16.058  -2.514  1.00 20.00     0.016 C 
HETATM    4  C5  UNL     1     -34.078  15.194  -3.663  1.00 20.00     0.047 C 
HETATM    5  C6  UNL     1     -34.736  16.292  -1.585  1.00 20.00    -0.010 C 
ENDROOT
BRANCH   5   6
HETATM    6  C9  UNL     1     -34.632  17.580  -0.788  1.00 20.00    -0.019 C 
HETATM    7  C7  UNL     1     -35.127  17.375   0.646  1.00 20.00     0.010 C 
HETATM    8  C8  UNL     1     -33.195  18.103  -0.783  1.00 20.00     0.010 C 
ENDBRANCH   5   6
BRANCH   4   9
HETATM    9  C1  UNL     1     -33.747  15.822  -4.982  1.00 20.00     0.235 C 
HETATM   10  O10 UNL     1     -32.933  16.729  -5.115  1.00 20.00    -0.306 OA
ENDBRANCH   4   9
TORSDOF 2
ENDMDL
MODEL 6
REMARK VINA RESULT:      -4.1     11.370     13.135
REMARK  2 active torsions:
REMARK  status: ('A' for Active; 'I' for Inactive)
REMARK    1  A    between atoms: C1_1  and  C5_5 
REMARK    2  A    between atoms: C6_6  and  C9_9 
ROOT
HETATM    1  C2  UNL     1     -35.071  15.677  -2.579  1.00 20.00     0.012 C 
HETATM    2  C3  UNL     1     -35.008  16.907  -3.475  1.00 20.00     0.006 C 
HETATM    3  C4  UNL     1     -33.443  15.335  -4.384  1.00 20.00     0.016 C 
HETATM    4  C5  UNL     1     -34.295  14.599  -3.340  1.00 20.00     0.047 C 
HETATM    5  C6  UNL     1     -33.607  16.825  -4.068  1.00 20.00    -0.010 C 
ENDROOT
BRANCH   5   6
HETATM    6  C9  UNL     1     -33.417  17.719  -5.281  1.00 20.00    -0.019 C 
HETATM    7  C7  UNL     1     -34.374  17.321  -6.406  1.00 20.00     0.010 C 
HETATM    8  C8  UNL     1     -33.616  19.189  -4.910  1.00 20.00     0.010 C 
ENDBRANCH   5   6
BRANCH   4   9
HETATM    9  C1  UNL     1     -35.235  13.649  -4.015  1.00 20.00     0.235 C 
HETATM   10  O10 UNL     1     -34.872  12.621  -4.577  1.00 20.00    -0.306 OA
ENDBRANCH   4   9
TORSDOF 2
ENDMDL
MODEL 7
REMARK VINA RESULT:      -4.1     11.664     12.995
REMARK  2 active torsions:
REMARK  status: ('A' for Active; 'I' for Inactive)
REMARK    1  A    between atoms: C1_1  and  C5_5 
REMARK    2  A    between atoms: C6_6  and  C9_9 
ROOT
HETATM    1  C2  UNL     1     -33.123  15.659  -3.897  1.00 20.00     0.012 C 
HETATM    2  C3  UNL     1     -33.732  15.720  -5.292  1.00 20.00     0.006 C 
HETATM    3  C4  UNL     1     -35.163  14.298  -3.998  1.00 20.00     0.016 C 
HETATM    4  C5  UNL     1     -34.197  14.997  -3.031  1.00 20.00     0.047 C 
HETATM    5  C6  UNL     1     -34.514  14.415  -5.380  1.00 20.00    -0.010 C 
ENDROOT
BRANCH   5   6
HETATM    6  C9  UNL     1     -35.519  14.395  -6.518  1.00 20.00    -0.019 C 
HETATM    7  C7  UNL     1     -36.759  15.220  -6.165  1.00 20.00     0.010 C 
HETATM    8  C8  UNL     1     -34.888  14.914  -7.811  1.00 20.00     0.010 C 
ENDBRANCH   5   6
BRANCH   4   9
HETATM    9  C1  UNL     1     -34.927  16.023  -2.220  1.00 20.00     0.235 C 
HETATM   10  O10 UNL     1     -34.651  16.286  -1.054  1.00 20.00    -0.306 OA
ENDBRANCH   4   9
TORSDOF 2
ENDMDL
MODEL 8
REMARK VINA RESULT:      -4.0     11.782     12.852
REMARK  2 active torsions:
REMARK  status: ('A' for Active; 'I' for Inactive)
REMARK    1  A    between atoms: C1_1  and  C5_5 
REMARK    2  A    between atoms: C6_6  and  C9_9 
ROOT
HETATM    1  C2  UNL     1     -33.862  17.610  -3.286  1.00 20.00     0.012 C 
HETATM    2  C3  UNL     1     -34.579  17.033  -4.499  1.00 20.00     0.006 C 
HETATM    3  C4  UNL     1     -34.021  15.169  -3.099  1.00 20.00     0.016 C 
HETATM    4  C5  UNL     1     -33.782  16.451  -2.290  1.00 20.00     0.047 C 
HETATM    5  C6  UNL     1     -34.041  15.609  -4.566  1.00 20.00    -0.010 C 
ENDROOT
BRANCH   5   6
HETATM    6  C9  UNL     1     -34.869  14.697  -5.454  1.00 20.00    -0.019 C 
HETATM    7  C7  UNL     1     -34.482  14.869  -6.924  1.00 20.00     0.010 C 
HETATM    8  C8  UNL     1     -34.711  13.235  -5.031  1.00 20.00     0.010 C 
ENDBRANCH   5   6
BRANCH   4   9
HETATM    9  C1  UNL     1     -34.827  16.595  -1.227  1.00 20.00     0.235 C 
HETATM   10  O10 UNL     1     -34.578  16.931  -0.074  1.00 20.00    -0.306 OA
ENDBRANCH   4   9
TORSDOF 2
ENDMDL
MODEL 9
REMARK VINA RESULT:      -4.0     11.872     13.230
REMARK  2 active torsions:
REMARK  status: ('A' for Active; 'I' for Inactive)
REMARK    1  A    between atoms: C1_1  and  C5_5 
REMARK    2  A    between atoms: C6_6  and  C9_9 
ROOT
HETATM    1  C2  UNL     1     -34.859  15.184  -3.199  1.00 20.00     0.012 C 
HETATM    2  C3  UNL     1     -34.256  15.984  -4.346  1.00 20.00     0.006 C 
HETATM    3  C4  UNL     1     -35.623  14.293  -5.354  1.00 20.00     0.016 C 
HETATM    4  C5  UNL     1     -35.938  14.317  -3.853  1.00 20.00     0.047 C 
HETATM    5  C6  UNL     1     -34.266  14.987  -5.498  1.00 20.00    -0.010 C 
ENDROOT
BRANCH   5   6
HETATM    6  C9  UNL     1     -34.067  15.640  -6.855  1.00 20.00    -0.019 C 
HETATM    7  C7  UNL     1     -34.949  14.974  -7.914  1.00 20.00     0.010 C 
HETATM    8  C8  UNL     1     -34.361  17.139  -6.787  1.00 20.00     0.010 C 
ENDBRANCH   5   6
BRANCH   4   9
HETATM    9  C1  UNL     1     -37.297  14.900  -3.617  1.00 20.00     0.235 C 
HETATM   10  O10 UNL     1     -38.334  14.247  -3.676  1.00 20.00    -0.306 OA
ENDBRANCH   4   9
TORSDOF 2
ENDMDL
