MODEL 1
REMARK VINA RESULT:      -4.7      0.000      0.000
REMARK  1 active torsions:
REMARK  status: ('A' for Active; 'I' for Inactive)
REMARK    1  A    between atoms: C8_8  and  O11_11 
ROOT
HETATM    1  C1  UNL     1     -32.843  14.745  -3.659  1.00 20.00    -0.023 C 
HETATM    2  C2  UNL     1     -33.112  15.880  -4.325  1.00 20.00    -0.022 C 
HETATM    3  C3  UNL     1     -35.895  14.797  -6.730  1.00 20.00     0.011 A 
HETATM    4  C4  UNL     1     -34.457  14.889  -7.162  1.00 20.00     0.011 A 
HETATM    5  C5  UNL     1     -34.507  13.415  -4.951  1.00 20.00     0.021 C 
HETATM    6  C6  UNL     1     -34.139  13.963  -3.538  1.00 20.00     0.038 C 
HETATM    7  C7  UNL     1     -34.585  15.841  -4.688  1.00 20.00     0.046 C 
HETATM    8  C8  UNL     1     -35.130  15.135  -3.428  1.00 20.00     0.136 C 
HETATM    9  C9  UNL     1     -34.796  14.722  -5.704  1.00 20.00    -0.030 A 
ENDROOT
BRANCH   8  10
HETATM   10  O11 UNL     1     -35.004  15.881  -2.234  1.00 20.00    -0.389 OA
HETATM   11  C10 UNL     1     -35.807  17.057  -2.256  1.00 20.00     0.202 C 
ENDBRANCH   8  10
TORSDOF 1
ENDMDL
MODEL 2
REMARK VINA RESULT:      -4.6      1.701      3.754
REMARK  1 active torsions:
REMARK  status: ('A' for Active; 'I' for Inactive)
REMARK    1  A    between atoms: C8_8  and  O11_11 
ROOT
HETATM    1  C1  UNL     1     -35.394  13.594  -4.202  1.00 20.00    -0.023 C 
HETATM    2  C2  UNL     1     -36.242  14.562  -3.817  1.00 20.00    -0.022 C 
HETATM    3  C3  UNL     1     -33.879  17.226  -2.396  1.00 20.00     0.011 A 
HETATM    4  C4  UNL     1     -34.603  16.246  -1.513  1.00 20.00     0.011 A 
HETATM    5  C5  UNL     1     -33.384  14.830  -3.402  1.00 20.00     0.021 C 
HETATM    6  C6  UNL     1     -34.110  14.261  -4.660  1.00 20.00     0.038 C 
HETATM    7  C7  UNL     1     -35.511  15.881  -3.980  1.00 20.00     0.046 C 
HETATM    8  C8  UNL     1     -34.697  15.556  -5.250  1.00 20.00     0.136 C 
HETATM    9  C9  UNL     1     -34.372  15.922  -2.965  1.00 20.00    -0.030 A 
ENDROOT
BRANCH   8  10
HETATM   10  O11 UNL     1     -35.476  15.353  -6.412  1.00 20.00    -0.389 OA
HETATM   11  C10 UNL     1     -34.673  14.990  -7.531  1.00 20.00     0.202 C 
ENDBRANCH   8  10
TORSDOF 1
ENDMDL
MODEL 3
REMARK VINA RESULT:      -4.6      1.795      2.412
REMARK  1 active torsions:
REMARK  status: ('A' for Active; 'I' for Inactive)
REMARK    1  A    between atoms: C8_8  and  O11_11 
ROOT
HETATM    1  C1  UNL     1     -34.475  13.644  -3.819  1.00 20.00    -0.023 C 
HETATM    2  C2  UNL     1     -34.597  14.828  -3.197  1.00 20.00    -0.022 C 
HETATM    3  C3  UNL     1     -34.670  17.306  -6.123  1.00 20.00     0.011 A 
HETATM    4  C4  UNL     1     -33.415  17.029  -5.340  1.00 20.00     0.011 A 
HETATM    5  C5  UNL     1     -34.395  14.674  -6.087  1.00 20.00     0.021 C 
HETATM    6  C6  UNL     1     -35.213  13.740  -5.142  1.00 20.00     0.038 C 
HETATM    7  C7  UNL     1     -35.387  15.735  -4.123  1.00 20.00     0.046 C 
HETATM    8  C8  UNL     1     -36.350  14.691  -4.727  1.00 20.00     0.136 C 
HETATM    9  C9  UNL     1     -34.531  16.018  -5.355  1.00 20.00    -0.030 A 
ENDROOT
BRANCH   8  10
HETATM   10  O11 UNL     1     -37.260  14.126  -3.805  1.00 20.00    -0.389 OA
HETATM   11  C10 UNL     1     -38.513  14.801  -3.817  1.00 20.00     0.202 C 
ENDBRANCH   8  10
TORSDOF 1
ENDMDL
MODEL 4
REMARK VINA RESULT:      -4.5      1.837      3.289
REMARK  1 active torsions:
REMARK  status: ('A' for Active; 'I' for Inactive)
REMARK    1  A    between atoms: C8_8  and  O11_11 
ROOT
HETATM    1  C1  UNL     1     -35.419  13.870  -5.816  1.00 20.00    -0.023 C 
HETATM    2  C2  UNL     1     -34.937  13.259  -4.721  1.00 20.00    -0.022 C 
HETATM    3  C3  UNL     1     -33.548  16.188  -2.673  1.00 20.00     0.011 A 
HETATM    4  C4  UNL     1     -32.666  15.327  -3.537  1.00 20.00     0.011 A 
HETATM    5  C5  UNL     1     -34.692  16.130  -5.059  1.00 20.00     0.021 C 
HETATM    6  C6  UNL     1     -35.926  15.237  -5.396  1.00 20.00     0.038 C 
HETATM    7  C7  UNL     1     -35.086  14.235  -3.569  1.00 20.00     0.046 C 
HETATM    8  C8  UNL     1     -36.418  14.898  -3.977  1.00 20.00     0.136 C 
HETATM    9  C9  UNL     1     -34.144  15.411  -3.817  1.00 20.00    -0.030 A 
ENDROOT
BRANCH   8  10
HETATM   10  O11 UNL     1     -37.537  14.034  -3.952  1.00 20.00    -0.389 OA
HETATM   11  C10 UNL     1     -38.764  14.755  -4.002  1.00 20.00     0.202 C 
ENDBRANCH   8  10
TORSDOF 1
ENDMDL
MODEL 5
REMARK VINA RESULT:      -4.5      1.144      1.627
REMARK  1 active torsions:
REMARK  status: ('A' for Active; 'I' for Inactive)
REMARK    1  A    between atoms: C8_8  and  O11_11 
ROOT
HETATM    1  C1  UNL     1     -34.402  13.919  -3.363  1.00 20.00    -0.023 C 
HETATM    2  C2  UNL     1     -33.265  14.322  -3.954  1.00 20.00    -0.022 C 
HETATM    3  C3  UNL     1     -34.530  16.758  -6.631  1.00 20.00     0.011 A 
HETATM    4  C4  UNL     1     -34.184  15.328  -6.950  1.00 20.00     0.011 A 
HETATM    5  C5  UNL     1     -35.844  15.279  -4.874  1.00 20.00     0.021 C 
HETATM    6  C6  UNL     1     -35.377  15.082  -3.399  1.00 20.00     0.038 C 
HETATM    7  C7  UNL     1     -33.490  15.747  -4.422  1.00 20.00     0.046 C 
HETATM    8  C8  UNL     1     -34.381  16.249  -3.266  1.00 20.00     0.136 C 
HETATM    9  C9  UNL     1     -34.531  15.722  -5.538  1.00 20.00    -0.030 A 
ENDROOT
BRANCH   8  10
HETATM   10  O11 UNL     1     -33.736  16.309  -2.009  1.00 20.00    -0.389 OA
HETATM   11  C10 UNL     1     -34.634  16.684  -0.970  1.00 20.00     0.202 C 
ENDBRANCH   8  10
TORSDOF 1
ENDMDL
MODEL 6
REMARK VINA RESULT:      -4.5      1.674      1.925
REMARK  1 active torsions:
REMARK  status: ('A' for Active; 'I' for Inactive)
REMARK    1  A    between atoms: C8_8  and  O11_11 
ROOT
HETATM    1  C1  UNL     1     -34.672  15.409  -3.350  1.00 20.00    -0.023 C 
HETATM    2  C2  UNL     1     -35.259  16.286  -4.181  1.00 20.00    -0.022 C 
HETATM    3  C3  UNL     1     -35.375  14.353  -7.491  1.00 20.00     0.011 A 
HETATM    4  C4  UNL     1     -34.300  15.362  -7.192  1.00 20.00     0.011 A 
HETATM    5  C5  UNL     1     -34.384  13.688  -5.129  1.00 20.00     0.021 C 
HETATM    6  C6  UNL     1     -35.094  14.015  -3.779  1.00 20.00     0.038 C 
HETATM    7  C7  UNL     1     -36.046  15.476  -5.195  1.00 20.00     0.046 C 
HETATM    8  C8  UNL     1     -36.515  14.325  -4.281  1.00 20.00     0.136 C 
HETATM    9  C9  UNL     1     -35.053  14.708  -6.063  1.00 20.00    -0.030 A 
ENDROOT
BRANCH   8  10
HETATM   10  O11 UNL     1     -37.411  14.714  -3.258  1.00 20.00    -0.389 OA
HETATM   11  C10 UNL     1     -38.733  14.897  -3.753  1.00 20.00     0.202 C 
ENDBRANCH   8  10
TORSDOF 1
ENDMDL
MODEL 7
REMARK VINA RESULT:      -4.3      1.920      4.026
REMARK  1 active torsions:
REMARK  status: ('A' for Active; 'I' for Inactive)
REMARK    1  A    between atoms: C8_8  and  O11_11 
ROOT
HETATM    1  C1  UNL     1     -34.115  17.094  -4.937  1.00 20.00    -0.023 C 
HETATM    2  C2  UNL     1     -33.258  16.355  -4.213  1.00 20.00    -0.022 C 
HETATM    3  C3  UNL     1     -34.685  16.651  -0.667  1.00 20.00     0.011 A 
HETATM    4  C4  UNL     1     -33.541  17.506  -1.143  1.00 20.00     0.011 A 
HETATM    5  C5  UNL     1     -35.477  17.730  -2.950  1.00 20.00     0.021 C 
HETATM    6  C6  UNL     1     -35.488  16.957  -4.305  1.00 20.00     0.038 C 
HETATM    7  C7  UNL     1     -34.050  15.752  -3.069  1.00 20.00     0.046 C 
HETATM    8  C8  UNL     1     -35.389  15.507  -3.798  1.00 20.00     0.136 C 
HETATM    9  C9  UNL     1     -34.482  16.884  -2.141  1.00 20.00    -0.030 A 
ENDROOT
BRANCH   8  10
HETATM   10  O11 UNL     1     -35.329  14.544  -4.830  1.00 20.00    -0.389 OA
HETATM   11  C10 UNL     1     -35.108  13.233  -4.319  1.00 20.00     0.202 C 
ENDBRANCH   8  10
TORSDOF 1
ENDMDL
MODEL 8
REMARK VINA RESULT:      -4.3      1.637      2.987
REMARK  1 active torsions:
REMARK  status: ('A' for Active; 'I' for Inactive)
REMARK    1  A    between atoms: C8_8  and  O11_11 
ROOT
HETATM    1  C1  UNL     1     -35.296  17.470  -3.606  1.00 20.00    -0.023 C 
HETATM    2  C2  UNL     1     -35.890  16.385  -3.082  1.00 20.00    -0.022 C 
HETATM    3  C3  UNL     1     -33.314  13.622  -3.740  1.00 20.00     0.011 A 
HETATM    4  C4  UNL     1     -34.504  13.835  -4.635  1.00 20.00     0.011 A 
HETATM    5  C5  UNL     1     -33.300  16.191  -4.375  1.00 20.00     0.021 C 
HETATM    6  C6  UNL     1     -33.798  17.314  -3.414  1.00 20.00     0.038 C 
HETATM    7  C7  UNL     1     -34.785  15.480  -2.571  1.00 20.00     0.046 C 
HETATM    8  C8  UNL     1     -33.795  16.555  -2.075  1.00 20.00     0.136 C 
HETATM    9  C9  UNL     1     -34.000  14.962  -3.773  1.00 20.00    -0.030 A 
ENDROOT
BRANCH   8  10
HETATM   10  O11 UNL     1     -34.258  17.322  -0.981  1.00 20.00    -0.389 OA
HETATM   11  C10 UNL     1     -33.259  18.215  -0.500  1.00 20.00     0.202 C 
ENDBRANCH   8  10
TORSDOF 1
ENDMDL
MODEL 9
REMARK VINA RESULT:      -4.3     11.908     13.035
REMARK  1 active torsions:
REMARK  status: ('A' for Active; 'I' for Inactive)
REMARK    1  A    between atoms: C8_8  and  O11_11 
ROOT
HETATM    1  C1  UNL     1     -41.629   4.703   0.336  1.00 20.00    -0.023 C 
HETATM    2  C2  UNL     1     -42.920   4.785  -0.025  1.00 20.00    -0.022 C 
HETATM    3  C3  UNL     1     -43.007   8.013  -2.093  1.00 20.00     0.011 A 
HETATM    4  C4  UNL     1     -43.417   7.980  -0.645  1.00 20.00     0.011 A 
HETATM    5  C5  UNL     1     -41.022   6.838  -0.796  1.00 20.00     0.021 C 
HETATM    6  C6  UNL     1     -40.798   5.295  -0.789  1.00 20.00     0.038 C 
HETATM    7  C7  UNL     1     -42.959   5.470  -1.378  1.00 20.00     0.046 C 
HETATM    8  C8  UNL     1     -41.669   4.882  -1.989  1.00 20.00     0.136 C 
HETATM    9  C9  UNL     1     -42.504   6.915  -1.193  1.00 20.00    -0.030 A 
ENDROOT
BRANCH   8  10
HETATM   10  O11 UNL     1     -41.708   3.487  -2.215  1.00 20.00    -0.389 OA
HETATM   11  C10 UNL     1     -42.600   3.146  -3.270  1.00 20.00     0.202 C 
ENDBRANCH   8  10
TORSDOF 1
ENDMDL
