MODEL 1
REMARK VINA RESULT:      -5.1      0.000      0.000
REMARK  1 active torsions:
REMARK  status: ('A' for Active; 'I' for Inactive)
REMARK    1  A    between atoms: C2_2  and  C3_3 
ROOT
HETATM    1  C1  UNL     1     -34.893  15.282  -2.421  1.00 20.00    -0.007 C 
HETATM    2  C2  UNL     1     -34.040  15.059  -3.424  1.00 20.00    -0.012 C 
HETATM    3  C4  UNL     1     -33.667  17.293  -2.762  1.00 20.00     0.022 C 
HETATM    4  C5  UNL     1     -33.313  16.283  -3.872  1.00 20.00     0.019 C 
HETATM    5  C6  UNL     1     -34.897  16.727  -2.005  1.00 20.00    -0.029 C 
HETATM    6  C8  UNL     1     -33.750  16.756  -5.255  1.00 20.00     0.015 C 
HETATM    7  C9  UNL     1     -34.720  16.870  -0.490  1.00 20.00     0.019 C 
HETATM    8  C10 UNL     1     -36.196  17.411  -2.444  1.00 20.00     0.019 C 
ENDROOT
BRANCH   2   9
HETATM    9  C3  UNL     1     -33.842  13.739  -4.000  1.00 20.00     0.151 C 
HETATM   10  C7  UNL     1     -34.871  13.218  -4.980  1.00 20.00     0.096 C 
HETATM   11  O11 UNL     1     -32.860  13.047  -3.694  1.00 20.00    -0.293 OA
ENDBRANCH   2   9
TORSDOF 1
ENDMDL
MODEL 2
REMARK VINA RESULT:      -4.7      2.593      3.230
REMARK  1 active torsions:
REMARK  status: ('A' for Active; 'I' for Inactive)
REMARK    1  A    between atoms: C2_2  and  C3_3 
ROOT
HETATM    1  C1  UNL     1     -35.966  16.180  -3.337  1.00 20.00    -0.007 C 
HETATM    2  C2  UNL     1     -36.386  15.056  -3.922  1.00 20.00    -0.012 C 
HETATM    3  C4  UNL     1     -34.225  14.575  -3.108  1.00 20.00     0.022 C 
HETATM    4  C5  UNL     1     -35.335  14.001  -4.012  1.00 20.00     0.019 C 
HETATM    5  C6  UNL     1     -34.525  16.084  -2.919  1.00 20.00    -0.029 C 
HETATM    6  C8  UNL     1     -34.861  13.760  -5.441  1.00 20.00     0.015 C 
HETATM    7  C9  UNL     1     -34.341  16.500  -1.456  1.00 20.00     0.019 C 
HETATM    8  C10 UNL     1     -33.643  16.954  -3.821  1.00 20.00     0.019 C 
ENDROOT
BRANCH   2   9
HETATM    9  C3  UNL     1     -37.747  14.891  -4.406  1.00 20.00     0.151 C 
HETATM   10  C7  UNL     1     -38.172  15.660  -5.639  1.00 20.00     0.096 C 
HETATM   11  O11 UNL     1     -38.548  14.147  -3.823  1.00 20.00    -0.293 OA
ENDBRANCH   2   9
TORSDOF 1
ENDMDL
MODEL 3
REMARK VINA RESULT:      -4.6      1.505      1.540
REMARK  1 active torsions:
REMARK  status: ('A' for Active; 'I' for Inactive)
REMARK    1  A    between atoms: C2_2  and  C3_3 
ROOT
HETATM    1  C1  UNL     1     -35.640  15.943  -2.384  1.00 20.00    -0.007 C 
HETATM    2  C2  UNL     1     -34.996  15.218  -3.301  1.00 20.00    -0.012 C 
HETATM    3  C4  UNL     1     -33.361  16.626  -2.346  1.00 20.00     0.022 C 
HETATM    4  C5  UNL     1     -33.584  15.648  -3.518  1.00 20.00     0.019 C 
HETATM    5  C6  UNL     1     -34.761  17.018  -1.806  1.00 20.00    -0.029 C 
HETATM    6  C8  UNL     1     -33.369  16.306  -4.877  1.00 20.00     0.015 C 
HETATM    7  C9  UNL     1     -34.784  16.991  -0.275  1.00 20.00     0.019 C 
HETATM    8  C10 UNL     1     -35.196  18.398  -2.309  1.00 20.00     0.019 C 
ENDROOT
BRANCH   2   9
HETATM    9  C3  UNL     1     -35.624  14.109  -4.000  1.00 20.00     0.151 C 
HETATM   10  C7  UNL     1     -34.747  13.170  -4.799  1.00 20.00     0.096 C 
HETATM   11  O11 UNL     1     -36.851  13.936  -3.953  1.00 20.00    -0.293 OA
ENDBRANCH   2   9
TORSDOF 1
ENDMDL
MODEL 4
REMARK VINA RESULT:      -4.5      1.974      4.069
REMARK  1 active torsions:
REMARK  status: ('A' for Active; 'I' for Inactive)
REMARK    1  A    between atoms: C2_2  and  C3_3 
ROOT
HETATM    1  C1  UNL     1     -33.609  15.762  -3.054  1.00 20.00    -0.007 C 
HETATM    2  C2  UNL     1     -34.520  16.385  -2.304  1.00 20.00    -0.012 C 
HETATM    3  C4  UNL     1     -35.728  14.831  -3.604  1.00 20.00     0.022 C 
HETATM    4  C5  UNL     1     -35.926  16.030  -2.655  1.00 20.00     0.019 C 
HETATM    5  C6  UNL     1     -34.249  14.856  -4.069  1.00 20.00    -0.029 C 
HETATM    6  C8  UNL     1     -36.678  17.181  -3.315  1.00 20.00     0.015 C 
HETATM    7  C9  UNL     1     -33.638  13.452  -4.026  1.00 20.00     0.019 C 
HETATM    8  C10 UNL     1     -34.108  15.441  -5.478  1.00 20.00     0.019 C 
ENDROOT
BRANCH   2   9
HETATM    9  C3  UNL     1     -34.155  17.309  -1.241  1.00 20.00     0.151 C 
HETATM   10  C7  UNL     1     -34.843  17.172   0.100  1.00 20.00     0.096 C 
HETATM   11  O11 UNL     1     -33.308  18.194  -1.426  1.00 20.00    -0.293 OA
ENDBRANCH   2   9
TORSDOF 1
ENDMDL
MODEL 5
REMARK VINA RESULT:      -4.4      2.418      3.321
REMARK  1 active torsions:
REMARK  status: ('A' for Active; 'I' for Inactive)
REMARK    1  A    between atoms: C2_2  and  C3_3 
ROOT
HETATM    1  C1  UNL     1     -34.682  16.060  -4.789  1.00 20.00    -0.007 C 
HETATM    2  C2  UNL     1     -34.433  14.898  -5.396  1.00 20.00    -0.012 C 
HETATM    3  C4  UNL     1     -34.367  16.528  -7.100  1.00 20.00     0.022 C 
HETATM    4  C5  UNL     1     -34.380  15.001  -6.884  1.00 20.00     0.019 C 
HETATM    5  C6  UNL     1     -34.846  17.181  -5.778  1.00 20.00    -0.029 C 
HETATM    6  C8  UNL     1     -35.564  14.324  -7.566  1.00 20.00     0.015 C 
HETATM    7  C9  UNL     1     -33.968  18.381  -5.410  1.00 20.00     0.019 C 
HETATM    8  C10 UNL     1     -36.313  17.616  -5.860  1.00 20.00     0.019 C 
ENDROOT
BRANCH   2   9
HETATM    9  C3  UNL     1     -34.223  13.662  -4.659  1.00 20.00     0.151 C 
HETATM   10  C7  UNL     1     -33.120  13.618  -3.624  1.00 20.00     0.096 C 
HETATM   11  O11 UNL     1     -34.922  12.662  -4.875  1.00 20.00    -0.293 OA
ENDBRANCH   2   9
TORSDOF 1
ENDMDL
MODEL 6
REMARK VINA RESULT:      -4.4      2.544      3.910
REMARK  1 active torsions:
REMARK  status: ('A' for Active; 'I' for Inactive)
REMARK    1  A    between atoms: C2_2  and  C3_3 
ROOT
HETATM    1  C1  UNL     1     -35.283  14.966  -3.516  1.00 20.00    -0.007 C 
HETATM    2  C2  UNL     1     -36.348  14.973  -4.322  1.00 20.00    -0.012 C 
HETATM    3  C4  UNL     1     -34.524  14.363  -5.689  1.00 20.00     0.022 C 
HETATM    4  C5  UNL     1     -36.007  14.779  -5.762  1.00 20.00     0.019 C 
HETATM    5  C6  UNL     1     -34.006  14.764  -4.283  1.00 20.00    -0.029 C 
HETATM    6  C8  UNL     1     -36.221  16.039  -6.594  1.00 20.00     0.015 C 
HETATM    7  C9  UNL     1     -33.162  13.642  -3.671  1.00 20.00     0.019 C 
HETATM    8  C10 UNL     1     -33.193  16.062  -4.328  1.00 20.00     0.019 C 
ENDROOT
BRANCH   2   9
HETATM    9  C3  UNL     1     -37.703  15.141  -3.822  1.00 20.00     0.151 C 
HETATM   10  C7  UNL     1     -38.133  16.514  -3.351  1.00 20.00     0.096 C 
HETATM   11  O11 UNL     1     -38.490  14.185  -3.773  1.00 20.00    -0.293 OA
ENDBRANCH   2   9
TORSDOF 1
ENDMDL
MODEL 7
REMARK VINA RESULT:      -4.4      1.472      2.102
REMARK  1 active torsions:
REMARK  status: ('A' for Active; 'I' for Inactive)
REMARK    1  A    between atoms: C2_2  and  C3_3 
ROOT
HETATM    1  C1  UNL     1     -35.482  16.036  -4.438  1.00 20.00    -0.007 C 
HETATM    2  C2  UNL     1     -34.808  14.887  -4.347  1.00 20.00    -0.012 C 
HETATM    3  C4  UNL     1     -34.350  16.049  -2.345  1.00 20.00     0.022 C 
HETATM    4  C5  UNL     1     -33.907  14.816  -3.159  1.00 20.00     0.019 C 
HETATM    5  C6  UNL     1     -35.149  16.968  -3.305  1.00 20.00    -0.029 C 
HETATM    6  C8  UNL     1     -32.429  14.863  -3.535  1.00 20.00     0.015 C 
HETATM    7  C9  UNL     1     -36.417  17.496  -2.629  1.00 20.00     0.019 C 
HETATM    8  C10 UNL     1     -34.299  18.141  -3.805  1.00 20.00     0.019 C 
ENDROOT
BRANCH   2   9
HETATM    9  C3  UNL     1     -34.962  13.814  -5.316  1.00 20.00     0.151 C 
HETATM   10  C7  UNL     1     -35.258  14.178  -6.754  1.00 20.00     0.096 C 
HETATM   11  O11 UNL     1     -34.863  12.626  -4.976  1.00 20.00    -0.293 OA
ENDBRANCH   2   9
TORSDOF 1
ENDMDL
MODEL 8
REMARK VINA RESULT:      -4.2      2.540      3.043
REMARK  1 active torsions:
REMARK  status: ('A' for Active; 'I' for Inactive)
REMARK    1  A    between atoms: C2_2  and  C3_3 
ROOT
HETATM    1  C1  UNL     1     -36.201  15.420  -4.499  1.00 20.00    -0.007 C 
HETATM    2  C2  UNL     1     -35.074  14.874  -4.960  1.00 20.00    -0.012 C 
HETATM    3  C4  UNL     1     -35.305  16.918  -6.116  1.00 20.00     0.022 C 
HETATM    4  C5  UNL     1     -34.478  15.617  -6.110  1.00 20.00     0.019 C 
HETATM    5  C6  UNL     1     -36.578  16.654  -5.271  1.00 20.00    -0.029 C 
HETATM    6  C8  UNL     1     -34.582  14.851  -7.425  1.00 20.00     0.015 C 
HETATM    7  C9  UNL     1     -36.867  17.831  -4.333  1.00 20.00     0.019 C 
HETATM    8  C10 UNL     1     -37.800  16.384  -6.156  1.00 20.00     0.019 C 
ENDROOT
BRANCH   2   9
HETATM    9  C3  UNL     1     -34.491  13.678  -4.375  1.00 20.00     0.151 C 
HETATM   10  C7  UNL     1     -33.161  13.798  -3.663  1.00 20.00     0.096 C 
HETATM   11  O11 UNL     1     -35.060  12.580  -4.462  1.00 20.00    -0.293 OA
ENDBRANCH   2   9
TORSDOF 1
ENDMDL
MODEL 9
REMARK VINA RESULT:      -4.1      2.582      4.385
REMARK  1 active torsions:
REMARK  status: ('A' for Active; 'I' for Inactive)
REMARK    1  A    between atoms: C2_2  and  C3_3 
ROOT
HETATM    1  C1  UNL     1     -36.197  15.816  -5.919  1.00 20.00    -0.007 C 
HETATM    2  C2  UNL     1     -36.208  15.413  -4.647  1.00 20.00    -0.012 C 
HETATM    3  C4  UNL     1     -33.934  15.723  -5.191  1.00 20.00     0.022 C 
HETATM    4  C5  UNL     1     -34.849  15.141  -4.094  1.00 20.00     0.019 C 
HETATM    5  C6  UNL     1     -34.798  15.889  -6.467  1.00 20.00    -0.029 C 
HETATM    6  C8  UNL     1     -34.597  13.657  -3.849  1.00 20.00     0.015 C 
HETATM    7  C9  UNL     1     -34.534  17.241  -7.137  1.00 20.00     0.019 C 
HETATM    8  C10 UNL     1     -34.552  14.756  -7.469  1.00 20.00     0.019 C 
ENDROOT
BRANCH   2   9
HETATM    9  C3  UNL     1     -37.438  15.272  -3.884  1.00 20.00     0.151 C 
HETATM   10  C7  UNL     1     -38.049  16.510  -3.266  1.00 20.00     0.096 C 
HETATM   11  O11 UNL     1     -37.974  14.164  -3.733  1.00 20.00    -0.293 OA
ENDBRANCH   2   9
TORSDOF 1
ENDMDL
