MODEL 1
REMARK VINA RESULT:      -4.5      0.000      0.000
REMARK  2 active torsions:
REMARK  status: ('A' for Active; 'I' for Inactive)
REMARK    1  A    between atoms: C3_3  and  C5_5 
REMARK    2  A    between atoms: C3_3  and  O11_11 
ROOT
HETATM    1  C1  UNL     1     -37.771  14.814  -3.642  1.00 20.00     0.013 C 
HETATM    2  C2  UNL     1     -36.622  14.864  -3.983  1.00 20.00    -0.096 C 
HETATM    3  C4  UNL     1     -34.657  16.303  -4.632  1.00 20.00     0.044 A 
HETATM    4  C5  UNL     1     -35.241  14.925  -4.393  1.00 20.00     0.118 A 
HETATM    5  C6  UNL     1     -34.203  15.518  -3.428  1.00 20.00    -0.018 A 
HETATM    6  C7  UNL     1     -32.792  14.977  -3.439  1.00 20.00     0.017 C 
HETATM    7  C8  UNL     1     -34.638  16.008  -2.067  1.00 20.00     0.017 C 
ENDROOT
BRANCH   4   8
HETATM    8  C3  UNL     1     -34.828  13.842  -5.311  1.00 20.00     0.280 C 
HETATM    9  O10 UNL     1     -34.804  12.658  -5.007  1.00 20.00    -0.263 OA
BRANCH   8  10
HETATM   10  O11 UNL     1     -34.488  14.375  -6.520  1.00 20.00    -0.325 OA
HETATM   11  C9  UNL     1     -35.512  14.335  -7.519  1.00 20.00     0.213 C 
ENDBRANCH   8  10
ENDBRANCH   4   8
TORSDOF 2
ENDMDL
MODEL 2
REMARK VINA RESULT:      -4.5      1.727      3.046
REMARK  2 active torsions:
REMARK  status: ('A' for Active; 'I' for Inactive)
REMARK    1  A    between atoms: C3_3  and  C5_5 
REMARK    2  A    between atoms: C3_3  and  O11_11 
ROOT
HETATM    1  C1  UNL     1     -34.559  14.766  -7.187  1.00 20.00     0.013 C 
HETATM    2  C2  UNL     1     -34.883  14.699  -6.034  1.00 20.00    -0.096 C 
HETATM    3  C4  UNL     1     -34.547  13.597  -3.792  1.00 20.00     0.044 A 
HETATM    4  C5  UNL     1     -35.271  14.618  -4.648  1.00 20.00     0.118 A 
HETATM    5  C6  UNL     1     -34.273  15.062  -3.568  1.00 20.00    -0.018 A 
HETATM    6  C7  UNL     1     -34.794  15.683  -2.293  1.00 20.00     0.017 C 
HETATM    7  C8  UNL     1     -32.917  15.592  -3.972  1.00 20.00     0.017 C 
ENDROOT
BRANCH   4   8
HETATM    8  C3  UNL     1     -36.717  14.806  -4.407  1.00 20.00     0.280 C 
HETATM    9  O10 UNL     1     -37.418  14.013  -3.793  1.00 20.00    -0.263 OA
BRANCH   8  10
HETATM   10  O11 UNL     1     -37.125  15.980  -4.969  1.00 20.00    -0.325 OA
HETATM   11  C9  UNL     1     -37.851  16.856  -4.102  1.00 20.00     0.213 C 
ENDBRANCH   8  10
ENDBRANCH   4   8
TORSDOF 2
ENDMDL
MODEL 3
REMARK VINA RESULT:      -4.4      1.841      2.805
REMARK  2 active torsions:
REMARK  status: ('A' for Active; 'I' for Inactive)
REMARK    1  A    between atoms: C3_3  and  C5_5 
REMARK    2  A    between atoms: C3_3  and  O11_11 
ROOT
HETATM    1  C1  UNL     1     -34.591  16.379  -1.290  1.00 20.00     0.013 C 
HETATM    2  C2  UNL     1     -34.839  15.916  -2.369  1.00 20.00    -0.096 C 
HETATM    3  C4  UNL     1     -34.195  15.718  -4.797  1.00 20.00     0.044 A 
HETATM    4  C5  UNL     1     -35.137  15.360  -3.665  1.00 20.00     0.118 A 
HETATM    5  C6  UNL     1     -34.188  14.309  -4.261  1.00 20.00    -0.018 A 
HETATM    6  C7  UNL     1     -34.752  13.222  -5.145  1.00 20.00     0.017 C 
HETATM    7  C8  UNL     1     -32.975  13.863  -3.477  1.00 20.00     0.017 C 
ENDROOT
BRANCH   4   8
HETATM    8  C3  UNL     1     -36.579  15.281  -3.979  1.00 20.00     0.280 C 
HETATM    9  O10 UNL     1     -37.379  14.596  -3.358  1.00 20.00    -0.263 OA
BRANCH   8  10
HETATM   10  O11 UNL     1     -36.857  16.080  -5.049  1.00 20.00    -0.325 OA
HETATM   11  C9  UNL     1     -37.690  15.494  -6.054  1.00 20.00     0.213 C 
ENDBRANCH   8  10
ENDBRANCH   4   8
TORSDOF 2
ENDMDL
MODEL 4
REMARK VINA RESULT:      -4.2      1.912      3.022
REMARK  2 active torsions:
REMARK  status: ('A' for Active; 'I' for Inactive)
REMARK    1  A    between atoms: C3_3  and  C5_5 
REMARK    2  A    between atoms: C3_3  and  O11_11 
ROOT
HETATM    1  C1  UNL     1     -34.441  16.834  -0.611  1.00 20.00     0.013 C 
HETATM    2  C2  UNL     1     -34.402  16.540  -1.774  1.00 20.00    -0.096 C 
HETATM    3  C4  UNL     1     -35.549  16.588  -4.018  1.00 20.00     0.044 A 
HETATM    4  C5  UNL     1     -34.357  16.187  -3.171  1.00 20.00     0.118 A 
HETATM    5  C6  UNL     1     -34.238  17.305  -4.218  1.00 20.00    -0.018 A 
HETATM    6  C7  UNL     1     -33.484  17.037  -5.500  1.00 20.00     0.017 C 
HETATM    7  C8  UNL     1     -34.151  18.746  -3.771  1.00 20.00     0.017 C 
ENDROOT
BRANCH   4   8
HETATM    8  C3  UNL     1     -33.735  14.876  -3.450  1.00 20.00     0.280 C 
HETATM    9  O10 UNL     1     -32.527  14.683  -3.477  1.00 20.00    -0.263 OA
BRANCH   8  10
HETATM   10  O11 UNL     1     -34.708  13.945  -3.665  1.00 20.00    -0.325 OA
HETATM   11  C9  UNL     1     -34.578  13.187  -4.871  1.00 20.00     0.213 C 
ENDBRANCH   8  10
ENDBRANCH   4   8
TORSDOF 2
ENDMDL
MODEL 5
REMARK VINA RESULT:      -4.2      1.864      3.334
REMARK  2 active torsions:
REMARK  status: ('A' for Active; 'I' for Inactive)
REMARK    1  A    between atoms: C3_3  and  C5_5 
REMARK    2  A    between atoms: C3_3  and  O11_11 
ROOT
HETATM    1  C1  UNL     1     -34.794  16.326  -1.195  1.00 20.00     0.013 C 
HETATM    2  C2  UNL     1     -34.540  15.937  -2.301  1.00 20.00    -0.096 C 
HETATM    3  C4  UNL     1     -34.136  13.967  -3.820  1.00 20.00     0.044 A 
HETATM    4  C5  UNL     1     -34.236  15.467  -3.629  1.00 20.00     0.118 A 
HETATM    5  C6  UNL     1     -35.311  14.700  -4.414  1.00 20.00    -0.018 A 
HETATM    6  C7  UNL     1     -35.364  14.835  -5.917  1.00 20.00     0.017 C 
HETATM    7  C8  UNL     1     -36.669  14.467  -3.793  1.00 20.00     0.017 C 
ENDROOT
BRANCH   4   8
HETATM    8  C3  UNL     1     -33.276  16.313  -4.371  1.00 20.00     0.280 C 
HETATM    9  O10 UNL     1     -32.268  15.888  -4.916  1.00 20.00    -0.263 OA
BRANCH   8  10
HETATM   10  O11 UNL     1     -33.696  17.611  -4.343  1.00 20.00    -0.325 OA
HETATM   11  C9  UNL     1     -33.889  18.221  -5.623  1.00 20.00     0.213 C 
ENDBRANCH   8  10
ENDBRANCH   4   8
TORSDOF 2
ENDMDL
MODEL 6
REMARK VINA RESULT:      -4.1      1.469      3.520
REMARK  2 active torsions:
REMARK  status: ('A' for Active; 'I' for Inactive)
REMARK    1  A    between atoms: C3_3  and  C5_5 
REMARK    2  A    between atoms: C3_3  and  O11_11 
ROOT
HETATM    1  C1  UNL     1     -34.811  14.749  -7.753  1.00 20.00     0.013 C 
HETATM    2  C2  UNL     1     -35.202  14.807  -6.620  1.00 20.00    -0.096 C 
HETATM    3  C4  UNL     1     -36.011  16.255  -4.722  1.00 20.00     0.044 A 
HETATM    4  C5  UNL     1     -35.671  14.878  -5.258  1.00 20.00     0.118 A 
HETATM    5  C6  UNL     1     -37.129  15.281  -4.993  1.00 20.00    -0.018 A 
HETATM    6  C7  UNL     1     -37.850  14.696  -3.801  1.00 20.00     0.017 C 
HETATM    7  C8  UNL     1     -38.049  15.575  -6.154  1.00 20.00     0.017 C 
ENDROOT
BRANCH   4   8
HETATM    8  C3  UNL     1     -35.010  13.932  -4.334  1.00 20.00     0.280 C 
HETATM    9  O10 UNL     1     -35.101  12.716  -4.419  1.00 20.00    -0.263 OA
BRANCH   8  10
HETATM   10  O11 UNL     1     -34.301  14.628  -3.399  1.00 20.00    -0.325 OA
HETATM   11  C9  UNL     1     -32.888  14.689  -3.618  1.00 20.00     0.213 C 
ENDBRANCH   8  10
ENDBRANCH   4   8
TORSDOF 2
ENDMDL
MODEL 7
REMARK VINA RESULT:      -4.1      2.405      3.858
REMARK  2 active torsions:
REMARK  status: ('A' for Active; 'I' for Inactive)
REMARK    1  A    between atoms: C3_3  and  C5_5 
REMARK    2  A    between atoms: C3_3  and  O11_11 
ROOT
HETATM    1  C1  UNL     1     -37.835  14.691  -3.941  1.00 20.00     0.013 C 
HETATM    2  C2  UNL     1     -36.701  15.014  -3.721  1.00 20.00    -0.096 C 
HETATM    3  C4  UNL     1     -34.318  14.285  -3.347  1.00 20.00     0.044 A 
HETATM    4  C5  UNL     1     -35.338  15.401  -3.456  1.00 20.00     0.118 A 
HETATM    5  C6  UNL     1     -34.279  15.193  -4.549  1.00 20.00    -0.018 A 
HETATM    6  C7  UNL     1     -33.127  16.165  -4.654  1.00 20.00     0.017 C 
HETATM    7  C8  UNL     1     -34.682  14.609  -5.883  1.00 20.00     0.017 C 
ENDROOT
BRANCH   4   8
HETATM    8  C3  UNL     1     -35.196  16.545  -2.531  1.00 20.00     0.280 C 
HETATM    9  O10 UNL     1     -35.608  17.672  -2.768  1.00 20.00    -0.263 OA
BRANCH   8  10
HETATM   10  O11 UNL     1     -34.548  16.141  -1.402  1.00 20.00    -0.325 OA
HETATM   11  C9  UNL     1     -34.725  16.981  -0.257  1.00 20.00     0.213 C 
ENDBRANCH   8  10
ENDBRANCH   4   8
TORSDOF 2
ENDMDL
MODEL 8
REMARK VINA RESULT:      -4.1      1.881      3.074
REMARK  2 active torsions:
REMARK  status: ('A' for Active; 'I' for Inactive)
REMARK    1  A    between atoms: C3_3  and  C5_5 
REMARK    2  A    between atoms: C3_3  and  O11_11 
ROOT
HETATM    1  C1  UNL     1     -34.557  16.470  -1.128  1.00 20.00     0.013 C 
HETATM    2  C2  UNL     1     -35.184  16.266  -2.131  1.00 20.00    -0.096 C 
HETATM    3  C4  UNL     1     -37.064  16.987  -3.647  1.00 20.00     0.044 A 
HETATM    4  C5  UNL     1     -35.938  16.021  -3.335  1.00 20.00     0.118 A 
HETATM    5  C6  UNL     1     -35.822  17.014  -4.501  1.00 20.00    -0.018 A 
HETATM    6  C7  UNL     1     -35.938  16.504  -5.918  1.00 20.00     0.017 C 
HETATM    7  C8  UNL     1     -34.911  18.213  -4.378  1.00 20.00     0.017 C 
ENDROOT
BRANCH   4   8
HETATM    8  C3  UNL     1     -36.166  14.591  -3.632  1.00 20.00     0.280 C 
HETATM    9  O10 UNL     1     -37.269  14.100  -3.826  1.00 20.00    -0.263 OA
BRANCH   8  10
HETATM   10  O11 UNL     1     -34.972  13.933  -3.653  1.00 20.00    -0.325 OA
HETATM   11  C9  UNL     1     -34.685  13.217  -4.858  1.00 20.00     0.213 C 
ENDBRANCH   8  10
ENDBRANCH   4   8
TORSDOF 2
ENDMDL
MODEL 9
REMARK VINA RESULT:      -4.0      1.888      3.969
REMARK  2 active torsions:
REMARK  status: ('A' for Active; 'I' for Inactive)
REMARK    1  A    between atoms: C3_3  and  C5_5 
REMARK    2  A    between atoms: C3_3  and  O11_11 
ROOT
HETATM    1  C1  UNL     1     -33.630  17.944  -5.906  1.00 20.00     0.013 C 
HETATM    2  C2  UNL     1     -33.974  16.925  -5.374  1.00 20.00    -0.096 C 
HETATM    3  C4  UNL     1     -35.868  15.373  -4.776  1.00 20.00     0.044 A 
HETATM    4  C5  UNL     1     -34.388  15.701  -4.735  1.00 20.00     0.118 A 
HETATM    5  C6  UNL     1     -34.914  14.548  -5.603  1.00 20.00    -0.018 A 
HETATM    6  C7  UNL     1     -34.664  13.123  -5.167  1.00 20.00     0.017 C 
HETATM    7  C8  UNL     1     -34.971  14.705  -7.104  1.00 20.00     0.017 C 
ENDROOT
BRANCH   4   8
HETATM    8  C3  UNL     1     -33.656  15.384  -3.491  1.00 20.00     0.280 C 
HETATM    9  O10 UNL     1     -32.469  15.090  -3.450  1.00 20.00    -0.263 OA
BRANCH   8  10
HETATM   10  O11 UNL     1     -34.505  15.472  -2.427  1.00 20.00    -0.325 OA
HETATM   11  C9  UNL     1     -34.283  16.584  -1.554  1.00 20.00     0.213 C 
ENDBRANCH   8  10
ENDBRANCH   4   8
TORSDOF 2
ENDMDL
