MODEL 1
REMARK VINA RESULT:      -3.7      0.000      0.000
REMARK  1 active torsions:
REMARK  status: ('A' for Active; 'I' for Inactive)
REMARK    1  A    between atoms: C1_1  and  C3_3 
ROOT
HETATM    1  C2  UNL     1     -34.604   5.195   3.210  1.00 20.00     0.030 A 
HETATM    2  C3  UNL     1     -34.899   6.096   4.379  1.00 20.00     0.070 A 
HETATM    3  C4  UNL     1     -33.994   6.567   3.268  1.00 20.00     0.070 A 
HETATM    4 BR7  UNL     1     -32.108   6.699   3.530  1.00 20.00    -0.090 Br
ENDROOT
BRANCH   2   5
HETATM    5  C1  UNL     1     -34.377   5.750   5.706  1.00 20.00     0.128 C 
HETATM    6  C5  UNL     1     -34.393   4.292   6.080  1.00 20.00     0.091 C 
HETATM    7  O6  UNL     1     -33.945   6.608   6.474  1.00 20.00    -0.298 OA
ENDBRANCH   2   5
TORSDOF 1
ENDMDL
MODEL 2
REMARK VINA RESULT:      -3.7     12.189     12.583
REMARK  1 active torsions:
REMARK  status: ('A' for Active; 'I' for Inactive)
REMARK    1  A    between atoms: C1_1  and  C3_3 
ROOT
HETATM    1  C2  UNL     1     -34.219  15.574  -2.739  1.00 20.00     0.030 A 
HETATM    2  C3  UNL     1     -33.982  14.231  -3.377  1.00 20.00     0.070 A 
HETATM    3  C4  UNL     1     -33.237  15.446  -3.869  1.00 20.00     0.070 A 
HETATM    4 BR7  UNL     1     -33.681  16.257  -5.538  1.00 20.00    -0.090 Br
ENDROOT
BRANCH   2   5
HETATM    5  C1  UNL     1     -35.051  13.609  -4.166  1.00 20.00     0.128 C 
HETATM    6  C5  UNL     1     -36.413  14.244  -4.080  1.00 20.00     0.091 C 
HETATM    7  O6  UNL     1     -34.845  12.618  -4.865  1.00 20.00    -0.298 OA
ENDBRANCH   2   5
TORSDOF 1
ENDMDL
MODEL 3
REMARK VINA RESULT:      -3.7      2.044      3.078
REMARK  1 active torsions:
REMARK  status: ('A' for Active; 'I' for Inactive)
REMARK    1  A    between atoms: C1_1  and  C3_3 
ROOT
HETATM    1  C2  UNL     1     -35.336   4.415   6.231  1.00 20.00     0.030 A 
HETATM    2  C3  UNL     1     -34.463   4.421   5.005  1.00 20.00     0.070 A 
HETATM    3  C4  UNL     1     -33.956   5.005   6.299  1.00 20.00     0.070 A 
HETATM    4 BR7  UNL     1     -33.800   6.894   6.526  1.00 20.00    -0.090 Br
ENDROOT
BRANCH   2   5
HETATM    5  C1  UNL     1     -34.828   5.270   3.865  1.00 20.00     0.128 C 
HETATM    6  C5  UNL     1     -33.707   5.701   2.957  1.00 20.00     0.091 C 
HETATM    7  O6  UNL     1     -35.991   5.611   3.659  1.00 20.00    -0.298 OA
ENDBRANCH   2   5
TORSDOF 1
ENDMDL
MODEL 4
REMARK VINA RESULT:      -3.6      2.435      3.316
REMARK  1 active torsions:
REMARK  status: ('A' for Active; 'I' for Inactive)
REMARK    1  A    between atoms: C1_1  and  C3_3 
ROOT
HETATM    1  C2  UNL     1     -33.514   6.521   6.093  1.00 20.00     0.030 A 
HETATM    2  C3  UNL     1     -34.263   6.597   4.790  1.00 20.00     0.070 A 
HETATM    3  C4  UNL     1     -34.778   5.731   5.911  1.00 20.00     0.070 A 
HETATM    4 BR7  UNL     1     -34.642   3.829   5.822  1.00 20.00    -0.090 Br
ENDROOT
BRANCH   2   5
HETATM    5  C1  UNL     1     -33.665   6.019   3.580  1.00 20.00     0.128 C 
HETATM    6  C5  UNL     1     -32.204   6.298   3.348  1.00 20.00     0.091 C 
HETATM    7  O6  UNL     1     -34.324   5.340   2.795  1.00 20.00    -0.298 OA
ENDBRANCH   2   5
TORSDOF 1
ENDMDL
MODEL 5
REMARK VINA RESULT:      -3.6      1.026      1.290
REMARK  1 active torsions:
REMARK  status: ('A' for Active; 'I' for Inactive)
REMARK    1  A    between atoms: C1_1  and  C3_3 
ROOT
HETATM    1  C2  UNL     1     -34.747   5.048   3.216  1.00 20.00     0.030 A 
HETATM    2  C3  UNL     1     -34.941   5.938   4.414  1.00 20.00     0.070 A 
HETATM    3  C4  UNL     1     -34.090   6.398   3.257  1.00 20.00     0.070 A 
HETATM    4 BR7  UNL     1     -32.188   6.465   3.406  1.00 20.00    -0.090 Br
ENDROOT
BRANCH   2   5
HETATM    5  C1  UNL     1     -34.352   5.554   5.701  1.00 20.00     0.128 C 
HETATM    6  C5  UNL     1     -33.942   6.674   6.620  1.00 20.00     0.091 C 
HETATM    7  O6  UNL     1     -34.200   4.374   6.016  1.00 20.00    -0.298 OA
ENDBRANCH   2   5
TORSDOF 1
ENDMDL
MODEL 6
REMARK VINA RESULT:      -3.6      2.169      2.817
REMARK  1 active torsions:
REMARK  status: ('A' for Active; 'I' for Inactive)
REMARK    1  A    between atoms: C1_1  and  C3_3 
ROOT
HETATM    1  C2  UNL     1     -35.818   5.724   3.727  1.00 20.00     0.030 A 
HETATM    2  C3  UNL     1     -34.382   5.393   3.418  1.00 20.00     0.070 A 
HETATM    3  C4  UNL     1     -35.190   4.495   4.320  1.00 20.00     0.070 A 
HETATM    4 BR7  UNL     1     -34.883   4.466   6.204  1.00 20.00    -0.090 Br
ENDROOT
BRANCH   2   5
HETATM    5  C1  UNL     1     -33.315   6.254   3.940  1.00 20.00     0.128 C 
HETATM    6  C5  UNL     1     -32.026   6.280   3.165  1.00 20.00     0.091 C 
HETATM    7  O6  UNL     1     -33.467   6.924   4.961  1.00 20.00    -0.298 OA
ENDBRANCH   2   5
TORSDOF 1
ENDMDL
MODEL 7
REMARK VINA RESULT:      -3.5     12.167     12.951
REMARK  1 active torsions:
REMARK  status: ('A' for Active; 'I' for Inactive)
REMARK    1  A    between atoms: C1_1  and  C3_3 
ROOT
HETATM    1  C2  UNL     1     -36.649  14.956  -5.038  1.00 20.00     0.030 A 
HETATM    2  C3  UNL     1     -35.379  14.936  -4.231  1.00 20.00     0.070 A 
HETATM    3  C4  UNL     1     -35.446  15.716  -5.519  1.00 20.00     0.070 A 
HETATM    4 BR7  UNL     1     -34.560  15.092  -7.090  1.00 20.00    -0.090 Br
ENDROOT
BRANCH   2   5
HETATM    5  C1  UNL     1     -34.613  13.689  -4.123  1.00 20.00     0.128 C 
HETATM    6  C5  UNL     1     -33.189  13.808  -3.648  1.00 20.00     0.091 C 
HETATM    7  O6  UNL     1     -35.109  12.599  -4.404  1.00 20.00    -0.298 OA
ENDBRANCH   2   5
TORSDOF 1
ENDMDL
MODEL 8
REMARK VINA RESULT:      -3.4     12.195     13.223
REMARK  1 active torsions:
REMARK  status: ('A' for Active; 'I' for Inactive)
REMARK    1  A    between atoms: C1_1  and  C3_3 
ROOT
HETATM    1  C2  UNL     1     -34.154  15.784  -5.937  1.00 20.00     0.030 A 
HETATM    2  C3  UNL     1     -34.581  14.341  -5.907  1.00 20.00     0.070 A 
HETATM    3  C4  UNL     1     -35.614  15.435  -6.003  1.00 20.00     0.070 A 
HETATM    4 BR7  UNL     1     -36.711  15.882  -4.507  1.00 20.00    -0.090 Br
ENDROOT
BRANCH   2   5
HETATM    5  C1  UNL     1     -34.396  13.560  -4.678  1.00 20.00     0.128 C 
HETATM    6  C5  UNL     1     -33.290  14.000  -3.757  1.00 20.00     0.091 C 
HETATM    7  O6  UNL     1     -35.110  12.594  -4.413  1.00 20.00    -0.298 OA
ENDBRANCH   2   5
TORSDOF 1
ENDMDL
MODEL 9
REMARK VINA RESULT:      -3.4     12.280     12.787
REMARK  1 active torsions:
REMARK  status: ('A' for Active; 'I' for Inactive)
REMARK    1  A    between atoms: C1_1  and  C3_3 
ROOT
HETATM    1  C2  UNL     1     -36.469  15.982  -4.281  1.00 20.00     0.030 A 
HETATM    2  C3  UNL     1     -36.285  14.526  -3.944  1.00 20.00     0.070 A 
HETATM    3  C4  UNL     1     -35.823  15.590  -2.982  1.00 20.00     0.070 A 
HETATM    4 BR7  UNL     1     -33.966  15.967  -2.754  1.00 20.00    -0.090 Br
ENDROOT
BRANCH   2   5
HETATM    5  C1  UNL     1     -35.334  13.721  -4.720  1.00 20.00     0.128 C 
HETATM    6  C5  UNL     1     -34.955  14.244  -6.079  1.00 20.00     0.091 C 
HETATM    7  O6  UNL     1     -34.868  12.671  -4.281  1.00 20.00    -0.298 OA
ENDBRANCH   2   5
TORSDOF 1
ENDMDL
