MODEL 1
REMARK VINA RESULT:      -4.9      0.000      0.000
REMARK  1 active torsions:
REMARK  status: ('A' for Active; 'I' for Inactive)
REMARK    1  A    between atoms: C3_3  and  C8_8 
ROOT
HETATM    1  C1  UNL     1     -34.125  17.215  -2.789  1.00 20.00    -0.025 C 
HETATM    2  C2  UNL     1     -34.456  16.119  -2.091  1.00 20.00    -0.022 C 
HETATM    3  C4  UNL     1     -32.927  15.455  -3.692  1.00 20.00     0.021 C 
HETATM    4  C5  UNL     1     -34.819  16.198  -4.936  1.00 20.00     0.063 C 
HETATM    5  C6  UNL     1     -33.616  16.751  -4.133  1.00 20.00     0.012 C 
HETATM    6  C7  UNL     1     -34.176  14.924  -2.975  1.00 20.00     0.059 C 
HETATM    7  C8  UNL     1     -35.210  14.931  -4.125  1.00 20.00     0.202 C 
HETATM    8  F11 UNL     1     -36.465  15.067  -3.623  1.00 20.00    -0.231 F 
ENDROOT
BRANCH   7   9
HETATM    9  C3  UNL     1     -35.121  13.675  -4.936  1.00 20.00     0.338 C 
HETATM   10  O9  UNL     1     -35.033  12.548  -4.475  1.00 20.00    -0.256 OA
HETATM   11  F10 UNL     1     -35.181  13.790  -6.271  1.00 20.00    -0.161 F 
ENDBRANCH   7   9
TORSDOF 1
ENDMDL
MODEL 2
REMARK VINA RESULT:      -4.9      1.470      1.897
REMARK  1 active torsions:
REMARK  status: ('A' for Active; 'I' for Inactive)
REMARK    1  A    between atoms: C3_3  and  C8_8 
ROOT
HETATM    1  C1  UNL     1     -34.932  17.763  -3.574  1.00 20.00    -0.025 C 
HETATM    2  C2  UNL     1     -35.977  16.939  -3.737  1.00 20.00    -0.022 C 
HETATM    3  C4  UNL     1     -34.591  15.958  -2.169  1.00 20.00     0.021 C 
HETATM    4  C5  UNL     1     -33.301  16.001  -4.172  1.00 20.00     0.063 C 
HETATM    5  C6  UNL     1     -33.789  16.934  -3.038  1.00 20.00     0.012 C 
HETATM    6  C7  UNL     1     -35.527  15.558  -3.318  1.00 20.00     0.059 C 
HETATM    7  C8  UNL     1     -34.512  15.049  -4.370  1.00 20.00     0.202 C 
HETATM    8  F11 UNL     1     -35.024  15.196  -5.620  1.00 20.00    -0.231 F 
ENDROOT
BRANCH   7   9
HETATM    9  C3  UNL     1     -34.165  13.612  -4.130  1.00 20.00     0.338 C 
HETATM   10  O9  UNL     1     -34.886  12.662  -4.394  1.00 20.00    -0.256 OA
HETATM   11  F10 UNL     1     -32.954  13.341  -3.622  1.00 20.00    -0.161 F 
ENDBRANCH   7   9
TORSDOF 1
ENDMDL
MODEL 3
REMARK VINA RESULT:      -4.8      1.672      2.143
REMARK  1 active torsions:
REMARK  status: ('A' for Active; 'I' for Inactive)
REMARK    1  A    between atoms: C3_3  and  C8_8 
ROOT
HETATM    1  C1  UNL     1     -34.840  17.707  -4.767  1.00 20.00    -0.025 C 
HETATM    2  C2  UNL     1     -33.659  17.387  -4.218  1.00 20.00    -0.022 C 
HETATM    3  C4  UNL     1     -34.008  15.908  -5.959  1.00 20.00     0.021 C 
HETATM    4  C5  UNL     1     -35.754  15.436  -4.408  1.00 20.00     0.063 C 
HETATM    5  C6  UNL     1     -35.348  16.476  -5.480  1.00 20.00     0.012 C 
HETATM    6  C7  UNL     1     -33.386  15.939  -4.557  1.00 20.00     0.059 C 
HETATM    7  C8  UNL     1     -34.389  15.067  -3.763  1.00 20.00     0.202 C 
HETATM    8  F11 UNL     1     -34.380  15.423  -2.452  1.00 20.00    -0.231 F 
ENDROOT
BRANCH   7   9
HETATM    9  C3  UNL     1     -34.059  13.612  -3.896  1.00 20.00     0.338 C 
HETATM   10  O9  UNL     1     -34.848  12.742  -4.230  1.00 20.00    -0.256 OA
HETATM   11  F10 UNL     1     -32.792  13.238  -3.667  1.00 20.00    -0.161 F 
ENDBRANCH   7   9
TORSDOF 1
ENDMDL
MODEL 4
REMARK VINA RESULT:      -4.7      2.413      3.673
REMARK  1 active torsions:
REMARK  status: ('A' for Active; 'I' for Inactive)
REMARK    1  A    between atoms: C3_3  and  C8_8 
ROOT
HETATM    1  C1  UNL     1     -34.796  13.843  -5.666  1.00 20.00    -0.025 C 
HETATM    2  C2  UNL     1     -34.360  13.302  -4.519  1.00 20.00    -0.022 C 
HETATM    3  C4  UNL     1     -36.039  14.788  -3.960  1.00 20.00     0.021 C 
HETATM    4  C5  UNL     1     -34.319  16.146  -4.897  1.00 20.00     0.063 C 
HETATM    5  C6  UNL     1     -35.439  15.165  -5.320  1.00 20.00     0.012 C 
HETATM    6  C7  UNL     1     -34.704  14.270  -3.409  1.00 20.00     0.059 C 
HETATM    7  C8  UNL     1     -33.805  15.519  -3.571  1.00 20.00     0.202 C 
HETATM    8  F11 UNL     1     -32.506  15.144  -3.704  1.00 20.00    -0.231 F 
ENDROOT
BRANCH   7   9
HETATM    9  C3  UNL     1     -33.949  16.441  -2.401  1.00 20.00     0.338 C 
HETATM   10  O9  UNL     1     -33.665  17.629  -2.404  1.00 20.00    -0.256 OA
HETATM   11  F10 UNL     1     -34.465  15.937  -1.271  1.00 20.00    -0.161 F 
ENDBRANCH   7   9
TORSDOF 1
ENDMDL
MODEL 5
REMARK VINA RESULT:      -4.7     11.477     12.413
REMARK  1 active torsions:
REMARK  status: ('A' for Active; 'I' for Inactive)
REMARK    1  A    between atoms: C3_3  and  C8_8 
ROOT
HETATM    1  C1  UNL     1     -35.038   4.520   4.595  1.00 20.00    -0.025 C 
HETATM    2  C2  UNL     1     -34.093   4.970   5.433  1.00 20.00    -0.022 C 
HETATM    3  C4  UNL     1     -34.958   6.818   4.348  1.00 20.00     0.021 C 
HETATM    4  C5  UNL     1     -33.935   5.529   2.624  1.00 20.00     0.063 C 
HETATM    5  C6  UNL     1     -35.203   5.558   3.511  1.00 20.00     0.012 C 
HETATM    6  C7  UNL     1     -33.621   6.304   4.900  1.00 20.00     0.059 C 
HETATM    7  C8  UNL     1     -32.835   6.044   3.593  1.00 20.00     0.202 C 
HETATM    8  F11 UNL     1     -31.902   5.078   3.796  1.00 20.00    -0.231 F 
ENDROOT
BRANCH   7   9
HETATM    9  C3  UNL     1     -32.172   7.295   3.106  1.00 20.00     0.338 C 
HETATM   10  O9  UNL     1     -32.435   7.866   2.059  1.00 20.00    -0.256 OA
HETATM   11  F10 UNL     1     -31.244   7.856   3.895  1.00 20.00    -0.161 F 
ENDBRANCH   7   9
TORSDOF 1
ENDMDL
MODEL 6
REMARK VINA RESULT:      -4.6      2.359      3.593
REMARK  1 active torsions:
REMARK  status: ('A' for Active; 'I' for Inactive)
REMARK    1  A    between atoms: C3_3  and  C8_8 
ROOT
HETATM    1  C1  UNL     1     -35.024  14.023  -5.614  1.00 20.00    -0.025 C 
HETATM    2  C2  UNL     1     -34.179  15.054  -5.760  1.00 20.00    -0.022 C 
HETATM    3  C4  UNL     1     -33.586  13.977  -3.803  1.00 20.00     0.021 C 
HETATM    4  C5  UNL     1     -35.782  14.808  -3.393  1.00 20.00     0.063 C 
HETATM    5  C6  UNL     1     -35.049  13.671  -4.145  1.00 20.00     0.012 C 
HETATM    6  C7  UNL     1     -33.648  15.395  -4.386  1.00 20.00     0.059 C 
HETATM    7  C8  UNL     1     -34.809  16.008  -3.566  1.00 20.00     0.202 C 
HETATM    8  F11 UNL     1     -35.409  16.998  -4.276  1.00 20.00    -0.231 F 
ENDROOT
BRANCH   7   9
HETATM    9  C3  UNL     1     -34.317  16.548  -2.258  1.00 20.00     0.338 C 
HETATM   10  O9  UNL     1     -33.610  17.535  -2.129  1.00 20.00    -0.256 OA
HETATM   11  F10 UNL     1     -34.712  15.924  -1.139  1.00 20.00    -0.161 F 
ENDBRANCH   7   9
TORSDOF 1
ENDMDL
MODEL 7
REMARK VINA RESULT:      -4.6      1.327      2.255
REMARK  1 active torsions:
REMARK  status: ('A' for Active; 'I' for Inactive)
REMARK    1  A    between atoms: C3_3  and  C8_8 
ROOT
HETATM    1  C1  UNL     1     -33.677  17.527  -3.999  1.00 20.00    -0.025 C 
HETATM    2  C2  UNL     1     -33.279  16.775  -5.036  1.00 20.00    -0.022 C 
HETATM    3  C4  UNL     1     -35.575  16.555  -4.894  1.00 20.00     0.021 C 
HETATM    4  C5  UNL     1     -34.752  15.605  -2.869  1.00 20.00     0.063 C 
HETATM    5  C6  UNL     1     -35.006  16.979  -3.536  1.00 20.00     0.012 C 
HETATM    6  C7  UNL     1     -34.339  15.720  -5.256  1.00 20.00     0.059 C 
HETATM    7  C8  UNL     1     -34.283  14.732  -4.067  1.00 20.00     0.202 C 
HETATM    8  F11 UNL     1     -33.005  14.315  -3.868  1.00 20.00    -0.231 F 
ENDROOT
BRANCH   7   9
HETATM    9  C3  UNL     1     -35.171  13.551  -4.306  1.00 20.00     0.338 C 
HETATM   10  O9  UNL     1     -34.811  12.488  -4.787  1.00 20.00    -0.256 OA
HETATM   11  F10 UNL     1     -36.454  13.650  -3.928  1.00 20.00    -0.161 F 
ENDBRANCH   7   9
TORSDOF 1
ENDMDL
MODEL 8
REMARK VINA RESULT:      -4.6      1.639      1.894
REMARK  1 active torsions:
REMARK  status: ('A' for Active; 'I' for Inactive)
REMARK    1  A    between atoms: C3_3  and  C8_8 
ROOT
HETATM    1  C1  UNL     1     -33.991  15.930  -2.485  1.00 20.00    -0.025 C 
HETATM    2  C2  UNL     1     -35.244  15.550  -2.775  1.00 20.00    -0.022 C 
HETATM    3  C4  UNL     1     -33.832  14.020  -3.780  1.00 20.00     0.021 C 
HETATM    4  C5  UNL     1     -33.361  16.085  -4.873  1.00 20.00     0.063 C 
HETATM    5  C6  UNL     1     -33.089  15.340  -3.544  1.00 20.00     0.012 C 
HETATM    6  C7  UNL     1     -35.177  14.715  -4.034  1.00 20.00     0.059 C 
HETATM    7  C8  UNL     1     -34.815  15.653  -5.210  1.00 20.00     0.202 C 
HETATM    8  F11 UNL     1     -35.636  16.736  -5.211  1.00 20.00    -0.231 F 
ENDROOT
BRANCH   7   9
HETATM    9  C3  UNL     1     -34.918  14.937  -6.521  1.00 20.00     0.338 C 
HETATM   10  O9  UNL     1     -35.927  14.396  -6.947  1.00 20.00    -0.256 OA
HETATM   11  F10 UNL     1     -33.832  14.918  -7.307  1.00 20.00    -0.161 F 
ENDBRANCH   7   9
TORSDOF 1
ENDMDL
MODEL 9
REMARK VINA RESULT:      -4.5      1.645      2.474
REMARK  1 active torsions:
REMARK  status: ('A' for Active; 'I' for Inactive)
REMARK    1  A    between atoms: C3_3  and  C8_8 
ROOT
HETATM    1  C1  UNL     1     -35.072  17.152  -6.760  1.00 20.00    -0.025 C 
HETATM    2  C2  UNL     1     -35.510  17.298  -5.501  1.00 20.00    -0.022 C 
HETATM    3  C4  UNL     1     -33.474  16.212  -5.378  1.00 20.00     0.021 C 
HETATM    4  C5  UNL     1     -34.898  14.694  -6.537  1.00 20.00     0.063 C 
HETATM    5  C6  UNL     1     -34.097  15.999  -6.762  1.00 20.00     0.012 C 
HETATM    6  C7  UNL     1     -34.833  16.235  -4.666  1.00 20.00     0.059 C 
HETATM    7  C8  UNL     1     -35.414  14.862  -5.081  1.00 20.00     0.202 C 
HETATM    8  F11 UNL     1     -36.772  14.908  -5.068  1.00 20.00    -0.231 F 
ENDROOT
BRANCH   7   9
HETATM    9  C3  UNL     1     -34.935  13.777  -4.168  1.00 20.00     0.338 C 
HETATM   10  O9  UNL     1     -34.975  12.582  -4.417  1.00 20.00    -0.256 OA
HETATM   11  F10 UNL     1     -34.384  14.142  -3.001  1.00 20.00    -0.161 F 
ENDBRANCH   7   9
TORSDOF 1
ENDMDL
