MODEL 1
REMARK VINA RESULT:      -5.0      0.000      0.000
REMARK  1 active torsions:
REMARK  status: ('A' for Active; 'I' for Inactive)
REMARK    1  A    between atoms: C1_1  and  C4_4 
ROOT
HETATM    1  C1  UNL     1     -32.654   7.103   2.827  1.00 20.00    -0.047 C 
HETATM    2  C2  UNL     1     -32.331   8.045   2.155  1.00 20.00    -0.106 C 
HETATM    3  C6  UNL     1     -31.937   9.191   1.338  1.00 20.00     0.112 C 
ENDROOT
BRANCH   1   4
HETATM    4  C4  UNL     1     -33.049   5.955   3.646  1.00 20.00     0.343 C 
HETATM    5  O8  UNL     1     -34.084   5.210   2.987  1.00 20.00    -0.348 OA
HETATM    6  C3  UNL     1     -35.262   5.466   3.753  1.00 20.00     0.203 C 
HETATM    7  C5  UNL     1     -34.743   5.709   5.150  1.00 20.00     0.145 C 
HETATM    8  C7  UNL     1     -34.466   4.422   5.917  1.00 20.00     0.042 C 
HETATM    9  O9  UNL     1     -33.511   6.402   4.928  1.00 20.00    -0.343 OA
ENDBRANCH   1   4
TORSDOF 1
ENDMDL
MODEL 2
REMARK VINA RESULT:      -4.2     11.531     12.455
REMARK  1 active torsions:
REMARK  status: ('A' for Active; 'I' for Inactive)
REMARK    1  A    between atoms: C1_1  and  C4_4 
ROOT
HETATM    1  C1  UNL     1     -34.516  16.029  -1.940  1.00 20.00    -0.047 C 
HETATM    2  C2  UNL     1     -34.673  16.631  -0.913  1.00 20.00    -0.106 C 
HETATM    3  C6  UNL     1     -34.864  17.364   0.338  1.00 20.00     0.112 C 
ENDROOT
BRANCH   1   4
HETATM    4  C4  UNL     1     -34.325  15.294  -3.192  1.00 20.00     0.343 C 
HETATM    5  O8  UNL     1     -33.010  15.537  -3.715  1.00 20.00    -0.348 OA
HETATM    6  C3  UNL     1     -33.219  16.358  -4.864  1.00 20.00     0.203 C 
HETATM    7  C5  UNL     1     -34.587  15.950  -5.359  1.00 20.00     0.145 C 
HETATM    8  C7  UNL     1     -34.562  14.684  -6.207  1.00 20.00     0.042 C 
HETATM    9  O9  UNL     1     -35.312  15.697  -4.152  1.00 20.00    -0.343 OA
ENDBRANCH   1   4
TORSDOF 1
ENDMDL
MODEL 3
REMARK VINA RESULT:      -4.1     10.848     11.603
REMARK  1 active torsions:
REMARK  status: ('A' for Active; 'I' for Inactive)
REMARK    1  A    between atoms: C1_1  and  C4_4 
ROOT
HETATM    1  C1  UNL     1     -34.688  16.222  -1.950  1.00 20.00    -0.047 C 
HETATM    2  C2  UNL     1     -34.750  16.718  -0.858  1.00 20.00    -0.106 C 
HETATM    3  C6  UNL     1     -34.826  17.322   0.471  1.00 20.00     0.112 C 
ENDROOT
BRANCH   1   4
HETATM    4  C4  UNL     1     -34.611  15.617  -3.281  1.00 20.00     0.343 C 
HETATM    5  O8  UNL     1     -35.835  15.838  -3.998  1.00 20.00    -0.348 OA
HETATM    6  C3  UNL     1     -36.463  14.556  -4.051  1.00 20.00     0.203 C 
HETATM    7  C5  UNL     1     -35.308  13.583  -4.037  1.00 20.00     0.145 C 
HETATM    8  C7  UNL     1     -34.678  13.385  -5.409  1.00 20.00     0.042 C 
HETATM    9  O9  UNL     1     -34.360  14.209  -3.166  1.00 20.00    -0.343 OA
ENDBRANCH   1   4
TORSDOF 1
ENDMDL
MODEL 4
REMARK VINA RESULT:      -3.9     11.323     12.379
REMARK  1 active torsions:
REMARK  status: ('A' for Active; 'I' for Inactive)
REMARK    1  A    between atoms: C1_1  and  C4_4 
ROOT
HETATM    1  C1  UNL     1     -34.830  16.551  -1.602  1.00 20.00    -0.047 C 
HETATM    2  C2  UNL     1     -34.824  16.978  -0.480  1.00 20.00    -0.106 C 
HETATM    3  C6  UNL     1     -34.817  17.499   0.886  1.00 20.00     0.112 C 
ENDROOT
BRANCH   1   4
HETATM    4  C4  UNL     1     -34.837  16.030  -2.971  1.00 20.00     0.343 C 
HETATM    5  O8  UNL     1     -34.145  14.773  -3.026  1.00 20.00    -0.348 OA
HETATM    6  C3  UNL     1     -32.930  15.055  -3.721  1.00 20.00     0.203 C 
HETATM    7  C5  UNL     1     -33.291  16.199  -4.637  1.00 20.00     0.145 C 
HETATM    8  C7  UNL     1     -33.977  15.745  -5.920  1.00 20.00     0.042 C 
HETATM    9  O9  UNL     1     -34.211  16.969  -3.856  1.00 20.00    -0.343 OA
ENDBRANCH   1   4
TORSDOF 1
ENDMDL
MODEL 5
REMARK VINA RESULT:      -3.8      1.400      4.443
REMARK  1 active torsions:
REMARK  status: ('A' for Active; 'I' for Inactive)
REMARK    1  A    between atoms: C1_1  and  C4_4 
ROOT
HETATM    1  C1  UNL     1     -33.863   5.616   4.182  1.00 20.00    -0.047 C 
HETATM    2  C2  UNL     1     -34.448   5.142   5.118  1.00 20.00    -0.106 C 
HETATM    3  C6  UNL     1     -35.161   4.565   6.256  1.00 20.00     0.112 C 
ENDROOT
BRANCH   1   4
HETATM    4  C4  UNL     1     -33.148   6.194   3.042  1.00 20.00     0.343 C 
HETATM    5  O8  UNL     1     -31.730   6.083   3.238  1.00 20.00    -0.348 OA
HETATM    6  C3  UNL     1     -31.291   7.418   3.491  1.00 20.00     0.203 C 
HETATM    7  C5  UNL     1     -32.274   8.276   2.731  1.00 20.00     0.145 C 
HETATM    8  C7  UNL     1     -31.942   8.396   1.249  1.00 20.00     0.042 C 
HETATM    9  O9  UNL     1     -33.512   7.573   2.883  1.00 20.00    -0.343 OA
ENDBRANCH   1   4
TORSDOF 1
ENDMDL
MODEL 6
REMARK VINA RESULT:      -3.7      9.870     11.147
REMARK  1 active torsions:
REMARK  status: ('A' for Active; 'I' for Inactive)
REMARK    1  A    between atoms: C1_1  and  C4_4 
ROOT
HETATM    1  C1  UNL     1     -41.953   3.474  -2.611  1.00 20.00    -0.047 C 
HETATM    2  C2  UNL     1     -41.695   2.469  -3.216  1.00 20.00    -0.106 C 
HETATM    3  C6  UNL     1     -41.382   1.245  -3.952  1.00 20.00     0.112 C 
ENDROOT
BRANCH   1   4
HETATM    4  C4  UNL     1     -42.265   4.700  -1.874  1.00 20.00     0.343 C 
HETATM    5  O8  UNL     1     -43.384   5.368  -2.476  1.00 20.00    -0.348 OA
HETATM    6  C3  UNL     1     -42.828   6.530  -3.092  1.00 20.00     0.203 C 
HETATM    7  C5  UNL     1     -41.629   6.858  -2.235  1.00 20.00     0.145 C 
HETATM    8  C7  UNL     1     -41.989   7.638  -0.976  1.00 20.00     0.042 C 
HETATM    9  O9  UNL     1     -41.125   5.571  -1.865  1.00 20.00    -0.343 OA
ENDBRANCH   1   4
TORSDOF 1
ENDMDL
MODEL 7
REMARK VINA RESULT:      -3.6      9.074     10.644
REMARK  1 active torsions:
REMARK  status: ('A' for Active; 'I' for Inactive)
REMARK    1  A    between atoms: C1_1  and  C4_4 
ROOT
HETATM    1  C1  UNL     1     -41.979   3.201  -2.764  1.00 20.00    -0.047 C 
HETATM    2  C2  UNL     1     -41.682   2.218  -3.387  1.00 20.00    -0.106 C 
HETATM    3  C6  UNL     1     -41.320   1.022  -4.146  1.00 20.00     0.112 C 
ENDROOT
BRANCH   1   4
HETATM    4  C4  UNL     1     -42.342   4.399  -2.005  1.00 20.00     0.343 C 
HETATM    5  O8  UNL     1     -41.234   5.312  -1.958  1.00 20.00    -0.348 OA
HETATM    6  C3  UNL     1     -40.775   5.259  -0.607  1.00 20.00     0.203 C 
HETATM    7  C5  UNL     1     -42.016   4.929   0.188  1.00 20.00     0.145 C 
HETATM    8  C7  UNL     1     -42.882   6.149   0.478  1.00 20.00     0.042 C 
HETATM    9  O9  UNL     1     -42.730   4.036  -0.672  1.00 20.00    -0.343 OA
ENDBRANCH   1   4
TORSDOF 1
ENDMDL
MODEL 8
REMARK VINA RESULT:      -3.5      9.493     10.423
REMARK  1 active torsions:
REMARK  status: ('A' for Active; 'I' for Inactive)
REMARK    1  A    between atoms: C1_1  and  C4_4 
ROOT
HETATM    1  C1  UNL     1     -42.254   7.463  -2.768  1.00 20.00    -0.047 C 
HETATM    2  C2  UNL     1     -42.396   8.036  -3.814  1.00 20.00    -0.106 C 
HETATM    3  C6  UNL     1     -42.569   8.733  -5.088  1.00 20.00     0.112 C 
ENDROOT
BRANCH   1   4
HETATM    4  C4  UNL     1     -42.081   6.764  -1.493  1.00 20.00     0.343 C 
HETATM    5  O8  UNL     1     -40.840   6.041  -1.489  1.00 20.00    -0.348 OA
HETATM    6  C3  UNL     1     -41.219   4.666  -1.566  1.00 20.00     0.203 C 
HETATM    7  C5  UNL     1     -42.568   4.621  -0.891  1.00 20.00     0.145 C 
HETATM    8  C7  UNL     1     -42.474   4.560   0.629  1.00 20.00     0.042 C 
HETATM    9  O9  UNL     1     -43.173   5.859  -1.278  1.00 20.00    -0.343 OA
ENDBRANCH   1   4
TORSDOF 1
ENDMDL
MODEL 9
REMARK VINA RESULT:      -3.4     10.885     12.096
REMARK  1 active torsions:
REMARK  status: ('A' for Active; 'I' for Inactive)
REMARK    1  A    between atoms: C1_1  and  C4_4 
ROOT
HETATM    1  C1  UNL     1     -34.544  15.790  -2.457  1.00 20.00    -0.047 C 
HETATM    2  C2  UNL     1     -34.174  14.853  -3.110  1.00 20.00    -0.106 C 
HETATM    3  C6  UNL     1     -33.725  13.711  -3.906  1.00 20.00     0.112 C 
ENDROOT
BRANCH   1   4
HETATM    4  C4  UNL     1     -34.993  16.933  -1.659  1.00 20.00     0.343 C 
HETATM    5  O8  UNL     1     -34.320  18.128  -2.081  1.00 20.00    -0.348 OA
HETATM    6  C3  UNL     1     -33.419  18.436  -1.016  1.00 20.00     0.203 C 
HETATM    7  C5  UNL     1     -34.106  17.886   0.211  1.00 20.00     0.145 C 
HETATM    8  C7  UNL     1     -35.168  18.823   0.773  1.00 20.00     0.042 C 
HETATM    9  O9  UNL     1     -34.734  16.693  -0.268  1.00 20.00    -0.343 OA
ENDBRANCH   1   4
TORSDOF 1
ENDMDL
