MODEL 1
REMARK VINA RESULT:      -4.3      0.000      0.000
REMARK  1 active torsions:
REMARK  status: ('A' for Active; 'I' for Inactive)
REMARK    1  A    between atoms: C1_1  and  C2_2 
ROOT
HETATM    1  C2  UNL     1     -34.833   6.335   4.834  1.00 20.00     0.154 A 
HETATM    2  C3  UNL     1     -35.332   4.918   5.070  1.00 20.00     0.073 A 
HETATM    3  C4  UNL     1     -35.193   5.451   3.689  1.00 20.00     0.259 A 
HETATM    4  C5  UNL     1     -34.431   3.831   5.546  1.00 20.00     0.017 C 
HETATM    5  F7  UNL     1     -36.312   5.717   2.931  1.00 20.00    -0.205 F 
HETATM    6  F8  UNL     1     -34.226   4.968   2.835  1.00 20.00    -0.205 F 
ENDROOT
BRANCH   1   7
HETATM    7  C1  UNL     1     -33.429   6.684   5.071  1.00 20.00     0.229 C 
HETATM    8  O6  UNL     1     -32.593   6.637   4.175  1.00 20.00    -0.279 OA
HETATM    9 CL9  UNL     1     -33.141   7.150   6.720  1.00 20.00    -0.043 Cl
ENDBRANCH   1   7
TORSDOF 1
ENDMDL
MODEL 2
REMARK VINA RESULT:      -4.2      1.637      1.790
REMARK  1 active torsions:
REMARK  status: ('A' for Active; 'I' for Inactive)
REMARK    1  A    between atoms: C1_1  and  C2_2 
ROOT
HETATM    1  C2  UNL     1     -34.001   6.675   3.729  1.00 20.00     0.154 A 
HETATM    2  C3  UNL     1     -34.594   6.378   5.097  1.00 20.00     0.073 A 
HETATM    3  C4  UNL     1     -34.989   5.575   3.910  1.00 20.00     0.259 A 
HETATM    4  C5  UNL     1     -33.794   5.755   6.189  1.00 20.00     0.017 C 
HETATM    5  F7  UNL     1     -36.258   5.687   3.386  1.00 20.00    -0.205 F 
HETATM    6  F8  UNL     1     -34.613   4.255   3.787  1.00 20.00    -0.205 F 
ENDROOT
BRANCH   1   7
HETATM    7  C1  UNL     1     -32.600   6.354   3.434  1.00 20.00     0.229 C 
HETATM    8  O6  UNL     1     -32.279   5.293   2.908  1.00 20.00    -0.279 OA
HETATM    9 CL9  UNL     1     -31.523   7.631   3.912  1.00 20.00    -0.043 Cl
ENDBRANCH   1   7
TORSDOF 1
ENDMDL
MODEL 3
REMARK VINA RESULT:      -4.1     12.189     12.741
REMARK  1 active torsions:
REMARK  status: ('A' for Active; 'I' for Inactive)
REMARK    1  A    between atoms: C1_1  and  C2_2 
ROOT
HETATM    1  C2  UNL     1     -34.606  14.818  -3.353  1.00 20.00     0.154 A 
HETATM    2  C3  UNL     1     -33.649  15.284  -4.439  1.00 20.00     0.073 A 
HETATM    3  C4  UNL     1     -33.780  13.839  -4.115  1.00 20.00     0.259 A 
HETATM    4  C5  UNL     1     -34.132  15.803  -5.750  1.00 20.00     0.017 C 
HETATM    5  F7  UNL     1     -32.748  13.170  -3.495  1.00 20.00    -0.205 F 
HETATM    6  F8  UNL     1     -34.361  12.961  -5.003  1.00 20.00    -0.205 F 
ENDROOT
BRANCH   1   7
HETATM    7  C1  UNL     1     -36.056  14.865  -3.561  1.00 20.00     0.229 C 
HETATM    8  O6  UNL     1     -36.695  13.866  -3.876  1.00 20.00    -0.279 OA
HETATM    9 CL9  UNL     1     -36.701  16.459  -3.308  1.00 20.00    -0.043 Cl
ENDBRANCH   1   7
TORSDOF 1
ENDMDL
MODEL 4
REMARK VINA RESULT:      -4.1      9.029      9.659
REMARK  1 active torsions:
REMARK  status: ('A' for Active; 'I' for Inactive)
REMARK    1  A    between atoms: C1_1  and  C2_2 
ROOT
HETATM    1  C2  UNL     1     -41.007   4.726  -0.974  1.00 20.00     0.154 A 
HETATM    2  C3  UNL     1     -41.702   4.551   0.367  1.00 20.00     0.073 A 
HETATM    3  C4  UNL     1     -41.203   5.886  -0.058  1.00 20.00     0.259 A 
HETATM    4  C5  UNL     1     -43.167   4.300   0.472  1.00 20.00     0.017 C 
HETATM    5  F7  UNL     1     -40.124   6.459   0.577  1.00 20.00    -0.205 F 
HETATM    6  F8  UNL     1     -42.076   6.902  -0.379  1.00 20.00    -0.205 F 
ENDROOT
BRANCH   1   7
HETATM    7  C1  UNL     1     -41.765   4.651  -2.227  1.00 20.00     0.229 C 
HETATM    8  O6  UNL     1     -42.235   5.652  -2.757  1.00 20.00    -0.279 OA
HETATM    9 CL9  UNL     1     -41.892   3.022  -2.817  1.00 20.00    -0.043 Cl
ENDBRANCH   1   7
TORSDOF 1
ENDMDL
MODEL 5
REMARK VINA RESULT:      -4.0     12.322     12.878
REMARK  1 active torsions:
REMARK  status: ('A' for Active; 'I' for Inactive)
REMARK    1  A    between atoms: C1_1  and  C2_2 
ROOT
HETATM    1  C2  UNL     1     -34.459  14.117  -3.407  1.00 20.00     0.154 A 
HETATM    2  C3  UNL     1     -34.218  15.420  -2.661  1.00 20.00     0.073 A 
HETATM    3  C4  UNL     1     -33.323  15.009  -3.775  1.00 20.00     0.259 A 
HETATM    4  C5  UNL     1     -35.115  16.600  -2.820  1.00 20.00     0.017 C 
HETATM    5  F7  UNL     1     -32.026  14.624  -3.518  1.00 20.00    -0.205 F 
HETATM    6  F8  UNL     1     -33.317  15.692  -4.971  1.00 20.00    -0.205 F 
ENDROOT
BRANCH   1   7
HETATM    7  C1  UNL     1     -35.598  13.975  -4.319  1.00 20.00     0.229 C 
HETATM    8  O6  UNL     1     -36.752  13.909  -3.904  1.00 20.00    -0.279 OA
HETATM    9 CL9  UNL     1     -35.101  13.916  -5.982  1.00 20.00    -0.043 Cl
ENDBRANCH   1   7
TORSDOF 1
ENDMDL
MODEL 6
REMARK VINA RESULT:      -4.0     12.736     13.244
REMARK  1 active torsions:
REMARK  status: ('A' for Active; 'I' for Inactive)
REMARK    1  A    between atoms: C1_1  and  C2_2 
ROOT
HETATM    1  C2  UNL     1     -34.409  13.825  -5.274  1.00 20.00     0.154 A 
HETATM    2  C3  UNL     1     -35.123  13.830  -3.932  1.00 20.00     0.073 A 
HETATM    3  C4  UNL     1     -33.664  14.106  -4.014  1.00 20.00     0.259 A 
HETATM    4  C5  UNL     1     -36.068  14.914  -3.541  1.00 20.00     0.017 C 
HETATM    5  F7  UNL     1     -32.755  13.193  -3.526  1.00 20.00    -0.205 F 
HETATM    6  F8  UNL     1     -33.163  15.362  -3.751  1.00 20.00    -0.205 F 
ENDROOT
BRANCH   1   7
HETATM    7  C1  UNL     1     -34.631  14.902  -6.244  1.00 20.00     0.229 C 
HETATM    8  O6  UNL     1     -33.861  15.853  -6.339  1.00 20.00    -0.279 OA
HETATM    9 CL9  UNL     1     -36.066  14.645  -7.189  1.00 20.00    -0.043 Cl
ENDBRANCH   1   7
TORSDOF 1
ENDMDL
MODEL 7
REMARK VINA RESULT:      -4.0     12.675     13.232
REMARK  1 active torsions:
REMARK  status: ('A' for Active; 'I' for Inactive)
REMARK    1  A    between atoms: C1_1  and  C2_2 
ROOT
HETATM    1  C2  UNL     1     -34.874  15.006  -3.971  1.00 20.00     0.154 A 
HETATM    2  C3  UNL     1     -34.293  16.387  -4.225  1.00 20.00     0.073 A 
HETATM    3  C4  UNL     1     -33.779  15.543  -3.114  1.00 20.00     0.259 A 
HETATM    4  C5  UNL     1     -33.429  16.679  -5.404  1.00 20.00     0.017 C 
HETATM    5  F7  UNL     1     -34.028  15.890  -1.805  1.00 20.00    -0.205 F 
HETATM    6  F8  UNL     1     -32.513  15.003  -3.160  1.00 20.00    -0.205 F 
ENDROOT
BRANCH   1   7
HETATM    7  C1  UNL     1     -34.601  13.897  -4.892  1.00 20.00     0.229 C 
HETATM    8  O6  UNL     1     -33.911  12.938  -4.559  1.00 20.00    -0.279 OA
HETATM    9 CL9  UNL     1     -35.358  14.130  -6.438  1.00 20.00    -0.043 Cl
ENDBRANCH   1   7
TORSDOF 1
ENDMDL
MODEL 8
REMARK VINA RESULT:      -4.0      2.362      2.767
REMARK  1 active torsions:
REMARK  status: ('A' for Active; 'I' for Inactive)
REMARK    1  A    between atoms: C1_1  and  C2_2 
ROOT
HETATM    1  C2  UNL     1     -33.750   5.062   4.497  1.00 20.00     0.154 A 
HETATM    2  C3  UNL     1     -35.205   4.855   4.108  1.00 20.00     0.073 A 
HETATM    3  C4  UNL     1     -34.782   4.761   5.530  1.00 20.00     0.259 A 
HETATM    4  C5  UNL     1     -36.073   5.980   3.659  1.00 20.00     0.017 C 
HETATM    5  F7  UNL     1     -34.783   3.545   6.176  1.00 20.00    -0.205 F 
HETATM    6  F8  UNL     1     -35.164   5.713   6.449  1.00 20.00    -0.205 F 
ENDROOT
BRANCH   1   7
HETATM    7  C1  UNL     1     -33.142   6.395   4.442  1.00 20.00     0.229 C 
HETATM    8  O6  UNL     1     -33.064   7.110   5.436  1.00 20.00    -0.279 OA
HETATM    9 CL9  UNL     1     -32.579   6.791   2.847  1.00 20.00    -0.043 Cl
ENDBRANCH   1   7
TORSDOF 1
ENDMDL
MODEL 9
REMARK VINA RESULT:      -3.9     12.950     13.468
REMARK  1 active torsions:
REMARK  status: ('A' for Active; 'I' for Inactive)
REMARK    1  A    between atoms: C1_1  and  C2_2 
ROOT
HETATM    1  C2  UNL     1     -33.612  16.271  -4.178  1.00 20.00     0.154 A 
HETATM    2  C3  UNL     1     -33.017  15.032  -3.529  1.00 20.00     0.073 A 
HETATM    3  C4  UNL     1     -33.890  15.949  -2.750  1.00 20.00     0.259 A 
HETATM    4  C5  UNL     1     -33.488  13.658  -3.865  1.00 20.00     0.017 C 
HETATM    5  F7  UNL     1     -33.358  16.729  -1.746  1.00 20.00    -0.205 F 
HETATM    6  F8  UNL     1     -35.147  15.560  -2.342  1.00 20.00    -0.205 F 
ENDROOT
BRANCH   1   7
HETATM    7  C1  UNL     1     -34.683  16.155  -5.173  1.00 20.00     0.229 C 
HETATM    8  O6  UNL     1     -35.856  16.378  -4.887  1.00 20.00    -0.279 OA
HETATM    9 CL9  UNL     1     -34.080  15.681  -6.732  1.00 20.00    -0.043 Cl
ENDBRANCH   1   7
TORSDOF 1
ENDMDL
