MODEL 1
REMARK VINA RESULT:      -5.1      0.000      0.000
REMARK  1 active torsions:
REMARK  status: ('A' for Active; 'I' for Inactive)
REMARK    1  A    between atoms: C5_5  and  C10_10 
ROOT
HETATM    1  C1  UNL     1     -33.479  17.319  -5.082  1.00 20.00     0.003 C 
HETATM    2  C2  UNL     1     -33.740  16.436  -6.058  1.00 20.00    -0.025 C 
HETATM    3  C3  UNL     1     -33.728  17.797  -2.642  1.00 20.00    -0.019 C 
HETATM    4  C4  UNL     1     -33.741  16.991  -3.710  1.00 20.00    -0.057 C 
HETATM    5  C6  UNL     1     -34.354  15.081  -5.807  1.00 20.00     0.039 C 
HETATM    6  C7  UNL     1     -34.135  17.058  -1.408  1.00 20.00     0.028 C 
HETATM    7  C8  UNL     1     -34.773  15.784  -1.975  1.00 20.00     0.014 C 
HETATM    8  C9  UNL     1     -34.109  15.580  -3.341  1.00 20.00     0.029 C 
HETATM    9  C10 UNL     1     -35.003  14.952  -4.413  1.00 20.00     0.059 C 
ENDROOT
BRANCH   9  10
HETATM   10  C5  UNL     1     -35.239  13.503  -4.116  1.00 20.00     0.236 C 
HETATM   11  O11 UNL     1     -34.801  12.590  -4.810  1.00 20.00    -0.306 OA
ENDBRANCH   9  10
TORSDOF 1
ENDMDL
MODEL 2
REMARK VINA RESULT:      -4.8      2.082      2.373
REMARK  1 active torsions:
REMARK  status: ('A' for Active; 'I' for Inactive)
REMARK    1  A    between atoms: C5_5  and  C10_10 
ROOT
HETATM    1  C1  UNL     1     -33.367  14.521  -3.410  1.00 20.00     0.003 C 
HETATM    2  C2  UNL     1     -33.902  13.643  -4.273  1.00 20.00    -0.025 C 
HETATM    3  C3  UNL     1     -33.795  16.591  -2.079  1.00 20.00    -0.019 C 
HETATM    4  C4  UNL     1     -34.182  15.532  -2.799  1.00 20.00    -0.057 C 
HETATM    5  C6  UNL     1     -35.350  13.672  -4.695  1.00 20.00     0.039 C 
HETATM    6  C7  UNL     1     -34.968  17.434  -1.694  1.00 20.00     0.028 C 
HETATM    7  C8  UNL     1     -36.071  16.923  -2.630  1.00 20.00     0.014 C 
HETATM    8  C9  UNL     1     -35.676  15.479  -2.958  1.00 20.00     0.029 C 
HETATM    9  C10 UNL     1     -36.058  15.001  -4.361  1.00 20.00     0.059 C 
ENDROOT
BRANCH   9  10
HETATM   10  C5  UNL     1     -37.540  14.805  -4.462  1.00 20.00     0.236 C 
HETATM   11  O11 UNL     1     -38.214  14.278  -3.583  1.00 20.00    -0.306 OA
ENDBRANCH   9  10
TORSDOF 1
ENDMDL
MODEL 3
REMARK VINA RESULT:      -4.7      1.027      3.018
REMARK  1 active torsions:
REMARK  status: ('A' for Active; 'I' for Inactive)
REMARK    1  A    between atoms: C5_5  and  C10_10 
ROOT
HETATM    1  C1  UNL     1     -33.713  17.296  -3.572  1.00 20.00     0.003 C 
HETATM    2  C2  UNL     1     -33.762  16.240  -2.745  1.00 20.00    -0.025 C 
HETATM    3  C3  UNL     1     -33.859  18.028  -5.956  1.00 20.00    -0.019 C 
HETATM    4  C4  UNL     1     -34.036  17.150  -4.963  1.00 20.00    -0.057 C 
HETATM    5  C6  UNL     1     -34.107  14.844  -3.202  1.00 20.00     0.039 C 
HETATM    6  C7  UNL     1     -34.265  17.440  -7.270  1.00 20.00     0.028 C 
HETATM    7  C8  UNL     1     -34.340  15.940  -6.957  1.00 20.00     0.014 C 
HETATM    8  C9  UNL     1     -34.635  15.861  -5.455  1.00 20.00     0.029 C 
HETATM    9  C10 UNL     1     -34.018  14.662  -4.732  1.00 20.00     0.059 C 
ENDROOT
BRANCH   9  10
HETATM   10  C5  UNL     1     -34.725  13.398  -5.115  1.00 20.00     0.236 C 
HETATM   11  O11 UNL     1     -35.151  12.587  -4.299  1.00 20.00    -0.306 OA
ENDBRANCH   9  10
TORSDOF 1
ENDMDL
MODEL 4
REMARK VINA RESULT:      -4.6      1.863      3.648
REMARK  1 active torsions:
REMARK  status: ('A' for Active; 'I' for Inactive)
REMARK    1  A    between atoms: C5_5  and  C10_10 
ROOT
HETATM    1  C1  UNL     1     -33.302  15.816  -4.409  1.00 20.00     0.003 C 
HETATM    2  C2  UNL     1     -33.731  15.785  -3.137  1.00 20.00    -0.025 C 
HETATM    3  C3  UNL     1     -33.957  15.461  -6.793  1.00 20.00    -0.019 C 
HETATM    4  C4  UNL     1     -34.223  15.649  -5.496  1.00 20.00    -0.057 C 
HETATM    5  C6  UNL     1     -35.169  15.535  -2.755  1.00 20.00     0.039 C 
HETATM    6  C7  UNL     1     -35.215  15.258  -7.574  1.00 20.00     0.028 C 
HETATM    7  C8  UNL     1     -36.246  14.962  -6.479  1.00 20.00     0.014 C 
HETATM    8  C9  UNL     1     -35.702  15.652  -5.223  1.00 20.00     0.029 C 
HETATM    9  C10 UNL     1     -36.014  14.943  -3.902  1.00 20.00     0.059 C 
ENDROOT
BRANCH   9  10
HETATM   10  C5  UNL     1     -37.466  15.084  -3.563  1.00 20.00     0.236 C 
HETATM   11  O11 UNL     1     -38.287  14.184  -3.716  1.00 20.00    -0.306 OA
ENDBRANCH   9  10
TORSDOF 1
ENDMDL
MODEL 5
REMARK VINA RESULT:      -4.5      2.020      3.534
REMARK  1 active torsions:
REMARK  status: ('A' for Active; 'I' for Inactive)
REMARK    1  A    between atoms: C5_5  and  C10_10 
ROOT
HETATM    1  C1  UNL     1     -33.799  16.884  -5.633  1.00 20.00     0.003 C 
HETATM    2  C2  UNL     1     -33.610  17.899  -4.775  1.00 20.00    -0.025 C 
HETATM    3  C3  UNL     1     -34.355  14.457  -5.833  1.00 20.00    -0.019 C 
HETATM    4  C4  UNL     1     -34.290  15.618  -5.171  1.00 20.00    -0.057 C 
HETATM    5  C6  UNL     1     -33.847  17.782  -3.289  1.00 20.00     0.039 C 
HETATM    6  C7  UNL     1     -34.865  13.364  -4.949  1.00 20.00     0.028 C 
HETATM    7  C8  UNL     1     -34.720  13.970  -3.548  1.00 20.00     0.014 C 
HETATM    8  C9  UNL     1     -34.795  15.487  -3.761  1.00 20.00     0.029 C 
HETATM    9  C10 UNL     1     -33.948  16.323  -2.798  1.00 20.00     0.059 C 
ENDROOT
BRANCH   9  10
HETATM   10  C5  UNL     1     -34.547  16.309  -1.425  1.00 20.00     0.236 C 
HETATM   11  O11 UNL     1     -34.183  17.054  -0.521  1.00 20.00    -0.306 OA
ENDBRANCH   9  10
TORSDOF 1
ENDMDL
MODEL 6
REMARK VINA RESULT:      -4.5     11.287     12.841
REMARK  1 active torsions:
REMARK  status: ('A' for Active; 'I' for Inactive)
REMARK    1  A    between atoms: C5_5  and  C10_10 
ROOT
HETATM    1  C1  UNL     1     -34.935   4.786   4.024  1.00 20.00     0.003 C 
HETATM    2  C2  UNL     1     -34.433   4.831   2.780  1.00 20.00    -0.025 C 
HETATM    3  C3  UNL     1     -34.711   5.677   6.347  1.00 20.00    -0.019 C 
HETATM    4  C4  UNL     1     -34.474   5.698   5.031  1.00 20.00    -0.057 C 
HETATM    5  C6  UNL     1     -33.342   5.785   2.360  1.00 20.00     0.039 C 
HETATM    6  C7  UNL     1     -33.973   6.775   7.043  1.00 20.00     0.028 C 
HETATM    7  C8  UNL     1     -32.948   7.211   5.989  1.00 20.00     0.014 C 
HETATM    8  C9  UNL     1     -33.582   6.845   4.642  1.00 20.00     0.029 C 
HETATM    9  C10 UNL     1     -32.596   6.424   3.550  1.00 20.00     0.059 C 
ENDROOT
BRANCH   9  10
HETATM   10  C5  UNL     1     -31.818   7.607   3.062  1.00 20.00     0.236 C 
HETATM   11  O11 UNL     1     -32.184   8.319   2.132  1.00 20.00    -0.306 OA
ENDBRANCH   9  10
TORSDOF 1
ENDMDL
MODEL 7
REMARK VINA RESULT:      -4.5      2.512      3.765
REMARK  1 active torsions:
REMARK  status: ('A' for Active; 'I' for Inactive)
REMARK    1  A    between atoms: C5_5  and  C10_10 
ROOT
HETATM    1  C1  UNL     1     -34.864  14.733  -7.014  1.00 20.00     0.003 C 
HETATM    2  C2  UNL     1     -34.790  15.949  -7.576  1.00 20.00    -0.025 C 
HETATM    3  C3  UNL     1     -34.414  13.412  -4.942  1.00 20.00    -0.019 C 
HETATM    4  C4  UNL     1     -34.578  14.553  -5.619  1.00 20.00    -0.057 C 
HETATM    5  C6  UNL     1     -34.368  17.186  -6.821  1.00 20.00     0.039 C 
HETATM    6  C7  UNL     1     -34.052  13.681  -3.517  1.00 20.00     0.028 C 
HETATM    7  C8  UNL     1     -33.640  15.158  -3.548  1.00 20.00     0.014 C 
HETATM    8  C9  UNL     1     -34.401  15.758  -4.736  1.00 20.00     0.029 C 
HETATM    9  C10 UNL     1     -33.669  16.878  -5.481  1.00 20.00     0.059 C 
ENDROOT
BRANCH   9  10
HETATM   10  C5  UNL     1     -33.634  18.123  -4.650  1.00 20.00     0.236 C 
HETATM   11  O11 UNL     1     -33.270  19.213  -5.081  1.00 20.00    -0.306 OA
ENDBRANCH   9  10
TORSDOF 1
ENDMDL
MODEL 8
REMARK VINA RESULT:      -4.4     11.655     13.380
REMARK  1 active torsions:
REMARK  status: ('A' for Active; 'I' for Inactive)
REMARK    1  A    between atoms: C5_5  and  C10_10 
ROOT
HETATM    1  C1  UNL     1     -40.769   4.920  -0.720  1.00 20.00     0.003 C 
HETATM    2  C2  UNL     1     -40.670   6.179  -0.267  1.00 20.00    -0.025 C 
HETATM    3  C3  UNL     1     -41.995   3.404  -2.283  1.00 20.00    -0.019 C 
HETATM    4  C4  UNL     1     -41.627   4.607  -1.827  1.00 20.00    -0.057 C 
HETATM    5  C6  UNL     1     -41.462   7.330  -0.838  1.00 20.00     0.039 C 
HETATM    6  C7  UNL     1     -42.963   3.533  -3.414  1.00 20.00     0.028 C 
HETATM    7  C8  UNL     1     -43.417   4.994  -3.303  1.00 20.00     0.014 C 
HETATM    8  C9  UNL     1     -42.253   5.721  -2.619  1.00 20.00     0.029 C 
HETATM    9  C10 UNL     1     -42.656   6.881  -1.705  1.00 20.00     0.059 C 
ENDROOT
BRANCH   9  10
HETATM   10  C5  UNL     1     -43.137   8.045  -2.516  1.00 20.00     0.236 C 
HETATM   11  O11 UNL     1     -42.561   8.455  -3.518  1.00 20.00    -0.306 OA
ENDBRANCH   9  10
TORSDOF 1
ENDMDL
MODEL 9
REMARK VINA RESULT:      -4.4      1.726      2.890
REMARK  1 active torsions:
REMARK  status: ('A' for Active; 'I' for Inactive)
REMARK    1  A    between atoms: C5_5  and  C10_10 
ROOT
HETATM    1  C1  UNL     1     -35.102  15.737  -7.602  1.00 20.00     0.003 C 
HETATM    2  C2  UNL     1     -35.297  14.456  -7.252  1.00 20.00    -0.025 C 
HETATM    3  C3  UNL     1     -34.296  17.966  -6.815  1.00 20.00    -0.019 C 
HETATM    4  C4  UNL     1     -34.412  16.637  -6.723  1.00 20.00    -0.057 C 
HETATM    5  C6  UNL     1     -34.861  13.883  -5.926  1.00 20.00     0.039 C 
HETATM    6  C7  UNL     1     -33.553  18.522  -5.642  1.00 20.00     0.028 C 
HETATM    7  C8  UNL     1     -33.588  17.360  -4.642  1.00 20.00     0.014 C 
HETATM    8  C9  UNL     1     -33.719  16.098  -5.502  1.00 20.00     0.029 C 
HETATM    9  C10 UNL     1     -34.528  14.961  -4.873  1.00 20.00     0.059 C 
ENDROOT
BRANCH   9  10
HETATM   10  C5  UNL     1     -33.761  14.329  -3.753  1.00 20.00     0.236 C 
HETATM   11  O11 UNL     1     -33.323  13.184  -3.794  1.00 20.00    -0.306 OA
ENDBRANCH   9  10
TORSDOF 1
ENDMDL
