MODEL 1
REMARK VINA RESULT:      -5.1      0.000      0.000
REMARK  0 active torsions:
REMARK  status: ('A' for Active; 'I' for Inactive)
ROOT
HETATM    1  C1  UNL     1     -34.363  16.558  -6.800  1.00 20.00    -0.039 C 
HETATM    2  C2  UNL     1     -34.818  15.180  -6.623  1.00 20.00     0.034 C 
HETATM    3  C3  UNL     1     -34.418  13.594  -4.690  1.00 20.00     0.224 C 
HETATM    4  C4  UNL     1     -34.699  17.417  -7.769  1.00 20.00     0.021 C 
HETATM    5  C5  UNL     1     -35.374  14.385  -7.544  1.00 20.00     0.044 C 
HETATM    6  C6  UNL     1     -33.469  16.898  -5.617  1.00 20.00     0.065 C 
HETATM    7  C7  UNL     1     -33.672  13.871  -3.394  1.00 20.00     0.105 C 
HETATM    8  C8  UNL     1     -32.972  15.216  -3.657  1.00 20.00     0.035 C 
HETATM    9  C9  UNL     1     -33.956  15.911  -4.571  1.00 20.00     0.098 C 
HETATM   10  N10 UNL     1     -34.488  14.816  -5.345  1.00 20.00    -0.313 N 
HETATM   11  O11 UNL     1     -34.828  12.498  -5.037  1.00 20.00    -0.273 OA
ENDROOT
TORSDOF 0
ENDMDL
MODEL 2
REMARK VINA RESULT:      -4.8      2.642      2.984
REMARK  0 active torsions:
REMARK  status: ('A' for Active; 'I' for Inactive)
ROOT
HETATM    1  C1  UNL     1     -36.303  16.718  -3.068  1.00 20.00    -0.039 C 
HETATM    2  C2  UNL     1     -36.434  15.321  -3.475  1.00 20.00     0.034 C 
HETATM    3  C3  UNL     1     -34.629  13.596  -3.898  1.00 20.00     0.224 C 
HETATM    4  C4  UNL     1     -37.276  17.570  -2.723  1.00 20.00     0.021 C 
HETATM    5  C5  UNL     1     -37.536  14.705  -3.917  1.00 20.00     0.044 C 
HETATM    6  C6  UNL     1     -34.817  17.042  -3.023  1.00 20.00     0.065 C 
HETATM    7  C7  UNL     1     -33.125  13.761  -3.740  1.00 20.00     0.105 C 
HETATM    8  C8  UNL     1     -32.942  15.278  -3.559  1.00 20.00     0.035 C 
HETATM    9  C9  UNL     1     -34.208  15.665  -2.830  1.00 20.00     0.098 C 
HETATM   10  N10 UNL     1     -35.183  14.768  -3.403  1.00 20.00    -0.313 N 
HETATM   11  O11 UNL     1     -35.175  12.620  -4.385  1.00 20.00    -0.273 OA
ENDROOT
TORSDOF 0
ENDMDL
MODEL 3
REMARK VINA RESULT:      -4.6      1.771      3.071
REMARK  0 active torsions:
REMARK  status: ('A' for Active; 'I' for Inactive)
ROOT
HETATM    1  C1  UNL     1     -33.868  17.271  -3.217  1.00 20.00    -0.039 C 
HETATM    2  C2  UNL     1     -33.970  16.965  -4.643  1.00 20.00     0.034 C 
HETATM    3  C3  UNL     1     -34.446  14.753  -5.780  1.00 20.00     0.224 C 
HETATM    4  C4  UNL     1     -33.747  18.471  -2.640  1.00 20.00     0.021 C 
HETATM    5  C5  UNL     1     -33.626  17.753  -5.668  1.00 20.00     0.044 C 
HETATM    6  C6  UNL     1     -34.002  15.958  -2.459  1.00 20.00     0.065 C 
HETATM    7  C7  UNL     1     -34.745  13.412  -5.127  1.00 20.00     0.105 C 
HETATM    8  C8  UNL     1     -34.398  13.644  -3.646  1.00 20.00     0.035 C 
HETATM    9  C9  UNL     1     -34.756  15.101  -3.461  1.00 20.00     0.098 C 
HETATM   10  N10 UNL     1     -34.408  15.671  -4.740  1.00 20.00    -0.313 N 
HETATM   11  O11 UNL     1     -34.267  14.920  -6.976  1.00 20.00    -0.273 OA
ENDROOT
TORSDOF 0
ENDMDL
MODEL 4
REMARK VINA RESULT:      -4.5      7.012      8.814
REMARK  0 active torsions:
REMARK  status: ('A' for Active; 'I' for Inactive)
ROOT
HETATM    1  C1  UNL     1     -34.165  18.322   3.379  1.00 20.00    -0.039 C 
HETATM    2  C2  UNL     1     -33.016  18.812   2.621  1.00 20.00     0.034 C 
HETATM    3  C3  UNL     1     -32.552  18.667   0.136  1.00 20.00     0.224 C 
HETATM    4  C4  UNL     1     -34.448  18.528   4.671  1.00 20.00     0.021 C 
HETATM    5  C5  UNL     1     -31.855  19.262   3.109  1.00 20.00     0.044 C 
HETATM    6  C6  UNL     1     -35.066  17.573   2.408  1.00 20.00     0.065 C 
HETATM    7  C7  UNL     1     -33.444  18.080  -0.948  1.00 20.00     0.105 C 
HETATM    8  C8  UNL     1     -34.535  17.336  -0.158  1.00 20.00     0.035 C 
HETATM    9  C9  UNL     1     -34.669  18.194   1.080  1.00 20.00     0.098 C 
HETATM   10  N10 UNL     1     -33.314  18.643   1.295  1.00 20.00    -0.313 N 
HETATM   11  O11 UNL     1     -31.405  19.046  -0.036  1.00 20.00    -0.273 OA
ENDROOT
TORSDOF 0
ENDMDL
MODEL 5
REMARK VINA RESULT:      -4.4      2.003      3.836
REMARK  0 active torsions:
REMARK  status: ('A' for Active; 'I' for Inactive)
ROOT
HETATM    1  C1  UNL     1     -34.168  16.136  -2.813  1.00 20.00    -0.039 C 
HETATM    2  C2  UNL     1     -34.145  16.817  -4.106  1.00 20.00     0.034 C 
HETATM    3  C3  UNL     1     -34.605  15.889  -6.417  1.00 20.00     0.224 C 
HETATM    4  C4  UNL     1     -34.052  16.678  -1.595  1.00 20.00     0.021 C 
HETATM    5  C5  UNL     1     -33.669  18.038  -4.371  1.00 20.00     0.044 C 
HETATM    6  C6  UNL     1     -34.433  14.662  -3.079  1.00 20.00     0.065 C 
HETATM    7  C7  UNL     1     -35.024  14.475  -6.789  1.00 20.00     0.105 C 
HETATM    8  C8  UNL     1     -34.812  13.679  -5.489  1.00 20.00     0.035 C 
HETATM    9  C9  UNL     1     -35.123  14.713  -4.431  1.00 20.00     0.098 C 
HETATM   10  N10 UNL     1     -34.628  15.929  -5.030  1.00 20.00    -0.313 N 
HETATM   11  O11 UNL     1     -34.303  16.759  -7.217  1.00 20.00    -0.273 OA
ENDROOT
TORSDOF 0
ENDMDL
MODEL 6
REMARK VINA RESULT:      -4.4     11.793     13.576
REMARK  0 active torsions:
REMARK  status: ('A' for Active; 'I' for Inactive)
ROOT
HETATM    1  C1  UNL     1     -32.662   6.995   3.240  1.00 20.00    -0.039 C 
HETATM    2  C2  UNL     1     -33.556   5.842   3.149  1.00 20.00     0.034 C 
HETATM    3  C3  UNL     1     -34.883   4.693   4.974  1.00 20.00     0.224 C 
HETATM    4  C4  UNL     1     -32.077   7.664   2.240  1.00 20.00     0.021 C 
HETATM    5  C5  UNL     1     -33.705   5.011   2.112  1.00 20.00     0.044 C 
HETATM    6  C6  UNL     1     -32.558   7.376   4.710  1.00 20.00     0.065 C 
HETATM    7  C7  UNL     1     -34.976   5.076   6.443  1.00 20.00     0.105 C 
HETATM    8  C8  UNL     1     -33.860   6.120   6.619  1.00 20.00     0.035 C 
HETATM    9  C9  UNL     1     -33.846   6.799   5.268  1.00 20.00     0.098 C 
HETATM   10  N10 UNL     1     -34.161   5.713   4.371  1.00 20.00    -0.313 N 
HETATM   11  O11 UNL     1     -35.350   3.676   4.489  1.00 20.00    -0.273 OA
ENDROOT
TORSDOF 0
ENDMDL
MODEL 7
REMARK VINA RESULT:      -4.4      1.354      2.901
REMARK  0 active torsions:
REMARK  status: ('A' for Active; 'I' for Inactive)
ROOT
HETATM    1  C1  UNL     1     -33.923  17.585  -4.625  1.00 20.00    -0.039 C 
HETATM    2  C2  UNL     1     -33.834  16.395  -3.781  1.00 20.00     0.034 C 
HETATM    3  C3  UNL     1     -34.309  13.976  -4.362  1.00 20.00     0.224 C 
HETATM    4  C4  UNL     1     -33.539  18.833  -4.331  1.00 20.00     0.021 C 
HETATM    5  C5  UNL     1     -33.681  16.352  -2.453  1.00 20.00     0.044 C 
HETATM    6  C6  UNL     1     -34.474  17.147  -5.974  1.00 20.00     0.065 C 
HETATM    7  C7  UNL     1     -34.717  13.403  -5.710  1.00 20.00     0.105 C 
HETATM    8  C8  UNL     1     -35.062  14.647  -6.546  1.00 20.00     0.035 C 
HETATM    9  C9  UNL     1     -34.100  15.675  -5.995  1.00 20.00     0.098 C 
HETATM   10  N10 UNL     1     -34.025  15.314  -4.599  1.00 20.00    -0.313 N 
HETATM   11  O11 UNL     1     -34.276  13.346  -3.317  1.00 20.00    -0.273 OA
ENDROOT
TORSDOF 0
ENDMDL
MODEL 8
REMARK VINA RESULT:      -4.3      2.832      3.638
REMARK  0 active torsions:
REMARK  status: ('A' for Active; 'I' for Inactive)
ROOT
HETATM    1  C1  UNL     1     -34.345  15.670  -5.569  1.00 20.00    -0.039 C 
HETATM    2  C2  UNL     1     -33.905  16.997  -5.140  1.00 20.00     0.034 C 
HETATM    3  C3  UNL     1     -33.707  17.942  -2.799  1.00 20.00     0.224 C 
HETATM    4  C4  UNL     1     -34.314  15.152  -6.802  1.00 20.00     0.021 C 
HETATM    5  C5  UNL     1     -33.708  18.074  -5.908  1.00 20.00     0.044 C 
HETATM    6  C6  UNL     1     -34.791  14.914  -4.326  1.00 20.00     0.065 C 
HETATM    7  C7  UNL     1     -33.980  17.235  -1.480  1.00 20.00     0.105 C 
HETATM    8  C8  UNL     1     -34.680  15.932  -1.903  1.00 20.00     0.035 C 
HETATM    9  C9  UNL     1     -34.025  15.639  -3.234  1.00 20.00     0.098 C 
HETATM   10  N10 UNL     1     -33.812  16.960  -3.774  1.00 20.00    -0.313 N 
HETATM   11  O11 UNL     1     -33.471  19.134  -2.914  1.00 20.00    -0.273 OA
ENDROOT
TORSDOF 0
ENDMDL
MODEL 9
REMARK VINA RESULT:      -4.3      2.782      3.689
REMARK  0 active torsions:
REMARK  status: ('A' for Active; 'I' for Inactive)
ROOT
HETATM    1  C1  UNL     1     -34.127  16.820  -2.416  1.00 20.00    -0.039 C 
HETATM    2  C2  UNL     1     -35.482  16.325  -2.651  1.00 20.00     0.034 C 
HETATM    3  C3  UNL     1     -36.238  14.229  -3.854  1.00 20.00     0.224 C 
HETATM    4  C4  UNL     1     -33.749  17.860  -1.664  1.00 20.00     0.021 C 
HETATM    5  C5  UNL     1     -36.630  16.983  -2.460  1.00 20.00     0.044 C 
HETATM    6  C6  UNL     1     -33.168  15.880  -3.132  1.00 20.00     0.065 C 
HETATM    7  C7  UNL     1     -35.372  13.144  -4.474  1.00 20.00     0.105 C 
HETATM    8  C8  UNL     1     -33.961  13.756  -4.467  1.00 20.00     0.035 C 
HETATM    9  C9  UNL     1     -33.992  14.608  -3.217  1.00 20.00     0.098 C 
HETATM   10  N10 UNL     1     -35.358  15.073  -3.193  1.00 20.00    -0.313 N 
HETATM   11  O11 UNL     1     -37.452  14.300  -3.966  1.00 20.00    -0.273 OA
ENDROOT
TORSDOF 0
ENDMDL
