MODEL 1
REMARK VINA RESULT:      -4.8      0.000      0.000
REMARK  1 active torsions:
REMARK  status: ('A' for Active; 'I' for Inactive)
REMARK    1  A    between atoms: C1_1  and  C9_9 
ROOT
HETATM    1  C2  UNL     1     -33.704  13.708  -4.025  1.00 20.00     0.031 C 
HETATM    2  C3  UNL     1     -34.165  15.456  -6.587  1.00 20.00     0.031 C 
HETATM    3  C4  UNL     1     -35.226  13.641  -4.140  1.00 20.00     0.022 C 
HETATM    4  C5  UNL     1     -35.606  15.079  -6.245  1.00 20.00     0.022 C 
HETATM    5  C6  UNL     1     -33.190  15.082  -3.587  1.00 20.00     0.272 C 
HETATM    6  C7  UNL     1     -33.551  16.457  -5.603  1.00 20.00     0.272 C 
HETATM    7  C8  UNL     1     -35.315  16.141  -3.994  1.00 20.00     0.290 C 
HETATM    8  C9  UNL     1     -35.862  14.914  -4.734  1.00 20.00     0.062 C 
HETATM    9  N10 UNL     1     -33.865  16.242  -4.185  1.00 20.00     0.089 N 
ENDROOT
BRANCH   8  10
HETATM   10  C1  UNL     1     -37.354  14.838  -4.530  1.00 20.00     0.229 C 
HETATM   11  O11 UNL     1     -37.850  14.143  -3.649  1.00 20.00    -0.279 OA
HETATM   12 CL12 UNL     1     -38.219  15.830  -5.664  1.00 20.00    -0.043 Cl
ENDBRANCH   8  10
TORSDOF 1
ENDMDL
MODEL 2
REMARK VINA RESULT:      -4.8      2.030      2.603
REMARK  1 active torsions:
REMARK  status: ('A' for Active; 'I' for Inactive)
REMARK    1  A    between atoms: C1_1  and  C9_9 
ROOT
HETATM    1  C2  UNL     1     -34.346  15.950  -2.186  1.00 20.00     0.031 C 
HETATM    2  C3  UNL     1     -33.583  17.413  -4.853  1.00 20.00     0.031 C 
HETATM    3  C4  UNL     1     -34.297  14.767  -3.151  1.00 20.00     0.022 C 
HETATM    4  C5  UNL     1     -33.672  15.968  -5.343  1.00 20.00     0.022 C 
HETATM    5  C6  UNL     1     -35.549  16.870  -2.417  1.00 20.00     0.272 C 
HETATM    6  C7  UNL     1     -34.947  18.021  -4.514  1.00 20.00     0.272 C 
HETATM    7  C8  UNL     1     -36.048  15.880  -4.555  1.00 20.00     0.290 C 
HETATM    8  C9  UNL     1     -34.716  15.120  -4.592  1.00 20.00     0.062 C 
HETATM    9  N10 UNL     1     -35.893  17.138  -3.819  1.00 20.00     0.089 N 
ENDROOT
BRANCH   8  10
HETATM   10  C1  UNL     1     -34.901  13.837  -5.361  1.00 20.00     0.229 C 
HETATM   11  O11 UNL     1     -34.773  12.740  -4.825  1.00 20.00    -0.279 OA
HETATM   12 CL12 UNL     1     -35.301  14.125  -7.027  1.00 20.00    -0.043 Cl
ENDBRANCH   8  10
TORSDOF 1
ENDMDL
MODEL 3
REMARK VINA RESULT:      -4.8      2.453      3.162
REMARK  1 active torsions:
REMARK  status: ('A' for Active; 'I' for Inactive)
REMARK    1  A    between atoms: C1_1  and  C9_9 
ROOT
HETATM    1  C2  UNL     1     -33.634  17.426  -4.883  1.00 20.00     0.031 C 
HETATM    2  C3  UNL     1     -34.929  16.091  -7.407  1.00 20.00     0.031 C 
HETATM    3  C4  UNL     1     -33.345  15.952  -4.600  1.00 20.00     0.022 C 
HETATM    4  C5  UNL     1     -34.411  14.854  -6.674  1.00 20.00     0.022 C 
HETATM    5  C6  UNL     1     -35.113  17.792  -4.730  1.00 20.00     0.272 C 
HETATM    6  C7  UNL     1     -36.131  16.743  -6.717  1.00 20.00     0.272 C 
HETATM    7  C8  UNL     1     -35.804  15.485  -4.690  1.00 20.00     0.290 C 
HETATM    8  C9  UNL     1     -34.423  14.991  -5.139  1.00 20.00     0.062 C 
HETATM    9  N10 UNL     1     -36.075  16.812  -5.252  1.00 20.00     0.089 N 
ENDROOT
BRANCH   8  10
HETATM   10  C1  UNL     1     -34.175  13.624  -4.556  1.00 20.00     0.229 C 
HETATM   11  O11 UNL     1     -34.892  12.666  -4.829  1.00 20.00    -0.279 OA
HETATM   12 CL12 UNL     1     -32.796  13.605  -3.499  1.00 20.00    -0.043 Cl
ENDBRANCH   8  10
TORSDOF 1
ENDMDL
MODEL 4
REMARK VINA RESULT:      -4.7      2.685      3.840
REMARK  1 active torsions:
REMARK  status: ('A' for Active; 'I' for Inactive)
REMARK    1  A    between atoms: C1_1  and  C9_9 
ROOT
HETATM    1  C2  UNL     1     -34.132  15.554  -6.445  1.00 20.00     0.031 C 
HETATM    2  C3  UNL     1     -33.670  13.588  -4.047  1.00 20.00     0.031 C 
HETATM    3  C4  UNL     1     -33.697  16.535  -5.357  1.00 20.00     0.022 C 
HETATM    4  C5  UNL     1     -33.319  14.920  -3.385  1.00 20.00     0.022 C 
HETATM    5  C6  UNL     1     -35.531  14.976  -6.215  1.00 20.00     0.272 C 
HETATM    6  C7  UNL     1     -35.167  13.428  -4.329  1.00 20.00     0.272 C 
HETATM    7  C8  UNL     1     -35.612  15.762  -3.939  1.00 20.00     0.290 C 
HETATM    8  C9  UNL     1     -34.120  16.116  -3.935  1.00 20.00     0.062 C 
HETATM    9  N10 UNL     1     -35.860  14.622  -4.827  1.00 20.00     0.089 N 
ENDROOT
BRANCH   8  10
HETATM   10  C1  UNL     1     -33.892  17.283  -3.008  1.00 20.00     0.229 C 
HETATM   11  O11 UNL     1     -33.647  18.407  -3.435  1.00 20.00    -0.279 OA
HETATM   12 CL12 UNL     1     -34.021  16.825  -1.337  1.00 20.00    -0.043 Cl
ENDBRANCH   8  10
TORSDOF 1
ENDMDL
MODEL 5
REMARK VINA RESULT:      -4.7      2.463      3.606
REMARK  1 active torsions:
REMARK  status: ('A' for Active; 'I' for Inactive)
REMARK    1  A    between atoms: C1_1  and  C9_9 
ROOT
HETATM    1  C2  UNL     1     -37.685  15.607  -3.974  1.00 20.00     0.031 C 
HETATM    2  C3  UNL     1     -35.339  16.815  -2.280  1.00 20.00     0.031 C 
HETATM    3  C4  UNL     1     -36.729  14.416  -3.930  1.00 20.00     0.022 C 
HETATM    4  C5  UNL     1     -34.800  15.409  -2.539  1.00 20.00     0.022 C 
HETATM    5  C6  UNL     1     -37.187  16.750  -4.864  1.00 20.00     0.272 C 
HETATM    6  C7  UNL     1     -35.343  17.701  -3.530  1.00 20.00     0.272 C 
HETATM    7  C8  UNL     1     -34.964  15.833  -5.002  1.00 20.00     0.290 C 
HETATM    8  C9  UNL     1     -35.240  14.814  -3.891  1.00 20.00     0.062 C 
HETATM    9  N10 UNL     1     -35.752  17.050  -4.781  1.00 20.00     0.089 N 
ENDROOT
BRANCH   8  10
HETATM   10  C1  UNL     1     -34.412  13.578  -4.137  1.00 20.00     0.229 C 
HETATM   11  O11 UNL     1     -34.877  12.592  -4.700  1.00 20.00    -0.279 OA
HETATM   12 CL12 UNL     1     -32.790  13.749  -3.539  1.00 20.00    -0.043 Cl
ENDBRANCH   8  10
TORSDOF 1
ENDMDL
MODEL 6
REMARK VINA RESULT:      -4.6      2.013      3.111
REMARK  1 active torsions:
REMARK  status: ('A' for Active; 'I' for Inactive)
REMARK    1  A    between atoms: C1_1  and  C9_9 
ROOT
HETATM    1  C2  UNL     1     -37.094  16.468  -3.319  1.00 20.00     0.031 C 
HETATM    2  C3  UNL     1     -34.157  16.129  -2.275  1.00 20.00     0.031 C 
HETATM    3  C4  UNL     1     -36.725  15.125  -3.948  1.00 20.00     0.022 C 
HETATM    4  C5  UNL     1     -34.311  14.847  -3.091  1.00 20.00     0.022 C 
HETATM    5  C6  UNL     1     -36.373  17.655  -3.964  1.00 20.00     0.272 C 
HETATM    6  C7  UNL     1     -34.063  17.389  -3.140  1.00 20.00     0.272 C 
HETATM    7  C8  UNL     1     -34.807  16.233  -5.117  1.00 20.00     0.290 C 
HETATM    8  C9  UNL     1     -35.234  14.997  -4.316  1.00 20.00     0.062 C 
HETATM    9  N10 UNL     1     -34.959  17.442  -4.301  1.00 20.00     0.089 N 
ENDROOT
BRANCH   8  10
HETATM   10  C1  UNL     1     -35.060  13.769  -5.173  1.00 20.00     0.229 C 
HETATM   11  O11 UNL     1     -34.813  12.671  -4.684  1.00 20.00    -0.279 OA
HETATM   12 CL12 UNL     1     -35.251  14.120  -6.863  1.00 20.00    -0.043 Cl
ENDBRANCH   8  10
TORSDOF 1
ENDMDL
MODEL 7
REMARK VINA RESULT:      -4.6      2.680      3.510
REMARK  1 active torsions:
REMARK  status: ('A' for Active; 'I' for Inactive)
REMARK    1  A    between atoms: C1_1  and  C9_9 
ROOT
HETATM    1  C2  UNL     1     -34.699  13.321  -4.526  1.00 20.00     0.031 C 
HETATM    2  C3  UNL     1     -37.390  14.857  -4.047  1.00 20.00     0.031 C 
HETATM    3  C4  UNL     1     -34.261  14.330  -3.465  1.00 20.00     0.022 C 
HETATM    4  C5  UNL     1     -36.472  15.594  -3.072  1.00 20.00     0.022 C 
HETATM    5  C6  UNL     1     -34.966  13.958  -5.893  1.00 20.00     0.272 C 
HETATM    6  C7  UNL     1     -37.084  15.165  -5.516  1.00 20.00     0.272 C 
HETATM    7  C8  UNL     1     -34.970  16.190  -4.986  1.00 20.00     0.290 C 
HETATM    8  C9  UNL     1     -35.007  15.677  -3.541  1.00 20.00     0.062 C 
HETATM    9  N10 UNL     1     -35.663  15.251  -5.874  1.00 20.00     0.089 N 
ENDROOT
BRANCH   8  10
HETATM   10  C1  UNL     1     -34.297  16.663  -2.649  1.00 20.00     0.229 C 
HETATM   11  O11 UNL     1     -33.570  17.540  -3.107  1.00 20.00    -0.279 OA
HETATM   12 CL12 UNL     1     -34.642  16.390  -0.969  1.00 20.00    -0.043 Cl
ENDBRANCH   8  10
TORSDOF 1
ENDMDL
MODEL 8
REMARK VINA RESULT:      -4.6      2.531      3.732
REMARK  1 active torsions:
REMARK  status: ('A' for Active; 'I' for Inactive)
REMARK    1  A    between atoms: C1_1  and  C9_9 
ROOT
HETATM    1  C2  UNL     1     -34.338  15.095  -6.770  1.00 20.00     0.031 C 
HETATM    2  C3  UNL     1     -33.734  13.692  -4.032  1.00 20.00     0.031 C 
HETATM    3  C4  UNL     1     -33.780  16.271  -5.969  1.00 20.00     0.022 C 
HETATM    4  C5  UNL     1     -33.285  15.119  -3.718  1.00 20.00     0.022 C 
HETATM    5  C6  UNL     1     -35.730  14.655  -6.308  1.00 20.00     0.272 C 
HETATM    6  C7  UNL     1     -35.254  13.549  -4.155  1.00 20.00     0.272 C 
HETATM    7  C8  UNL     1     -35.589  15.932  -4.270  1.00 20.00     0.290 C 
HETATM    8  C9  UNL     1     -34.091  16.201  -4.461  1.00 20.00     0.062 C 
HETATM    9  N10 UNL     1     -35.949  14.636  -4.856  1.00 20.00     0.089 N 
ENDROOT
BRANCH   8  10
HETATM   10  C1  UNL     1     -33.747  17.532  -3.843  1.00 20.00     0.229 C 
HETATM   11  O11 UNL     1     -33.719  17.691  -2.627  1.00 20.00    -0.279 OA
HETATM   12 CL12 UNL     1     -33.412  18.742  -5.044  1.00 20.00    -0.043 Cl
ENDBRANCH   8  10
TORSDOF 1
ENDMDL
MODEL 9
REMARK VINA RESULT:      -4.5      1.720      2.537
REMARK  1 active torsions:
REMARK  status: ('A' for Active; 'I' for Inactive)
REMARK    1  A    between atoms: C1_1  and  C9_9 
ROOT
HETATM    1  C2  UNL     1     -35.381  15.792  -2.668  1.00 20.00     0.031 C 
HETATM    2  C3  UNL     1     -33.460  13.569  -3.763  1.00 20.00     0.031 C 
HETATM    3  C4  UNL     1     -36.080  15.439  -3.980  1.00 20.00     0.022 C 
HETATM    4  C5  UNL     1     -34.501  13.613  -4.881  1.00 20.00     0.022 C 
HETATM    5  C6  UNL     1     -34.069  16.556  -2.868  1.00 20.00     0.272 C 
HETATM    6  C7  UNL     1     -32.557  14.806  -3.728  1.00 20.00     0.272 C 
HETATM    7  C8  UNL     1     -33.988  16.042  -5.220  1.00 20.00     0.290 C 
HETATM    8  C9  UNL     1     -35.116  15.009  -5.103  1.00 20.00     0.062 C 
HETATM    9  N10 UNL     1     -33.219  16.094  -3.973  1.00 20.00     0.089 N 
ENDROOT
BRANCH   8  10
HETATM   10  C1  UNL     1     -35.884  14.968  -6.399  1.00 20.00     0.229 C 
HETATM   11  O11 UNL     1     -37.106  15.085  -6.428  1.00 20.00    -0.279 OA
HETATM   12 CL12 UNL     1     -34.842  14.746  -7.770  1.00 20.00    -0.043 Cl
ENDBRANCH   8  10
TORSDOF 1
ENDMDL
