MODEL 1
REMARK VINA RESULT:      -5.5      0.000      0.000
REMARK  1 active torsions:
REMARK  status: ('A' for Active; 'I' for Inactive)
REMARK    1  A    between atoms: C3_3  and  C7_7 
ROOT
HETATM    1  C1  UNL     1     -34.839   4.778   5.962  1.00 20.00    -0.030 C 
HETATM    2  C2  UNL     1     -33.893   5.712   6.146  1.00 20.00    -0.025 C 
HETATM    3  C4  UNL     1     -35.608   4.694   4.674  1.00 20.00     0.027 C 
HETATM    4  C5  UNL     1     -34.817   5.204   3.462  1.00 20.00     0.010 C 
HETATM    5  C6  UNL     1     -33.571   6.740   5.150  1.00 20.00     0.025 A 
HETATM    6  C7  UNL     1     -32.598   6.446   4.039  1.00 20.00     0.085 A 
HETATM    7  C8  UNL     1     -34.084   6.487   3.749  1.00 20.00     0.007 A 
ENDROOT
BRANCH   6   8
HETATM    8  C3  UNL     1     -31.748   7.529   3.528  1.00 20.00     0.224 C 
HETATM    9  O9  UNL     1     -30.884   8.054   4.222  1.00 20.00    -0.279 OA
HETATM   10 CL10 UNL     1     -32.129   7.936   1.881  1.00 20.00    -0.043 Cl
ENDBRANCH   6   8
TORSDOF 1
ENDMDL
MODEL 2
REMARK VINA RESULT:      -5.1      0.669      1.727
REMARK  1 active torsions:
REMARK  status: ('A' for Active; 'I' for Inactive)
REMARK    1  A    between atoms: C3_3  and  C7_7 
ROOT
HETATM    1  C1  UNL     1     -35.540   4.914   4.283  1.00 20.00    -0.030 C 
HETATM    2  C2  UNL     1     -34.757   5.258   3.248  1.00 20.00    -0.025 C 
HETATM    3  C4  UNL     1     -35.065   5.065   5.701  1.00 20.00     0.027 C 
HETATM    4  C5  UNL     1     -34.045   6.197   5.880  1.00 20.00     0.010 C 
HETATM    5  C6  UNL     1     -33.384   5.749   3.405  1.00 20.00     0.025 A 
HETATM    6  C7  UNL     1     -33.122   7.210   3.661  1.00 20.00     0.085 A 
HETATM    7  C8  UNL     1     -33.002   6.212   4.794  1.00 20.00     0.007 A 
ENDROOT
BRANCH   6   8
HETATM    8  C3  UNL     1     -31.899   7.822   3.126  1.00 20.00     0.224 C 
HETATM    9  O9  UNL     1     -30.877   7.917   3.798  1.00 20.00    -0.279 OA
HETATM   10 CL10 UNL     1     -32.103   8.364   1.487  1.00 20.00    -0.043 Cl
ENDBRANCH   6   8
TORSDOF 1
ENDMDL
MODEL 3
REMARK VINA RESULT:      -4.8     11.333     12.499
REMARK  1 active torsions:
REMARK  status: ('A' for Active; 'I' for Inactive)
REMARK    1  A    between atoms: C3_3  and  C7_7 
ROOT
HETATM    1  C1  UNL     1     -34.325  13.366  -4.849  1.00 20.00    -0.030 C 
HETATM    2  C2  UNL     1     -34.358  13.729  -3.557  1.00 20.00    -0.025 C 
HETATM    3  C4  UNL     1     -34.648  14.347  -5.941  1.00 20.00     0.027 C 
HETATM    4  C5  UNL     1     -34.325  15.799  -5.564  1.00 20.00     0.010 C 
HETATM    5  C6  UNL     1     -34.754  15.068  -3.107  1.00 20.00     0.025 A 
HETATM    6  C7  UNL     1     -33.743  16.183  -3.052  1.00 20.00     0.085 A 
HETATM    7  C8  UNL     1     -34.766  16.146  -4.168  1.00 20.00     0.007 A 
ENDROOT
BRANCH   6   8
HETATM    8  C3  UNL     1     -33.869  17.212  -2.011  1.00 20.00     0.224 C 
HETATM    9  O9  UNL     1     -33.447  18.352  -2.177  1.00 20.00    -0.279 OA
HETATM   10 CL10 UNL     1     -34.659  16.607  -0.586  1.00 20.00    -0.043 Cl
ENDBRANCH   6   8
TORSDOF 1
ENDMDL
MODEL 4
REMARK VINA RESULT:      -4.7     11.807     12.769
REMARK  1 active torsions:
REMARK  status: ('A' for Active; 'I' for Inactive)
REMARK    1  A    between atoms: C3_3  and  C7_7 
ROOT
HETATM    1  C1  UNL     1     -34.503  17.209  -1.790  1.00 20.00    -0.030 C 
HETATM    2  C2  UNL     1     -34.776  15.902  -1.929  1.00 20.00    -0.025 C 
HETATM    3  C4  UNL     1     -33.687  17.947  -2.814  1.00 20.00     0.027 C 
HETATM    4  C5  UNL     1     -33.810  17.355  -4.225  1.00 20.00     0.010 C 
HETATM    5  C6  UNL     1     -34.269  15.087  -3.039  1.00 20.00     0.025 A 
HETATM    6  C7  UNL     1     -35.008  15.043  -4.350  1.00 20.00     0.085 A 
HETATM    7  C8  UNL     1     -33.734  15.852  -4.229  1.00 20.00     0.007 A 
ENDROOT
BRANCH   6   8
HETATM    8  C3  UNL     1     -34.989  13.805  -5.140  1.00 20.00     0.224 C 
HETATM    9  O9  UNL     1     -34.819  12.708  -4.618  1.00 20.00    -0.279 OA
HETATM   10 CL10 UNL     1     -35.228  14.109  -6.835  1.00 20.00    -0.043 Cl
ENDBRANCH   6   8
TORSDOF 1
ENDMDL
MODEL 5
REMARK VINA RESULT:      -4.6     11.513     12.712
REMARK  1 active torsions:
REMARK  status: ('A' for Active; 'I' for Inactive)
REMARK    1  A    between atoms: C3_3  and  C7_7 
ROOT
HETATM    1  C1  UNL     1     -34.527  14.720  -6.099  1.00 20.00    -0.030 C 
HETATM    2  C2  UNL     1     -34.104  15.910  -5.644  1.00 20.00    -0.025 C 
HETATM    3  C4  UNL     1     -34.546  13.508  -5.210  1.00 20.00     0.027 C 
HETATM    4  C5  UNL     1     -34.735  13.851  -3.726  1.00 20.00     0.010 C 
HETATM    5  C6  UNL     1     -33.586  16.115  -4.287  1.00 20.00     0.025 A 
HETATM    6  C7  UNL     1     -34.529  16.384  -3.144  1.00 20.00     0.085 A 
HETATM    7  C8  UNL     1     -33.891  15.018  -3.290  1.00 20.00     0.007 A 
ENDROOT
BRANCH   6   8
HETATM    8  C3  UNL     1     -34.092  17.255  -2.046  1.00 20.00     0.224 C 
HETATM    9  O9  UNL     1     -33.416  18.259  -2.248  1.00 20.00    -0.279 OA
HETATM   10 CL10 UNL     1     -34.645  16.685  -0.500  1.00 20.00    -0.043 Cl
ENDBRANCH   6   8
TORSDOF 1
ENDMDL
MODEL 6
REMARK VINA RESULT:      -4.6     11.148     12.320
REMARK  1 active torsions:
REMARK  status: ('A' for Active; 'I' for Inactive)
REMARK    1  A    between atoms: C3_3  and  C7_7 
ROOT
HETATM    1  C1  UNL     1     -35.371  17.675  -1.267  1.00 20.00    -0.030 C 
HETATM    2  C2  UNL     1     -34.581  16.589  -1.260  1.00 20.00    -0.025 C 
HETATM    3  C4  UNL     1     -35.944  18.212  -2.549  1.00 20.00     0.027 C 
HETATM    4  C5  UNL     1     -36.151  17.131  -3.618  1.00 20.00     0.010 C 
HETATM    5  C6  UNL     1     -34.176  15.881  -2.479  1.00 20.00     0.025 A 
HETATM    6  C7  UNL     1     -35.065  14.823  -3.077  1.00 20.00     0.085 A 
HETATM    7  C8  UNL     1     -34.980  16.190  -3.723  1.00 20.00     0.007 A 
ENDROOT
BRANCH   6   8
HETATM    8  C3  UNL     1     -34.454  13.678  -3.763  1.00 20.00     0.224 C 
HETATM    9  O9  UNL     1     -35.129  12.857  -4.376  1.00 20.00    -0.279 OA
HETATM   10 CL10 UNL     1     -32.725  13.658  -3.587  1.00 20.00    -0.043 Cl
ENDBRANCH   6   8
TORSDOF 1
ENDMDL
MODEL 7
REMARK VINA RESULT:      -4.6     11.771     12.792
REMARK  1 active torsions:
REMARK  status: ('A' for Active; 'I' for Inactive)
REMARK    1  A    between atoms: C3_3  and  C7_7 
ROOT
HETATM    1  C1  UNL     1     -33.673  17.933  -2.905  1.00 20.00    -0.030 C 
HETATM    2  C2  UNL     1     -33.805  17.317  -4.090  1.00 20.00    -0.025 C 
HETATM    3  C4  UNL     1     -34.452  17.480  -1.702  1.00 20.00     0.027 C 
HETATM    4  C5  UNL     1     -34.797  15.985  -1.732  1.00 20.00     0.010 C 
HETATM    5  C6  UNL     1     -34.738  16.208  -4.322  1.00 20.00     0.025 A 
HETATM    6  C7  UNL     1     -34.334  14.793  -4.004  1.00 20.00     0.085 A 
HETATM    7  C8  UNL     1     -35.282  15.532  -3.083  1.00 20.00     0.007 A 
ENDROOT
BRANCH   6   8
HETATM    8  C3  UNL     1     -34.859  13.697  -4.828  1.00 20.00     0.224 C 
HETATM    9  O9  UNL     1     -34.976  12.558  -4.388  1.00 20.00    -0.279 OA
HETATM   10 CL10 UNL     1     -35.267  14.223  -6.433  1.00 20.00    -0.043 Cl
ENDBRANCH   6   8
TORSDOF 1
ENDMDL
MODEL 8
REMARK VINA RESULT:      -4.5     12.451     13.954
REMARK  1 active torsions:
REMARK  status: ('A' for Active; 'I' for Inactive)
REMARK    1  A    between atoms: C3_3  and  C7_7 
ROOT
HETATM    1  C1  UNL     1     -34.289  18.222  -6.002  1.00 20.00    -0.030 C 
HETATM    2  C2  UNL     1     -33.821  17.476  -4.989  1.00 20.00    -0.025 C 
HETATM    3  C4  UNL     1     -34.598  17.611  -7.340  1.00 20.00     0.027 C 
HETATM    4  C5  UNL     1     -35.003  16.133  -7.252  1.00 20.00     0.010 C 
HETATM    5  C6  UNL     1     -33.527  16.043  -5.113  1.00 20.00     0.025 A 
HETATM    6  C7  UNL     1     -34.618  15.023  -4.924  1.00 20.00     0.085 A 
HETATM    7  C8  UNL     1     -34.122  15.348  -6.318  1.00 20.00     0.007 A 
ENDROOT
BRANCH   6   8
HETATM    8  C3  UNL     1     -34.283  13.717  -4.341  1.00 20.00     0.224 C 
HETATM    9  O9  UNL     1     -35.011  12.741  -4.485  1.00 20.00    -0.279 OA
HETATM   10 CL10 UNL     1     -32.783  13.759  -3.465  1.00 20.00    -0.043 Cl
ENDBRANCH   6   8
TORSDOF 1
ENDMDL
MODEL 9
REMARK VINA RESULT:      -4.4     11.249     12.823
REMARK  1 active torsions:
REMARK  status: ('A' for Active; 'I' for Inactive)
REMARK    1  A    between atoms: C3_3  and  C7_7 
ROOT
HETATM    1  C1  UNL     1     -33.707  18.753  -3.215  1.00 20.00    -0.030 C 
HETATM    2  C2  UNL     1     -33.952  17.797  -4.125  1.00 20.00    -0.025 C 
HETATM    3  C4  UNL     1     -33.929  18.507  -1.749  1.00 20.00     0.027 C 
HETATM    4  C5  UNL     1     -33.757  17.035  -1.350  1.00 20.00     0.010 C 
HETATM    5  C6  UNL     1     -34.494  16.478  -3.780  1.00 20.00     0.025 A 
HETATM    6  C7  UNL     1     -33.576  15.367  -3.345  1.00 20.00     0.085 A 
HETATM    7  C8  UNL     1     -34.420  16.093  -2.319  1.00 20.00     0.007 A 
ENDROOT
BRANCH   6   8
HETATM    8  C3  UNL     1     -33.917  13.980  -3.688  1.00 20.00     0.224 C 
HETATM    9  O9  UNL     1     -33.090  13.077  -3.623  1.00 20.00    -0.279 OA
HETATM   10 CL10 UNL     1     -35.578  13.818  -4.175  1.00 20.00    -0.043 Cl
ENDBRANCH   6   8
TORSDOF 1
ENDMDL
