MODEL 1
REMARK VINA RESULT:      -4.1      0.000      0.000
REMARK  2 active torsions:
REMARK  status: ('A' for Active; 'I' for Inactive)
REMARK    1  A    between atoms: C3_3  and  C4_4 
REMARK    2  A    between atoms: C5_5  and  C7_7 
ROOT
HETATM    1  C1  UNL     1     -35.268  14.924  -5.866  1.00 20.00    -0.007 C 
HETATM    2  C2  UNL     1     -34.318  15.711  -6.381  1.00 20.00     0.042 C 
HETATM    3  C4  UNL     1     -35.331  14.886  -4.368  1.00 20.00     0.084 C 
HETATM    4  C5  UNL     1     -34.561  16.118  -3.857  1.00 20.00     0.065 C 
HETATM    5  S9  UNL     1     -33.369  16.538  -5.190  1.00 20.00    -0.136 SA
ENDROOT
BRANCH   3   6
HETATM    6  C3  UNL     1     -34.749  13.564  -3.960  1.00 20.00     0.240 C 
HETATM    7  O8  UNL     1     -34.841  12.547  -4.640  1.00 20.00    -0.306 OA
ENDBRANCH   3   6
BRANCH   4   8
HETATM    8  C7  UNL     1     -33.876  15.971  -2.509  1.00 20.00     0.012 C 
HETATM    9  C6  UNL     1     -34.743  16.447  -1.386  1.00 20.00     0.006 C 
ENDBRANCH   4   8
TORSDOF 2
ENDMDL
MODEL 2
REMARK VINA RESULT:      -4.0      1.456      3.277
REMARK  2 active torsions:
REMARK  status: ('A' for Active; 'I' for Inactive)
REMARK    1  A    between atoms: C3_3  and  C4_4 
REMARK    2  A    between atoms: C5_5  and  C7_7 
ROOT
HETATM    1  C1  UNL     1     -34.573  15.534  -2.610  1.00 20.00    -0.007 C 
HETATM    2  C2  UNL     1     -33.730  16.416  -3.158  1.00 20.00     0.042 C 
HETATM    3  C4  UNL     1     -35.143  14.516  -3.554  1.00 20.00     0.084 C 
HETATM    4  C5  UNL     1     -34.242  14.512  -4.803  1.00 20.00     0.065 C 
HETATM    5  S9  UNL     1     -33.465  16.175  -4.853  1.00 20.00    -0.136 SA
ENDROOT
BRANCH   3   6
HETATM    6  C3  UNL     1     -36.564  14.929  -3.802  1.00 20.00     0.240 C 
HETATM    7  O8  UNL     1     -37.514  14.156  -3.735  1.00 20.00    -0.306 OA
ENDBRANCH   3   6
BRANCH   4   8
HETATM    8  C7  UNL     1     -34.918  14.161  -6.118  1.00 20.00     0.012 C 
HETATM    9  C6  UNL     1     -34.466  15.051  -7.233  1.00 20.00     0.006 C 
ENDBRANCH   4   8
TORSDOF 2
ENDMDL
MODEL 3
REMARK VINA RESULT:      -3.9      1.227      1.227
REMARK  2 active torsions:
REMARK  status: ('A' for Active; 'I' for Inactive)
REMARK    1  A    between atoms: C3_3  and  C4_4 
REMARK    2  A    between atoms: C5_5  and  C7_7 
ROOT
HETATM    1  C1  UNL     1     -36.449  15.069  -5.104  1.00 20.00    -0.007 C 
HETATM    2  C2  UNL     1     -36.086  16.269  -5.569  1.00 20.00     0.042 C 
HETATM    3  C4  UNL     1     -35.953  14.735  -3.728  1.00 20.00     0.084 C 
HETATM    4  C5  UNL     1     -35.534  16.062  -3.070  1.00 20.00     0.065 C 
HETATM    5  S9  UNL     1     -35.126  17.191  -4.460  1.00 20.00    -0.136 SA
ENDROOT
BRANCH   3   6
HETATM    6  C3  UNL     1     -34.842  13.744  -3.916  1.00 20.00     0.240 C 
HETATM    7  O8  UNL     1     -34.998  12.644  -4.435  1.00 20.00    -0.306 OA
ENDBRANCH   3   6
BRANCH   4   8
HETATM    8  C7  UNL     1     -34.406  15.981  -2.055  1.00 20.00     0.012 C 
HETATM    9  C6  UNL     1     -34.708  16.770  -0.819  1.00 20.00     0.006 C 
ENDBRANCH   4   8
TORSDOF 2
ENDMDL
MODEL 4
REMARK VINA RESULT:      -3.8      1.545      3.242
REMARK  2 active torsions:
REMARK  status: ('A' for Active; 'I' for Inactive)
REMARK    1  A    between atoms: C3_3  and  C4_4 
REMARK    2  A    between atoms: C5_5  and  C7_7 
ROOT
HETATM    1  C1  UNL     1     -34.652  15.088  -3.113  1.00 20.00    -0.007 C 
HETATM    2  C2  UNL     1     -35.809  15.726  -3.319  1.00 20.00     0.042 C 
HETATM    3  C4  UNL     1     -33.883  14.733  -4.351  1.00 20.00     0.084 C 
HETATM    4  C5  UNL     1     -34.443  15.604  -5.490  1.00 20.00     0.065 C 
HETATM    5  S9  UNL     1     -36.161  16.020  -4.990  1.00 20.00    -0.136 SA
ENDROOT
BRANCH   3   6
HETATM    6  C3  UNL     1     -34.061  13.255  -4.541  1.00 20.00     0.240 C 
HETATM    7  O8  UNL     1     -35.110  12.664  -4.305  1.00 20.00    -0.306 OA
ENDBRANCH   3   6
BRANCH   4   8
HETATM    8  C7  UNL     1     -34.388  15.005  -6.885  1.00 20.00     0.012 C 
HETATM    9  C6  UNL     1     -35.751  14.678  -7.407  1.00 20.00     0.006 C 
ENDBRANCH   4   8
TORSDOF 2
ENDMDL
MODEL 5
REMARK VINA RESULT:      -3.8      1.841      2.098
REMARK  2 active torsions:
REMARK  status: ('A' for Active; 'I' for Inactive)
REMARK    1  A    between atoms: C3_3  and  C4_4 
REMARK    2  A    between atoms: C5_5  and  C7_7 
ROOT
HETATM    1  C1  UNL     1     -35.716  14.637  -5.459  1.00 20.00    -0.007 C 
HETATM    2  C2  UNL     1     -34.786  13.701  -5.246  1.00 20.00     0.042 C 
HETATM    3  C4  UNL     1     -35.881  15.643  -4.359  1.00 20.00     0.084 C 
HETATM    4  C5  UNL     1     -34.614  15.565  -3.488  1.00 20.00     0.065 C 
HETATM    5  S9  UNL     1     -33.953  13.869  -3.736  1.00 20.00    -0.136 SA
ENDROOT
BRANCH   3   6
HETATM    6  C3  UNL     1     -37.156  15.283  -3.653  1.00 20.00     0.240 C 
HETATM    7  O8  UNL     1     -37.710  14.196  -3.774  1.00 20.00    -0.306 OA
ENDBRANCH   3   6
BRANCH   4   8
HETATM    8  C7  UNL     1     -34.788  15.896  -2.016  1.00 20.00     0.012 C 
HETATM    9  C6  UNL     1     -33.864  16.987  -1.574  1.00 20.00     0.006 C 
ENDBRANCH   4   8
TORSDOF 2
ENDMDL
MODEL 6
REMARK VINA RESULT:      -3.7      1.116      3.056
REMARK  2 active torsions:
REMARK  status: ('A' for Active; 'I' for Inactive)
REMARK    1  A    between atoms: C3_3  and  C4_4 
REMARK    2  A    between atoms: C5_5  and  C7_7 
ROOT
HETATM    1  C1  UNL     1     -34.418  15.517  -2.674  1.00 20.00    -0.007 C 
HETATM    2  C2  UNL     1     -34.850  16.769  -2.859  1.00 20.00     0.042 C 
HETATM    3  C4  UNL     1     -34.077  14.762  -3.925  1.00 20.00     0.084 C 
HETATM    4  C5  UNL     1     -33.903  15.806  -5.043  1.00 20.00     0.065 C 
HETATM    5  S9  UNL     1     -34.904  17.254  -4.521  1.00 20.00    -0.136 SA
ENDROOT
BRANCH   3   6
HETATM    6  C3  UNL     1     -35.197  13.786  -4.140  1.00 20.00     0.240 C 
HETATM    7  O8  UNL     1     -35.019  12.598  -4.386  1.00 20.00    -0.306 OA
ENDBRANCH   3   6
BRANCH   4   8
HETATM    8  C7  UNL     1     -34.255  15.349  -6.449  1.00 20.00     0.012 C 
HETATM    9  C6  UNL     1     -34.596  16.501  -7.342  1.00 20.00     0.006 C 
ENDBRANCH   4   8
TORSDOF 2
ENDMDL
MODEL 7
REMARK VINA RESULT:      -3.7      2.261      3.262
REMARK  2 active torsions:
REMARK  status: ('A' for Active; 'I' for Inactive)
REMARK    1  A    between atoms: C3_3  and  C4_4 
REMARK    2  A    between atoms: C5_5  and  C7_7 
ROOT
HETATM    1  C1  UNL     1     -33.694  17.537  -3.677  1.00 20.00    -0.007 C 
HETATM    2  C2  UNL     1     -34.054  17.432  -4.960  1.00 20.00     0.042 C 
HETATM    3  C4  UNL     1     -33.532  16.237  -2.945  1.00 20.00     0.084 C 
HETATM    4  C5  UNL     1     -33.397  15.137  -4.014  1.00 20.00     0.065 C 
HETATM    5  S9  UNL     1     -34.239  15.799  -5.507  1.00 20.00    -0.136 SA
ENDROOT
BRANCH   3   6
HETATM    6  C3  UNL     1     -34.732  16.109  -2.054  1.00 20.00     0.240 C 
HETATM    7  O8  UNL     1     -34.705  16.328  -0.848  1.00 20.00    -0.306 OA
ENDBRANCH   3   6
BRANCH   4   8
HETATM    8  C7  UNL     1     -33.918  13.762  -3.632  1.00 20.00     0.012 C 
HETATM    9  C6  UNL     1     -34.905  13.241  -4.629  1.00 20.00     0.006 C 
ENDBRANCH   4   8
TORSDOF 2
ENDMDL
MODEL 8
REMARK VINA RESULT:      -3.6     11.895     13.241
REMARK  2 active torsions:
REMARK  status: ('A' for Active; 'I' for Inactive)
REMARK    1  A    between atoms: C3_3  and  C4_4 
REMARK    2  A    between atoms: C5_5  and  C7_7 
ROOT
HETATM    1  C1  UNL     1     -40.798   6.234  -0.089  1.00 20.00    -0.007 C 
HETATM    2  C2  UNL     1     -41.202   7.185  -0.937  1.00 20.00     0.042 C 
HETATM    3  C4  UNL     1     -41.151   4.829  -0.481  1.00 20.00     0.084 C 
HETATM    4  C5  UNL     1     -41.494   4.858  -1.981  1.00 20.00     0.065 C 
HETATM    5  S9  UNL     1     -42.039   6.578  -2.327  1.00 20.00    -0.136 SA
ENDROOT
BRANCH   3   6
HETATM    6  C3  UNL     1     -42.279   4.418   0.418  1.00 20.00     0.240 C 
HETATM    7  O8  UNL     1     -42.910   5.205   1.114  1.00 20.00    -0.306 OA
ENDBRANCH   3   6
BRANCH   4   8
HETATM    8  C7  UNL     1     -42.511   3.834  -2.457  1.00 20.00     0.012 C 
HETATM    9  C6  UNL     1     -41.856   2.639  -3.076  1.00 20.00     0.006 C 
ENDBRANCH   4   8
TORSDOF 2
ENDMDL
MODEL 9
REMARK VINA RESULT:      -3.5      1.619      2.371
REMARK  2 active torsions:
REMARK  status: ('A' for Active; 'I' for Inactive)
REMARK    1  A    between atoms: C3_3  and  C4_4 
REMARK    2  A    between atoms: C5_5  and  C7_7 
ROOT
HETATM    1  C1  UNL     1     -36.941  14.740  -3.822  1.00 20.00    -0.007 C 
HETATM    2  C2  UNL     1     -37.346  15.939  -4.251  1.00 20.00     0.042 C 
HETATM    3  C4  UNL     1     -35.458  14.584  -3.652  1.00 20.00     0.084 C 
HETATM    4  C5  UNL     1     -34.863  16.003  -3.600  1.00 20.00     0.065 C 
HETATM    5  S9  UNL     1     -36.057  17.068  -4.502  1.00 20.00    -0.136 SA
ENDROOT
BRANCH   3   6
HETATM    6  C3  UNL     1     -34.994  13.746  -4.807  1.00 20.00     0.240 C 
HETATM    7  O8  UNL     1     -34.822  12.534  -4.737  1.00 20.00    -0.306 OA
ENDBRANCH   3   6
BRANCH   4   8
HETATM    8  C7  UNL     1     -33.449  16.158  -4.132  1.00 20.00     0.012 C 
HETATM    9  C6  UNL     1     -33.382  17.131  -5.267  1.00 20.00     0.006 C 
ENDBRANCH   4   8
TORSDOF 2
ENDMDL
