MODEL 1
REMARK VINA RESULT:      -4.8      0.000      0.000
REMARK  1 active torsions:
REMARK  status: ('A' for Active; 'I' for Inactive)
REMARK    1  A    between atoms: C3_3  and  C7_7 
ROOT
HETATM    1  C1  UNL     1     -35.959  16.260  -2.871  1.00 20.00    -0.020 C 
HETATM    2  C2  UNL     1     -35.977  16.373  -4.210  1.00 20.00    -0.086 C 
HETATM    3  C4  UNL     1     -34.766  16.077  -5.062  1.00 20.00     0.045 C 
HETATM    4  C5  UNL     1     -33.446  15.926  -2.902  1.00 20.00     0.020 C 
HETATM    5  C6  UNL     1     -34.744  15.860  -2.075  1.00 20.00     0.005 C 
HETATM    6  C7  UNL     1     -33.621  15.379  -4.319  1.00 20.00     0.059 C 
HETATM    7  C8  UNL     1     -37.211  16.800  -4.950  1.00 20.00     0.043 C 
HETATM    8  C10 UNL     1     -34.606  16.726  -0.822  1.00 20.00     0.014 C 
ENDROOT
BRANCH   6   9
HETATM    9  C3  UNL     1     -33.828  13.891  -4.281  1.00 20.00     0.127 C 
HETATM   10  C9  UNL     1     -34.921  13.338  -5.156  1.00 20.00     0.091 C 
HETATM   11  O11 UNL     1     -33.138  13.163  -3.571  1.00 20.00    -0.298 OA
ENDBRANCH   6   9
TORSDOF 1
ENDMDL
MODEL 2
REMARK VINA RESULT:      -4.7      1.691      3.091
REMARK  1 active torsions:
REMARK  status: ('A' for Active; 'I' for Inactive)
REMARK    1  A    between atoms: C3_3  and  C7_7 
ROOT
HETATM    1  C1  UNL     1     -36.151  15.991  -2.937  1.00 20.00    -0.020 C 
HETATM    2  C2  UNL     1     -34.909  15.865  -2.440  1.00 20.00    -0.086 C 
HETATM    3  C4  UNL     1     -33.855  15.015  -3.107  1.00 20.00     0.045 C 
HETATM    4  C5  UNL     1     -35.695  14.158  -4.627  1.00 20.00     0.020 C 
HETATM    5  C6  UNL     1     -36.638  15.289  -4.178  1.00 20.00     0.005 C 
HETATM    6  C7  UNL     1     -34.220  14.542  -4.519  1.00 20.00     0.059 C 
HETATM    7  C8  UNL     1     -34.486  16.569  -1.184  1.00 20.00     0.043 C 
HETATM    8  C10 UNL     1     -38.050  14.738  -3.971  1.00 20.00     0.014 C 
ENDROOT
BRANCH   6   9
HETATM    9  C3  UNL     1     -33.878  15.586  -5.545  1.00 20.00     0.127 C 
HETATM   10  C9  UNL     1     -34.332  15.323  -6.955  1.00 20.00     0.091 C 
HETATM   11  O11 UNL     1     -33.258  16.605  -5.246  1.00 20.00    -0.298 OA
ENDBRANCH   6   9
TORSDOF 1
ENDMDL
MODEL 3
REMARK VINA RESULT:      -4.6      1.231      1.396
REMARK  1 active torsions:
REMARK  status: ('A' for Active; 'I' for Inactive)
REMARK    1  A    between atoms: C3_3  and  C7_7 
ROOT
HETATM    1  C1  UNL     1     -35.190  17.010  -3.562  1.00 20.00    -0.020 C 
HETATM    2  C2  UNL     1     -34.636  17.129  -4.780  1.00 20.00    -0.086 C 
HETATM    3  C4  UNL     1     -33.649  16.122  -5.321  1.00 20.00     0.045 C 
HETATM    4  C5  UNL     1     -33.620  15.100  -3.000  1.00 20.00     0.020 C 
HETATM    5  C6  UNL     1     -34.878  15.893  -2.599  1.00 20.00     0.005 C 
HETATM    6  C7  UNL     1     -33.548  14.829  -4.502  1.00 20.00     0.059 C 
HETATM    7  C8  UNL     1     -34.966  18.277  -5.689  1.00 20.00     0.043 C 
HETATM    8  C10 UNL     1     -34.722  16.432  -1.176  1.00 20.00     0.014 C 
ENDROOT
BRANCH   6   9
HETATM    9  C3  UNL     1     -34.611  13.848  -4.906  1.00 20.00     0.127 C 
HETATM   10  C9  UNL     1     -35.313  14.110  -6.212  1.00 20.00     0.091 C 
HETATM   11  O11 UNL     1     -34.894  12.879  -4.205  1.00 20.00    -0.298 OA
ENDBRANCH   6   9
TORSDOF 1
ENDMDL
MODEL 4
REMARK VINA RESULT:      -4.5      1.125      2.846
REMARK  1 active torsions:
REMARK  status: ('A' for Active; 'I' for Inactive)
REMARK    1  A    between atoms: C3_3  and  C7_7 
ROOT
HETATM    1  C1  UNL     1     -33.724  16.966  -3.108  1.00 20.00    -0.020 C 
HETATM    2  C2  UNL     1     -34.610  16.446  -2.239  1.00 20.00    -0.086 C 
HETATM    3  C4  UNL     1     -35.756  15.570  -2.682  1.00 20.00     0.045 C 
HETATM    4  C5  UNL     1     -35.142  16.192  -5.062  1.00 20.00     0.020 C 
HETATM    5  C6  UNL     1     -33.787  16.760  -4.599  1.00 20.00     0.005 C 
HETATM    6  C7  UNL     1     -35.668  15.095  -4.137  1.00 20.00     0.059 C 
HETATM    7  C8  UNL     1     -34.512  16.705  -0.764  1.00 20.00     0.043 C 
HETATM    8  C10 UNL     1     -33.490  18.066  -5.339  1.00 20.00     0.014 C 
ENDROOT
BRANCH   6   9
HETATM    9  C3  UNL     1     -34.817  13.863  -4.254  1.00 20.00     0.127 C 
HETATM   10  C9  UNL     1     -34.713  13.240  -5.621  1.00 20.00     0.091 C 
HETATM   11  O11 UNL     1     -34.235  13.387  -3.282  1.00 20.00    -0.298 OA
ENDBRANCH   6   9
TORSDOF 1
ENDMDL
MODEL 5
REMARK VINA RESULT:      -4.5      2.303      3.714
REMARK  1 active torsions:
REMARK  status: ('A' for Active; 'I' for Inactive)
REMARK    1  A    between atoms: C3_3  and  C7_7 
ROOT
HETATM    1  C1  UNL     1     -34.546  15.453  -2.384  1.00 20.00    -0.020 C 
HETATM    2  C2  UNL     1     -34.354  16.666  -1.837  1.00 20.00    -0.086 C 
HETATM    3  C4  UNL     1     -33.761  17.817  -2.614  1.00 20.00     0.045 C 
HETATM    4  C5  UNL     1     -33.247  16.144  -4.449  1.00 20.00     0.020 C 
HETATM    5  C6  UNL     1     -34.174  15.099  -3.800  1.00 20.00     0.005 C 
HETATM    6  C7  UNL     1     -33.660  17.579  -4.125  1.00 20.00     0.059 C 
HETATM    7  C8  UNL     1     -34.721  16.957  -0.412  1.00 20.00     0.043 C 
HETATM    8  C10 UNL     1     -33.520  13.716  -3.860  1.00 20.00     0.014 C 
ENDROOT
BRANCH   6   9
HETATM    9  C3  UNL     1     -34.952  17.917  -4.814  1.00 20.00     0.127 C 
HETATM   10  C9  UNL     1     -35.034  17.611  -6.285  1.00 20.00     0.091 C 
HETATM   11  O11 UNL     1     -35.895  18.419  -4.205  1.00 20.00    -0.298 OA
ENDBRANCH   6   9
TORSDOF 1
ENDMDL
MODEL 6
REMARK VINA RESULT:      -4.5      1.688      3.343
REMARK  1 active torsions:
REMARK  status: ('A' for Active; 'I' for Inactive)
REMARK    1  A    between atoms: C3_3  and  C7_7 
ROOT
HETATM    1  C1  UNL     1     -35.303  16.287  -6.050  1.00 20.00    -0.020 C 
HETATM    2  C2  UNL     1     -34.574  16.721  -5.007  1.00 20.00    -0.086 C 
HETATM    3  C4  UNL     1     -34.692  16.114  -3.630  1.00 20.00     0.045 C 
HETATM    4  C5  UNL     1     -36.697  14.835  -4.509  1.00 20.00     0.020 C 
HETATM    5  C6  UNL     1     -36.324  15.182  -5.962  1.00 20.00     0.005 C 
HETATM    6  C7  UNL     1     -35.484  14.802  -3.580  1.00 20.00     0.059 C 
HETATM    7  C8  UNL     1     -33.588  17.844  -5.147  1.00 20.00     0.043 C 
HETATM    8  C10 UNL     1     -37.584  15.544  -6.751  1.00 20.00     0.014 C 
ENDROOT
BRANCH   6   9
HETATM    9  C3  UNL     1     -34.607  13.627  -3.909  1.00 20.00     0.127 C 
HETATM   10  C9  UNL     1     -33.134  13.788  -3.648  1.00 20.00     0.091 C 
HETATM   11  O11 UNL     1     -35.071  12.586  -4.369  1.00 20.00    -0.298 OA
ENDBRANCH   6   9
TORSDOF 1
ENDMDL
MODEL 7
REMARK VINA RESULT:      -4.4      1.957      3.121
REMARK  1 active torsions:
REMARK  status: ('A' for Active; 'I' for Inactive)
REMARK    1  A    between atoms: C3_3  and  C7_7 
ROOT
HETATM    1  C1  UNL     1     -34.357  15.248  -2.561  1.00 20.00    -0.020 C 
HETATM    2  C2  UNL     1     -34.872  14.883  -3.748  1.00 20.00    -0.086 C 
HETATM    3  C4  UNL     1     -35.430  15.886  -4.728  1.00 20.00     0.045 C 
HETATM    4  C5  UNL     1     -35.194  17.618  -2.891  1.00 20.00     0.020 C 
HETATM    5  C6  UNL     1     -34.303  16.671  -2.067  1.00 20.00     0.005 C 
HETATM    6  C7  UNL     1     -35.112  17.348  -4.393  1.00 20.00     0.059 C 
HETATM    7  C8  UNL     1     -34.923  13.447  -4.178  1.00 20.00     0.043 C 
HETATM    8  C10 UNL     1     -34.689  16.747  -0.589  1.00 20.00     0.014 C 
ENDROOT
BRANCH   6   9
HETATM    9  C3  UNL     1     -33.761  17.742  -4.919  1.00 20.00     0.127 C 
HETATM   10  C9  UNL     1     -33.434  19.211  -4.911  1.00 20.00     0.091 C 
HETATM   11  O11 UNL     1     -32.962  16.906  -5.335  1.00 20.00    -0.298 OA
ENDBRANCH   6   9
TORSDOF 1
ENDMDL
MODEL 8
REMARK VINA RESULT:      -4.3     11.590     13.102
REMARK  1 active torsions:
REMARK  status: ('A' for Active; 'I' for Inactive)
REMARK    1  A    between atoms: C3_3  and  C7_7 
ROOT
HETATM    1  C1  UNL     1     -42.663   5.217  -3.079  1.00 20.00    -0.020 C 
HETATM    2  C2  UNL     1     -41.926   4.293  -2.438  1.00 20.00    -0.086 C 
HETATM    3  C4  UNL     1     -41.156   4.606  -1.178  1.00 20.00     0.045 C 
HETATM    4  C5  UNL     1     -41.717   7.044  -1.597  1.00 20.00     0.020 C 
HETATM    5  C6  UNL     1     -42.781   6.653  -2.640  1.00 20.00     0.005 C 
HETATM    6  C7  UNL     1     -41.499   5.959  -0.542  1.00 20.00     0.059 C 
HETATM    7  C8  UNL     1     -41.824   2.881  -2.935  1.00 20.00     0.043 C 
HETATM    8  C10 UNL     1     -42.702   7.596  -3.842  1.00 20.00     0.014 C 
ENDROOT
BRANCH   6   9
HETATM    9  C3  UNL     1     -42.705   5.848   0.347  1.00 20.00     0.127 C 
HETATM   10  C9  UNL     1     -42.997   4.489   0.925  1.00 20.00     0.091 C 
HETATM   11  O11 UNL     1     -43.417   6.820   0.592  1.00 20.00    -0.298 OA
ENDBRANCH   6   9
TORSDOF 1
ENDMDL
MODEL 9
REMARK VINA RESULT:      -4.3      1.569      3.380
REMARK  1 active torsions:
REMARK  status: ('A' for Active; 'I' for Inactive)
REMARK    1  A    between atoms: C3_3  and  C7_7 
ROOT
HETATM    1  C1  UNL     1     -36.177  15.865  -5.894  1.00 20.00    -0.020 C 
HETATM    2  C2  UNL     1     -36.915  15.622  -4.796  1.00 20.00    -0.086 C 
HETATM    3  C4  UNL     1     -36.503  14.610  -3.755  1.00 20.00     0.045 C 
HETATM    4  C5  UNL     1     -34.683  13.886  -5.366  1.00 20.00     0.020 C 
HETATM    5  C6  UNL     1     -34.892  15.149  -6.221  1.00 20.00     0.005 C 
HETATM    6  C7  UNL     1     -35.066  14.096  -3.901  1.00 20.00     0.059 C 
HETATM    7  C8  UNL     1     -38.201  16.348  -4.533  1.00 20.00     0.043 C 
HETATM    8  C10 UNL     1     -34.836  14.787  -7.707  1.00 20.00     0.014 C 
ENDROOT
BRANCH   6   9
HETATM    9  C3  UNL     1     -34.089  15.023  -3.235  1.00 20.00     0.127 C 
HETATM   10  C9  UNL     1     -34.639  15.935  -2.172  1.00 20.00     0.091 C 
HETATM   11  O11 UNL     1     -32.899  15.035  -3.544  1.00 20.00    -0.298 OA
ENDBRANCH   6   9
TORSDOF 1
ENDMDL
