MODEL 1
REMARK VINA RESULT:      -4.9      0.000      0.000
REMARK  1 active torsions:
REMARK  status: ('A' for Active; 'I' for Inactive)
REMARK    1  A    between atoms: C1_1  and  C2_2 
ROOT
HETATM    1  C2  UNL     1     -33.541   5.585   4.545  1.00 20.00     0.154 A 
HETATM    2  C3  UNL     1     -34.309   6.542   5.439  1.00 20.00     0.073 A 
HETATM    3  C4  UNL     1     -34.851   5.191   5.138  1.00 20.00     0.259 A 
HETATM    4  C5  UNL     1     -33.802   6.862   6.802  1.00 20.00     0.017 C 
HETATM    5  F7  UNL     1     -35.972   5.050   4.351  1.00 20.00    -0.205 F 
HETATM    6  F8  UNL     1     -34.908   4.216   6.109  1.00 20.00    -0.205 F 
ENDROOT
BRANCH   1   7
HETATM    7  C1  UNL     1     -33.453   5.871   3.108  1.00 20.00     0.229 C 
HETATM    8  O6  UNL     1     -34.099   5.233   2.283  1.00 20.00    -0.279 OA
HETATM    9 CL9  UNL     1     -32.358   7.176   2.767  1.00 20.00    -0.043 Cl
ENDBRANCH   1   7
TORSDOF 1
ENDMDL
MODEL 2
REMARK VINA RESULT:      -4.9      2.338      3.170
REMARK  1 active torsions:
REMARK  status: ('A' for Active; 'I' for Inactive)
REMARK    1  A    between atoms: C1_1  and  C2_2 
ROOT
HETATM    1  C2  UNL     1     -34.265   6.465   4.730  1.00 20.00     0.154 A 
HETATM    2  C3  UNL     1     -33.195   5.807   3.877  1.00 20.00     0.073 A 
HETATM    3  C4  UNL     1     -34.605   5.345   3.807  1.00 20.00     0.259 A 
HETATM    4  C5  UNL     1     -32.589   6.547   2.735  1.00 20.00     0.017 C 
HETATM    5  F7  UNL     1     -34.956   4.105   4.295  1.00 20.00    -0.205 F 
HETATM    6  F8  UNL     1     -35.374   5.576   2.688  1.00 20.00    -0.205 F 
ENDROOT
BRANCH   1   7
HETATM    7  C1  UNL     1     -34.260   6.235   6.178  1.00 20.00     0.229 C 
HETATM    8  O6  UNL     1     -34.891   5.313   6.688  1.00 20.00    -0.279 OA
HETATM    9 CL9  UNL     1     -33.282   7.396   7.022  1.00 20.00    -0.043 Cl
ENDBRANCH   1   7
TORSDOF 1
ENDMDL
MODEL 3
REMARK VINA RESULT:      -4.4     11.948     12.412
REMARK  1 active torsions:
REMARK  status: ('A' for Active; 'I' for Inactive)
REMARK    1  A    between atoms: C1_1  and  C2_2 
ROOT
HETATM    1  C2  UNL     1     -34.601  14.999  -4.039  1.00 20.00     0.154 A 
HETATM    2  C3  UNL     1     -34.082  15.338  -2.653  1.00 20.00     0.073 A 
HETATM    3  C4  UNL     1     -33.184  14.728  -3.667  1.00 20.00     0.259 A 
HETATM    4  C5  UNL     1     -33.904  16.760  -2.249  1.00 20.00     0.017 C 
HETATM    5  F7  UNL     1     -32.727  13.438  -3.506  1.00 20.00    -0.205 F 
HETATM    6  F8  UNL     1     -32.164  15.454  -4.240  1.00 20.00    -0.205 F 
ENDROOT
BRANCH   1   7
HETATM    7  C1  UNL     1     -35.537  13.880  -4.194  1.00 20.00     0.229 C 
HETATM    8  O6  UNL     1     -35.146  12.738  -4.418  1.00 20.00    -0.279 OA
HETATM    9 CL9  UNL     1     -37.191  14.382  -4.020  1.00 20.00    -0.043 Cl
ENDBRANCH   1   7
TORSDOF 1
ENDMDL
MODEL 4
REMARK VINA RESULT:      -4.3      2.175      2.564
REMARK  1 active torsions:
REMARK  status: ('A' for Active; 'I' for Inactive)
REMARK    1  A    between atoms: C1_1  and  C2_2 
ROOT
HETATM    1  C2  UNL     1     -34.322   6.194   4.753  1.00 20.00     0.154 A 
HETATM    2  C3  UNL     1     -34.057   5.123   5.796  1.00 20.00     0.073 A 
HETATM    3  C4  UNL     1     -33.831   6.556   6.113  1.00 20.00     0.259 A 
HETATM    4  C5  UNL     1     -35.194   4.385   6.416  1.00 20.00     0.017 C 
HETATM    5  F7  UNL     1     -32.553   7.034   6.301  1.00 20.00    -0.205 F 
HETATM    6  F8  UNL     1     -34.652   7.227   6.992  1.00 20.00    -0.205 F 
ENDROOT
BRANCH   1   7
HETATM    7  C1  UNL     1     -33.419   6.305   3.603  1.00 20.00     0.229 C 
HETATM    8  O6  UNL     1     -32.485   7.100   3.590  1.00 20.00    -0.279 OA
HETATM    9 CL9  UNL     1     -33.842   5.201   2.329  1.00 20.00    -0.043 Cl
ENDBRANCH   1   7
TORSDOF 1
ENDMDL
MODEL 5
REMARK VINA RESULT:      -4.1     12.487     13.254
REMARK  1 active torsions:
REMARK  status: ('A' for Active; 'I' for Inactive)
REMARK    1  A    between atoms: C1_1  and  C2_2 
ROOT
HETATM    1  C2  UNL     1     -34.693  15.300  -4.650  1.00 20.00     0.154 A 
HETATM    2  C3  UNL     1     -34.394  14.542  -5.930  1.00 20.00     0.073 A 
HETATM    3  C4  UNL     1     -34.435  13.832  -4.625  1.00 20.00     0.259 A 
HETATM    4  C5  UNL     1     -35.467  14.324  -6.939  1.00 20.00     0.017 C 
HETATM    5  F7  UNL     1     -33.280  13.325  -4.072  1.00 20.00    -0.205 F 
HETATM    6  F8  UNL     1     -35.452  12.953  -4.327  1.00 20.00    -0.205 F 
ENDROOT
BRANCH   1   7
HETATM    7  C1  UNL     1     -33.685  16.223  -4.117  1.00 20.00     0.229 C 
HETATM    8  O6  UNL     1     -32.954  16.876  -4.855  1.00 20.00    -0.279 OA
HETATM    9 CL9  UNL     1     -33.679  16.254  -2.380  1.00 20.00    -0.043 Cl
ENDBRANCH   1   7
TORSDOF 1
ENDMDL
MODEL 6
REMARK VINA RESULT:      -4.1     12.777     13.130
REMARK  1 active torsions:
REMARK  status: ('A' for Active; 'I' for Inactive)
REMARK    1  A    between atoms: C1_1  and  C2_2 
ROOT
HETATM    1  C2  UNL     1     -35.081  15.200  -3.967  1.00 20.00     0.154 A 
HETATM    2  C3  UNL     1     -34.121  15.508  -2.832  1.00 20.00     0.073 A 
HETATM    3  C4  UNL     1     -34.027  16.244  -4.119  1.00 20.00     0.259 A 
HETATM    4  C5  UNL     1     -34.610  16.197  -1.605  1.00 20.00     0.017 C 
HETATM    5  F7  UNL     1     -32.950  16.047  -4.955  1.00 20.00    -0.205 F 
HETATM    6  F8  UNL     1     -34.373  17.574  -4.204  1.00 20.00    -0.205 F 
ENDROOT
BRANCH   1   7
HETATM    7  C1  UNL     1     -34.949  13.927  -4.684  1.00 20.00     0.229 C 
HETATM    8  O6  UNL     1     -34.856  12.858  -4.089  1.00 20.00    -0.279 OA
HETATM    9 CL9  UNL     1     -34.947  14.145  -6.408  1.00 20.00    -0.043 Cl
ENDBRANCH   1   7
TORSDOF 1
ENDMDL
MODEL 7
REMARK VINA RESULT:      -4.0     12.145     12.903
REMARK  1 active torsions:
REMARK  status: ('A' for Active; 'I' for Inactive)
REMARK    1  A    between atoms: C1_1  and  C2_2 
ROOT
HETATM    1  C2  UNL     1     -33.438  15.505  -3.666  1.00 20.00     0.154 A 
HETATM    2  C3  UNL     1     -34.296  16.746  -3.840  1.00 20.00     0.073 A 
HETATM    3  C4  UNL     1     -34.054  16.180  -2.488  1.00 20.00     0.259 A 
HETATM    4  C5  UNL     1     -33.670  18.038  -4.237  1.00 20.00     0.017 C 
HETATM    5  F7  UNL     1     -35.082  15.586  -1.788  1.00 20.00    -0.205 F 
HETATM    6  F8  UNL     1     -33.264  16.838  -1.573  1.00 20.00    -0.205 F 
ENDROOT
BRANCH   1   7
HETATM    7  C1  UNL     1     -33.961  14.211  -4.116  1.00 20.00     0.229 C 
HETATM    8  O6  UNL     1     -34.007  13.238  -3.369  1.00 20.00    -0.279 OA
HETATM    9 CL9  UNL     1     -34.481  14.255  -5.773  1.00 20.00    -0.043 Cl
ENDBRANCH   1   7
TORSDOF 1
ENDMDL
MODEL 8
REMARK VINA RESULT:      -4.0     12.807     13.812
REMARK  1 active torsions:
REMARK  status: ('A' for Active; 'I' for Inactive)
REMARK    1  A    between atoms: C1_1  and  C2_2 
ROOT
HETATM    1  C2  UNL     1     -34.904  14.863  -5.059  1.00 20.00     0.154 A 
HETATM    2  C3  UNL     1     -34.105  15.617  -6.106  1.00 20.00     0.073 A 
HETATM    3  C4  UNL     1     -35.378  14.944  -6.470  1.00 20.00     0.259 A 
HETATM    4  C5  UNL     1     -34.026  17.103  -6.060  1.00 20.00     0.017 C 
HETATM    5  F7  UNL     1     -35.371  13.834  -7.285  1.00 20.00    -0.205 F 
HETATM    6  F8  UNL     1     -36.503  15.674  -6.783  1.00 20.00    -0.205 F 
ENDROOT
BRANCH   1   7
HETATM    7  C1  UNL     1     -34.380  13.594  -4.542  1.00 20.00     0.229 C 
HETATM    8  O6  UNL     1     -34.945  12.526  -4.758  1.00 20.00    -0.279 OA
HETATM    9 CL9  UNL     1     -32.919  13.813  -3.627  1.00 20.00    -0.043 Cl
ENDBRANCH   1   7
TORSDOF 1
ENDMDL
MODEL 9
REMARK VINA RESULT:      -4.0     12.540     12.981
REMARK  1 active torsions:
REMARK  status: ('A' for Active; 'I' for Inactive)
REMARK    1  A    between atoms: C1_1  and  C2_2 
ROOT
HETATM    1  C2  UNL     1     -34.261  15.619  -4.531  1.00 20.00     0.154 A 
HETATM    2  C3  UNL     1     -34.627  15.152  -3.133  1.00 20.00     0.073 A 
HETATM    3  C4  UNL     1     -33.492  14.530  -3.863  1.00 20.00     0.259 A 
HETATM    4  C5  UNL     1     -34.373  16.034  -1.960  1.00 20.00     0.017 C 
HETATM    5  F7  UNL     1     -33.579  13.228  -4.305  1.00 20.00    -0.205 F 
HETATM    6  F8  UNL     1     -32.191  14.742  -3.467  1.00 20.00    -0.205 F 
ENDROOT
BRANCH   1   7
HETATM    7  C1  UNL     1     -35.158  15.295  -5.646  1.00 20.00     0.229 C 
HETATM    8  O6  UNL     1     -36.378  15.329  -5.523  1.00 20.00    -0.279 OA
HETATM    9 CL9  UNL     1     -34.283  14.880  -7.089  1.00 20.00    -0.043 Cl
ENDBRANCH   1   7
TORSDOF 1
ENDMDL
