MODEL 1
REMARK VINA RESULT:      -4.7      0.000      0.000
REMARK  3 active torsions:
REMARK  status: ('A' for Active; 'I' for Inactive)
REMARK    1  A    between atoms: C1_1  and  C6_6 
REMARK    2  A    between atoms: C7_7  and  C8_8 
REMARK    3  A    between atoms: C8_8  and  O10_10 
ROOT
HETATM    1  C2  UNL     1     -33.332  16.897  -4.877  1.00 20.00     0.001 C 
HETATM    2  C3  UNL     1     -33.937  17.267  -3.525  1.00 20.00     0.011 C 
HETATM    3  C4  UNL     1     -34.022  15.680  -5.489  1.00 20.00     0.007 C 
HETATM    4  C5  UNL     1     -34.626  14.862  -3.175  1.00 20.00     0.018 C 
HETATM    5  C6  UNL     1     -33.925  16.076  -2.574  1.00 20.00     0.047 C 
HETATM    6  C7  UNL     1     -34.015  14.481  -4.532  1.00 20.00     0.010 C 
ENDROOT
BRANCH   6   7
HETATM    7  C8  UNL     1     -34.759  13.296  -5.145  1.00 20.00     0.168 C 
BRANCH   7   8
HETATM    8  O10 UNL     1     -35.359  12.553  -4.101  1.00 20.00    -0.400 OA
HETATM    9  H24 UNL     1     -35.643  11.705  -4.480  1.00 20.00     0.209 HD
ENDBRANCH   7   8
ENDBRANCH   6   7
BRANCH   5  10
HETATM   10  C1  UNL     1     -34.688  16.478  -1.327  1.00 20.00     0.235 C 
HETATM   11  O9  UNL     1     -34.173  17.061  -0.378  1.00 20.00    -0.306 OA
ENDBRANCH   5  10
TORSDOF 3
ENDMDL
MODEL 2
REMARK VINA RESULT:      -4.2      0.788      3.895
REMARK  3 active torsions:
REMARK  status: ('A' for Active; 'I' for Inactive)
REMARK    1  A    between atoms: C1_1  and  C6_6 
REMARK    2  A    between atoms: C7_7  and  C8_8 
REMARK    3  A    between atoms: C8_8  and  O10_10 
ROOT
HETATM    1  C2  UNL     1     -33.868  17.416  -4.666  1.00 20.00     0.001 C 
HETATM    2  C3  UNL     1     -33.709  15.977  -5.148  1.00 20.00     0.011 C 
HETATM    3  C4  UNL     1     -33.745  17.519  -3.148  1.00 20.00     0.007 C 
HETATM    4  C5  UNL     1     -34.560  15.137  -2.923  1.00 20.00     0.018 C 
HETATM    5  C6  UNL     1     -34.689  15.049  -4.440  1.00 20.00     0.047 C 
HETATM    6  C7  UNL     1     -34.729  16.582  -2.432  1.00 20.00     0.010 C 
ENDROOT
BRANCH   6   7
HETATM    7  C8  UNL     1     -34.547  16.664  -0.918  1.00 20.00     0.168 C 
BRANCH   7   8
HETATM    8  O10 UNL     1     -35.686  17.295  -0.363  1.00 20.00    -0.400 OA
HETATM    9  H24 UNL     1     -36.119  16.646   0.217  1.00 20.00     0.209 HD
ENDBRANCH   7   8
ENDBRANCH   6   7
BRANCH   5  10
HETATM   10  C1  UNL     1     -34.352  13.628  -4.850  1.00 20.00     0.235 C 
HETATM   11  O9  UNL     1     -34.976  12.646  -4.460  1.00 20.00    -0.306 OA
ENDBRANCH   5  10
TORSDOF 3
ENDMDL
MODEL 3
REMARK VINA RESULT:      -4.2      1.960      2.772
REMARK  3 active torsions:
REMARK  status: ('A' for Active; 'I' for Inactive)
REMARK    1  A    between atoms: C1_1  and  C6_6 
REMARK    2  A    between atoms: C7_7  and  C8_8 
REMARK    3  A    between atoms: C8_8  and  O10_10 
ROOT
HETATM    1  C2  UNL     1     -34.457  15.202  -7.220  1.00 20.00     0.001 C 
HETATM    2  C3  UNL     1     -34.389  16.679  -6.838  1.00 20.00     0.011 C 
HETATM    3  C4  UNL     1     -34.887  14.335  -6.039  1.00 20.00     0.007 C 
HETATM    4  C5  UNL     1     -33.924  16.038  -4.440  1.00 20.00     0.018 C 
HETATM    5  C6  UNL     1     -33.490  16.892  -5.627  1.00 20.00     0.047 C 
HETATM    6  C7  UNL     1     -33.985  14.551  -4.817  1.00 20.00     0.010 C 
ENDROOT
BRANCH   6   7
HETATM    7  C8  UNL     1     -34.469  13.714  -3.635  1.00 20.00     0.168 C 
BRANCH   7   8
HETATM    8  O10 UNL     1     -35.187  12.602  -4.136  1.00 20.00    -0.400 OA
HETATM    9  H24 UNL     1     -36.009  12.943  -4.526  1.00 20.00     0.209 HD
ENDBRANCH   7   8
ENDBRANCH   6   7
BRANCH   5  10
HETATM   10  C1  UNL     1     -33.611  18.347  -5.217  1.00 20.00     0.235 C 
HETATM   11  O9  UNL     1     -33.522  18.732  -4.055  1.00 20.00    -0.306 OA
ENDBRANCH   5  10
TORSDOF 3
ENDMDL
MODEL 4
REMARK VINA RESULT:      -4.1      1.932      2.411
REMARK  3 active torsions:
REMARK  status: ('A' for Active; 'I' for Inactive)
REMARK    1  A    between atoms: C1_1  and  C6_6 
REMARK    2  A    between atoms: C7_7  and  C8_8 
REMARK    3  A    between atoms: C8_8  and  O10_10 
ROOT
HETATM    1  C2  UNL     1     -33.758  13.946  -3.915  1.00 20.00     0.001 C 
HETATM    2  C3  UNL     1     -33.277  15.293  -3.381  1.00 20.00     0.011 C 
HETATM    3  C4  UNL     1     -35.174  14.038  -4.480  1.00 20.00     0.007 C 
HETATM    4  C5  UNL     1     -35.668  15.967  -2.923  1.00 20.00     0.018 C 
HETATM    5  C6  UNL     1     -34.255  15.859  -2.359  1.00 20.00     0.047 C 
HETATM    6  C7  UNL     1     -36.160  14.612  -3.454  1.00 20.00     0.010 C 
ENDROOT
BRANCH   6   7
HETATM    7  C8  UNL     1     -37.555  14.744  -4.061  1.00 20.00     0.168 C 
BRANCH   7   8
HETATM    8  O10 UNL     1     -38.493  14.871  -3.008  1.00 20.00    -0.400 OA
HETATM    9  H24 UNL     1     -38.418  15.777  -2.665  1.00 20.00     0.209 HD
ENDBRANCH   7   8
ENDBRANCH   6   7
BRANCH   5  10
HETATM   10  C1  UNL     1     -33.791  17.260  -2.008  1.00 20.00     0.235 C 
HETATM   11  O9  UNL     1     -33.369  17.575  -0.901  1.00 20.00    -0.306 OA
ENDBRANCH   5  10
TORSDOF 3
ENDMDL
MODEL 5
REMARK VINA RESULT:      -4.1     11.337     12.821
REMARK  3 active torsions:
REMARK  status: ('A' for Active; 'I' for Inactive)
REMARK    1  A    between atoms: C1_1  and  C6_6 
REMARK    2  A    between atoms: C7_7  and  C8_8 
REMARK    3  A    between atoms: C8_8  and  O10_10 
ROOT
HETATM    1  C2  UNL     1     -40.798   5.913  -0.201  1.00 20.00     0.001 C 
HETATM    2  C3  UNL     1     -41.175   7.120  -1.056  1.00 20.00     0.011 C 
HETATM    3  C4  UNL     1     -40.688   4.642  -1.040  1.00 20.00     0.007 C 
HETATM    4  C5  UNL     1     -42.340   5.595  -2.698  1.00 20.00     0.018 C 
HETATM    5  C6  UNL     1     -42.450   6.857  -1.847  1.00 20.00     0.047 C 
HETATM    6  C7  UNL     1     -41.970   4.376  -1.840  1.00 20.00     0.010 C 
ENDROOT
BRANCH   6   7
HETATM    7  C8  UNL     1     -41.814   3.131  -2.711  1.00 20.00     0.168 C 
BRANCH   7   8
HETATM    8  O10 UNL     1     -42.648   2.112  -2.192  1.00 20.00    -0.400 OA
HETATM    9  H24 UNL     1     -42.103   1.572  -1.595  1.00 20.00     0.209 HD
ENDBRANCH   7   8
ENDBRANCH   6   7
BRANCH   5  10
HETATM   10  C1  UNL     1     -42.658   8.029  -2.786  1.00 20.00     0.235 C 
HETATM   11  O9  UNL     1     -42.273   8.039  -3.951  1.00 20.00    -0.306 OA
ENDBRANCH   5  10
TORSDOF 3
ENDMDL
MODEL 6
REMARK VINA RESULT:      -4.0      1.170      4.092
REMARK  3 active torsions:
REMARK  status: ('A' for Active; 'I' for Inactive)
REMARK    1  A    between atoms: C1_1  and  C6_6 
REMARK    2  A    between atoms: C7_7  and  C8_8 
REMARK    3  A    between atoms: C8_8  and  O10_10 
ROOT
HETATM    1  C2  UNL     1     -35.905  17.076  -4.490  1.00 20.00     0.001 C 
HETATM    2  C3  UNL     1     -35.249  15.827  -5.074  1.00 20.00     0.011 C 
HETATM    3  C4  UNL     1     -35.180  17.559  -3.236  1.00 20.00     0.007 C 
HETATM    4  C5  UNL     1     -34.400  15.199  -2.780  1.00 20.00     0.018 C 
HETATM    5  C6  UNL     1     -35.137  14.725  -4.029  1.00 20.00     0.047 C 
HETATM    6  C7  UNL     1     -35.062  16.449  -2.183  1.00 20.00     0.010 C 
ENDROOT
BRANCH   6   7
HETATM    7  C8  UNL     1     -34.286  16.942  -0.964  1.00 20.00     0.168 C 
BRANCH   7   8
HETATM    8  O10 UNL     1     -35.117  16.823   0.176  1.00 20.00    -0.400 OA
HETATM    9  H24 UNL     1     -35.998  16.561  -0.138  1.00 20.00     0.209 HD
ENDBRANCH   7   8
ENDBRANCH   6   7
BRANCH   5  10
HETATM   10  C1  UNL     1     -34.331  13.594  -4.639  1.00 20.00     0.235 C 
HETATM   11  O9  UNL     1     -34.780  12.469  -4.830  1.00 20.00    -0.306 OA
ENDBRANCH   5  10
TORSDOF 3
ENDMDL
MODEL 7
REMARK VINA RESULT:      -4.0     11.565     12.567
REMARK  3 active torsions:
REMARK  status: ('A' for Active; 'I' for Inactive)
REMARK    1  A    between atoms: C1_1  and  C6_6 
REMARK    2  A    between atoms: C7_7  and  C8_8 
REMARK    3  A    between atoms: C8_8  and  O10_10 
ROOT
HETATM    1  C2  UNL     1     -34.420   5.036   2.575  1.00 20.00     0.001 C 
HETATM    2  C3  UNL     1     -33.505   6.238   2.354  1.00 20.00     0.011 C 
HETATM    3  C4  UNL     1     -35.114   5.100   3.933  1.00 20.00     0.007 C 
HETATM    4  C5  UNL     1     -33.193   6.463   4.850  1.00 20.00     0.018 C 
HETATM    5  C6  UNL     1     -32.503   6.383   3.492  1.00 20.00     0.047 C 
HETATM    6  C7  UNL     1     -34.108   5.250   5.082  1.00 20.00     0.010 C 
ENDROOT
BRANCH   6   7
HETATM    7  C8  UNL     1     -34.831   5.367   6.422  1.00 20.00     0.168 C 
BRANCH   7   8
HETATM    8  O10 UNL     1     -35.610   4.202   6.615  1.00 20.00    -0.400 OA
HETATM    9  H24 UNL     1     -35.468   3.630   5.841  1.00 20.00     0.209 HD
ENDBRANCH   7   8
ENDBRANCH   6   7
BRANCH   5  10
HETATM   10  C1  UNL     1     -31.753   7.684   3.280  1.00 20.00     0.235 C 
HETATM   11  O9  UNL     1     -31.882   8.383   2.280  1.00 20.00    -0.306 OA
ENDBRANCH   5  10
TORSDOF 3
ENDMDL
MODEL 8
REMARK VINA RESULT:      -3.9      2.139      2.988
REMARK  3 active torsions:
REMARK  status: ('A' for Active; 'I' for Inactive)
REMARK    1  A    between atoms: C1_1  and  C6_6 
REMARK    2  A    between atoms: C7_7  and  C8_8 
REMARK    3  A    between atoms: C8_8  and  O10_10 
ROOT
HETATM    1  C2  UNL     1     -34.510  16.210  -2.321  1.00 20.00     0.001 C 
HETATM    2  C3  UNL     1     -33.809  17.304  -3.124  1.00 20.00     0.011 C 
HETATM    3  C4  UNL     1     -34.413  14.854  -3.015  1.00 20.00     0.007 C 
HETATM    4  C5  UNL     1     -34.229  16.012  -5.253  1.00 20.00     0.018 C 
HETATM    5  C6  UNL     1     -34.338  17.362  -4.551  1.00 20.00     0.047 C 
HETATM    6  C7  UNL     1     -34.941  14.911  -4.454  1.00 20.00     0.010 C 
ENDROOT
BRANCH   6   7
HETATM    7  C8  UNL     1     -34.782  13.556  -5.142  1.00 20.00     0.168 C 
BRANCH   7   8
HETATM    8  O10 UNL     1     -35.158  12.542  -4.229  1.00 20.00    -0.400 OA
HETATM    9  H24 UNL     1     -35.465  11.783  -4.753  1.00 20.00     0.209 HD
ENDBRANCH   7   8
ENDBRANCH   6   7
BRANCH   5  10
HETATM   10  C1  UNL     1     -33.480  18.350  -5.318  1.00 20.00     0.235 C 
HETATM   11  O9  UNL     1     -33.683  18.656  -6.489  1.00 20.00    -0.306 OA
ENDBRANCH   5  10
TORSDOF 3
ENDMDL
MODEL 9
REMARK VINA RESULT:      -3.9      2.843      3.818
REMARK  3 active torsions:
REMARK  status: ('A' for Active; 'I' for Inactive)
REMARK    1  A    between atoms: C1_1  and  C6_6 
REMARK    2  A    between atoms: C7_7  and  C8_8 
REMARK    3  A    between atoms: C8_8  and  O10_10 
ROOT
HETATM    1  C2  UNL     1     -35.887  14.697  -6.791  1.00 20.00     0.001 C 
HETATM    2  C3  UNL     1     -34.676  14.486  -5.887  1.00 20.00     0.011 C 
HETATM    3  C4  UNL     1     -36.995  15.468  -6.078  1.00 20.00     0.007 C 
HETATM    4  C5  UNL     1     -36.173  14.589  -3.855  1.00 20.00     0.018 C 
HETATM    5  C6  UNL     1     -35.076  13.814  -4.579  1.00 20.00     0.047 C 
HETATM    6  C7  UNL     1     -37.398  14.796  -4.758  1.00 20.00     0.010 C 
ENDROOT
BRANCH   6   7
HETATM    7  C8  UNL     1     -38.467  15.615  -4.039  1.00 20.00     0.168 C 
BRANCH   7   8
HETATM    8  O10 UNL     1     -38.640  15.085  -2.738  1.00 20.00    -0.400 OA
HETATM    9  H24 UNL     1     -39.596  14.984  -2.595  1.00 20.00     0.209 HD
ENDBRANCH   7   8
ENDBRANCH   6   7
BRANCH   5  10
HETATM   10  C1  UNL     1     -33.855  13.795  -3.680  1.00 20.00     0.235 C 
HETATM   11  O9  UNL     1     -32.929  13.001  -3.814  1.00 20.00    -0.306 OA
ENDBRANCH   5  10
TORSDOF 3
ENDMDL
