MODEL 1
REMARK VINA RESULT:      -3.7      0.000      0.000
REMARK  1 active torsions:
REMARK  status: ('A' for Active; 'I' for Inactive)
REMARK    1  A    between atoms: C1_1  and  C4_4 
ROOT
HETATM    1  C2  UNL     1     -34.424   5.061   3.018  1.00 20.00     0.031 A 
HETATM    2  C3  UNL     1     -35.590   5.852   3.532  1.00 20.00     0.031 A 
HETATM    3  C4  UNL     1     -34.494   5.427   4.479  1.00 20.00     0.078 A 
HETATM    4 BR7  UNL     1     -34.915   4.004   5.709  1.00 20.00    -0.077 Br
ENDROOT
BRANCH   3   5
HETATM    5  C1  UNL     1     -33.570   6.446   5.003  1.00 20.00     0.142 C 
HETATM    6  C5  UNL     1     -33.772   6.872   6.431  1.00 20.00     0.092 C 
HETATM    7  O6  UNL     1     -32.675   6.924   4.306  1.00 20.00    -0.297 OA
ENDBRANCH   3   5
TORSDOF 1
ENDMDL
MODEL 2
REMARK VINA RESULT:      -3.7      2.184      2.729
REMARK  1 active torsions:
REMARK  status: ('A' for Active; 'I' for Inactive)
REMARK    1  A    between atoms: C1_1  and  C4_4 
ROOT
HETATM    1  C2  UNL     1     -33.608   7.055   3.445  1.00 20.00     0.031 A 
HETATM    2  C3  UNL     1     -32.642   5.957   3.777  1.00 20.00     0.031 A 
HETATM    3  C4  UNL     1     -33.858   6.175   4.644  1.00 20.00     0.078 A 
HETATM    4 BR7  UNL     1     -33.557   6.965   6.375  1.00 20.00    -0.077 Br
ENDROOT
BRANCH   3   5
HETATM    5  C1  UNL     1     -34.956   5.196   4.591  1.00 20.00     0.142 C 
HETATM    6  C5  UNL     1     -34.926   4.091   5.612  1.00 20.00     0.092 C 
HETATM    7  O6  UNL     1     -35.855   5.278   3.755  1.00 20.00    -0.297 OA
ENDBRANCH   3   5
TORSDOF 1
ENDMDL
MODEL 3
REMARK VINA RESULT:      -3.6      1.970      2.338
REMARK  1 active torsions:
REMARK  status: ('A' for Active; 'I' for Inactive)
REMARK    1  A    between atoms: C1_1  and  C4_4 
ROOT
HETATM    1  C2  UNL     1     -34.336   4.040   5.325  1.00 20.00     0.031 A 
HETATM    2  C3  UNL     1     -35.556   4.830   4.955  1.00 20.00     0.031 A 
HETATM    3  C4  UNL     1     -34.198   5.486   4.921  1.00 20.00     0.078 A 
HETATM    4 BR7  UNL     1     -33.808   6.745   6.327  1.00 20.00    -0.077 Br
ENDROOT
BRANCH   3   5
HETATM    5  C1  UNL     1     -33.594   5.807   3.617  1.00 20.00     0.142 C 
HETATM    6  C5  UNL     1     -32.420   6.747   3.628  1.00 20.00     0.092 C 
HETATM    7  O6  UNL     1     -34.026   5.327   2.570  1.00 20.00    -0.297 OA
ENDBRANCH   3   5
TORSDOF 1
ENDMDL
MODEL 4
REMARK VINA RESULT:      -3.6     11.898     12.367
REMARK  1 active torsions:
REMARK  status: ('A' for Active; 'I' for Inactive)
REMARK    1  A    between atoms: C1_1  and  C4_4 
ROOT
HETATM    1  C2  UNL     1     -36.934  14.773  -3.796  1.00 20.00     0.031 A 
HETATM    2  C3  UNL     1     -36.132  15.572  -4.780  1.00 20.00     0.031 A 
HETATM    3  C4  UNL     1     -35.438  14.876  -3.634  1.00 20.00     0.078 A 
HETATM    4 BR7  UNL     1     -34.798  15.994  -2.201  1.00 20.00    -0.077 Br
ENDROOT
BRANCH   3   5
HETATM    5  C1  UNL     1     -34.608  13.693  -3.917  1.00 20.00     0.142 C 
HETATM    6  C5  UNL     1     -33.130  13.833  -3.678  1.00 20.00     0.092 C 
HETATM    7  O6  UNL     1     -35.100  12.643  -4.326  1.00 20.00    -0.297 OA
ENDBRANCH   3   5
TORSDOF 1
ENDMDL
MODEL 5
REMARK VINA RESULT:      -3.5      2.150      2.284
REMARK  1 active torsions:
REMARK  status: ('A' for Active; 'I' for Inactive)
REMARK    1  A    between atoms: C1_1  and  C4_4 
ROOT
HETATM    1  C2  UNL     1     -35.534   5.697   3.774  1.00 20.00     0.031 A 
HETATM    2  C3  UNL     1     -34.762   4.433   4.009  1.00 20.00     0.031 A 
HETATM    3  C4  UNL     1     -34.244   5.742   4.553  1.00 20.00     0.078 A 
HETATM    4 BR7  UNL     1     -32.719   6.510   3.659  1.00 20.00    -0.077 Br
ENDROOT
BRANCH   3   5
HETATM    5  C1  UNL     1     -34.296   5.981   6.005  1.00 20.00     0.142 C 
HETATM    6  C5  UNL     1     -33.459   7.112   6.534  1.00 20.00     0.092 C 
HETATM    7  O6  UNL     1     -34.992   5.289   6.748  1.00 20.00    -0.297 OA
ENDBRANCH   3   5
TORSDOF 1
ENDMDL
MODEL 6
REMARK VINA RESULT:      -3.5     12.540     12.866
REMARK  1 active torsions:
REMARK  status: ('A' for Active; 'I' for Inactive)
REMARK    1  A    between atoms: C1_1  and  C4_4 
ROOT
HETATM    1  C2  UNL     1     -32.863  14.625  -3.650  1.00 20.00     0.031 A 
HETATM    2  C3  UNL     1     -33.783  15.652  -3.059  1.00 20.00     0.031 A 
HETATM    3  C4  UNL     1     -34.188  14.912  -4.311  1.00 20.00     0.078 A 
HETATM    4 BR7  UNL     1     -34.135  15.905  -5.961  1.00 20.00    -0.077 Br
ENDROOT
BRANCH   3   5
HETATM    5  C1  UNL     1     -35.258  13.904  -4.227  1.00 20.00     0.142 C 
HETATM    6  C5  UNL     1     -36.661  14.419  -4.062  1.00 20.00     0.092 C 
HETATM    7  O6  UNL     1     -35.016  12.699  -4.292  1.00 20.00    -0.297 OA
ENDBRANCH   3   5
TORSDOF 1
ENDMDL
MODEL 7
REMARK VINA RESULT:      -3.4     12.464     12.998
REMARK  1 active torsions:
REMARK  status: ('A' for Active; 'I' for Inactive)
REMARK    1  A    between atoms: C1_1  and  C4_4 
ROOT
HETATM    1  C2  UNL     1     -33.260  15.953  -4.698  1.00 20.00     0.031 A 
HETATM    2  C3  UNL     1     -32.765  14.971  -3.678  1.00 20.00     0.031 A 
HETATM    3  C4  UNL     1     -34.223  14.982  -4.064  1.00 20.00     0.078 A 
HETATM    4 BR7  UNL     1     -35.457  15.704  -2.772  1.00 20.00    -0.077 Br
ENDROOT
BRANCH   3   5
HETATM    5  C1  UNL     1     -34.754  13.873  -4.876  1.00 20.00     0.142 C 
HETATM    6  C5  UNL     1     -35.076  14.181  -6.312  1.00 20.00     0.092 C 
HETATM    7  O6  UNL     1     -34.924  12.751  -4.402  1.00 20.00    -0.297 OA
ENDBRANCH   3   5
TORSDOF 1
ENDMDL
MODEL 8
REMARK VINA RESULT:      -3.4     13.010     13.432
REMARK  1 active torsions:
REMARK  status: ('A' for Active; 'I' for Inactive)
REMARK    1  A    between atoms: C1_1  and  C4_4 
ROOT
HETATM    1  C2  UNL     1     -35.512  14.376  -7.030  1.00 20.00     0.031 A 
HETATM    2  C3  UNL     1     -34.220  15.131  -6.921  1.00 20.00     0.031 A 
HETATM    3  C4  UNL     1     -34.982  14.763  -5.672  1.00 20.00     0.078 A 
HETATM    4 BR7  UNL     1     -35.897  16.193  -4.761  1.00 20.00    -0.077 Br
ENDROOT
BRANCH   3   5
HETATM    5  C1  UNL     1     -34.444  13.712  -4.792  1.00 20.00     0.142 C 
HETATM    6  C5  UNL     1     -33.427  14.141  -3.771  1.00 20.00     0.092 C 
HETATM    7  O6  UNL     1     -34.809  12.541  -4.887  1.00 20.00    -0.297 OA
ENDBRANCH   3   5
TORSDOF 1
ENDMDL
MODEL 9
REMARK VINA RESULT:      -3.4     12.369     12.841
REMARK  1 active torsions:
REMARK  status: ('A' for Active; 'I' for Inactive)
REMARK    1  A    between atoms: C1_1  and  C4_4 
ROOT
HETATM    1  C2  UNL     1     -34.673  16.193  -5.030  1.00 20.00     0.031 A 
HETATM    2  C3  UNL     1     -33.187  16.249  -4.831  1.00 20.00     0.031 A 
HETATM    3  C4  UNL     1     -34.044  15.452  -3.877  1.00 20.00     0.078 A 
HETATM    4 BR7  UNL     1     -34.309  16.199  -2.120  1.00 20.00    -0.077 Br
ENDROOT
BRANCH   3   5
HETATM    5  C1  UNL     1     -33.983  13.982  -3.923  1.00 20.00     0.142 C 
HETATM    6  C5  UNL     1     -35.224  13.268  -4.384  1.00 20.00     0.092 C 
HETATM    7  O6  UNL     1     -32.967  13.368  -3.601  1.00 20.00    -0.297 OA
ENDBRANCH   3   5
TORSDOF 1
ENDMDL
