MODEL 1
REMARK VINA RESULT:      -4.0      0.000      0.000
REMARK  3 active torsions:
REMARK  status: ('A' for Active; 'I' for Inactive)
REMARK    1  A    between atoms: C1_1  and  C7_7 
REMARK    2  A    between atoms: C1_1  and  O10_10 
REMARK    3  A    between atoms: C6_6  and  C7_7 
ROOT
HETATM    1  C4  UNL     1     -32.796  14.856  -3.735  1.00 20.00     0.021 A 
HETATM    2  C5  UNL     1     -33.740  16.004  -3.541  1.00 20.00     0.021 A 
HETATM    3  C7  UNL     1     -34.096  14.899  -4.512  1.00 20.00     0.051 A 
ENDROOT
BRANCH   3   4
HETATM    4  C1  UNL     1     -35.156  13.952  -4.079  1.00 20.00     0.267 C 
HETATM    5  O9  UNL     1     -35.124  12.746  -4.286  1.00 20.00    -0.264 OA
BRANCH   4   6
HETATM    6  O10 UNL     1     -36.141  14.636  -3.431  1.00 20.00    -0.326 OA
HETATM    7  C8  UNL     1     -37.416  14.640  -4.080  1.00 20.00     0.213 C 
ENDBRANCH   4   6
ENDBRANCH   3   4
BRANCH   3   8
HETATM    8  C6  UNL     1     -34.081  15.167  -6.030  1.00 20.00     0.004 A 
HETATM    9  C2  UNL     1     -35.106  14.588  -6.966  1.00 20.00     0.006 A 
HETATM   10  C3  UNL     1     -35.078  16.068  -6.704  1.00 20.00     0.006 A 
ENDBRANCH   3   8
TORSDOF 3
ENDMDL
MODEL 2
REMARK VINA RESULT:      -4.0      1.989      3.553
REMARK  3 active torsions:
REMARK  status: ('A' for Active; 'I' for Inactive)
REMARK    1  A    between atoms: C1_1  and  C7_7 
REMARK    2  A    between atoms: C1_1  and  O10_10 
REMARK    3  A    between atoms: C6_6  and  C7_7 
ROOT
HETATM    1  C4  UNL     1     -33.312  13.612  -3.672  1.00 20.00     0.021 A 
HETATM    2  C5  UNL     1     -34.721  13.506  -4.172  1.00 20.00     0.021 A 
HETATM    3  C7  UNL     1     -34.170  14.857  -3.767  1.00 20.00     0.051 A 
ENDROOT
BRANCH   3   4
HETATM    4  C1  UNL     1     -33.847  15.799  -4.870  1.00 20.00     0.267 C 
HETATM    5  O9  UNL     1     -32.813  16.450  -4.935  1.00 20.00    -0.264 OA
BRANCH   4   6
HETATM    6  O10 UNL     1     -34.871  15.814  -5.770  1.00 20.00    -0.326 OA
HETATM    7  C8  UNL     1     -34.488  15.640  -7.139  1.00 20.00     0.213 C 
ENDBRANCH   4   6
ENDBRANCH   3   4
BRANCH   3   8
HETATM    8  C6  UNL     1     -34.677  15.547  -2.485  1.00 20.00     0.004 A 
HETATM    9  C2  UNL     1     -33.950  16.696  -1.841  1.00 20.00     0.006 A 
HETATM   10  C3  UNL     1     -35.287  16.922  -2.491  1.00 20.00     0.006 A 
ENDBRANCH   3   8
TORSDOF 3
ENDMDL
MODEL 3
REMARK VINA RESULT:      -3.9      1.278      3.145
REMARK  3 active torsions:
REMARK  status: ('A' for Active; 'I' for Inactive)
REMARK    1  A    between atoms: C1_1  and  C7_7 
REMARK    2  A    between atoms: C1_1  and  O10_10 
REMARK    3  A    between atoms: C6_6  and  C7_7 
ROOT
HETATM    1  C4  UNL     1     -37.033  14.738  -3.628  1.00 20.00     0.021 A 
HETATM    2  C5  UNL     1     -36.556  15.840  -4.522  1.00 20.00     0.021 A 
HETATM    3  C7  UNL     1     -35.594  14.751  -4.099  1.00 20.00     0.051 A 
ENDROOT
BRANCH   3   4
HETATM    4  C1  UNL     1     -35.230  13.750  -5.136  1.00 20.00     0.267 C 
HETATM    5  O9  UNL     1     -34.782  12.638  -4.887  1.00 20.00    -0.264 OA
BRANCH   4   6
HETATM    6  O10 UNL     1     -35.472  14.267  -6.373  1.00 20.00    -0.326 OA
HETATM    7  C8  UNL     1     -34.347  14.880  -7.013  1.00 20.00     0.213 C 
ENDBRANCH   4   6
ENDBRANCH   3   4
BRANCH   3   8
HETATM    8  C6  UNL     1     -34.457  15.064  -3.107  1.00 20.00     0.004 A 
HETATM    9  C2  UNL     1     -33.033  15.269  -3.544  1.00 20.00     0.006 A 
HETATM   10  C3  UNL     1     -33.827  16.424  -2.998  1.00 20.00     0.006 A 
ENDBRANCH   3   8
TORSDOF 3
ENDMDL
MODEL 4
REMARK VINA RESULT:      -3.9      1.500      3.046
REMARK  3 active torsions:
REMARK  status: ('A' for Active; 'I' for Inactive)
REMARK    1  A    between atoms: C1_1  and  C7_7 
REMARK    2  A    between atoms: C1_1  and  O10_10 
REMARK    3  A    between atoms: C6_6  and  C7_7 
ROOT
HETATM    1  C4  UNL     1     -33.310  15.921  -4.709  1.00 20.00     0.021 A 
HETATM    2  C5  UNL     1     -32.569  15.267  -3.582  1.00 20.00     0.021 A 
HETATM    3  C7  UNL     1     -34.052  15.542  -3.444  1.00 20.00     0.051 A 
ENDROOT
BRANCH   3   4
HETATM    4  C1  UNL     1     -34.955  14.365  -3.535  1.00 20.00     0.267 C 
HETATM    5  O9  UNL     1     -34.566  13.208  -3.615  1.00 20.00    -0.264 OA
BRANCH   4   6
HETATM    6  O10 UNL     1     -36.252  14.785  -3.517  1.00 20.00    -0.326 OA
HETATM    7  C8  UNL     1     -36.891  14.865  -4.795  1.00 20.00     0.213 C 
ENDBRANCH   4   6
ENDBRANCH   3   4
BRANCH   3   8
HETATM    8  C6  UNL     1     -34.550  16.638  -2.481  1.00 20.00     0.004 A 
HETATM    9  C2  UNL     1     -34.675  16.418  -0.998  1.00 20.00     0.006 A 
HETATM   10  C3  UNL     1     -33.634  17.362  -1.533  1.00 20.00     0.006 A 
ENDBRANCH   3   8
TORSDOF 3
ENDMDL
MODEL 5
REMARK VINA RESULT:      -3.8      1.880      2.627
REMARK  3 active torsions:
REMARK  status: ('A' for Active; 'I' for Inactive)
REMARK    1  A    between atoms: C1_1  and  C7_7 
REMARK    2  A    between atoms: C1_1  and  O10_10 
REMARK    3  A    between atoms: C6_6  and  C7_7 
ROOT
HETATM    1  C4  UNL     1     -34.231  16.417  -1.672  1.00 20.00     0.021 A 
HETATM    2  C5  UNL     1     -35.426  16.043  -2.495  1.00 20.00     0.021 A 
HETATM    3  C7  UNL     1     -34.054  16.062  -3.134  1.00 20.00     0.051 A 
ENDROOT
BRANCH   3   4
HETATM    4  C1  UNL     1     -33.438  14.741  -3.423  1.00 20.00     0.267 C 
HETATM    5  O9  UNL     1     -32.234  14.555  -3.533  1.00 20.00    -0.264 OA
BRANCH   4   6
HETATM    6  O10 UNL     1     -34.417  13.799  -3.542  1.00 20.00    -0.326 OA
HETATM    7  C8  UNL     1     -34.589  13.254  -4.854  1.00 20.00     0.213 C 
ENDBRANCH   4   6
ENDBRANCH   3   4
BRANCH   3   8
HETATM    8  C6  UNL     1     -33.692  17.157  -4.158  1.00 20.00     0.004 A 
HETATM    9  C2  UNL     1     -33.665  16.903  -5.640  1.00 20.00     0.006 A 
HETATM   10  C3  UNL     1     -34.715  17.803  -5.050  1.00 20.00     0.006 A 
ENDBRANCH   3   8
TORSDOF 3
ENDMDL
MODEL 6
REMARK VINA RESULT:      -3.8      1.722      3.173
REMARK  3 active torsions:
REMARK  status: ('A' for Active; 'I' for Inactive)
REMARK    1  A    between atoms: C1_1  and  C7_7 
REMARK    2  A    between atoms: C1_1  and  O10_10 
REMARK    3  A    between atoms: C6_6  and  C7_7 
ROOT
HETATM    1  C4  UNL     1     -34.459  14.291  -5.185  1.00 20.00     0.021 A 
HETATM    2  C5  UNL     1     -35.044  13.297  -4.229  1.00 20.00     0.021 A 
HETATM    3  C7  UNL     1     -35.086  14.772  -3.893  1.00 20.00     0.051 A 
ENDROOT
BRANCH   3   4
HETATM    4  C1  UNL     1     -36.408  15.441  -4.010  1.00 20.00     0.267 C 
HETATM    5  O9  UNL     1     -36.587  16.511  -4.578  1.00 20.00    -0.264 OA
BRANCH   4   6
HETATM    6  O10 UNL     1     -37.359  14.683  -3.394  1.00 20.00    -0.326 OA
HETATM    7  C8  UNL     1     -38.679  14.792  -3.937  1.00 20.00     0.213 C 
ENDBRANCH   4   6
ENDBRANCH   3   4
BRANCH   3   8
HETATM    8  C6  UNL     1     -34.200  15.335  -2.765  1.00 20.00     0.004 A 
HETATM    9  C2  UNL     1     -33.833  16.791  -2.672  1.00 20.00     0.006 A 
HETATM   10  C3  UNL     1     -34.747  16.179  -1.647  1.00 20.00     0.006 A 
ENDBRANCH   3   8
TORSDOF 3
ENDMDL
MODEL 7
REMARK VINA RESULT:      -3.8      2.054      3.389
REMARK  3 active torsions:
REMARK  status: ('A' for Active; 'I' for Inactive)
REMARK    1  A    between atoms: C1_1  and  C7_7 
REMARK    2  A    between atoms: C1_1  and  O10_10 
REMARK    3  A    between atoms: C6_6  and  C7_7 
ROOT
HETATM    1  C4  UNL     1     -34.395  15.100  -7.465  1.00 20.00     0.021 A 
HETATM    2  C5  UNL     1     -35.744  15.314  -6.848  1.00 20.00     0.021 A 
HETATM    3  C7  UNL     1     -34.540  15.089  -5.957  1.00 20.00     0.051 A 
ENDROOT
BRANCH   3   4
HETATM    4  C1  UNL     1     -34.018  16.278  -5.235  1.00 20.00     0.267 C 
HETATM    5  O9  UNL     1     -32.831  16.562  -5.151  1.00 20.00    -0.264 OA
BRANCH   4   6
HETATM    6  O10 UNL     1     -35.058  16.977  -4.698  1.00 20.00    -0.326 OA
HETATM    7  C8  UNL     1     -34.912  17.334  -3.319  1.00 20.00     0.213 C 
ENDBRANCH   4   6
ENDBRANCH   3   4
BRANCH   3   8
HETATM    8  C6  UNL     1     -34.392  13.769  -5.175  1.00 20.00     0.004 A 
HETATM    9  C2  UNL     1     -33.891  13.718  -3.758  1.00 20.00     0.006 A 
HETATM   10  C3  UNL     1     -35.324  13.376  -4.062  1.00 20.00     0.006 A 
ENDBRANCH   3   8
TORSDOF 3
ENDMDL
MODEL 8
REMARK VINA RESULT:      -3.8     11.348     12.822
REMARK  3 active torsions:
REMARK  status: ('A' for Active; 'I' for Inactive)
REMARK    1  A    between atoms: C1_1  and  C7_7 
REMARK    2  A    between atoms: C1_1  and  O10_10 
REMARK    3  A    between atoms: C6_6  and  C7_7 
ROOT
HETATM    1  C4  UNL     1     -34.752   4.989   3.143  1.00 20.00     0.021 A 
HETATM    2  C5  UNL     1     -35.221   6.372   3.477  1.00 20.00     0.021 A 
HETATM    3  C7  UNL     1     -33.883   5.890   3.996  1.00 20.00     0.051 A 
ENDROOT
BRANCH   3   4
HETATM    4  C1  UNL     1     -32.676   6.456   3.340  1.00 20.00     0.267 C 
HETATM    5  O9  UNL     1     -31.635   5.835   3.169  1.00 20.00    -0.264 OA
BRANCH   4   6
HETATM    6  O10 UNL     1     -32.919   7.746   2.973  1.00 20.00    -0.326 OA
HETATM    7  C8  UNL     1     -32.073   8.260   1.939  1.00 20.00     0.213 C 
ENDBRANCH   4   6
ENDBRANCH   3   4
BRANCH   3   8
HETATM    8  C6  UNL     1     -33.697   5.592   5.497  1.00 20.00     0.004 A 
HETATM    9  C2  UNL     1     -34.036   6.589   6.570  1.00 20.00     0.006 A 
HETATM   10  C3  UNL     1     -34.854   5.335   6.422  1.00 20.00     0.006 A 
ENDBRANCH   3   8
TORSDOF 3
ENDMDL
MODEL 9
REMARK VINA RESULT:      -3.7      1.801      2.633
REMARK  3 active torsions:
REMARK  status: ('A' for Active; 'I' for Inactive)
REMARK    1  A    between atoms: C1_1  and  C7_7 
REMARK    2  A    between atoms: C1_1  and  O10_10 
REMARK    3  A    between atoms: C6_6  and  C7_7 
ROOT
HETATM    1  C4  UNL     1     -34.700  13.356  -4.295  1.00 20.00     0.021 A 
HETATM    2  C5  UNL     1     -33.368  13.717  -3.713  1.00 20.00     0.021 A 
HETATM    3  C7  UNL     1     -34.320  14.814  -4.141  1.00 20.00     0.051 A 
ENDROOT
BRANCH   3   4
HETATM    4  C1  UNL     1     -35.000  15.562  -3.052  1.00 20.00     0.267 C 
HETATM    5  O9  UNL     1     -36.210  15.736  -2.993  1.00 20.00    -0.264 OA
BRANCH   4   6
HETATM    6  O10 UNL     1     -34.073  16.009  -2.158  1.00 20.00    -0.326 OA
HETATM    7  C8  UNL     1     -34.604  16.598  -0.966  1.00 20.00     0.213 C 
ENDBRANCH   4   6
ENDBRANCH   3   4
BRANCH   3   8
HETATM    8  C6  UNL     1     -34.008  15.668  -5.385  1.00 20.00     0.004 A 
HETATM    9  C2  UNL     1     -34.848  16.848  -5.789  1.00 20.00     0.006 A 
HETATM   10  C3  UNL     1     -33.443  17.059  -5.294  1.00 20.00     0.006 A 
ENDBRANCH   3   8
TORSDOF 3
ENDMDL
