MODEL 1
REMARK VINA RESULT:      -4.4      0.000      0.000
REMARK  1 active torsions:
REMARK  status: ('A' for Active; 'I' for Inactive)
REMARK    1  A    between atoms: C3_3  and  C7_7 
ROOT
HETATM    1  C1  UNL     1     -34.560   4.314   5.767  1.00 20.00    -0.030 C 
HETATM    2  C2  UNL     1     -35.090   4.375   4.539  1.00 20.00    -0.026 C 
HETATM    3  C4  UNL     1     -33.883   5.473   6.433  1.00 20.00     0.027 C 
HETATM    4  C5  UNL     1     -34.096   6.806   5.707  1.00 20.00     0.018 C 
HETATM    5  C6  UNL     1     -35.047   5.614   3.679  1.00 20.00     0.016 C 
HETATM    6  C7  UNL     1     -34.030   6.663   4.182  1.00 20.00     0.080 C 
HETATM    7  C8  UNL     1     -34.837   5.257   2.205  1.00 20.00     0.015 C 
ENDROOT
BRANCH   6   8
HETATM    8  C3  UNL     1     -32.611   6.359   3.782  1.00 20.00     0.223 C 
HETATM    9  O9  UNL     1     -32.289   5.266   3.329  1.00 20.00    -0.279 OA
HETATM   10 CL10 UNL     1     -31.554   7.714   4.043  1.00 20.00    -0.043 Cl
ENDBRANCH   6   8
TORSDOF 1
ENDMDL
MODEL 2
REMARK VINA RESULT:      -4.3     12.722     13.614
REMARK  1 active torsions:
REMARK  status: ('A' for Active; 'I' for Inactive)
REMARK    1  A    between atoms: C3_3  and  C7_7 
ROOT
HETATM    1  C1  UNL     1     -34.334  13.809  -3.726  1.00 20.00    -0.030 C 
HETATM    2  C2  UNL     1     -34.608  13.705  -5.032  1.00 20.00    -0.026 C 
HETATM    3  C4  UNL     1     -34.559  15.060  -2.932  1.00 20.00     0.027 C 
HETATM    4  C5  UNL     1     -35.388  16.114  -3.674  1.00 20.00     0.018 C 
HETATM    5  C6  UNL     1     -35.157  14.843  -5.857  1.00 20.00     0.016 C 
HETATM    6  C7  UNL     1     -35.021  16.215  -5.159  1.00 20.00     0.080 C 
HETATM    7  C8  UNL     1     -34.558  14.843  -7.267  1.00 20.00     0.015 C 
ENDROOT
BRANCH   6   8
HETATM    8  C3  UNL     1     -33.646  16.813  -5.281  1.00 20.00     0.223 C 
HETATM    9  O9  UNL     1     -32.660  16.269  -4.795  1.00 20.00    -0.279 OA
HETATM   10 CL10 UNL     1     -33.660  18.308  -6.168  1.00 20.00    -0.043 Cl
ENDBRANCH   6   8
TORSDOF 1
ENDMDL
MODEL 3
REMARK VINA RESULT:      -4.3     12.145     13.196
REMARK  1 active torsions:
REMARK  status: ('A' for Active; 'I' for Inactive)
REMARK    1  A    between atoms: C3_3  and  C7_7 
ROOT
HETATM    1  C1  UNL     1     -34.784  13.831  -5.614  1.00 20.00    -0.030 C 
HETATM    2  C2  UNL     1     -34.481  15.050  -6.077  1.00 20.00    -0.026 C 
HETATM    3  C4  UNL     1     -35.468  13.592  -4.302  1.00 20.00     0.027 C 
HETATM    4  C5  UNL     1     -36.040  14.866  -3.670  1.00 20.00     0.018 C 
HETATM    5  C6  UNL     1     -34.776  16.321  -5.319  1.00 20.00     0.016 C 
HETATM    6  C7  UNL     1     -35.109  16.073  -3.830  1.00 20.00     0.080 C 
HETATM    7  C8  UNL     1     -33.654  17.347  -5.503  1.00 20.00     0.015 C 
ENDROOT
BRANCH   6   8
HETATM    8  C3  UNL     1     -33.890  15.866  -2.972  1.00 20.00     0.223 C 
HETATM    9  O9  UNL     1     -32.906  15.259  -3.385  1.00 20.00    -0.279 OA
HETATM   10 CL10 UNL     1     -34.072  16.575  -1.396  1.00 20.00    -0.043 Cl
ENDBRANCH   6   8
TORSDOF 1
ENDMDL
MODEL 4
REMARK VINA RESULT:      -4.3     12.282     13.162
REMARK  1 active torsions:
REMARK  status: ('A' for Active; 'I' for Inactive)
REMARK    1  A    between atoms: C3_3  and  C7_7 
ROOT
HETATM    1  C1  UNL     1     -34.121  15.936  -5.827  1.00 20.00    -0.030 C 
HETATM    2  C2  UNL     1     -35.207  15.180  -5.614  1.00 20.00    -0.026 C 
HETATM    3  C4  UNL     1     -33.052  16.153  -4.800  1.00 20.00     0.027 C 
HETATM    4  C5  UNL     1     -33.165  15.215  -3.592  1.00 20.00     0.018 C 
HETATM    5  C6  UNL     1     -35.484  14.478  -4.308  1.00 20.00     0.016 C 
HETATM    6  C7  UNL     1     -34.615  15.003  -3.144  1.00 20.00     0.080 C 
HETATM    7  C8  UNL     1     -36.979  14.498  -3.976  1.00 20.00     0.015 C 
ENDROOT
BRANCH   6   8
HETATM    8  C3  UNL     1     -35.131  16.283  -2.544  1.00 20.00     0.223 C 
HETATM    9  O9  UNL     1     -35.823  17.064  -3.188  1.00 20.00    -0.279 OA
HETATM   10 CL10 UNL     1     -34.628  16.480  -0.891  1.00 20.00    -0.043 Cl
ENDBRANCH   6   8
TORSDOF 1
ENDMDL
MODEL 5
REMARK VINA RESULT:      -4.3     12.037     12.984
REMARK  1 active torsions:
REMARK  status: ('A' for Active; 'I' for Inactive)
REMARK    1  A    between atoms: C3_3  and  C7_7 
ROOT
HETATM    1  C1  UNL     1     -34.170  13.349  -4.448  1.00 20.00    -0.030 C 
HETATM    2  C2  UNL     1     -33.897  14.196  -3.448  1.00 20.00    -0.026 C 
HETATM    3  C4  UNL     1     -35.050  13.699  -5.610  1.00 20.00     0.027 C 
HETATM    4  C5  UNL     1     -35.379  15.194  -5.698  1.00 20.00     0.018 C 
HETATM    5  C6  UNL     1     -34.460  15.594  -3.368  1.00 20.00     0.016 C 
HETATM    6  C7  UNL     1     -35.651  15.820  -4.326  1.00 20.00     0.080 C 
HETATM    7  C8  UNL     1     -34.792  15.974  -1.923  1.00 20.00     0.015 C 
ENDROOT
BRANCH   6   8
HETATM    8  C3  UNL     1     -36.954  15.284  -3.796  1.00 20.00     0.223 C 
HETATM    9  O9  UNL     1     -37.178  14.080  -3.733  1.00 20.00    -0.279 OA
HETATM   10 CL10 UNL     1     -38.034  16.556  -3.310  1.00 20.00    -0.043 Cl
ENDBRANCH   6   8
TORSDOF 1
ENDMDL
MODEL 6
REMARK VINA RESULT:      -4.2     12.561     13.688
REMARK  1 active torsions:
REMARK  status: ('A' for Active; 'I' for Inactive)
REMARK    1  A    between atoms: C3_3  and  C7_7 
ROOT
HETATM    1  C1  UNL     1     -34.811  15.942  -6.806  1.00 20.00    -0.030 C 
HETATM    2  C2  UNL     1     -34.881  14.688  -6.342  1.00 20.00    -0.026 C 
HETATM    3  C4  UNL     1     -34.078  17.043  -6.101  1.00 20.00     0.027 C 
HETATM    4  C5  UNL     1     -33.186  16.549  -4.956  1.00 20.00     0.018 C 
HETATM    5  C6  UNL     1     -34.247  14.246  -5.046  1.00 20.00     0.016 C 
HETATM    6  C7  UNL     1     -33.842  15.430  -4.139  1.00 20.00     0.080 C 
HETATM    7  C8  UNL     1     -35.129  13.228  -4.318  1.00 20.00     0.015 C 
ENDROOT
BRANCH   6   8
HETATM    8  C3  UNL     1     -34.992  16.006  -3.359  1.00 20.00     0.223 C 
HETATM    9  O9  UNL     1     -36.040  16.337  -3.904  1.00 20.00    -0.279 OA
HETATM   10 CL10 UNL     1     -34.637  16.125  -1.661  1.00 20.00    -0.043 Cl
ENDBRANCH   6   8
TORSDOF 1
ENDMDL
MODEL 7
REMARK VINA RESULT:      -4.1     12.634     13.547
REMARK  1 active torsions:
REMARK  status: ('A' for Active; 'I' for Inactive)
REMARK    1  A    between atoms: C3_3  and  C7_7 
ROOT
HETATM    1  C1  UNL     1     -34.022  16.850  -2.137  1.00 20.00    -0.030 C 
HETATM    2  C2  UNL     1     -34.445  15.589  -2.291  1.00 20.00    -0.026 C 
HETATM    3  C4  UNL     1     -34.287  17.938  -3.133  1.00 20.00     0.027 C 
HETATM    4  C5  UNL     1     -35.317  17.552  -4.200  1.00 20.00     0.018 C 
HETATM    5  C6  UNL     1     -35.219  15.116  -3.496  1.00 20.00     0.016 C 
HETATM    6  C7  UNL     1     -35.154  16.106  -4.682  1.00 20.00     0.080 C 
HETATM    7  C8  UNL     1     -34.807  13.697  -3.897  1.00 20.00     0.015 C 
ENDROOT
BRANCH   6   8
HETATM    8  C3  UNL     1     -33.883  15.998  -5.479  1.00 20.00     0.223 C 
HETATM    9  O9  UNL     1     -32.805  16.378  -5.030  1.00 20.00    -0.279 OA
HETATM   10 CL10 UNL     1     -34.151  15.295  -7.046  1.00 20.00    -0.043 Cl
ENDBRANCH   6   8
TORSDOF 1
ENDMDL
MODEL 8
REMARK VINA RESULT:      -4.1      9.872     10.757
REMARK  1 active torsions:
REMARK  status: ('A' for Active; 'I' for Inactive)
REMARK    1  A    between atoms: C3_3  and  C7_7 
ROOT
HETATM    1  C1  UNL     1     -42.018   7.584  -1.495  1.00 20.00    -0.030 C 
HETATM    2  C2  UNL     1     -42.473   6.924  -0.422  1.00 20.00    -0.026 C 
HETATM    3  C4  UNL     1     -42.097   7.044  -2.891  1.00 20.00     0.027 C 
HETATM    4  C5  UNL     1     -42.990   5.804  -3.017  1.00 20.00     0.018 C 
HETATM    5  C6  UNL     1     -43.098   5.552  -0.495  1.00 20.00     0.016 C 
HETATM    6  C7  UNL     1     -42.828   4.838  -1.839  1.00 20.00     0.080 C 
HETATM    7  C8  UNL     1     -42.698   4.698   0.711  1.00 20.00     0.015 C 
ENDROOT
BRANCH   6   8
HETATM    8  C3  UNL     1     -41.467   4.201  -1.914  1.00 20.00     0.223 C 
HETATM    9  O9  UNL     1     -40.515   4.636  -1.273  1.00 20.00    -0.279 OA
HETATM   10 CL10 UNL     1     -41.443   2.832  -2.985  1.00 20.00    -0.043 Cl
ENDBRANCH   6   8
TORSDOF 1
ENDMDL
MODEL 9
REMARK VINA RESULT:      -4.1     12.391     13.482
REMARK  1 active torsions:
REMARK  status: ('A' for Active; 'I' for Inactive)
REMARK    1  A    between atoms: C3_3  and  C7_7 
ROOT
HETATM    1  C1  UNL     1     -33.389  13.796  -3.747  1.00 20.00    -0.030 C 
HETATM    2  C2  UNL     1     -32.995  15.076  -3.723  1.00 20.00    -0.026 C 
HETATM    3  C4  UNL     1     -34.409  13.264  -4.706  1.00 20.00     0.027 C 
HETATM    4  C5  UNL     1     -34.755  14.241  -5.836  1.00 20.00     0.018 C 
HETATM    5  C6  UNL     1     -33.551  16.131  -4.647  1.00 20.00     0.016 C 
HETATM    6  C7  UNL     1     -34.855  15.691  -5.350  1.00 20.00     0.080 C 
HETATM    7  C8  UNL     1     -33.701  17.474  -3.926  1.00 20.00     0.015 C 
ENDROOT
BRANCH   6   8
HETATM    8  C3  UNL     1     -36.077  15.832  -4.484  1.00 20.00     0.223 C 
HETATM    9  O9  UNL     1     -36.245  15.136  -3.487  1.00 20.00    -0.279 OA
HETATM   10 CL10 UNL     1     -37.158  17.060  -5.072  1.00 20.00    -0.043 Cl
ENDBRANCH   6   8
TORSDOF 1
ENDMDL
