MODEL 1
REMARK VINA RESULT:      -4.6      0.000      0.000
REMARK  0 active torsions:
REMARK  status: ('A' for Active; 'I' for Inactive)
ROOT
HETATM    1  C1  UNL     1     -33.846   5.128   3.693  1.00 20.00     0.251 C 
HETATM    2  C2  UNL     1     -35.007   4.510   4.449  1.00 20.00     0.251 C 
HETATM    3  C3  UNL     1     -33.644   6.513   4.279  1.00 20.00     0.271 C 
HETATM    4  C4  UNL     1     -34.639   4.639   5.915  1.00 20.00     0.271 C 
HETATM    5  F5  UNL     1     -34.137   5.215   2.375  1.00 20.00    -0.242 F 
HETATM    6  F6  UNL     1     -36.131   5.240   4.207  1.00 20.00    -0.242 F 
HETATM    7  F7  UNL     1     -34.621   7.341   3.822  1.00 20.00    -0.235 F 
HETATM    8  F8  UNL     1     -35.744   4.528   6.689  1.00 20.00    -0.235 F 
HETATM    9  S9  UNL     1     -33.872   6.274   6.067  1.00 20.00    -0.089 SA
ENDROOT
TORSDOF 0
ENDMDL
MODEL 2
REMARK VINA RESULT:      -4.3      1.640      2.447
REMARK  0 active torsions:
REMARK  status: ('A' for Active; 'I' for Inactive)
ROOT
HETATM    1  C1  UNL     1     -34.272   4.280   5.051  1.00 20.00     0.251 C 
HETATM    2  C2  UNL     1     -34.336   5.090   6.332  1.00 20.00     0.251 C 
HETATM    3  C3  UNL     1     -34.761   5.195   3.943  1.00 20.00     0.271 C 
HETATM    4  C4  UNL     1     -33.564   6.362   6.037  1.00 20.00     0.271 C 
HETATM    5  F5  UNL     1     -35.066   3.189   5.143  1.00 20.00    -0.242 F 
HETATM    6  F6  UNL     1     -35.636   5.408   6.588  1.00 20.00    -0.242 F 
HETATM    7  F7  UNL     1     -36.114   5.308   4.019  1.00 20.00    -0.235 F 
HETATM    8  F8  UNL     1     -33.902   7.332   6.918  1.00 20.00    -0.235 F 
HETATM    9  S9  UNL     1     -34.018   6.806   4.339  1.00 20.00    -0.089 SA
ENDROOT
TORSDOF 0
ENDMDL
MODEL 3
REMARK VINA RESULT:      -4.2      2.102      2.715
REMARK  0 active torsions:
REMARK  status: ('A' for Active; 'I' for Inactive)
ROOT
HETATM    1  C1  UNL     1     -34.224   6.525   5.890  1.00 20.00     0.251 C 
HETATM    2  C2  UNL     1     -34.468   5.046   6.122  1.00 20.00     0.251 C 
HETATM    3  C3  UNL     1     -33.730   6.656   4.461  1.00 20.00     0.271 C 
HETATM    4  C4  UNL     1     -35.380   4.612   4.990  1.00 20.00     0.271 C 
HETATM    5  F5  UNL     1     -33.290   6.988   6.753  1.00 20.00    -0.242 F 
HETATM    6  F6  UNL     1     -33.284   4.381   6.020  1.00 20.00    -0.242 F 
HETATM    7  F7  UNL     1     -32.436   6.244   4.393  1.00 20.00    -0.235 F 
HETATM    8  F8  UNL     1     -35.326   3.269   4.831  1.00 20.00    -0.235 F 
HETATM    9  S9  UNL     1     -34.764   5.488   3.527  1.00 20.00    -0.089 SA
ENDROOT
TORSDOF 0
ENDMDL
MODEL 4
REMARK VINA RESULT:      -4.1     12.253     13.076
REMARK  0 active torsions:
REMARK  status: ('A' for Active; 'I' for Inactive)
ROOT
HETATM    1  C1  UNL     1     -34.345  15.502  -3.280  1.00 20.00     0.251 C 
HETATM    2  C2  UNL     1     -34.178  14.005  -3.465  1.00 20.00     0.251 C 
HETATM    3  C3  UNL     1     -33.947  16.141  -4.598  1.00 20.00     0.271 C 
HETATM    4  C4  UNL     1     -34.974  13.669  -4.712  1.00 20.00     0.271 C 
HETATM    5  F5  UNL     1     -33.543  15.945  -2.284  1.00 20.00    -0.242 F 
HETATM    6  F6  UNL     1     -32.862  13.731  -3.689  1.00 20.00    -0.242 F 
HETATM    7  F7  UNL     1     -32.593  16.121  -4.717  1.00 20.00    -0.235 F 
HETATM    8  F8  UNL     1     -34.568  12.483  -5.222  1.00 20.00    -0.235 F 
HETATM    9  S9  UNL     1     -34.659  15.038  -5.857  1.00 20.00    -0.089 SA
ENDROOT
TORSDOF 0
ENDMDL
MODEL 5
REMARK VINA RESULT:      -4.0      1.813      2.608
REMARK  0 active torsions:
REMARK  status: ('A' for Active; 'I' for Inactive)
ROOT
HETATM    1  C1  UNL     1     -35.130   5.639   3.891  1.00 20.00     0.251 C 
HETATM    2  C2  UNL     1     -33.895   6.374   4.377  1.00 20.00     0.251 C 
HETATM    3  C3  UNL     1     -35.303   4.443   4.811  1.00 20.00     0.271 C 
HETATM    4  C4  UNL     1     -34.132   6.615   5.855  1.00 20.00     0.271 C 
HETATM    5  F5  UNL     1     -34.961   5.227   2.614  1.00 20.00    -0.242 F 
HETATM    6  F6  UNL     1     -32.810   5.563   4.225  1.00 20.00    -0.242 F 
HETATM    7  F7  UNL     1     -34.386   3.493   4.488  1.00 20.00    -0.235 F 
HETATM    8  F8  UNL     1     -32.959   6.865   6.484  1.00 20.00    -0.235 F 
HETATM    9  S9  UNL     1     -34.910   5.095   6.463  1.00 20.00    -0.089 SA
ENDROOT
TORSDOF 0
ENDMDL
MODEL 6
REMARK VINA RESULT:      -3.9     11.955     12.930
REMARK  0 active torsions:
REMARK  status: ('A' for Active; 'I' for Inactive)
ROOT
HETATM    1  C1  UNL     1     -33.940  13.840  -3.472  1.00 20.00     0.251 C 
HETATM    2  C2  UNL     1     -34.844  13.605  -4.667  1.00 20.00     0.251 C 
HETATM    3  C3  UNL     1     -33.789  15.345  -3.341  1.00 20.00     0.271 C 
HETATM    4  C4  UNL     1     -36.079  14.446  -4.402  1.00 20.00     0.271 C 
HETATM    5  F5  UNL     1     -32.733  13.264  -3.675  1.00 20.00    -0.242 F 
HETATM    6  F6  UNL     1     -34.223  14.068  -5.789  1.00 20.00    -0.242 F 
HETATM    7  F7  UNL     1     -32.940  15.796  -4.303  1.00 20.00    -0.235 F 
HETATM    8  F8  UNL     1     -36.754  14.665  -5.554  1.00 20.00    -0.235 F 
HETATM    9  S9  UNL     1     -35.454  15.989  -3.684  1.00 20.00    -0.089 SA
ENDROOT
TORSDOF 0
ENDMDL
MODEL 7
REMARK VINA RESULT:      -3.9      8.690      9.325
REMARK  0 active torsions:
REMARK  status: ('A' for Active; 'I' for Inactive)
ROOT
HETATM    1  C1  UNL     1     -41.535   4.665  -1.535  1.00 20.00     0.251 C 
HETATM    2  C2  UNL     1     -41.149   6.130  -1.440  1.00 20.00     0.251 C 
HETATM    3  C3  UNL     1     -42.364   4.363  -0.300  1.00 20.00     0.271 C 
HETATM    4  C4  UNL     1     -42.456   6.872  -1.235  1.00 20.00     0.271 C 
HETATM    5  F5  UNL     1     -40.428   3.888  -1.558  1.00 20.00    -0.242 F 
HETATM    6  F6  UNL     1     -40.358   6.309  -0.345  1.00 20.00    -0.242 F 
HETATM    7  F7  UNL     1     -41.543   4.267   0.780  1.00 20.00    -0.235 F 
HETATM    8  F8  UNL     1     -42.222   8.100  -0.716  1.00 20.00    -0.235 F 
HETATM    9  S9  UNL     1     -43.416   5.833  -0.102  1.00 20.00    -0.089 SA
ENDROOT
TORSDOF 0
ENDMDL
MODEL 8
REMARK VINA RESULT:      -3.9     12.358     13.080
REMARK  0 active torsions:
REMARK  status: ('A' for Active; 'I' for Inactive)
ROOT
HETATM    1  C1  UNL     1     -34.209  13.756  -4.889  1.00 20.00     0.251 C 
HETATM    2  C2  UNL     1     -34.190  14.230  -3.448  1.00 20.00     0.251 C 
HETATM    3  C3  UNL     1     -34.481  14.985  -5.738  1.00 20.00     0.271 C 
HETATM    4  C4  UNL     1     -33.195  15.375  -3.420  1.00 20.00     0.271 C 
HETATM    5  F5  UNL     1     -35.185  12.837  -5.069  1.00 20.00    -0.242 F 
HETATM    6  F6  UNL     1     -35.425  14.705  -3.123  1.00 20.00    -0.242 F 
HETATM    7  F7  UNL     1     -35.795  15.318  -5.638  1.00 20.00    -0.235 F 
HETATM    8  F8  UNL     1     -33.398  16.147  -2.327  1.00 20.00    -0.235 F 
HETATM    9  S9  UNL     1     -33.487  16.292  -4.956  1.00 20.00    -0.089 SA
ENDROOT
TORSDOF 0
ENDMDL
MODEL 9
REMARK VINA RESULT:      -3.9      8.744      9.578
REMARK  0 active torsions:
REMARK  status: ('A' for Active; 'I' for Inactive)
ROOT
HETATM    1  C1  UNL     1     -40.716   5.718  -0.369  1.00 20.00     0.251 C 
HETATM    2  C2  UNL     1     -41.299   6.638  -1.426  1.00 20.00     0.251 C 
HETATM    3  C3  UNL     1     -41.881   4.925   0.194  1.00 20.00     0.271 C 
HETATM    4  C4  UNL     1     -42.084   5.729  -2.353  1.00 20.00     0.271 C 
HETATM    5  F5  UNL     1     -40.125   6.441   0.610  1.00 20.00    -0.242 F 
HETATM    6  F6  UNL     1     -42.156   7.511  -0.827  1.00 20.00    -0.242 F 
HETATM    7  F7  UNL     1     -42.607   5.720   1.025  1.00 20.00    -0.235 F 
HETATM    8  F8  UNL     1     -42.983   6.448  -3.065  1.00 20.00    -0.235 F 
HETATM    9  S9  UNL     1     -42.893   4.527  -1.264  1.00 20.00    -0.089 SA
ENDROOT
TORSDOF 0
ENDMDL
