MODEL 1
REMARK VINA RESULT:      -6.0      0.000      0.000
REMARK  1 active torsions:
REMARK  status: ('A' for Active; 'I' for Inactive)
REMARK    1  A    between atoms: C8_8  and  C9_9 
ROOT
HETATM    1  C1  UNL     1     -34.949   4.513   4.242  1.00 20.00     0.008 A 
HETATM    2  C2  UNL     1     -33.493   5.967   2.775  1.00 20.00     0.026 A 
HETATM    3  C3  UNL     1     -32.604   7.414   4.335  1.00 20.00     0.026 A 
HETATM    4  C4  UNL     1     -35.321   4.348   5.524  1.00 20.00    -0.022 A 
HETATM    5  C5  UNL     1     -33.851   6.316   6.242  1.00 20.00    -0.011 A 
HETATM    6  C6  UNL     1     -34.030   5.574   3.943  1.00 20.00    -0.026 A 
HETATM    7  C7  UNL     1     -33.492   6.466   4.961  1.00 20.00    -0.029 A 
HETATM    8  C8  UNL     1     -32.616   7.102   3.028  1.00 20.00     0.003 A 
HETATM    9  C10 UNL     1     -34.818   5.224   6.662  1.00 20.00     0.055 A 
ENDROOT
BRANCH   8  10
HETATM   10  C9  UNL     1     -31.853   7.808   2.013  1.00 20.00     0.269 C 
HETATM   11  O11 UNL     1     -32.211   8.883   1.531  1.00 20.00    -0.301 OA
ENDBRANCH   8  10
TORSDOF 1
ENDMDL
MODEL 2
REMARK VINA RESULT:      -4.9     11.353     12.702
REMARK  1 active torsions:
REMARK  status: ('A' for Active; 'I' for Inactive)
REMARK    1  A    between atoms: C8_8  and  C9_9 
ROOT
HETATM    1  C1  UNL     1     -34.405  16.599  -1.069  1.00 20.00     0.008 A 
HETATM    2  C2  UNL     1     -34.672  14.875  -2.897  1.00 20.00     0.026 A 
HETATM    3  C3  UNL     1     -34.041  16.096  -4.748  1.00 20.00     0.026 A 
HETATM    4  C4  UNL     1     -34.043  17.880  -0.873  1.00 20.00    -0.022 A 
HETATM    5  C5  UNL     1     -33.601  18.175  -3.377  1.00 20.00    -0.011 A 
HETATM    6  C6  UNL     1     -34.371  16.091  -2.411  1.00 20.00    -0.026 A 
HETATM    7  C7  UNL     1     -33.965  16.899  -3.553  1.00 20.00    -0.029 A 
HETATM    8  C8  UNL     1     -34.466  14.889  -4.338  1.00 20.00     0.003 A 
HETATM    9  C10 UNL     1     -33.603  18.807  -1.996  1.00 20.00     0.055 A 
ENDROOT
BRANCH   8  10
HETATM   10  C9  UNL     1     -34.686  13.757  -5.223  1.00 20.00     0.269 C 
HETATM   11  O11 UNL     1     -34.797  12.600  -4.816  1.00 20.00    -0.301 OA
ENDBRANCH   8  10
TORSDOF 1
ENDMDL
MODEL 3
REMARK VINA RESULT:      -4.8     11.302     12.706
REMARK  1 active torsions:
REMARK  status: ('A' for Active; 'I' for Inactive)
REMARK    1  A    between atoms: C8_8  and  C9_9 
ROOT
HETATM    1  C1  UNL     1     -33.637  18.417  -3.196  1.00 20.00     0.008 A 
HETATM    2  C2  UNL     1     -33.930  16.288  -4.525  1.00 20.00     0.026 A 
HETATM    3  C3  UNL     1     -34.611  14.829  -2.874  1.00 20.00     0.026 A 
HETATM    4  C4  UNL     1     -33.748  18.903  -1.947  1.00 20.00    -0.022 A 
HETATM    5  C5  UNL     1     -34.494  16.612  -1.083  1.00 20.00    -0.011 A 
HETATM    6  C6  UNL     1     -33.950  17.032  -3.406  1.00 20.00    -0.026 A 
HETATM    7  C7  UNL     1     -34.377  16.145  -2.333  1.00 20.00    -0.029 A 
HETATM    8  C8  UNL     1     -34.339  14.932  -4.186  1.00 20.00     0.003 A 
HETATM    9  C10 UNL     1     -34.185  18.062  -0.757  1.00 20.00     0.055 A 
ENDROOT
BRANCH   8  10
HETATM   10  C9  UNL     1     -34.442  13.832  -5.130  1.00 20.00     0.269 C 
HETATM   11  O11 UNL     1     -34.713  12.680  -4.789  1.00 20.00    -0.301 OA
ENDBRANCH   8  10
TORSDOF 1
ENDMDL
MODEL 4
REMARK VINA RESULT:      -4.7     10.425     11.590
REMARK  1 active torsions:
REMARK  status: ('A' for Active; 'I' for Inactive)
REMARK    1  A    between atoms: C8_8  and  C9_9 
ROOT
HETATM    1  C1  UNL     1     -42.599   6.587  -1.851  1.00 20.00     0.008 A 
HETATM    2  C2  UNL     1     -43.314   4.676  -3.342  1.00 20.00     0.026 A 
HETATM    3  C3  UNL     1     -41.812   3.043  -2.715  1.00 20.00     0.026 A 
HETATM    4  C4  UNL     1     -41.699   6.903  -0.903  1.00 20.00    -0.022 A 
HETATM    5  C5  UNL     1     -40.685   4.557  -1.030  1.00 20.00    -0.011 A 
HETATM    6  C6  UNL     1     -42.555   5.261  -2.400  1.00 20.00    -0.026 A 
HETATM    7  C7  UNL     1     -41.587   4.259  -1.974  1.00 20.00    -0.029 A 
HETATM    8  C8  UNL     1     -42.848   3.309  -3.528  1.00 20.00     0.003 A 
HETATM    9  C10 UNL     1     -40.648   5.932  -0.388  1.00 20.00     0.055 A 
ENDROOT
BRANCH   8  10
HETATM   10  C9  UNL     1     -43.417   2.354  -4.463  1.00 20.00     0.269 C 
HETATM   11  O11 UNL     1     -43.159   2.359  -5.667  1.00 20.00    -0.301 OA
ENDBRANCH   8  10
TORSDOF 1
ENDMDL
MODEL 5
REMARK VINA RESULT:      -4.7     10.066     11.278
REMARK  1 active torsions:
REMARK  status: ('A' for Active; 'I' for Inactive)
REMARK    1  A    between atoms: C8_8  and  C9_9 
ROOT
HETATM    1  C1  UNL     1     -40.820   6.141  -0.814  1.00 20.00     0.008 A 
HETATM    2  C2  UNL     1     -41.119   3.857  -1.852  1.00 20.00     0.026 A 
HETATM    3  C3  UNL     1     -42.940   4.228  -3.216  1.00 20.00     0.026 A 
HETATM    4  C4  UNL     1     -41.350   7.378  -0.818  1.00 20.00    -0.022 A 
HETATM    5  C5  UNL     1     -43.119   6.654  -2.520  1.00 20.00    -0.011 A 
HETATM    6  C6  UNL     1     -41.428   5.150  -1.656  1.00 20.00    -0.026 A 
HETATM    7  C7  UNL     1     -42.579   5.429  -2.503  1.00 20.00    -0.029 A 
HETATM    8  C8  UNL     1     -42.057   3.298  -2.815  1.00 20.00     0.003 A 
HETATM    9  C10 UNL     1     -42.551   7.772  -1.665  1.00 20.00     0.055 A 
ENDROOT
BRANCH   8  10
HETATM   10  C9  UNL     1     -42.049   1.924  -3.287  1.00 20.00     0.269 C 
HETATM   11  O11 UNL     1     -41.108   1.435  -3.911  1.00 20.00    -0.301 OA
ENDBRANCH   8  10
TORSDOF 1
ENDMDL
MODEL 6
REMARK VINA RESULT:      -4.7     11.427     12.387
REMARK  1 active torsions:
REMARK  status: ('A' for Active; 'I' for Inactive)
REMARK    1  A    between atoms: C8_8  and  C9_9 
ROOT
HETATM    1  C1  UNL     1     -34.436  16.647  -1.000  1.00 20.00     0.008 A 
HETATM    2  C2  UNL     1     -34.288  15.002  -2.911  1.00 20.00     0.026 A 
HETATM    3  C3  UNL     1     -36.115  15.625  -4.171  1.00 20.00     0.026 A 
HETATM    4  C4  UNL     1     -35.183  17.670  -0.545  1.00 20.00    -0.022 A 
HETATM    5  C5  UNL     1     -36.751  17.468  -2.558  1.00 20.00    -0.011 A 
HETATM    6  C6  UNL     1     -34.833  16.024  -2.230  1.00 20.00    -0.026 A 
HETATM    7  C7  UNL     1     -35.996  16.451  -2.995  1.00 20.00    -0.029 A 
HETATM    8  C8  UNL     1     -35.086  14.764  -4.106  1.00 20.00     0.003 A 
HETATM    9  C10 UNL     1     -36.416  18.193  -1.267  1.00 20.00     0.055 A 
ENDROOT
BRANCH   8  10
HETATM   10  C9  UNL     1     -34.816  13.738  -5.099  1.00 20.00     0.269 C 
HETATM   11  O11 UNL     1     -34.806  12.536  -4.835  1.00 20.00    -0.301 OA
ENDBRANCH   8  10
TORSDOF 1
ENDMDL
MODEL 7
REMARK VINA RESULT:      -4.7     10.416     11.605
REMARK  1 active torsions:
REMARK  status: ('A' for Active; 'I' for Inactive)
REMARK    1  A    between atoms: C8_8  and  C9_9 
ROOT
HETATM    1  C1  UNL     1     -40.630   4.638  -0.952  1.00 20.00     0.008 A 
HETATM    2  C2  UNL     1     -41.627   3.079  -2.672  1.00 20.00     0.026 A 
HETATM    3  C3  UNL     1     -43.417   4.329  -3.413  1.00 20.00     0.026 A 
HETATM    4  C4  UNL     1     -40.812   5.850  -0.398  1.00 20.00    -0.022 A 
HETATM    5  C5  UNL     1     -42.876   6.249  -1.857  1.00 20.00    -0.011 A 
HETATM    6  C6  UNL     1     -41.561   4.216  -1.959  1.00 20.00    -0.026 A 
HETATM    7  C7  UNL     1     -42.680   5.040  -2.398  1.00 20.00    -0.029 A 
HETATM    8  C8  UNL     1     -42.775   3.159  -3.565  1.00 20.00     0.003 A 
HETATM    9  C10 UNL     1     -41.946   6.787  -0.784  1.00 20.00     0.055 A 
ENDROOT
BRANCH   8  10
HETATM   10  C9  UNL     1     -43.179   2.121  -4.498  1.00 20.00     0.269 C 
HETATM   11  O11 UNL     1     -42.730   2.034  -5.641  1.00 20.00    -0.301 OA
ENDBRANCH   8  10
TORSDOF 1
ENDMDL
MODEL 8
REMARK VINA RESULT:      -4.6     11.535     13.022
REMARK  1 active torsions:
REMARK  status: ('A' for Active; 'I' for Inactive)
REMARK    1  A    between atoms: C8_8  and  C9_9 
ROOT
HETATM    1  C1  UNL     1     -33.855  16.247  -6.135  1.00 20.00     0.008 A 
HETATM    2  C2  UNL     1     -33.725  16.978  -3.720  1.00 20.00     0.026 A 
HETATM    3  C3  UNL     1     -34.811  15.233  -2.674  1.00 20.00     0.026 A 
HETATM    4  C4  UNL     1     -34.319  15.251  -6.911  1.00 20.00    -0.022 A 
HETATM    5  C5  UNL     1     -35.230  14.026  -4.857  1.00 20.00    -0.011 A 
HETATM    6  C6  UNL     1     -34.071  16.149  -4.720  1.00 20.00    -0.026 A 
HETATM    7  C7  UNL     1     -34.763  15.026  -4.100  1.00 20.00    -0.029 A 
HETATM    8  C8  UNL     1     -34.186  16.404  -2.463  1.00 20.00     0.003 A 
HETATM    9  C10 UNL     1     -35.054  14.036  -6.365  1.00 20.00     0.055 A 
ENDROOT
BRANCH   8  10
HETATM   10  C9  UNL     1     -34.002  17.007  -1.154  1.00 20.00     0.269 C 
HETATM   11  O11 UNL     1     -34.732  16.761  -0.194  1.00 20.00    -0.301 OA
ENDBRANCH   8  10
TORSDOF 1
ENDMDL
MODEL 9
REMARK VINA RESULT:      -4.6     11.458     13.012
REMARK  1 active torsions:
REMARK  status: ('A' for Active; 'I' for Inactive)
REMARK    1  A    between atoms: C8_8  and  C9_9 
ROOT
HETATM    1  C1  UNL     1     -34.130  16.067  -5.690  1.00 20.00     0.008 A 
HETATM    2  C2  UNL     1     -33.830  17.701  -3.786  1.00 20.00     0.026 A 
HETATM    3  C3  UNL     1     -34.045  16.300  -1.967  1.00 20.00     0.026 A 
HETATM    4  C4  UNL     1     -34.355  14.764  -5.934  1.00 20.00    -0.022 A 
HETATM    5  C5  UNL     1     -34.408  14.265  -3.425  1.00 20.00    -0.011 A 
HETATM    6  C6  UNL     1     -34.043  16.486  -4.320  1.00 20.00    -0.026 A 
HETATM    7  C7  UNL     1     -34.185  15.566  -3.200  1.00 20.00    -0.029 A 
HETATM    8  C8  UNL     1     -33.833  17.575  -2.335  1.00 20.00     0.003 A 
HETATM    9  C10 UNL     1     -34.518  13.722  -4.838  1.00 20.00     0.055 A 
ENDROOT
BRANCH   8  10
HETATM   10  C9  UNL     1     -33.636  18.672  -1.403  1.00 20.00     0.269 C 
HETATM   11  O11 UNL     1     -32.563  19.263  -1.280  1.00 20.00    -0.301 OA
ENDBRANCH   8  10
TORSDOF 1
ENDMDL
