MODEL 1
REMARK VINA RESULT:      -4.4      0.000      0.000
REMARK  0 active torsions:
REMARK  status: ('A' for Active; 'I' for Inactive)
ROOT
HETATM    1  C1  UNL     1     -34.660  16.406  -1.374  1.00 20.00     0.015 C 
HETATM    2  C2  UNL     1     -34.458  15.849  -2.418  1.00 20.00    -0.073 C 
HETATM    3  C3  UNL     1     -33.718  13.735  -3.482  1.00 20.00     0.225 C 
HETATM    4  C4  UNL     1     -35.037  13.792  -5.357  1.00 20.00     0.442 C 
HETATM    5  C5  UNL     1     -34.211  15.164  -3.699  1.00 20.00     0.240 C 
HETATM    6  C6  UNL     1     -33.173  15.989  -4.487  1.00 20.00     0.066 C 
HETATM    7  C7  UNL     1     -36.641  14.682  -3.808  1.00 20.00     0.315 C 
HETATM    8  N8  UNL     1     -35.409  14.968  -4.552  1.00 20.00     0.130 N 
HETATM    9  O9  UNL     1     -34.039  13.018  -4.681  1.00 20.00    -0.359 OA
ENDROOT
TORSDOF 0
ENDMDL
MODEL 2
REMARK VINA RESULT:      -3.9      1.511      2.264
REMARK  0 active torsions:
REMARK  status: ('A' for Active; 'I' for Inactive)
ROOT
HETATM    1  C1  UNL     1     -34.441  16.263  -1.543  1.00 20.00     0.015 C 
HETATM    2  C2  UNL     1     -34.377  15.753  -2.627  1.00 20.00    -0.073 C 
HETATM    3  C3  UNL     1     -35.677  15.014  -4.605  1.00 20.00     0.225 C 
HETATM    4  C4  UNL     1     -34.121  15.427  -6.237  1.00 20.00     0.442 C 
HETATM    5  C5  UNL     1     -34.298  15.127  -3.959  1.00 20.00     0.240 C 
HETATM    6  C6  UNL     1     -33.655  13.735  -3.793  1.00 20.00     0.066 C 
HETATM    7  C7  UNL     1     -33.668  17.346  -4.867  1.00 20.00     0.315 C 
HETATM    8  N8  UNL     1     -33.527  15.889  -4.971  1.00 20.00     0.130 N 
HETATM    9  O9  UNL     1     -35.448  14.937  -6.018  1.00 20.00    -0.359 OA
ENDROOT
TORSDOF 0
ENDMDL
MODEL 3
REMARK VINA RESULT:      -3.9      1.322      2.321
REMARK  0 active torsions:
REMARK  status: ('A' for Active; 'I' for Inactive)
ROOT
HETATM    1  C1  UNL     1     -34.629  16.330  -1.455  1.00 20.00     0.015 C 
HETATM    2  C2  UNL     1     -35.003  15.814  -2.472  1.00 20.00    -0.073 C 
HETATM    3  C3  UNL     1     -35.139  16.046  -4.937  1.00 20.00     0.225 C 
HETATM    4  C4  UNL     1     -34.943  13.838  -5.520  1.00 20.00     0.442 C 
HETATM    5  C5  UNL     1     -35.462  15.181  -3.721  1.00 20.00     0.240 C 
HETATM    6  C6  UNL     1     -36.982  14.945  -3.604  1.00 20.00     0.066 C 
HETATM    7  C7  UNL     1     -33.385  13.828  -3.694  1.00 20.00     0.315 C 
HETATM    8  N8  UNL     1     -34.806  13.894  -4.055  1.00 20.00     0.130 N 
HETATM    9  O9  UNL     1     -35.101  15.155  -6.059  1.00 20.00    -0.359 OA
ENDROOT
TORSDOF 0
ENDMDL
MODEL 4
REMARK VINA RESULT:      -3.8      1.327      3.480
REMARK  0 active torsions:
REMARK  status: ('A' for Active; 'I' for Inactive)
ROOT
HETATM    1  C1  UNL     1     -35.216  14.857  -7.811  1.00 20.00     0.015 C 
HETATM    2  C2  UNL     1     -35.236  14.714  -6.620  1.00 20.00    -0.073 C 
HETATM    3  C3  UNL     1     -34.552  13.251  -4.737  1.00 20.00     0.225 C 
HETATM    4  C4  UNL     1     -34.179  14.860  -3.146  1.00 20.00     0.442 C 
HETATM    5  C5  UNL     1     -35.259  14.539  -5.157  1.00 20.00     0.240 C 
HETATM    6  C6  UNL     1     -36.733  14.528  -4.703  1.00 20.00     0.066 C 
HETATM    7  C7  UNL     1     -33.309  16.064  -5.032  1.00 20.00     0.315 C 
HETATM    8  N8  UNL     1     -34.532  15.575  -4.385  1.00 20.00     0.130 N 
HETATM    9  O9  UNL     1     -34.149  13.447  -3.376  1.00 20.00    -0.359 OA
ENDROOT
TORSDOF 0
ENDMDL
MODEL 5
REMARK VINA RESULT:      -3.8      1.709      3.199
REMARK  0 active torsions:
REMARK  status: ('A' for Active; 'I' for Inactive)
ROOT
HETATM    1  C1  UNL     1     -34.607  14.797  -6.971  1.00 20.00     0.015 C 
HETATM    2  C2  UNL     1     -34.423  14.870  -5.787  1.00 20.00    -0.073 C 
HETATM    3  C3  UNL     1     -33.324  16.160  -3.977  1.00 20.00     0.225 C 
HETATM    4  C4  UNL     1     -34.874  15.847  -2.316  1.00 20.00     0.442 C 
HETATM    5  C5  UNL     1     -34.198  14.959  -4.333  1.00 20.00     0.240 C 
HETATM    6  C6  UNL     1     -33.538  13.644  -3.872  1.00 20.00     0.066 C 
HETATM    7  C7  UNL     1     -36.408  16.070  -4.150  1.00 20.00     0.315 C 
HETATM    8  N8  UNL     1     -35.416  15.192  -3.519  1.00 20.00     0.130 N 
HETATM    9  O9  UNL     1     -33.621  16.475  -2.611  1.00 20.00    -0.359 OA
ENDROOT
TORSDOF 0
ENDMDL
MODEL 6
REMARK VINA RESULT:      -3.7      1.500      2.904
REMARK  0 active torsions:
REMARK  status: ('A' for Active; 'I' for Inactive)
ROOT
HETATM    1  C1  UNL     1     -37.745  14.785  -3.793  1.00 20.00     0.015 C 
HETATM    2  C2  UNL     1     -36.563  14.731  -3.990  1.00 20.00    -0.073 C 
HETATM    3  C3  UNL     1     -34.656  15.752  -5.204  1.00 20.00     0.225 C 
HETATM    4  C4  UNL     1     -33.010  15.410  -3.646  1.00 20.00     0.442 C 
HETATM    5  C5  UNL     1     -35.110  14.665  -4.232  1.00 20.00     0.240 C 
HETATM    6  C6  UNL     1     -34.784  13.263  -4.786  1.00 20.00     0.066 C 
HETATM    7  C7  UNL     1     -34.791  15.929  -2.123  1.00 20.00     0.315 C 
HETATM    8  N8  UNL     1     -34.260  14.917  -3.044  1.00 20.00     0.130 N 
HETATM    9  O9  UNL     1     -33.262  15.959  -4.944  1.00 20.00    -0.359 OA
ENDROOT
TORSDOF 0
ENDMDL
MODEL 7
REMARK VINA RESULT:      -3.7      1.622      2.172
REMARK  0 active torsions:
REMARK  status: ('A' for Active; 'I' for Inactive)
ROOT
HETATM    1  C1  UNL     1     -34.607  16.462  -1.067  1.00 20.00     0.015 C 
HETATM    2  C2  UNL     1     -34.690  16.395  -2.262  1.00 20.00    -0.073 C 
HETATM    3  C3  UNL     1     -33.514  16.804  -4.407  1.00 20.00     0.225 C 
HETATM    4  C4  UNL     1     -34.391  15.080  -5.636  1.00 20.00     0.442 C 
HETATM    5  C5  UNL     1     -34.791  16.312  -3.730  1.00 20.00     0.240 C 
HETATM    6  C6  UNL     1     -36.006  17.154  -4.171  1.00 20.00     0.066 C 
HETATM    7  C7  UNL     1     -34.186  13.914  -3.547  1.00 20.00     0.315 C 
HETATM    8  N8  UNL     1     -34.940  14.941  -4.276  1.00 20.00     0.130 N 
HETATM    9  O9  UNL     1     -33.488  16.189  -5.701  1.00 20.00    -0.359 OA
ENDROOT
TORSDOF 0
ENDMDL
MODEL 8
REMARK VINA RESULT:      -3.7      1.622      2.417
REMARK  0 active torsions:
REMARK  status: ('A' for Active; 'I' for Inactive)
ROOT
HETATM    1  C1  UNL     1     -36.367  17.516  -4.802  1.00 20.00     0.015 C 
HETATM    2  C2  UNL     1     -35.842  16.484  -4.484  1.00 20.00    -0.073 C 
HETATM    3  C3  UNL     1     -36.205  14.072  -4.040  1.00 20.00     0.225 C 
HETATM    4  C4  UNL     1     -34.193  13.260  -4.782  1.00 20.00     0.442 C 
HETATM    5  C5  UNL     1     -35.197  15.218  -4.095  1.00 20.00     0.240 C 
HETATM    6  C6  UNL     1     -34.529  15.427  -2.721  1.00 20.00     0.066 C 
HETATM    7  C7  UNL     1     -34.496  14.952  -6.458  1.00 20.00     0.315 C 
HETATM    8  N8  UNL     1     -34.179  14.709  -5.046  1.00 20.00     0.130 N 
HETATM    9  O9  UNL     1     -35.447  12.868  -4.210  1.00 20.00    -0.359 OA
ENDROOT
TORSDOF 0
ENDMDL
MODEL 9
REMARK VINA RESULT:      -3.7      1.966      3.446
REMARK  0 active torsions:
REMARK  status: ('A' for Active; 'I' for Inactive)
ROOT
HETATM    1  C1  UNL     1     -34.876  14.894  -7.862  1.00 20.00     0.015 C 
HETATM    2  C2  UNL     1     -34.676  15.206  -6.721  1.00 20.00    -0.073 C 
HETATM    3  C3  UNL     1     -35.707  16.085  -4.644  1.00 20.00     0.225 C 
HETATM    4  C4  UNL     1     -34.442  14.951  -3.103  1.00 20.00     0.442 C 
HETATM    5  C5  UNL     1     -34.430  15.588  -5.319  1.00 20.00     0.240 C 
HETATM    6  C6  UNL     1     -33.343  16.681  -5.307  1.00 20.00     0.066 C 
HETATM    7  C7  UNL     1     -34.632  13.189  -4.723  1.00 20.00     0.315 C 
HETATM    8  N8  UNL     1     -34.003  14.481  -4.428  1.00 20.00     0.130 N 
HETATM    9  O9  UNL     1     -35.512  15.894  -3.237  1.00 20.00    -0.359 OA
ENDROOT
TORSDOF 0
ENDMDL
