MODEL 1
REMARK VINA RESULT:      -5.3      0.000      0.000
REMARK  2 active torsions:
REMARK  status: ('A' for Active; 'I' for Inactive)
REMARK    1  A    between atoms: C3_3  and  C5_5 
REMARK    2  A    between atoms: C5_5  and  C9_9 
ROOT
HETATM    1  C1  UNL     1     -33.544  16.620  -4.287  1.00 20.00    -0.012 A 
HETATM    2  C2  UNL     1     -34.026  18.123  -2.323  1.00 20.00    -0.020 A 
HETATM    3  C3  UNL     1     -33.906  15.562  -3.547  1.00 20.00    -0.003 A 
HETATM    4  C4  UNL     1     -34.390  17.065  -1.578  1.00 20.00    -0.083 A 
HETATM    5  C6  UNL     1     -33.566  18.021  -3.750  1.00 20.00     0.055 A 
HETATM    6  C7  UNL     1     -34.366  15.655  -2.123  1.00 20.00     0.075 A 
HETATM    7  C8  UNL     1     -34.842  17.215  -0.155  1.00 20.00     0.043 C 
ENDROOT
BRANCH   3   8
HETATM    8  C5  UNL     1     -33.846  14.239  -4.174  1.00 20.00     0.261 C 
HETATM    9  O10 UNL     1     -33.089  13.369  -3.738  1.00 20.00    -0.283 OA
BRANCH   8  10
HETATM   10  C9  UNL     1     -34.738  13.996  -5.357  1.00 20.00     0.455 C 
HETATM   11  F11 UNL     1     -34.204  14.469  -6.512  1.00 20.00    -0.163 F 
HETATM   12  F12 UNL     1     -35.946  14.597  -5.209  1.00 20.00    -0.163 F 
HETATM   13  F13 UNL     1     -34.975  12.673  -5.547  1.00 20.00    -0.163 F 
ENDBRANCH   8  10
ENDBRANCH   3   8
TORSDOF 2
ENDMDL
MODEL 2
REMARK VINA RESULT:      -5.2      1.825      2.104
REMARK  2 active torsions:
REMARK  status: ('A' for Active; 'I' for Inactive)
REMARK    1  A    between atoms: C3_3  and  C5_5 
REMARK    2  A    between atoms: C5_5  and  C9_9 
ROOT
HETATM    1  C1  UNL     1     -35.518  16.824  -3.766  1.00 20.00    -0.012 A 
HETATM    2  C2  UNL     1     -36.203  17.827  -1.558  1.00 20.00    -0.020 A 
HETATM    3  C3  UNL     1     -34.443  16.287  -3.171  1.00 20.00    -0.003 A 
HETATM    4  C4  UNL     1     -35.127  17.289  -0.958  1.00 20.00    -0.083 A 
HETATM    5  C6  UNL     1     -36.518  17.656  -3.017  1.00 20.00     0.055 A 
HETATM    6  C7  UNL     1     -34.122  16.452  -1.715  1.00 20.00     0.075 A 
HETATM    7  C8  UNL     1     -34.852  17.487   0.504  1.00 20.00     0.043 C 
ENDROOT
BRANCH   3   8
HETATM    8  C5  UNL     1     -33.531  15.492  -3.999  1.00 20.00     0.261 C 
HETATM    9  O10 UNL     1     -32.617  16.031  -4.625  1.00 20.00    -0.283 OA
BRANCH   8  10
HETATM   10  C9  UNL     1     -33.762  14.009  -4.047  1.00 20.00     0.455 C 
HETATM   11  F11 UNL     1     -32.677  13.304  -3.639  1.00 20.00    -0.163 F 
HETATM   12  F12 UNL     1     -34.057  13.586  -5.303  1.00 20.00    -0.163 F 
HETATM   13  F13 UNL     1     -34.797  13.634  -3.252  1.00 20.00    -0.163 F 
ENDBRANCH   8  10
ENDBRANCH   3   8
TORSDOF 2
ENDMDL
MODEL 3
REMARK VINA RESULT:      -5.0      0.428      2.224
REMARK  2 active torsions:
REMARK  status: ('A' for Active; 'I' for Inactive)
REMARK    1  A    between atoms: C3_3  and  C5_5 
REMARK    2  A    between atoms: C5_5  and  C9_9 
ROOT
HETATM    1  C1  UNL     1     -34.385  15.620  -2.247  1.00 20.00    -0.012 A 
HETATM    2  C2  UNL     1     -34.167  18.126  -2.378  1.00 20.00    -0.020 A 
HETATM    3  C3  UNL     1     -33.945  15.530  -3.510  1.00 20.00    -0.003 A 
HETATM    4  C4  UNL     1     -33.725  18.041  -3.645  1.00 20.00    -0.083 A 
HETATM    5  C6  UNL     1     -34.543  16.936  -1.542  1.00 20.00     0.055 A 
HETATM    6  C7  UNL     1     -33.567  16.714  -4.350  1.00 20.00     0.075 A 
HETATM    7  C8  UNL     1     -33.361  19.259  -4.442  1.00 20.00     0.043 C 
ENDROOT
BRANCH   3   8
HETATM    8  C5  UNL     1     -33.829  14.194  -4.098  1.00 20.00     0.261 C 
HETATM    9  O10 UNL     1     -33.021  13.377  -3.653  1.00 20.00    -0.283 OA
BRANCH   8  10
HETATM   10  C9  UNL     1     -34.730  13.871  -5.256  1.00 20.00     0.455 C 
HETATM   11  F11 UNL     1     -34.917  12.536  -5.409  1.00 20.00    -0.163 F 
HETATM   12  F12 UNL     1     -34.227  14.334  -6.429  1.00 20.00    -0.163 F 
HETATM   13  F13 UNL     1     -35.960  14.426  -5.107  1.00 20.00    -0.163 F 
ENDBRANCH   8  10
ENDBRANCH   3   8
TORSDOF 2
ENDMDL
MODEL 4
REMARK VINA RESULT:      -5.0      1.632      1.755
REMARK  2 active torsions:
REMARK  status: ('A' for Active; 'I' for Inactive)
REMARK    1  A    between atoms: C3_3  and  C5_5 
REMARK    2  A    between atoms: C5_5  and  C9_9 
ROOT
HETATM    1  C1  UNL     1     -34.342  16.894  -3.929  1.00 20.00    -0.012 A 
HETATM    2  C2  UNL     1     -33.621  18.411  -2.051  1.00 20.00    -0.020 A 
HETATM    3  C3  UNL     1     -34.842  16.039  -3.027  1.00 20.00    -0.003 A 
HETATM    4  C4  UNL     1     -34.121  17.555  -1.142  1.00 20.00    -0.083 A 
HETATM    5  C6  UNL     1     -33.674  18.179  -3.534  1.00 20.00     0.055 A 
HETATM    6  C7  UNL     1     -34.793  16.262  -1.544  1.00 20.00     0.075 A 
HETATM    7  C8  UNL     1     -34.045  17.829   0.331  1.00 20.00     0.043 C 
ENDROOT
BRANCH   3   8
HETATM    8  C5  UNL     1     -35.472  14.813  -3.525  1.00 20.00     0.261 C 
HETATM    9  O10 UNL     1     -36.692  14.654  -3.444  1.00 20.00    -0.283 OA
BRANCH   8  10
HETATM   10  C9  UNL     1     -34.573  13.774  -4.129  1.00 20.00     0.455 C 
HETATM   11  F11 UNL     1     -34.216  14.077  -5.403  1.00 20.00    -0.163 F 
HETATM   12  F12 UNL     1     -35.168  12.554  -4.168  1.00 20.00    -0.163 F 
HETATM   13  F13 UNL     1     -33.423  13.629  -3.422  1.00 20.00    -0.163 F 
ENDBRANCH   8  10
ENDBRANCH   3   8
TORSDOF 2
ENDMDL
MODEL 5
REMARK VINA RESULT:      -5.0      2.726      4.373
REMARK  2 active torsions:
REMARK  status: ('A' for Active; 'I' for Inactive)
REMARK    1  A    between atoms: C3_3  and  C5_5 
REMARK    2  A    between atoms: C5_5  and  C9_9 
ROOT
HETATM    1  C1  UNL     1     -36.263  14.788  -3.633  1.00 20.00    -0.012 A 
HETATM    2  C2  UNL     1     -37.872  15.376  -5.481  1.00 20.00    -0.020 A 
HETATM    3  C3  UNL     1     -35.320  14.540  -4.553  1.00 20.00    -0.003 A 
HETATM    4  C4  UNL     1     -36.930  15.128  -6.407  1.00 20.00    -0.083 A 
HETATM    5  C6  UNL     1     -37.648  15.236  -4.002  1.00 20.00     0.055 A 
HETATM    6  C7  UNL     1     -35.537  14.678  -6.031  1.00 20.00     0.075 A 
HETATM    7  C8  UNL     1     -37.200  15.282  -7.875  1.00 20.00     0.043 C 
ENDROOT
BRANCH   3   8
HETATM    8  C5  UNL     1     -34.003  14.108  -4.080  1.00 20.00     0.261 C 
HETATM    9  O10 UNL     1     -33.718  12.911  -4.015  1.00 20.00    -0.283 OA
BRANCH   8  10
HETATM   10  C9  UNL     1     -33.029  15.180  -3.682  1.00 20.00     0.455 C 
HETATM   11  F11 UNL     1     -33.410  15.831  -2.555  1.00 20.00    -0.163 F 
HETATM   12  F12 UNL     1     -32.891  16.120  -4.651  1.00 20.00    -0.163 F 
HETATM   13  F13 UNL     1     -31.792  14.674  -3.444  1.00 20.00    -0.163 F 
ENDBRANCH   8  10
ENDBRANCH   3   8
TORSDOF 2
ENDMDL
MODEL 6
REMARK VINA RESULT:      -5.0      2.749      4.158
REMARK  2 active torsions:
REMARK  status: ('A' for Active; 'I' for Inactive)
REMARK    1  A    between atoms: C3_3  and  C5_5 
REMARK    2  A    between atoms: C5_5  and  C9_9 
ROOT
HETATM    1  C1  UNL     1     -34.774  14.388  -6.660  1.00 20.00    -0.012 A 
HETATM    2  C2  UNL     1     -37.056  15.344  -7.135  1.00 20.00    -0.020 A 
HETATM    3  C3  UNL     1     -35.016  14.503  -5.346  1.00 20.00    -0.003 A 
HETATM    4  C4  UNL     1     -37.303  15.461  -5.819  1.00 20.00    -0.083 A 
HETATM    5  C6  UNL     1     -35.775  14.799  -7.700  1.00 20.00     0.055 A 
HETATM    6  C7  UNL     1     -36.292  15.045  -4.774  1.00 20.00     0.075 A 
HETATM    7  C8  UNL     1     -38.599  16.011  -5.300  1.00 20.00     0.043 C 
ENDROOT
BRANCH   3   8
HETATM    8  C5  UNL     1     -33.967  14.071  -4.419  1.00 20.00     0.261 C 
HETATM    9  O10 UNL     1     -33.796  12.875  -4.174  1.00 20.00    -0.283 OA
BRANCH   8  10
HETATM   10  C9  UNL     1     -33.122  15.140  -3.790  1.00 20.00     0.455 C 
HETATM   11  F11 UNL     1     -32.915  16.192  -4.622  1.00 20.00    -0.163 F 
HETATM   12  F12 UNL     1     -31.897  14.672  -3.437  1.00 20.00    -0.163 F 
HETATM   13  F13 UNL     1     -33.693  15.637  -2.663  1.00 20.00    -0.163 F 
ENDBRANCH   8  10
ENDBRANCH   3   8
TORSDOF 2
ENDMDL
MODEL 7
REMARK VINA RESULT:      -4.9      2.081      2.514
REMARK  2 active torsions:
REMARK  status: ('A' for Active; 'I' for Inactive)
REMARK    1  A    between atoms: C3_3  and  C5_5 
REMARK    2  A    between atoms: C5_5  and  C9_9 
ROOT
HETATM    1  C1  UNL     1     -33.743  16.606  -1.741  1.00 20.00    -0.012 A 
HETATM    2  C2  UNL     1     -35.815  17.846  -1.021  1.00 20.00    -0.020 A 
HETATM    3  C3  UNL     1     -34.296  16.413  -2.947  1.00 20.00    -0.003 A 
HETATM    4  C4  UNL     1     -36.373  17.654  -2.229  1.00 20.00    -0.083 A 
HETATM    5  C6  UNL     1     -34.449  17.348  -0.644  1.00 20.00     0.055 A 
HETATM    6  C7  UNL     1     -35.659  16.907  -3.332  1.00 20.00     0.075 A 
HETATM    7  C8  UNL     1     -37.742  18.170  -2.562  1.00 20.00     0.043 C 
ENDROOT
BRANCH   3   8
HETATM    8  C5  UNL     1     -33.517  15.674  -3.944  1.00 20.00     0.261 C 
HETATM    9  O10 UNL     1     -32.760  16.265  -4.717  1.00 20.00    -0.283 OA
BRANCH   8  10
HETATM   10  C9  UNL     1     -33.683  14.182  -3.980  1.00 20.00     0.455 C 
HETATM   11  F11 UNL     1     -34.018  13.729  -5.214  1.00 20.00    -0.163 F 
HETATM   12  F12 UNL     1     -34.655  13.763  -3.130  1.00 20.00    -0.163 F 
HETATM   13  F13 UNL     1     -32.542  13.540  -3.622  1.00 20.00    -0.163 F 
ENDBRANCH   8  10
ENDBRANCH   3   8
TORSDOF 2
ENDMDL
MODEL 8
REMARK VINA RESULT:      -4.9      2.751      4.301
REMARK  2 active torsions:
REMARK  status: ('A' for Active; 'I' for Inactive)
REMARK    1  A    between atoms: C3_3  and  C5_5 
REMARK    2  A    between atoms: C5_5  and  C9_9 
ROOT
HETATM    1  C1  UNL     1     -34.524  14.967  -6.933  1.00 20.00    -0.012 A 
HETATM    2  C2  UNL     1     -37.001  15.006  -7.387  1.00 20.00    -0.020 A 
HETATM    3  C3  UNL     1     -34.759  15.415  -5.692  1.00 20.00    -0.003 A 
HETATM    4  C4  UNL     1     -37.242  15.455  -6.143  1.00 20.00    -0.083 A 
HETATM    5  C6  UNL     1     -35.627  14.712  -7.918  1.00 20.00     0.055 A 
HETATM    6  C7  UNL     1     -36.128  15.710  -5.154  1.00 20.00     0.075 A 
HETATM    7  C8  UNL     1     -38.633  15.734  -5.655  1.00 20.00     0.043 C 
ENDROOT
BRANCH   3   8
HETATM    8  C5  UNL     1     -33.605  15.628  -4.814  1.00 20.00     0.261 C 
HETATM    9  O10 UNL     1     -32.914  16.643  -4.917  1.00 20.00    -0.283 OA
BRANCH   8  10
HETATM   10  C9  UNL     1     -33.309  14.565  -3.796  1.00 20.00     0.455 C 
HETATM   11  F11 UNL     1     -34.047  14.711  -2.666  1.00 20.00    -0.163 F 
HETATM   12  F12 UNL     1     -32.006  14.578  -3.418  1.00 20.00    -0.163 F 
HETATM   13  F13 UNL     1     -33.569  13.322  -4.275  1.00 20.00    -0.163 F 
ENDBRANCH   8  10
ENDBRANCH   3   8
TORSDOF 2
ENDMDL
MODEL 9
REMARK VINA RESULT:      -4.9      3.580      4.872
REMARK  2 active torsions:
REMARK  status: ('A' for Active; 'I' for Inactive)
REMARK    1  A    between atoms: C3_3  and  C5_5 
REMARK    2  A    between atoms: C5_5  and  C9_9 
ROOT
HETATM    1  C1  UNL     1     -33.756  15.204  -3.217  1.00 20.00    -0.012 A 
HETATM    2  C2  UNL     1     -35.675  13.832  -4.101  1.00 20.00    -0.020 A 
HETATM    3  C3  UNL     1     -34.618  16.185  -2.910  1.00 20.00    -0.003 A 
HETATM    4  C4  UNL     1     -36.543  14.812  -3.795  1.00 20.00    -0.083 A 
HETATM    5  C6  UNL     1     -34.197  13.916  -3.848  1.00 20.00     0.055 A 
HETATM    6  C7  UNL     1     -36.095  16.108  -3.159  1.00 20.00     0.075 A 
HETATM    7  C8  UNL     1     -38.013  14.684  -4.066  1.00 20.00     0.043 C 
ENDROOT
BRANCH   3   8
HETATM    8  C5  UNL     1     -34.078  17.401  -2.297  1.00 20.00     0.261 C 
HETATM    9  O10 UNL     1     -33.583  18.291  -2.991  1.00 20.00    -0.283 OA
BRANCH   8  10
HETATM   10  C9  UNL     1     -34.153  17.509  -0.801  1.00 20.00     0.455 C 
HETATM   11  F11 UNL     1     -34.958  18.523  -0.396  1.00 20.00    -0.163 F 
HETATM   12  F12 UNL     1     -32.933  17.731  -0.250  1.00 20.00    -0.163 F 
HETATM   13  F13 UNL     1     -34.639  16.373  -0.238  1.00 20.00    -0.163 F 
ENDBRANCH   8  10
ENDBRANCH   3   8
TORSDOF 2
ENDMDL
