MODEL 1
REMARK VINA RESULT:      -4.4      0.000      0.000
REMARK  1 active torsions:
REMARK  status: ('A' for Active; 'I' for Inactive)
REMARK    1  A    between atoms: C1_1  and  C4_4 
ROOT
HETATM    1  C2  UNL     1     -35.473  15.949  -3.442  1.00 20.00     0.038 C 
HETATM    2  C3  UNL     1     -33.405  15.477  -3.193  1.00 20.00     0.038 C 
HETATM    3  C4  UNL     1     -34.674  14.622  -3.433  1.00 20.00     0.076 C 
HETATM    4  C5  UNL     1     -34.314  16.615  -2.650  1.00 20.00     0.035 C 
HETATM    5  C6  UNL     1     -34.508  16.563  -1.130  1.00 20.00     0.032 C 
HETATM    6 CL9  UNL     1     -33.873  18.278  -3.161  1.00 20.00    -0.120 Cl
ENDROOT
BRANCH   3   7
HETATM    7  C1  UNL     1     -34.710  13.753  -4.693  1.00 20.00     0.223 C 
HETATM    8  O7  UNL     1     -34.916  12.544  -4.637  1.00 20.00    -0.279 OA
HETATM    9 CL8  UNL     1     -34.433  14.680  -6.136  1.00 20.00    -0.043 Cl
ENDBRANCH   3   7
TORSDOF 1
ENDMDL
MODEL 2
REMARK VINA RESULT:      -4.0      2.395      4.146
REMARK  1 active torsions:
REMARK  status: ('A' for Active; 'I' for Inactive)
REMARK    1  A    between atoms: C1_1  and  C4_4 
ROOT
HETATM    1  C2  UNL     1     -33.123  15.407  -3.921  1.00 20.00     0.038 C 
HETATM    2  C3  UNL     1     -35.252  15.564  -3.889  1.00 20.00     0.038 C 
HETATM    3  C4  UNL     1     -34.159  15.636  -2.793  1.00 20.00     0.076 C 
HETATM    4  C5  UNL     1     -34.252  14.788  -4.790  1.00 20.00     0.035 C 
HETATM    5  C6  UNL     1     -34.362  13.265  -4.647  1.00 20.00     0.032 C 
HETATM    6 CL9  UNL     1     -34.244  15.247  -6.524  1.00 20.00    -0.120 Cl
ENDROOT
BRANCH   3   7
HETATM    7  C1  UNL     1     -34.061  16.929  -1.979  1.00 20.00     0.223 C 
HETATM    8  O7  UNL     1     -33.581  17.955  -2.454  1.00 20.00    -0.279 OA
HETATM    9 CL8  UNL     1     -34.696  16.742  -0.373  1.00 20.00    -0.043 Cl
ENDBRANCH   3   7
TORSDOF 1
ENDMDL
MODEL 3
REMARK VINA RESULT:      -4.0     11.643     12.156
REMARK  1 active torsions:
REMARK  status: ('A' for Active; 'I' for Inactive)
REMARK    1  A    between atoms: C1_1  and  C4_4 
ROOT
HETATM    1  C2  UNL     1     -33.885   6.844   4.710  1.00 20.00     0.038 C 
HETATM    2  C3  UNL     1     -33.350   5.358   3.273  1.00 20.00     0.038 C 
HETATM    3  C4  UNL     1     -33.318   6.907   3.269  1.00 20.00     0.076 C 
HETATM    4  C5  UNL     1     -34.411   5.414   4.407  1.00 20.00     0.035 C 
HETATM    5  C6  UNL     1     -35.854   5.395   3.889  1.00 20.00     0.032 C 
HETATM    6 CL9  UNL     1     -34.211   4.213   5.725  1.00 20.00    -0.120 Cl
ENDROOT
BRANCH   3   7
HETATM    7  C1  UNL     1     -31.961   7.583   3.060  1.00 20.00     0.223 C 
HETATM    8  O7  UNL     1     -31.091   7.564   3.925  1.00 20.00    -0.279 OA
HETATM    9 CL8  UNL     1     -31.840   8.340   1.501  1.00 20.00    -0.043 Cl
ENDBRANCH   3   7
TORSDOF 1
ENDMDL
MODEL 4
REMARK VINA RESULT:      -3.9      1.578      1.915
REMARK  1 active torsions:
REMARK  status: ('A' for Active; 'I' for Inactive)
REMARK    1  A    between atoms: C1_1  and  C4_4 
ROOT
HETATM    1  C2  UNL     1     -33.465  16.041  -2.835  1.00 20.00     0.038 C 
HETATM    2  C3  UNL     1     -35.542  15.548  -2.830  1.00 20.00     0.038 C 
HETATM    3  C4  UNL     1     -34.402  15.354  -3.860  1.00 20.00     0.076 C 
HETATM    4  C5  UNL     1     -34.713  16.687  -2.174  1.00 20.00     0.035 C 
HETATM    5  C6  UNL     1     -35.045  18.076  -2.731  1.00 20.00     0.032 C 
HETATM    6 CL9  UNL     1     -34.717  16.722  -0.380  1.00 20.00    -0.120 Cl
ENDROOT
BRANCH   3   7
HETATM    7  C1  UNL     1     -34.073  13.921  -4.286  1.00 20.00     0.223 C 
HETATM    8  O7  UNL     1     -33.274  13.230  -3.661  1.00 20.00    -0.279 OA
HETATM    9 CL8  UNL     1     -34.951  13.443  -5.708  1.00 20.00    -0.043 Cl
ENDBRANCH   3   7
TORSDOF 1
ENDMDL
MODEL 5
REMARK VINA RESULT:      -3.9     11.604     12.159
REMARK  1 active torsions:
REMARK  status: ('A' for Active; 'I' for Inactive)
REMARK    1  A    between atoms: C1_1  and  C4_4 
ROOT
HETATM    1  C2  UNL     1     -33.725   5.566   2.878  1.00 20.00     0.038 C 
HETATM    2  C3  UNL     1     -34.051   6.587   4.725  1.00 20.00     0.038 C 
HETATM    3  C4  UNL     1     -32.779   6.196   3.931  1.00 20.00     0.076 C 
HETATM    4  C5  UNL     1     -34.826   5.472   3.969  1.00 20.00     0.035 C 
HETATM    5  C6  UNL     1     -34.834   4.130   4.711  1.00 20.00     0.032 C 
HETATM    6 CL9  UNL     1     -36.488   5.896   3.441  1.00 20.00    -0.120 Cl
ENDROOT
BRANCH   3   7
HETATM    7  C1  UNL     1     -31.855   7.330   3.480  1.00 20.00     0.223 C 
HETATM    8  O7  UNL     1     -30.963   7.761   4.204  1.00 20.00    -0.279 OA
HETATM    9 CL8  UNL     1     -32.234   7.885   1.877  1.00 20.00    -0.043 Cl
ENDBRANCH   3   7
TORSDOF 1
ENDMDL
MODEL 6
REMARK VINA RESULT:      -3.9      1.438      1.593
REMARK  1 active torsions:
REMARK  status: ('A' for Active; 'I' for Inactive)
REMARK    1  A    between atoms: C1_1  and  C4_4 
ROOT
HETATM    1  C2  UNL     1     -35.276  16.105  -4.359  1.00 20.00     0.038 C 
HETATM    2  C3  UNL     1     -34.620  15.781  -2.353  1.00 20.00     0.038 C 
HETATM    3  C4  UNL     1     -35.296  14.878  -3.415  1.00 20.00     0.076 C 
HETATM    4  C5  UNL     1     -35.164  17.024  -3.111  1.00 20.00     0.035 C 
HETATM    5  C6  UNL     1     -36.522  17.507  -2.588  1.00 20.00     0.032 C 
HETATM    6 CL9  UNL     1     -34.031  18.407  -3.259  1.00 20.00    -0.120 Cl
ENDROOT
BRANCH   3   7
HETATM    7  C1  UNL     1     -34.540  13.621  -3.854  1.00 20.00     0.223 C 
HETATM    8  O7  UNL     1     -35.120  12.662  -4.356  1.00 20.00    -0.279 OA
HETATM    9 CL8  UNL     1     -32.833  13.745  -3.556  1.00 20.00    -0.043 Cl
ENDBRANCH   3   7
TORSDOF 1
ENDMDL
MODEL 7
REMARK VINA RESULT:      -3.9     11.588     11.967
REMARK  1 active torsions:
REMARK  status: ('A' for Active; 'I' for Inactive)
REMARK    1  A    between atoms: C1_1  and  C4_4 
ROOT
HETATM    1  C2  UNL     1     -33.625   7.504   3.891  1.00 20.00     0.038 C 
HETATM    2  C3  UNL     1     -32.582   5.808   3.120  1.00 20.00     0.038 C 
HETATM    3  C4  UNL     1     -33.562   6.012   4.302  1.00 20.00     0.076 C 
HETATM    4  C5  UNL     1     -32.264   7.328   3.163  1.00 20.00     0.035 C 
HETATM    5  C6  UNL     1     -31.057   7.671   4.043  1.00 20.00     0.032 C 
HETATM    6 CL9  UNL     1     -32.119   8.142   1.570  1.00 20.00    -0.120 Cl
ENDROOT
BRANCH   3   7
HETATM    7  C1  UNL     1     -34.864   5.206   4.285  1.00 20.00     0.223 C 
HETATM    8  O7  UNL     1     -35.766   5.455   3.490  1.00 20.00    -0.279 OA
HETATM    9 CL8  UNL     1     -34.875   3.954   5.489  1.00 20.00    -0.043 Cl
ENDBRANCH   3   7
TORSDOF 1
ENDMDL
MODEL 8
REMARK VINA RESULT:      -3.8      2.272      2.469
REMARK  1 active torsions:
REMARK  status: ('A' for Active; 'I' for Inactive)
REMARK    1  A    between atoms: C1_1  and  C4_4 
ROOT
HETATM    1  C2  UNL     1     -35.243  16.049  -2.211  1.00 20.00     0.038 C 
HETATM    2  C3  UNL     1     -33.752  17.577  -2.276  1.00 20.00     0.038 C 
HETATM    3  C4  UNL     1     -33.714  16.039  -2.461  1.00 20.00     0.076 C 
HETATM    4  C5  UNL     1     -35.085  17.417  -1.492  1.00 20.00     0.035 C 
HETATM    5  C6  UNL     1     -34.885  17.288   0.022  1.00 20.00     0.032 C 
HETATM    6 CL9  UNL     1     -36.351  18.638  -1.847  1.00 20.00    -0.120 Cl
ENDROOT
BRANCH   3   7
HETATM    7  C1  UNL     1     -33.210  15.503  -3.803  1.00 20.00     0.223 C 
HETATM    8  O7  UNL     1     -32.795  16.253  -4.682  1.00 20.00    -0.279 OA
HETATM    9 CL8  UNL     1     -33.305  13.770  -3.895  1.00 20.00    -0.043 Cl
ENDBRANCH   3   7
TORSDOF 1
ENDMDL
MODEL 9
REMARK VINA RESULT:      -3.8      2.467      3.094
REMARK  1 active torsions:
REMARK  status: ('A' for Active; 'I' for Inactive)
REMARK    1  A    between atoms: C1_1  and  C4_4 
ROOT
HETATM    1  C2  UNL     1     -35.123  15.354  -3.070  1.00 20.00     0.038 C 
HETATM    2  C3  UNL     1     -35.295  14.585  -5.054  1.00 20.00     0.038 C 
HETATM    3  C4  UNL     1     -36.168  14.457  -3.781  1.00 20.00     0.076 C 
HETATM    4  C5  UNL     1     -34.084  14.945  -4.149  1.00 20.00     0.035 C 
HETATM    5  C6  UNL     1     -33.241  13.728  -3.751  1.00 20.00     0.032 C 
HETATM    6 CL9  UNL     1     -33.024  16.262  -4.751  1.00 20.00    -0.120 Cl
ENDROOT
BRANCH   3   7
HETATM    7  C1  UNL     1     -37.611  14.962  -3.863  1.00 20.00     0.223 C 
HETATM    8  O7  UNL     1     -38.566  14.193  -3.816  1.00 20.00    -0.279 OA
HETATM    9 CL8  UNL     1     -37.692  16.690  -4.022  1.00 20.00    -0.043 Cl
ENDBRANCH   3   7
TORSDOF 1
ENDMDL
