MODEL 1
REMARK VINA RESULT:      -5.2      0.000      0.000
REMARK  1 active torsions:
REMARK  status: ('A' for Active; 'I' for Inactive)
REMARK    1  A    between atoms: C5_5  and  C9_9 
ROOT
HETATM    1  C1  UNL     1     -33.951  16.966  -3.439  1.00 20.00    -0.021 C 
HETATM    2  C2  UNL     1     -34.570  16.080  -2.641  1.00 20.00    -0.024 C 
HETATM    3  C3  UNL     1     -34.180  15.478  -5.388  1.00 20.00    -0.065 C 
HETATM    4  C4  UNL     1     -34.315  15.705  -6.700  1.00 20.00     0.016 C 
HETATM    5  C6  UNL     1     -32.783  14.985  -3.590  1.00 20.00     0.023 C 
HETATM    6  C7  UNL     1     -33.184  16.174  -4.470  1.00 20.00     0.038 C 
HETATM    7  C8  UNL     1     -34.230  14.690  -3.158  1.00 20.00     0.028 C 
HETATM    8  C9  UNL     1     -34.925  14.441  -4.536  1.00 20.00     0.046 C 
HETATM    9  C11 UNL     1     -34.738  13.006  -5.036  1.00 20.00     0.029 C 
ENDROOT
BRANCH   8  10
HETATM   10  C5  UNL     1     -36.399  14.754  -4.486  1.00 20.00     0.136 C 
HETATM   11  C10 UNL     1     -36.878  15.899  -5.337  1.00 20.00     0.092 C 
HETATM   12  O12 UNL     1     -37.174  14.104  -3.784  1.00 20.00    -0.297 OA
ENDBRANCH   8  10
TORSDOF 1
ENDMDL
MODEL 2
REMARK VINA RESULT:      -5.2      1.832      3.038
REMARK  1 active torsions:
REMARK  status: ('A' for Active; 'I' for Inactive)
REMARK    1  A    between atoms: C5_5  and  C9_9 
ROOT
HETATM    1  C1  UNL     1     -33.696  13.638  -3.996  1.00 20.00    -0.021 C 
HETATM    2  C2  UNL     1     -34.076  14.576  -3.112  1.00 20.00    -0.024 C 
HETATM    3  C3  UNL     1     -34.703  14.889  -5.864  1.00 20.00    -0.065 C 
HETATM    4  C4  UNL     1     -34.398  14.995  -7.162  1.00 20.00     0.016 C 
HETATM    5  C6  UNL     1     -35.979  13.876  -4.198  1.00 20.00     0.023 C 
HETATM    6  C7  UNL     1     -34.753  13.588  -5.072  1.00 20.00     0.038 C 
HETATM    7  C8  UNL     1     -35.385  15.169  -3.614  1.00 20.00     0.028 C 
HETATM    8  C9  UNL     1     -35.134  16.011  -4.908  1.00 20.00     0.046 C 
HETATM    9  C11 UNL     1     -36.389  16.751  -5.377  1.00 20.00     0.029 C 
ENDROOT
BRANCH   8  10
HETATM   10  C5  UNL     1     -34.018  17.008  -4.721  1.00 20.00     0.136 C 
HETATM   11  C10 UNL     1     -34.339  18.240  -3.919  1.00 20.00     0.092 C 
HETATM   12  O12 UNL     1     -32.900  16.823  -5.199  1.00 20.00    -0.297 OA
ENDBRANCH   8  10
TORSDOF 1
ENDMDL
MODEL 3
REMARK VINA RESULT:      -5.1      1.337      3.070
REMARK  1 active torsions:
REMARK  status: ('A' for Active; 'I' for Inactive)
REMARK    1  A    between atoms: C5_5  and  C9_9 
ROOT
HETATM    1  C1  UNL     1     -33.481  16.684  -5.543  1.00 20.00    -0.021 C 
HETATM    2  C2  UNL     1     -34.038  15.726  -6.303  1.00 20.00    -0.024 C 
HETATM    3  C3  UNL     1     -34.778  15.976  -3.572  1.00 20.00    -0.065 C 
HETATM    4  C4  UNL     1     -34.532  16.005  -2.258  1.00 20.00     0.016 C 
HETATM    5  C6  UNL     1     -35.765  16.972  -5.433  1.00 20.00     0.023 C 
HETATM    6  C7  UNL     1     -34.525  17.121  -4.544  1.00 20.00     0.038 C 
HETATM    7  C8  UNL     1     -35.455  15.509  -5.792  1.00 20.00     0.028 C 
HETATM    8  C9  UNL     1     -35.423  14.839  -4.379  1.00 20.00     0.046 C 
HETATM    9  C11 UNL     1     -36.819  14.463  -3.877  1.00 20.00     0.029 C 
ENDROOT
BRANCH   8  10
HETATM   10  C5  UNL     1     -34.548  13.611  -4.360  1.00 20.00     0.136 C 
HETATM   11  C10 UNL     1     -33.235  13.726  -3.635  1.00 20.00     0.092 C 
HETATM   12  O12 UNL     1     -34.892  12.564  -4.908  1.00 20.00    -0.297 OA
ENDBRANCH   8  10
TORSDOF 1
ENDMDL
MODEL 4
REMARK VINA RESULT:      -5.1      1.054      2.754
REMARK  1 active torsions:
REMARK  status: ('A' for Active; 'I' for Inactive)
REMARK    1  A    between atoms: C5_5  and  C9_9 
ROOT
HETATM    1  C1  UNL     1     -33.664  13.831  -3.924  1.00 20.00    -0.021 C 
HETATM    2  C2  UNL     1     -34.330  14.070  -5.066  1.00 20.00    -0.024 C 
HETATM    3  C3  UNL     1     -34.541  15.892  -2.898  1.00 20.00    -0.065 C 
HETATM    4  C4  UNL     1     -34.833  16.232  -1.638  1.00 20.00     0.016 C 
HETATM    5  C6  UNL     1     -33.019  15.916  -4.662  1.00 20.00     0.023 C 
HETATM    6  C7  UNL     1     -33.276  15.171  -3.348  1.00 20.00     0.038 C 
HETATM    7  C8  UNL     1     -34.404  15.580  -5.240  1.00 20.00     0.028 C 
HETATM    8  C9  UNL     1     -35.353  16.201  -4.164  1.00 20.00     0.046 C 
HETATM    9  C11 UNL     1     -35.582  17.699  -4.381  1.00 20.00     0.029 C 
ENDROOT
BRANCH   8  10
HETATM   10  C5  UNL     1     -36.689  15.503  -4.123  1.00 20.00     0.136 C 
HETATM   11  C10 UNL     1     -37.641  15.797  -5.250  1.00 20.00     0.092 C 
HETATM   12  O12 UNL     1     -36.985  14.728  -3.214  1.00 20.00    -0.297 OA
ENDBRANCH   8  10
TORSDOF 1
ENDMDL
MODEL 5
REMARK VINA RESULT:      -5.0      1.370      2.269
REMARK  1 active torsions:
REMARK  status: ('A' for Active; 'I' for Inactive)
REMARK    1  A    between atoms: C5_5  and  C9_9 
ROOT
HETATM    1  C1  UNL     1     -36.435  16.447  -3.811  1.00 20.00    -0.021 C 
HETATM    2  C2  UNL     1     -36.414  15.195  -3.324  1.00 20.00    -0.024 C 
HETATM    3  C3  UNL     1     -34.077  16.292  -4.505  1.00 20.00    -0.065 C 
HETATM    4  C4  UNL     1     -33.381  16.845  -5.504  1.00 20.00     0.016 C 
HETATM    5  C6  UNL     1     -34.726  16.346  -2.268  1.00 20.00     0.023 C 
HETATM    6  C7  UNL     1     -35.057  17.027  -3.600  1.00 20.00     0.038 C 
HETATM    7  C8  UNL     1     -35.008  14.933  -2.806  1.00 20.00     0.028 C 
HETATM    8  C9  UNL     1     -34.001  14.844  -3.999  1.00 20.00     0.046 C 
HETATM    9  C11 UNL     1     -32.595  14.437  -3.550  1.00 20.00     0.029 C 
ENDROOT
BRANCH   8  10
HETATM   10  C5  UNL     1     -34.473  13.884  -5.062  1.00 20.00     0.136 C 
HETATM   11  C10 UNL     1     -34.780  14.469  -6.414  1.00 20.00     0.092 C 
HETATM   12  O12 UNL     1     -34.598  12.681  -4.836  1.00 20.00    -0.297 OA
ENDBRANCH   8  10
TORSDOF 1
ENDMDL
MODEL 6
REMARK VINA RESULT:      -5.0      1.496      3.136
REMARK  1 active torsions:
REMARK  status: ('A' for Active; 'I' for Inactive)
REMARK    1  A    between atoms: C5_5  and  C9_9 
ROOT
HETATM    1  C1  UNL     1     -37.507  14.777  -4.446  1.00 20.00    -0.021 C 
HETATM    2  C2  UNL     1     -36.632  14.963  -3.444  1.00 20.00    -0.024 C 
HETATM    3  C3  UNL     1     -35.720  14.947  -6.133  1.00 20.00    -0.065 C 
HETATM    4  C4  UNL     1     -35.550  14.399  -7.341  1.00 20.00     0.016 C 
HETATM    5  C6  UNL     1     -36.418  16.766  -4.855  1.00 20.00     0.023 C 
HETATM    6  C7  UNL     1     -37.009  15.580  -5.624  1.00 20.00     0.038 C 
HETATM    7  C8  UNL     1     -35.533  15.877  -3.965  1.00 20.00     0.028 C 
HETATM    8  C9  UNL     1     -34.667  15.128  -5.030  1.00 20.00     0.046 C 
HETATM    9  C11 UNL     1     -33.457  15.949  -5.483  1.00 20.00     0.029 C 
ENDROOT
BRANCH   8  10
HETATM   10  C5  UNL     1     -34.190  13.790  -4.525  1.00 20.00     0.136 C 
HETATM   11  C10 UNL     1     -33.028  13.802  -3.570  1.00 20.00     0.092 C 
HETATM   12  O12 UNL     1     -34.726  12.739  -4.875  1.00 20.00    -0.297 OA
ENDBRANCH   8  10
TORSDOF 1
ENDMDL
MODEL 7
REMARK VINA RESULT:      -5.0      1.300      2.609
REMARK  1 active torsions:
REMARK  status: ('A' for Active; 'I' for Inactive)
REMARK    1  A    between atoms: C5_5  and  C9_9 
ROOT
HETATM    1  C1  UNL     1     -34.004  16.035  -6.329  1.00 20.00    -0.021 C 
HETATM    2  C2  UNL     1     -35.223  16.467  -5.965  1.00 20.00    -0.024 C 
HETATM    3  C3  UNL     1     -33.530  15.230  -4.050  1.00 20.00    -0.065 C 
HETATM    4  C4  UNL     1     -32.789  14.224  -3.572  1.00 20.00     0.016 C 
HETATM    5  C6  UNL     1     -33.711  17.494  -4.569  1.00 20.00     0.023 C 
HETATM    6  C7  UNL     1     -33.097  16.208  -5.134  1.00 20.00     0.038 C 
HETATM    7  C8  UNL     1     -35.133  16.909  -4.512  1.00 20.00     0.028 C 
HETATM    8  C9  UNL     1     -34.925  15.669  -3.582  1.00 20.00     0.046 C 
HETATM    9  C11 UNL     1     -34.973  16.037  -2.097  1.00 20.00     0.029 C 
ENDROOT
BRANCH   8  10
HETATM   10  C5  UNL     1     -35.942  14.588  -3.851  1.00 20.00     0.136 C 
HETATM   11  C10 UNL     1     -37.385  14.945  -3.623  1.00 20.00     0.092 C 
HETATM   12  O12 UNL     1     -35.607  13.470  -4.242  1.00 20.00    -0.297 OA
ENDBRANCH   8  10
TORSDOF 1
ENDMDL
MODEL 8
REMARK VINA RESULT:      -4.9      1.159      2.920
REMARK  1 active torsions:
REMARK  status: ('A' for Active; 'I' for Inactive)
REMARK    1  A    between atoms: C5_5  and  C9_9 
ROOT
HETATM    1  C1  UNL     1     -36.266  15.793  -6.341  1.00 20.00    -0.021 C 
HETATM    2  C2  UNL     1     -35.911  16.835  -5.572  1.00 20.00    -0.024 C 
HETATM    3  C3  UNL     1     -34.726  14.291  -5.141  1.00 20.00    -0.065 C 
HETATM    4  C4  UNL     1     -34.755  12.982  -4.866  1.00 20.00     0.016 C 
HETATM    5  C6  UNL     1     -33.979  16.018  -6.515  1.00 20.00     0.023 C 
HETATM    6  C7  UNL     1     -35.045  14.917  -6.492  1.00 20.00     0.038 C 
HETATM    7  C8  UNL     1     -34.451  16.641  -5.190  1.00 20.00     0.028 C 
HETATM    8  C9  UNL     1     -34.306  15.434  -4.206  1.00 20.00     0.046 C 
HETATM    9  C11 UNL     1     -32.879  15.282  -3.673  1.00 20.00     0.029 C 
ENDROOT
BRANCH   8  10
HETATM   10  C5  UNL     1     -35.255  15.544  -3.039  1.00 20.00     0.136 C 
HETATM   11  C10 UNL     1     -34.734  16.227  -1.805  1.00 20.00     0.092 C 
HETATM   12  O12 UNL     1     -36.401  15.099  -3.095  1.00 20.00    -0.297 OA
ENDBRANCH   8  10
TORSDOF 1
ENDMDL
MODEL 9
REMARK VINA RESULT:      -4.9      1.519      3.171
REMARK  1 active torsions:
REMARK  status: ('A' for Active; 'I' for Inactive)
REMARK    1  A    between atoms: C5_5  and  C9_9 
ROOT
HETATM    1  C1  UNL     1     -34.280  15.009  -5.816  1.00 20.00    -0.021 C 
HETATM    2  C2  UNL     1     -33.430  15.933  -5.336  1.00 20.00    -0.024 C 
HETATM    3  C3  UNL     1     -35.650  15.107  -3.771  1.00 20.00    -0.065 C 
HETATM    4  C4  UNL     1     -36.954  14.925  -3.536  1.00 20.00     0.016 C 
HETATM    5  C6  UNL     1     -33.494  14.226  -3.797  1.00 20.00     0.023 C 
HETATM    6  C7  UNL     1     -34.776  14.208  -4.636  1.00 20.00     0.038 C 
HETATM    7  C8  UNL     1     -33.376  15.759  -3.826  1.00 20.00     0.028 C 
HETATM    8  C9  UNL     1     -34.735  16.190  -3.184  1.00 20.00     0.046 C 
HETATM    9  C11 UNL     1     -34.690  16.176  -1.654  1.00 20.00     0.029 C 
ENDROOT
BRANCH   8  10
HETATM   10  C5  UNL     1     -35.166  17.559  -3.648  1.00 20.00     0.136 C 
HETATM   11  C10 UNL     1     -34.363  18.728  -3.145  1.00 20.00     0.092 C 
HETATM   12  O12 UNL     1     -36.125  17.713  -4.403  1.00 20.00    -0.297 OA
ENDBRANCH   8  10
TORSDOF 1
ENDMDL
