MODEL 1
REMARK VINA RESULT:      -4.4      0.000      0.000
REMARK  1 active torsions:
REMARK  status: ('A' for Active; 'I' for Inactive)
REMARK    1  A    between atoms: C6_6  and  N10_10 
ROOT
HETATM    1  C1  UNL     1     -35.740  13.609  -4.312  1.00 20.00    -0.017 A 
HETATM    2  C2  UNL     1     -36.436  14.582  -3.810  1.00 20.00     0.079 A 
HETATM    3  C3  UNL     1     -35.699  15.575  -3.058  1.00 20.00     0.047 A 
HETATM    4  C4  UNL     1     -33.411  14.541  -3.351  1.00 20.00     0.057 A 
HETATM    5  C5  UNL     1     -33.648  13.433  -4.092  1.00 20.00     0.129 A 
HETATM    6  C6  UNL     1     -34.361  15.547  -2.858  1.00 20.00     0.135 A 
HETATM    7  N9  UNL     1     -34.834  12.923  -4.598  1.00 20.00    -0.218 NA
ENDROOT
BRANCH   6   8
HETATM    8  N10 UNL     1     -33.836  16.624  -2.086  1.00 20.00    -0.049 N 
HETATM    9  C7  UNL     1     -33.888  17.894  -2.881  1.00 20.00     0.276 C 
HETATM   10  C8  UNL     1     -34.564  16.716  -0.779  1.00 20.00     0.276 C 
HETATM   11  H21 UNL     1     -32.847  16.431  -1.876  1.00 20.00     0.285 HD
ENDBRANCH   6   8
TORSDOF 1
ENDMDL
MODEL 2
REMARK VINA RESULT:      -4.3      0.599      2.168
REMARK  1 active torsions:
REMARK  status: ('A' for Active; 'I' for Inactive)
REMARK    1  A    between atoms: C6_6  and  N10_10 
ROOT
HETATM    1  C1  UNL     1     -33.876  13.369  -4.203  1.00 20.00    -0.017 A 
HETATM    2  C2  UNL     1     -32.956  14.135  -3.706  1.00 20.00     0.079 A 
HETATM    3  C3  UNL     1     -33.412  15.350  -3.064  1.00 20.00     0.047 A 
HETATM    4  C4  UNL     1     -35.884  14.984  -3.443  1.00 20.00     0.057 A 
HETATM    5  C5  UNL     1     -35.940  13.805  -4.104  1.00 20.00     0.129 A 
HETATM    6  C6  UNL     1     -34.709  15.719  -2.956  1.00 20.00     0.135 A 
HETATM    7  N9  UNL     1     -34.927  12.951  -4.514  1.00 20.00    -0.218 NA
ENDROOT
BRANCH   6   8
HETATM    8  N10 UNL     1     -34.938  16.956  -2.288  1.00 20.00    -0.049 N 
HETATM    9  C7  UNL     1     -34.686  16.797  -0.819  1.00 20.00     0.276 C 
HETATM   10  C8  UNL     1     -34.108  18.036  -2.915  1.00 20.00     0.276 C 
HETATM   11  H21 UNL     1     -35.927  17.220  -2.405  1.00 20.00     0.285 HD
ENDBRANCH   6   8
TORSDOF 1
ENDMDL
MODEL 3
REMARK VINA RESULT:      -4.3      1.947      2.254
REMARK  1 active torsions:
REMARK  status: ('A' for Active; 'I' for Inactive)
REMARK    1  A    between atoms: C6_6  and  N10_10 
ROOT
HETATM    1  C1  UNL     1     -34.802  13.473  -5.537  1.00 20.00    -0.017 A 
HETATM    2  C2  UNL     1     -34.805  14.417  -6.426  1.00 20.00     0.079 A 
HETATM    3  C3  UNL     1     -34.276  15.696  -6.005  1.00 20.00     0.047 A 
HETATM    4  C4  UNL     1     -33.696  15.021  -3.640  1.00 20.00     0.057 A 
HETATM    5  C5  UNL     1     -34.070  13.722  -3.572  1.00 20.00     0.129 A 
HETATM    6  C6  UNL     1     -33.791  15.955  -4.770  1.00 20.00     0.135 A 
HETATM    7  N9  UNL     1     -34.646  12.898  -4.527  1.00 20.00    -0.218 NA
ENDROOT
BRANCH   6   8
HETATM    8  N10 UNL     1     -33.320  17.284  -4.564  1.00 20.00    -0.049 N 
HETATM    9  C7  UNL     1     -33.683  18.141  -5.740  1.00 20.00     0.276 C 
HETATM   10  C8  UNL     1     -33.843  17.816  -3.263  1.00 20.00     0.276 C 
HETATM   11  H21 UNL     1     -32.292  17.267  -4.500  1.00 20.00     0.285 HD
ENDBRANCH   6   8
TORSDOF 1
ENDMDL
MODEL 4
REMARK VINA RESULT:      -4.2      2.209      2.877
REMARK  1 active torsions:
REMARK  status: ('A' for Active; 'I' for Inactive)
REMARK    1  A    between atoms: C6_6  and  N10_10 
ROOT
HETATM    1  C1  UNL     1     -33.970  13.278  -4.124  1.00 20.00    -0.017 A 
HETATM    2  C2  UNL     1     -33.157  14.070  -3.497  1.00 20.00     0.079 A 
HETATM    3  C3  UNL     1     -33.045  15.416  -4.016  1.00 20.00     0.047 A 
HETATM    4  C4  UNL     1     -34.688  15.145  -5.917  1.00 20.00     0.057 A 
HETATM    5  C5  UNL     1     -35.103  13.862  -5.807  1.00 20.00     0.129 A 
HETATM    6  C6  UNL     1     -33.724  15.881  -5.089  1.00 20.00     0.135 A 
HETATM    7  N9  UNL     1     -34.751  12.874  -4.900  1.00 20.00    -0.218 NA
ENDROOT
BRANCH   6   8
HETATM    8  N10 UNL     1     -33.464  17.239  -5.434  1.00 20.00    -0.049 N 
HETATM    9  C7  UNL     1     -34.247  17.614  -6.656  1.00 20.00     0.276 C 
HETATM   10  C8  UNL     1     -33.745  18.127  -4.258  1.00 20.00     0.276 C 
HETATM   11  H21 UNL     1     -32.465  17.339  -5.665  1.00 20.00     0.285 HD
ENDBRANCH   6   8
TORSDOF 1
ENDMDL
MODEL 5
REMARK VINA RESULT:      -4.1      1.674      2.869
REMARK  1 active torsions:
REMARK  status: ('A' for Active; 'I' for Inactive)
REMARK    1  A    between atoms: C6_6  and  N10_10 
ROOT
HETATM    1  C1  UNL     1     -33.462  14.312  -3.653  1.00 20.00    -0.017 A 
HETATM    2  C2  UNL     1     -33.612  15.407  -2.975  1.00 20.00     0.079 A 
HETATM    3  C3  UNL     1     -34.971  15.870  -2.796  1.00 20.00     0.047 A 
HETATM    4  C4  UNL     1     -36.099  13.994  -4.060  1.00 20.00     0.057 A 
HETATM    5  C5  UNL     1     -35.071  13.213  -4.467  1.00 20.00     0.129 A 
HETATM    6  C6  UNL     1     -36.065  15.240  -3.282  1.00 20.00     0.135 A 
HETATM    7  N9  UNL     1     -33.704  13.351  -4.279  1.00 20.00    -0.218 NA
ENDROOT
BRANCH   6   8
HETATM    8  N10 UNL     1     -37.311  15.868  -2.993  1.00 20.00    -0.049 N 
HETATM    9  C7  UNL     1     -37.262  17.309  -3.399  1.00 20.00     0.276 C 
HETATM   10  C8  UNL     1     -38.428  15.108  -3.644  1.00 20.00     0.276 C 
HETATM   11  H21 UNL     1     -37.469  15.838  -1.976  1.00 20.00     0.285 HD
ENDBRANCH   6   8
TORSDOF 1
ENDMDL
MODEL 6
REMARK VINA RESULT:      -4.1      1.696      4.209
REMARK  1 active torsions:
REMARK  status: ('A' for Active; 'I' for Inactive)
REMARK    1  A    between atoms: C6_6  and  N10_10 
ROOT
HETATM    1  C1  UNL     1     -34.029  17.436  -2.391  1.00 20.00    -0.017 A 
HETATM    2  C2  UNL     1     -34.297  16.214  -2.051  1.00 20.00     0.079 A 
HETATM    3  C3  UNL     1     -34.267  15.231  -3.114  1.00 20.00     0.047 A 
HETATM    4  C4  UNL     1     -33.644  16.821  -4.978  1.00 20.00     0.057 A 
HETATM    5  C5  UNL     1     -33.555  18.024  -4.363  1.00 20.00     0.129 A 
HETATM    6  C6  UNL     1     -33.980  15.510  -4.406  1.00 20.00     0.135 A 
HETATM    7  N9  UNL     1     -33.751  18.375  -3.036  1.00 20.00    -0.218 NA
ENDROOT
BRANCH   6   8
HETATM    8  N10 UNL     1     -34.007  14.395  -5.292  1.00 20.00    -0.049 N 
HETATM    9  C7  UNL     1     -34.784  13.272  -4.674  1.00 20.00     0.276 C 
HETATM   10  C8  UNL     1     -34.542  14.817  -6.628  1.00 20.00     0.276 C 
HETATM   11  H21 UNL     1     -33.043  14.061  -5.436  1.00 20.00     0.285 HD
ENDBRANCH   6   8
TORSDOF 1
ENDMDL
MODEL 7
REMARK VINA RESULT:      -4.1      2.608      3.504
REMARK  1 active torsions:
REMARK  status: ('A' for Active; 'I' for Inactive)
REMARK    1  A    between atoms: C6_6  and  N10_10 
ROOT
HETATM    1  C1  UNL     1     -33.577  14.006  -3.627  1.00 20.00    -0.017 A 
HETATM    2  C2  UNL     1     -33.028  15.179  -3.556  1.00 20.00     0.079 A 
HETATM    3  C3  UNL     1     -33.288  16.076  -4.662  1.00 20.00     0.047 A 
HETATM    4  C4  UNL     1     -34.760  14.505  -5.986  1.00 20.00     0.057 A 
HETATM    5  C5  UNL     1     -34.801  13.383  -5.230  1.00 20.00     0.129 A 
HETATM    6  C6  UNL     1     -34.053  15.767  -5.734  1.00 20.00     0.135 A 
HETATM    7  N9  UNL     1     -34.201  13.093  -4.014  1.00 20.00    -0.218 NA
ENDROOT
BRANCH   6   8
HETATM    8  N10 UNL     1     -34.178  16.797  -6.711  1.00 20.00    -0.049 N 
HETATM    9  C7  UNL     1     -35.530  16.728  -7.355  1.00 20.00     0.276 C 
HETATM   10  C8  UNL     1     -33.888  18.130  -6.088  1.00 20.00     0.276 C 
HETATM   11  H21 UNL     1     -33.476  16.642  -7.449  1.00 20.00     0.285 HD
ENDBRANCH   6   8
TORSDOF 1
ENDMDL
MODEL 8
REMARK VINA RESULT:      -4.1     11.102     13.190
REMARK  1 active torsions:
REMARK  status: ('A' for Active; 'I' for Inactive)
REMARK    1  A    between atoms: C6_6  and  N10_10 
ROOT
HETATM    1  C1  UNL     1     -41.333   7.019  -1.171  1.00 20.00    -0.017 A 
HETATM    2  C2  UNL     1     -40.730   6.110  -0.469  1.00 20.00     0.079 A 
HETATM    3  C3  UNL     1     -41.002   4.736  -0.831  1.00 20.00     0.047 A 
HETATM    4  C4  UNL     1     -42.583   5.232  -2.739  1.00 20.00     0.057 A 
HETATM    5  C5  UNL     1     -42.640   6.584  -2.772  1.00 20.00     0.129 A 
HETATM    6  C6  UNL     1     -41.826   4.357  -1.835  1.00 20.00     0.135 A 
HETATM    7  N9  UNL     1     -42.012   7.532  -1.977  1.00 20.00    -0.218 NA
ENDROOT
BRANCH   6   8
HETATM    8  N10 UNL     1     -41.954   2.950  -2.021  1.00 20.00    -0.049 N 
HETATM    9  C7  UNL     1     -43.390   2.545  -1.875  1.00 20.00     0.276 C 
HETATM   10  C8  UNL     1     -41.361   2.554  -3.341  1.00 20.00     0.276 C 
HETATM   11  H21 UNL     1     -41.420   2.467  -1.285  1.00 20.00     0.285 HD
ENDBRANCH   6   8
TORSDOF 1
ENDMDL
MODEL 9
REMARK VINA RESULT:      -3.9      1.651      4.225
REMARK  1 active torsions:
REMARK  status: ('A' for Active; 'I' for Inactive)
REMARK    1  A    between atoms: C6_6  and  N10_10 
ROOT
HETATM    1  C1  UNL     1     -33.844  17.928  -3.112  1.00 20.00    -0.017 A 
HETATM    2  C2  UNL     1     -33.592  17.978  -4.383  1.00 20.00     0.079 A 
HETATM    3  C3  UNL     1     -33.666  16.723  -5.101  1.00 20.00     0.047 A 
HETATM    4  C4  UNL     1     -34.300  15.280  -3.125  1.00 20.00     0.057 A 
HETATM    5  C5  UNL     1     -34.351  16.151  -2.090  1.00 20.00     0.129 A 
HETATM    6  C6  UNL     1     -33.976  15.534  -4.535  1.00 20.00     0.135 A 
HETATM    7  N9  UNL     1     -34.119  17.518  -2.049  1.00 20.00    -0.218 NA
ENDROOT
BRANCH   6   8
HETATM    8  N10 UNL     1     -33.990  14.421  -5.424  1.00 20.00    -0.049 N 
HETATM    9  C7  UNL     1     -34.725  13.276  -4.794  1.00 20.00     0.276 C 
HETATM   10  C8  UNL     1     -34.562  14.832  -6.748  1.00 20.00     0.276 C 
HETATM   11  H21 UNL     1     -33.021  14.113  -5.588  1.00 20.00     0.285 HD
ENDBRANCH   6   8
TORSDOF 1
ENDMDL
