MODEL 1
REMARK VINA RESULT:      -4.1      0.000      0.000
REMARK  1 active torsions:
REMARK  status: ('A' for Active; 'I' for Inactive)
REMARK    1  A    between atoms: C2_2  and  C4_4 
ROOT
HETATM    1  C1  UNL     1     -34.161  15.985  -2.695  1.00 20.00     0.131 C 
HETATM    2  C3  UNL     1     -33.321  15.908  -4.696  1.00 20.00     0.191 C 
HETATM    3  C4  UNL     1     -33.479  14.502  -4.156  1.00 20.00     0.219 C 
HETATM    4  C5  UNL     1     -34.742  16.385  -1.390  1.00 20.00     0.099 C 
HETATM    5  N7  UNL     1     -33.950  16.780  -3.693  1.00 20.00    -0.268 NA
HETATM    6  O9  UNL     1     -33.856  14.673  -2.802  1.00 20.00    -0.323 OA
ENDROOT
BRANCH   3   7
HETATM    7  C2  UNL     1     -34.586  13.748  -4.824  1.00 20.00     0.153 C 
HETATM    8  C6  UNL     1     -35.090  14.303  -6.129  1.00 20.00     0.093 C 
HETATM    9  O8  UNL     1     -35.060  12.726  -4.331  1.00 20.00    -0.295 OA
ENDBRANCH   3   7
TORSDOF 1
ENDMDL
MODEL 2
REMARK VINA RESULT:      -3.9      1.797      3.640
REMARK  1 active torsions:
REMARK  status: ('A' for Active; 'I' for Inactive)
REMARK    1  A    between atoms: C2_2  and  C4_4 
ROOT
HETATM    1  C1  UNL     1     -35.561  14.452  -6.308  1.00 20.00     0.131 C 
HETATM    2  C3  UNL     1     -36.416  14.504  -4.312  1.00 20.00     0.191 C 
HETATM    3  C4  UNL     1     -35.303  13.477  -4.363  1.00 20.00     0.219 C 
HETATM    4  C5  UNL     1     -35.208  14.679  -7.731  1.00 20.00     0.099 C 
HETATM    5  N7  UNL     1     -36.378  15.179  -5.617  1.00 20.00    -0.268 NA
HETATM    6  O9  UNL     1     -34.945  13.398  -5.729  1.00 20.00    -0.323 OA
ENDROOT
BRANCH   3   7
HETATM    7  C2  UNL     1     -34.081  13.914  -3.617  1.00 20.00     0.153 C 
HETATM    8  C6  UNL     1     -34.175  15.216  -2.868  1.00 20.00     0.093 C 
HETATM    9  O8  UNL     1     -33.051  13.242  -3.616  1.00 20.00    -0.295 OA
ENDBRANCH   3   7
TORSDOF 1
ENDMDL
MODEL 3
REMARK VINA RESULT:      -3.9     12.092     12.528
REMARK  1 active torsions:
REMARK  status: ('A' for Active; 'I' for Inactive)
REMARK    1  A    between atoms: C2_2  and  C4_4 
ROOT
HETATM    1  C1  UNL     1     -34.601   5.199   5.291  1.00 20.00     0.131 C 
HETATM    2  C3  UNL     1     -34.847   5.563   3.165  1.00 20.00     0.191 C 
HETATM    3  C4  UNL     1     -33.939   6.619   3.760  1.00 20.00     0.219 C 
HETATM    4  C5  UNL     1     -34.634   4.667   6.676  1.00 20.00     0.099 C 
HETATM    5  N7  UNL     1     -35.087   4.603   4.252  1.00 20.00    -0.268 NA
HETATM    6  O9  UNL     1     -33.993   6.398   5.157  1.00 20.00    -0.323 OA
ENDROOT
BRANCH   3   7
HETATM    7  C2  UNL     1     -32.511   6.452   3.348  1.00 20.00     0.153 C 
HETATM    8  C6  UNL     1     -31.595   7.621   3.591  1.00 20.00     0.093 C 
HETATM    9  O8  UNL     1     -32.105   5.411   2.834  1.00 20.00    -0.295 OA
ENDBRANCH   3   7
TORSDOF 1
ENDMDL
MODEL 4
REMARK VINA RESULT:      -3.8      1.577      2.169
REMARK  1 active torsions:
REMARK  status: ('A' for Active; 'I' for Inactive)
REMARK    1  A    between atoms: C2_2  and  C4_4 
ROOT
HETATM    1  C1  UNL     1     -33.638  16.551  -4.571  1.00 20.00     0.131 C 
HETATM    2  C3  UNL     1     -32.891  14.742  -3.632  1.00 20.00     0.191 C 
HETATM    3  C4  UNL     1     -34.345  14.944  -3.260  1.00 20.00     0.219 C 
HETATM    4  C5  UNL     1     -33.825  17.799  -5.352  1.00 20.00     0.099 C 
HETATM    5  N7  UNL     1     -32.595  15.789  -4.621  1.00 20.00    -0.268 NA
HETATM    6  O9  UNL     1     -34.674  16.224  -3.767  1.00 20.00    -0.323 OA
ENDROOT
BRANCH   3   7
HETATM    7  C2  UNL     1     -35.253  13.963  -3.932  1.00 20.00     0.153 C 
HETATM    8  C6  UNL     1     -36.665  14.416  -4.193  1.00 20.00     0.093 C 
HETATM    9  O8  UNL     1     -34.866  12.841  -4.254  1.00 20.00    -0.295 OA
ENDBRANCH   3   7
TORSDOF 1
ENDMDL
MODEL 5
REMARK VINA RESULT:      -3.8      2.789      3.349
REMARK  1 active torsions:
REMARK  status: ('A' for Active; 'I' for Inactive)
REMARK    1  A    between atoms: C2_2  and  C4_4 
ROOT
HETATM    1  C1  UNL     1     -38.117  14.955  -4.406  1.00 20.00     0.131 C 
HETATM    2  C3  UNL     1     -36.246  16.057  -4.423  1.00 20.00     0.191 C 
HETATM    3  C4  UNL     1     -36.031  14.699  -3.788  1.00 20.00     0.219 C 
HETATM    4  C5  UNL     1     -39.517  14.489  -4.565  1.00 20.00     0.099 C 
HETATM    5  N7  UNL     1     -37.628  16.035  -4.923  1.00 20.00    -0.268 NA
HETATM    6  O9  UNL     1     -37.328  14.147  -3.665  1.00 20.00    -0.323 OA
ENDROOT
BRANCH   3   7
HETATM    7  C2  UNL     1     -35.245  13.772  -4.661  1.00 20.00     0.153 C 
HETATM    8  C6  UNL     1     -34.612  14.372  -5.888  1.00 20.00     0.093 C 
HETATM    9  O8  UNL     1     -35.121  12.579  -4.389  1.00 20.00    -0.295 OA
ENDBRANCH   3   7
TORSDOF 1
ENDMDL
MODEL 6
REMARK VINA RESULT:      -3.7      1.948      3.619
REMARK  1 active torsions:
REMARK  status: ('A' for Active; 'I' for Inactive)
REMARK    1  A    between atoms: C2_2  and  C4_4 
ROOT
HETATM    1  C1  UNL     1     -34.618  14.269  -5.597  1.00 20.00     0.131 C 
HETATM    2  C3  UNL     1     -33.798  13.589  -3.705  1.00 20.00     0.191 C 
HETATM    3  C4  UNL     1     -33.907  15.100  -3.699  1.00 20.00     0.219 C 
HETATM    4  C5  UNL     1     -35.198  14.387  -6.957  1.00 20.00     0.099 C 
HETATM    5  N7  UNL     1     -34.443  13.160  -4.954  1.00 20.00    -0.268 NA
HETATM    6  O9  UNL     1     -34.274  15.442  -5.022  1.00 20.00    -0.323 OA
ENDROOT
BRANCH   3   7
HETATM    7  C2  UNL     1     -34.996  15.596  -2.802  1.00 20.00     0.153 C 
HETATM    8  C6  UNL     1     -34.568  16.314  -1.550  1.00 20.00     0.093 C 
HETATM    9  O8  UNL     1     -36.184  15.427  -3.074  1.00 20.00    -0.295 OA
ENDBRANCH   3   7
TORSDOF 1
ENDMDL
MODEL 7
REMARK VINA RESULT:      -3.7      2.558      3.539
REMARK  1 active torsions:
REMARK  status: ('A' for Active; 'I' for Inactive)
REMARK    1  A    between atoms: C2_2  and  C4_4 
ROOT
HETATM    1  C1  UNL     1     -34.674  14.896  -5.682  1.00 20.00     0.131 C 
HETATM    2  C3  UNL     1     -35.251  13.381  -4.236  1.00 20.00     0.191 C 
HETATM    3  C4  UNL     1     -35.557  14.757  -3.682  1.00 20.00     0.219 C 
HETATM    4  C5  UNL     1     -34.197  15.649  -6.867  1.00 20.00     0.099 C 
HETATM    5  N7  UNL     1     -34.814  13.612  -5.621  1.00 20.00    -0.268 NA
HETATM    6  O9  UNL     1     -34.985  15.658  -4.610  1.00 20.00    -0.323 OA
ENDROOT
BRANCH   3   7
HETATM    7  C2  UNL     1     -37.024  15.048  -3.640  1.00 20.00     0.153 C 
HETATM    8  C6  UNL     1     -37.424  16.490  -3.481  1.00 20.00     0.093 C 
HETATM    9  O8  UNL     1     -37.863  14.152  -3.731  1.00 20.00    -0.295 OA
ENDBRANCH   3   7
TORSDOF 1
ENDMDL
MODEL 8
REMARK VINA RESULT:      -3.6      2.178      2.675
REMARK  1 active torsions:
REMARK  status: ('A' for Active; 'I' for Inactive)
REMARK    1  A    between atoms: C2_2  and  C4_4 
ROOT
HETATM    1  C1  UNL     1     -34.920  16.521  -5.409  1.00 20.00     0.131 C 
HETATM    2  C3  UNL     1     -35.911  14.751  -6.184  1.00 20.00     0.191 C 
HETATM    3  C4  UNL     1     -34.474  14.420  -5.841  1.00 20.00     0.219 C 
HETATM    4  C5  UNL     1     -34.563  17.875  -4.919  1.00 20.00     0.099 C 
HETATM    5  N7  UNL     1     -36.115  16.127  -5.708  1.00 20.00    -0.268 NA
HETATM    6  O9  UNL     1     -33.881  15.665  -5.522  1.00 20.00    -0.323 OA
ENDROOT
BRANCH   3   7
HETATM    7  C2  UNL     1     -34.355  13.557  -4.624  1.00 20.00     0.153 C 
HETATM    8  C6  UNL     1     -33.215  13.858  -3.690  1.00 20.00     0.093 C 
HETATM    9  O8  UNL     1     -35.151  12.647  -4.399  1.00 20.00    -0.295 OA
ENDBRANCH   3   7
TORSDOF 1
ENDMDL
MODEL 9
REMARK VINA RESULT:      -3.6      1.711      2.059
REMARK  1 active torsions:
REMARK  status: ('A' for Active; 'I' for Inactive)
REMARK    1  A    between atoms: C2_2  and  C4_4 
ROOT
HETATM    1  C1  UNL     1     -34.558  15.115  -2.979  1.00 20.00     0.131 C 
HETATM    2  C3  UNL     1     -34.061  13.580  -4.433  1.00 20.00     0.191 C 
HETATM    3  C4  UNL     1     -35.534  13.920  -4.535  1.00 20.00     0.219 C 
HETATM    4  C5  UNL     1     -34.551  16.150  -1.916  1.00 20.00     0.099 C 
HETATM    5  N7  UNL     1     -33.507  14.548  -3.475  1.00 20.00    -0.268 NA
HETATM    6  O9  UNL     1     -35.784  14.782  -3.441  1.00 20.00    -0.323 OA
ENDROOT
BRANCH   3   7
HETATM    7  C2  UNL     1     -35.864  14.686  -5.777  1.00 20.00     0.153 C 
HETATM    8  C6  UNL     1     -34.827  14.686  -6.868  1.00 20.00     0.093 C 
HETATM    9  O8  UNL     1     -36.930  15.286  -5.901  1.00 20.00    -0.295 OA
ENDBRANCH   3   7
TORSDOF 1
ENDMDL
