MODEL 1
REMARK VINA RESULT:      -4.5      0.000      0.000
REMARK  1 active torsions:
REMARK  status: ('A' for Active; 'I' for Inactive)
REMARK    1  A    between atoms: C2_2  and  C3_3 
ROOT
HETATM    1  C1  UNL     1     -35.868  16.106  -2.779  1.00 20.00    -0.015 C 
HETATM    2  C2  UNL     1     -36.134  15.084  -3.596  1.00 20.00    -0.012 C 
HETATM    3  C4  UNL     1     -34.479  16.014  -2.238  1.00 20.00     0.032 C 
HETATM    4  C5  UNL     1     -34.976  14.141  -3.735  1.00 20.00     0.022 C 
HETATM    5  C6  UNL     1     -33.804  15.002  -3.187  1.00 20.00    -0.007 C 
HETATM    6  C8  UNL     1     -34.766  13.577  -5.135  1.00 20.00     0.015 C 
HETATM    7  C9  UNL     1     -32.990  15.738  -4.258  1.00 20.00     0.011 C 
ENDROOT
BRANCH   2   8
HETATM    8  C3  UNL     1     -37.441  14.914  -4.209  1.00 20.00     0.151 C 
HETATM    9  C7  UNL     1     -37.765  15.720  -5.448  1.00 20.00     0.096 C 
HETATM   10  O10 UNL     1     -38.275  14.132  -3.731  1.00 20.00    -0.293 OA
ENDBRANCH   2   8
TORSDOF 1
ENDMDL
MODEL 2
REMARK VINA RESULT:      -4.5     11.828     12.712
REMARK  1 active torsions:
REMARK  status: ('A' for Active; 'I' for Inactive)
REMARK    1  A    between atoms: C2_2  and  C3_3 
ROOT
HETATM    1  C1  UNL     1     -33.149   6.626   5.597  1.00 20.00    -0.015 C 
HETATM    2  C2  UNL     1     -33.336   6.445   4.287  1.00 20.00    -0.012 C 
HETATM    3  C4  UNL     1     -34.356   6.211   6.374  1.00 20.00     0.032 C 
HETATM    4  C5  UNL     1     -34.690   5.885   3.970  1.00 20.00     0.022 C 
HETATM    5  C6  UNL     1     -35.144   5.357   5.359  1.00 20.00    -0.007 C 
HETATM    6  C8  UNL     1     -34.719   4.858   2.846  1.00 20.00     0.015 C 
HETATM    7  C9  UNL     1     -34.877   3.866   5.600  1.00 20.00     0.011 C 
ENDROOT
BRANCH   2   8
HETATM    8  C3  UNL     1     -32.329   6.825   3.311  1.00 20.00     0.151 C 
HETATM    9  C7  UNL     1     -32.439   8.183   2.654  1.00 20.00     0.096 C 
HETATM   10  O10 UNL     1     -31.402   6.057   3.015  1.00 20.00    -0.293 OA
ENDBRANCH   2   8
TORSDOF 1
ENDMDL
MODEL 3
REMARK VINA RESULT:      -4.5      2.348      3.115
REMARK  1 active torsions:
REMARK  status: ('A' for Active; 'I' for Inactive)
REMARK    1  A    between atoms: C2_2  and  C3_3 
ROOT
HETATM    1  C1  UNL     1     -34.530  15.704  -2.119  1.00 20.00    -0.015 C 
HETATM    2  C2  UNL     1     -34.018  15.316  -3.289  1.00 20.00    -0.012 C 
HETATM    3  C4  UNL     1     -34.266  17.154  -1.873  1.00 20.00     0.032 C 
HETATM    4  C5  UNL     1     -33.328  16.431  -4.016  1.00 20.00     0.022 C 
HETATM    5  C6  UNL     1     -33.880  17.678  -3.272  1.00 20.00    -0.007 C 
HETATM    6  C8  UNL     1     -33.525  16.439  -5.527  1.00 20.00     0.015 C 
HETATM    7  C9  UNL     1     -35.088  18.345  -3.941  1.00 20.00     0.011 C 
ENDROOT
BRANCH   2   8
HETATM    8  C3  UNL     1     -34.092  13.934  -3.736  1.00 20.00     0.151 C 
HETATM    9  C7  UNL     1     -35.402  13.429  -4.298  1.00 20.00     0.096 C 
HETATM   10  O10 UNL     1     -33.110  13.183  -3.657  1.00 20.00    -0.293 OA
ENDBRANCH   2   8
TORSDOF 1
ENDMDL
MODEL 4
REMARK VINA RESULT:      -4.5      2.146      3.662
REMARK  1 active torsions:
REMARK  status: ('A' for Active; 'I' for Inactive)
REMARK    1  A    between atoms: C2_2  and  C3_3 
ROOT
HETATM    1  C1  UNL     1     -33.244  14.686  -3.418  1.00 20.00    -0.015 C 
HETATM    2  C2  UNL     1     -34.303  15.402  -3.032  1.00 20.00    -0.012 C 
HETATM    3  C4  UNL     1     -33.668  13.446  -4.135  1.00 20.00     0.032 C 
HETATM    4  C5  UNL     1     -35.603  14.763  -3.418  1.00 20.00     0.022 C 
HETATM    5  C6  UNL     1     -35.141  13.736  -4.488  1.00 20.00    -0.007 C 
HETATM    6  C8  UNL     1     -36.689  15.730  -3.875  1.00 20.00     0.015 C 
HETATM    7  C9  UNL     1     -35.253  14.222  -5.939  1.00 20.00     0.011 C 
ENDROOT
BRANCH   2   8
HETATM    8  C3  UNL     1     -34.159  16.628  -2.265  1.00 20.00     0.151 C 
HETATM    9  C7  UNL     1     -34.630  16.638  -0.827  1.00 20.00     0.096 C 
HETATM   10  O10 UNL     1     -33.668  17.647  -2.772  1.00 20.00    -0.293 OA
ENDBRANCH   2   8
TORSDOF 1
ENDMDL
MODEL 5
REMARK VINA RESULT:      -4.4      1.597      2.423
REMARK  1 active torsions:
REMARK  status: ('A' for Active; 'I' for Inactive)
REMARK    1  A    between atoms: C2_2  and  C3_3 
ROOT
HETATM    1  C1  UNL     1     -36.143  15.382  -3.745  1.00 20.00    -0.015 C 
HETATM    2  C2  UNL     1     -35.049  14.662  -4.009  1.00 20.00    -0.012 C 
HETATM    3  C4  UNL     1     -35.943  16.234  -2.534  1.00 20.00     0.032 C 
HETATM    4  C5  UNL     1     -33.946  14.907  -3.025  1.00 20.00     0.022 C 
HETATM    5  C6  UNL     1     -34.411  16.229  -2.354  1.00 20.00    -0.007 C 
HETATM    6  C8  UNL     1     -32.543  14.941  -3.620  1.00 20.00     0.015 C 
HETATM    7  C9  UNL     1     -33.802  17.503  -2.951  1.00 20.00     0.011 C 
ENDROOT
BRANCH   2   8
HETATM    8  C3  UNL     1     -35.007  13.710  -5.107  1.00 20.00     0.151 C 
HETATM    9  C7  UNL     1     -35.165  14.231  -6.519  1.00 20.00     0.096 C 
HETATM   10  O10 UNL     1     -34.851  12.499  -4.898  1.00 20.00    -0.293 OA
ENDBRANCH   2   8
TORSDOF 1
ENDMDL
MODEL 6
REMARK VINA RESULT:      -4.3      2.304      3.124
REMARK  1 active torsions:
REMARK  status: ('A' for Active; 'I' for Inactive)
REMARK    1  A    between atoms: C2_2  and  C3_3 
ROOT
HETATM    1  C1  UNL     1     -34.432  13.679  -4.823  1.00 20.00    -0.015 C 
HETATM    2  C2  UNL     1     -34.413  14.767  -5.597  1.00 20.00    -0.012 C 
HETATM    3  C4  UNL     1     -33.444  13.795  -3.710  1.00 20.00     0.032 C 
HETATM    4  C5  UNL     1     -33.413  15.785  -5.136  1.00 20.00     0.022 C 
HETATM    5  C6  UNL     1     -33.122  15.304  -3.688  1.00 20.00    -0.007 C 
HETATM    6  C8  UNL     1     -33.863  17.235  -5.259  1.00 20.00     0.015 C 
HETATM    7  C9  UNL     1     -33.942  16.006  -2.599  1.00 20.00     0.011 C 
ENDROOT
BRANCH   2   8
HETATM    8  C3  UNL     1     -35.246  14.877  -6.784  1.00 20.00     0.151 C 
HETATM    9  C7  UNL     1     -36.720  15.165  -6.605  1.00 20.00     0.096 C 
HETATM   10  O10 UNL     1     -34.766  14.735  -7.917  1.00 20.00    -0.293 OA
ENDBRANCH   2   8
TORSDOF 1
ENDMDL
MODEL 7
REMARK VINA RESULT:      -4.2      2.492      4.057
REMARK  1 active torsions:
REMARK  status: ('A' for Active; 'I' for Inactive)
REMARK    1  A    between atoms: C2_2  and  C3_3 
ROOT
HETATM    1  C1  UNL     1     -33.720  16.374  -5.775  1.00 20.00    -0.015 C 
HETATM    2  C2  UNL     1     -33.774  15.336  -4.936  1.00 20.00    -0.012 C 
HETATM    3  C4  UNL     1     -34.426  16.065  -7.055  1.00 20.00     0.032 C 
HETATM    4  C5  UNL     1     -34.515  14.166  -5.512  1.00 20.00     0.022 C 
HETATM    5  C6  UNL     1     -35.275  14.829  -6.694  1.00 20.00    -0.007 C 
HETATM    6  C8  UNL     1     -35.390  13.405  -4.524  1.00 20.00     0.015 C 
HETATM    7  C9  UNL     1     -36.716  15.248  -6.379  1.00 20.00     0.011 C 
ENDROOT
BRANCH   2   8
HETATM    8  C3  UNL     1     -33.113  15.363  -3.642  1.00 20.00     0.151 C 
HETATM    9  C7  UNL     1     -33.685  16.253  -2.560  1.00 20.00     0.096 C 
HETATM   10  O10 UNL     1     -32.102  14.680  -3.424  1.00 20.00    -0.293 OA
ENDBRANCH   2   8
TORSDOF 1
ENDMDL
MODEL 8
REMARK VINA RESULT:      -4.1      2.321      3.043
REMARK  1 active torsions:
REMARK  status: ('A' for Active; 'I' for Inactive)
REMARK    1  A    between atoms: C2_2  and  C3_3 
ROOT
HETATM    1  C1  UNL     1     -34.249  16.006  -4.546  1.00 20.00    -0.015 C 
HETATM    2  C2  UNL     1     -34.786  14.957  -5.173  1.00 20.00    -0.012 C 
HETATM    3  C4  UNL     1     -33.455  16.848  -5.491  1.00 20.00     0.032 C 
HETATM    4  C5  UNL     1     -34.441  14.918  -6.632  1.00 20.00     0.022 C 
HETATM    5  C6  UNL     1     -33.944  16.370  -6.874  1.00 20.00    -0.007 C 
HETATM    6  C8  UNL     1     -35.565  14.457  -7.551  1.00 20.00     0.015 C 
HETATM    7  C9  UNL     1     -35.006  17.331  -7.423  1.00 20.00     0.011 C 
ENDROOT
BRANCH   2   8
HETATM    8  C3  UNL     1     -35.561  13.954  -4.461  1.00 20.00     0.151 C 
HETATM    9  C7  UNL     1     -36.904  14.351  -3.892  1.00 20.00     0.096 C 
HETATM   10  O10 UNL     1     -35.133  12.799  -4.316  1.00 20.00    -0.293 OA
ENDBRANCH   2   8
TORSDOF 1
ENDMDL
MODEL 9
REMARK VINA RESULT:      -4.0      1.736      2.844
REMARK  1 active torsions:
REMARK  status: ('A' for Active; 'I' for Inactive)
REMARK    1  A    between atoms: C2_2  and  C3_3 
ROOT
HETATM    1  C1  UNL     1     -33.481  15.716  -4.604  1.00 20.00    -0.015 C 
HETATM    2  C2  UNL     1     -34.695  15.185  -4.773  1.00 20.00    -0.012 C 
HETATM    3  C4  UNL     1     -33.543  16.933  -3.741  1.00 20.00     0.032 C 
HETATM    4  C5  UNL     1     -35.765  15.955  -4.059  1.00 20.00     0.022 C 
HETATM    5  C6  UNL     1     -34.927  16.813  -3.071  1.00 20.00    -0.007 C 
HETATM    6  C8  UNL     1     -36.855  15.105  -3.417  1.00 20.00     0.015 C 
HETATM    7  C9  UNL     1     -34.786  16.220  -1.664  1.00 20.00     0.011 C 
ENDROOT
BRANCH   2   8
HETATM    8  C3  UNL     1     -34.911  14.024  -5.620  1.00 20.00     0.151 C 
HETATM    9  C7  UNL     1     -35.268  14.248  -7.072  1.00 20.00     0.096 C 
HETATM   10  O10 UNL     1     -34.812  12.874  -5.167  1.00 20.00    -0.293 OA
ENDBRANCH   2   8
TORSDOF 1
ENDMDL
