MODEL 1
REMARK VINA RESULT:      -5.8      0.000      0.000
REMARK  1 active torsions:
REMARK  status: ('A' for Active; 'I' for Inactive)
REMARK    1  A    between atoms: C5_5  and  C7_7 
ROOT
HETATM    1  C1  UNL     1     -35.356   4.394   4.235  1.00 20.00    -0.026 A 
HETATM    2  C2  UNL     1     -34.942   5.497   3.596  1.00 20.00    -0.013 A 
HETATM    3  C3  UNL     1     -34.284   5.223   6.356  1.00 20.00    -0.019 A 
HETATM    4  C4  UNL     1     -33.861   6.338   5.730  1.00 20.00    -0.071 A 
HETATM    5  C6  UNL     1     -35.040   4.119   5.674  1.00 20.00     0.054 A 
HETATM    6  C7  UNL     1     -34.110   6.560   4.256  1.00 20.00     0.123 A 
HETATM    7  C8  UNL     1     -33.159   7.436   6.477  1.00 20.00     0.044 C 
ENDROOT
BRANCH   6   8
HETATM    8  C5  UNL     1     -32.787   6.540   3.550  1.00 20.00     0.230 C 
HETATM    9  O9  UNL     1     -32.052   5.558   3.584  1.00 20.00    -0.279 OA
HETATM   10 CL10 UNL     1     -32.468   8.033   2.720  1.00 20.00    -0.043 Cl
ENDBRANCH   6   8
TORSDOF 1
ENDMDL
MODEL 2
REMARK VINA RESULT:      -4.7     11.901     13.301
REMARK  1 active torsions:
REMARK  status: ('A' for Active; 'I' for Inactive)
REMARK    1  A    between atoms: C5_5  and  C7_7 
ROOT
HETATM    1  C1  UNL     1     -34.537  16.594  -2.640  1.00 20.00    -0.026 A 
HETATM    2  C2  UNL     1     -35.208  15.489  -2.994  1.00 20.00    -0.013 A 
HETATM    3  C3  UNL     1     -33.667  16.818  -4.990  1.00 20.00    -0.019 A 
HETATM    4  C4  UNL     1     -34.335  15.711  -5.365  1.00 20.00    -0.071 A 
HETATM    5  C6  UNL     1     -33.664  17.357  -3.589  1.00 20.00     0.054 A 
HETATM    6  C7  UNL     1     -35.140  14.901  -4.375  1.00 20.00     0.123 A 
HETATM    7  C8  UNL     1     -34.348  15.250  -6.795  1.00 20.00     0.044 C 
ENDROOT
BRANCH   6   8
HETATM    8  C5  UNL     1     -34.479  13.563  -4.216  1.00 20.00     0.230 C 
HETATM    9  O9  UNL     1     -35.051  12.521  -4.521  1.00 20.00    -0.279 OA
HETATM   10 CL10 UNL     1     -32.871  13.702  -3.574  1.00 20.00    -0.043 Cl
ENDBRANCH   6   8
TORSDOF 1
ENDMDL
MODEL 3
REMARK VINA RESULT:      -4.6     11.876     13.131
REMARK  1 active torsions:
REMARK  status: ('A' for Active; 'I' for Inactive)
REMARK    1  A    between atoms: C5_5  and  C7_7 
ROOT
HETATM    1  C1  UNL     1     -34.691  13.267  -4.779  1.00 20.00    -0.026 A 
HETATM    2  C2  UNL     1     -34.371  13.817  -3.599  1.00 20.00    -0.013 A 
HETATM    3  C3  UNL     1     -34.316  15.483  -5.911  1.00 20.00    -0.019 A 
HETATM    4  C4  UNL     1     -33.990  16.052  -4.735  1.00 20.00    -0.071 A 
HETATM    5  C6  UNL     1     -34.735  14.049  -6.057  1.00 20.00     0.054 A 
HETATM    6  C7  UNL     1     -34.038  15.273  -3.441  1.00 20.00     0.123 A 
HETATM    7  C8  UNL     1     -33.523  17.477  -4.658  1.00 20.00     0.044 C 
ENDROOT
BRANCH   6   8
HETATM    8  C5  UNL     1     -35.126  15.851  -2.586  1.00 20.00     0.230 C 
HETATM    9  O9  UNL     1     -36.294  15.882  -2.962  1.00 20.00    -0.279 OA
HETATM   10 CL10 UNL     1     -34.522  16.437  -1.066  1.00 20.00    -0.043 Cl
ENDBRANCH   6   8
TORSDOF 1
ENDMDL
MODEL 4
REMARK VINA RESULT:      -4.4     12.321     13.488
REMARK  1 active torsions:
REMARK  status: ('A' for Active; 'I' for Inactive)
REMARK    1  A    between atoms: C5_5  and  C7_7 
ROOT
HETATM    1  C1  UNL     1     -35.492  14.863  -7.511  1.00 20.00    -0.026 A 
HETATM    2  C2  UNL     1     -34.455  14.779  -6.666  1.00 20.00    -0.013 A 
HETATM    3  C3  UNL     1     -37.025  15.354  -5.576  1.00 20.00    -0.019 A 
HETATM    4  C4  UNL     1     -35.995  15.275  -4.714  1.00 20.00    -0.071 A 
HETATM    5  C6  UNL     1     -36.896  15.122  -7.054  1.00 20.00     0.054 A 
HETATM    6  C7  UNL     1     -34.601  14.924  -5.178  1.00 20.00     0.123 A 
HETATM    7  C8  UNL     1     -36.173  15.574  -3.252  1.00 20.00     0.044 C 
ENDROOT
BRANCH   6   8
HETATM    8  C5  UNL     1     -34.236  13.589  -4.600  1.00 20.00     0.230 C 
HETATM    9  O9  UNL     1     -34.868  12.573  -4.875  1.00 20.00    -0.279 OA
HETATM   10 CL10 UNL     1     -32.861  13.688  -3.543  1.00 20.00    -0.043 Cl
ENDBRANCH   6   8
TORSDOF 1
ENDMDL
MODEL 5
REMARK VINA RESULT:      -4.3     12.357     13.655
REMARK  1 active torsions:
REMARK  status: ('A' for Active; 'I' for Inactive)
REMARK    1  A    between atoms: C5_5  and  C7_7 
ROOT
HETATM    1  C1  UNL     1     -33.442  13.685  -3.752  1.00 20.00    -0.026 A 
HETATM    2  C2  UNL     1     -32.909  14.909  -3.625  1.00 20.00    -0.013 A 
HETATM    3  C3  UNL     1     -34.681  14.441  -5.808  1.00 20.00    -0.019 A 
HETATM    4  C4  UNL     1     -34.154  15.675  -5.697  1.00 20.00    -0.071 A 
HETATM    5  C6  UNL     1     -34.416  13.329  -4.835  1.00 20.00     0.054 A 
HETATM    6  C7  UNL     1     -33.245  16.045  -4.548  1.00 20.00     0.123 A 
HETATM    7  C8  UNL     1     -34.410  16.732  -6.734  1.00 20.00     0.044 C 
ENDROOT
BRANCH   6   8
HETATM    8  C5  UNL     1     -33.949  17.064  -3.702  1.00 20.00     0.230 C 
HETATM    9  O9  UNL     1     -33.590  18.238  -3.673  1.00 20.00    -0.279 OA
HETATM   10 CL10 UNL     1     -35.277  16.374  -2.819  1.00 20.00    -0.043 Cl
ENDBRANCH   6   8
TORSDOF 1
ENDMDL
MODEL 6
REMARK VINA RESULT:      -4.3     12.128     13.061
REMARK  1 active torsions:
REMARK  status: ('A' for Active; 'I' for Inactive)
REMARK    1  A    between atoms: C5_5  and  C7_7 
ROOT
HETATM    1  C1  UNL     1     -33.707  16.577  -3.182  1.00 20.00    -0.026 A 
HETATM    2  C2  UNL     1     -33.773  15.239  -3.189  1.00 20.00    -0.013 A 
HETATM    3  C3  UNL     1     -36.165  16.699  -3.708  1.00 20.00    -0.019 A 
HETATM    4  C4  UNL     1     -36.250  15.356  -3.717  1.00 20.00    -0.071 A 
HETATM    5  C6  UNL     1     -34.887  17.453  -3.478  1.00 20.00     0.054 A 
HETATM    6  C7  UNL     1     -35.034  14.485  -3.507  1.00 20.00     0.123 A 
HETATM    7  C8  UNL     1     -37.568  14.656  -3.896  1.00 20.00     0.044 C 
ENDROOT
BRANCH   6   8
HETATM    8  C5  UNL     1     -34.758  13.747  -4.783  1.00 20.00     0.230 C 
HETATM    9  O9  UNL     1     -34.813  12.523  -4.846  1.00 20.00    -0.279 OA
HETATM   10 CL10 UNL     1     -34.371  14.825  -6.090  1.00 20.00    -0.043 Cl
ENDBRANCH   6   8
TORSDOF 1
ENDMDL
MODEL 7
REMARK VINA RESULT:      -4.3     11.981     12.915
REMARK  1 active torsions:
REMARK  status: ('A' for Active; 'I' for Inactive)
REMARK    1  A    between atoms: C5_5  and  C7_7 
ROOT
HETATM    1  C1  UNL     1     -32.835  15.165  -3.825  1.00 20.00    -0.026 A 
HETATM    2  C2  UNL     1     -33.619  16.250  -3.882  1.00 20.00    -0.013 A 
HETATM    3  C3  UNL     1     -34.877  13.693  -3.818  1.00 20.00    -0.019 A 
HETATM    4  C4  UNL     1     -35.680  14.772  -3.877  1.00 20.00    -0.071 A 
HETATM    5  C6  UNL     1     -33.379  13.770  -3.748  1.00 20.00     0.054 A 
HETATM    6  C7  UNL     1     -35.120  16.176  -3.862  1.00 20.00     0.123 A 
HETATM    7  C8  UNL     1     -37.170  14.633  -4.003  1.00 20.00     0.044 C 
ENDROOT
BRANCH   6   8
HETATM    8  C5  UNL     1     -35.545  16.837  -2.585  1.00 20.00     0.230 C 
HETATM    9  O9  UNL     1     -36.435  17.682  -2.560  1.00 20.00    -0.279 OA
HETATM   10 CL10 UNL     1     -34.641  16.259  -1.218  1.00 20.00    -0.043 Cl
ENDBRANCH   6   8
TORSDOF 1
ENDMDL
MODEL 8
REMARK VINA RESULT:      -4.2     12.311     13.352
REMARK  1 active torsions:
REMARK  status: ('A' for Active; 'I' for Inactive)
REMARK    1  A    between atoms: C5_5  and  C7_7 
ROOT
HETATM    1  C1  UNL     1     -35.047  14.101  -5.896  1.00 20.00    -0.026 A 
HETATM    2  C2  UNL     1     -35.257  15.419  -5.781  1.00 20.00    -0.013 A 
HETATM    3  C3  UNL     1     -34.455  13.983  -3.453  1.00 20.00    -0.019 A 
HETATM    4  C4  UNL     1     -34.663  15.306  -3.318  1.00 20.00    -0.071 A 
HETATM    5  C6  UNL     1     -34.587  13.246  -4.754  1.00 20.00     0.054 A 
HETATM    6  C7  UNL     1     -35.040  16.171  -4.498  1.00 20.00     0.123 A 
HETATM    7  C8  UNL     1     -34.573  15.980  -1.978  1.00 20.00     0.044 C 
ENDROOT
BRANCH   6   8
HETATM    8  C5  UNL     1     -33.907  17.117  -4.767  1.00 20.00     0.230 C 
HETATM    9  O9  UNL     1     -32.793  16.715  -5.090  1.00 20.00    -0.279 OA
HETATM   10 CL10 UNL     1     -34.379  18.777  -4.564  1.00 20.00    -0.043 Cl
ENDBRANCH   6   8
TORSDOF 1
ENDMDL
MODEL 9
REMARK VINA RESULT:      -4.2     12.465     12.839
REMARK  1 active torsions:
REMARK  status: ('A' for Active; 'I' for Inactive)
REMARK    1  A    between atoms: C5_5  and  C7_7 
ROOT
HETATM    1  C1  UNL     1     -35.193  13.468  -4.500  1.00 20.00    -0.026 A 
HETATM    2  C2  UNL     1     -36.189  14.242  -4.048  1.00 20.00    -0.013 A 
HETATM    3  C3  UNL     1     -33.547  14.792  -3.133  1.00 20.00    -0.019 A 
HETATM    4  C4  UNL     1     -34.535  15.579  -2.667  1.00 20.00    -0.071 A 
HETATM    5  C6  UNL     1     -33.758  13.683  -4.121  1.00 20.00     0.054 A 
HETATM    6  C7  UNL     1     -35.964  15.408  -3.128  1.00 20.00     0.123 A 
HETATM    7  C8  UNL     1     -34.273  16.637  -1.634  1.00 20.00     0.044 C 
ENDROOT
BRANCH   6   8
HETATM    8  C5  UNL     1     -36.354  16.627  -3.910  1.00 20.00     0.230 C 
HETATM    9  O9  UNL     1     -37.337  17.298  -3.611  1.00 20.00    -0.279 OA
HETATM   10 CL10 UNL     1     -35.265  16.932  -5.229  1.00 20.00    -0.043 Cl
ENDBRANCH   6   8
TORSDOF 1
ENDMDL
