MODEL 1
REMARK VINA RESULT:      -5.1      0.000      0.000
REMARK  1 active torsions:
REMARK  status: ('A' for Active; 'I' for Inactive)
REMARK    1  A    between atoms: C1_1  and  C8_8 
ROOT
HETATM    1  C2  UNL     1     -34.078  17.319  -2.754  1.00 20.00     0.005 C 
HETATM    2  C3  UNL     1     -34.425  16.058  -1.947  1.00 20.00     0.006 C 
HETATM    3  C4  UNL     1     -32.965  15.437  -3.694  1.00 20.00     0.010 C 
HETATM    4  C5  UNL     1     -34.865  16.255  -4.887  1.00 20.00     0.023 C 
HETATM    5  C6  UNL     1     -33.626  16.748  -4.111  1.00 20.00    -0.013 C 
HETATM    6  C7  UNL     1     -34.221  14.929  -2.972  1.00 20.00     0.003 C 
HETATM    7  C8  UNL     1     -35.287  14.990  -4.102  1.00 20.00     0.036 C 
HETATM    8  C9  UNL     1     -36.738  15.055  -3.624  1.00 20.00     0.025 C 
ENDROOT
BRANCH   7   9
HETATM    9  C1  UNL     1     -35.156  13.749  -4.954  1.00 20.00     0.227 C 
HETATM   10  O10 UNL     1     -35.024  12.635  -4.456  1.00 20.00    -0.279 OA
HETATM   11 CL11 UNL     1     -35.218  14.113  -6.652  1.00 20.00    -0.043 Cl
ENDBRANCH   7   9
TORSDOF 1
ENDMDL
MODEL 2
REMARK VINA RESULT:      -4.6      1.603      2.045
REMARK  1 active torsions:
REMARK  status: ('A' for Active; 'I' for Inactive)
REMARK    1  A    between atoms: C1_1  and  C8_8 
ROOT
HETATM    1  C2  UNL     1     -35.096  17.874  -3.254  1.00 20.00     0.005 C 
HETATM    2  C3  UNL     1     -36.303  16.932  -3.381  1.00 20.00     0.006 C 
HETATM    3  C4  UNL     1     -34.703  15.899  -1.985  1.00 20.00     0.010 C 
HETATM    4  C5  UNL     1     -33.526  16.086  -4.055  1.00 20.00     0.023 C 
HETATM    5  C6  UNL     1     -33.958  16.925  -2.834  1.00 20.00    -0.013 C 
HETATM    6  C7  UNL     1     -35.685  15.548  -3.113  1.00 20.00     0.003 C 
HETATM    7  C8  UNL     1     -34.722  15.125  -4.257  1.00 20.00     0.036 C 
HETATM    8  C9  UNL     1     -35.310  15.211  -5.666  1.00 20.00     0.025 C 
ENDROOT
BRANCH   7   9
HETATM    9  C1  UNL     1     -34.312  13.689  -4.035  1.00 20.00     0.227 C 
HETATM   10  O10 UNL     1     -35.086  12.757  -4.234  1.00 20.00    -0.279 OA
HETATM   11 CL11 UNL     1     -32.669  13.556  -3.484  1.00 20.00    -0.043 Cl
ENDBRANCH   7   9
TORSDOF 1
ENDMDL
MODEL 3
REMARK VINA RESULT:      -4.6      2.574      3.776
REMARK  1 active torsions:
REMARK  status: ('A' for Active; 'I' for Inactive)
REMARK    1  A    between atoms: C1_1  and  C8_8 
ROOT
HETATM    1  C2  UNL     1     -35.013  13.744  -5.834  1.00 20.00     0.005 C 
HETATM    2  C3  UNL     1     -34.945  13.305  -4.364  1.00 20.00     0.006 C 
HETATM    3  C4  UNL     1     -36.136  15.340  -4.472  1.00 20.00     0.010 C 
HETATM    4  C5  UNL     1     -33.982  15.967  -5.291  1.00 20.00     0.023 C 
HETATM    5  C6  UNL     1     -35.279  15.257  -5.732  1.00 20.00    -0.013 C 
HETATM    6  C7  UNL     1     -35.085  14.635  -3.603  1.00 20.00     0.003 C 
HETATM    7  C8  UNL     1     -33.838  15.540  -3.810  1.00 20.00     0.036 C 
HETATM    8  C9  UNL     1     -32.494  14.870  -3.523  1.00 20.00     0.025 C 
ENDROOT
BRANCH   7   9
HETATM    9  C1  UNL     1     -33.947  16.729  -2.885  1.00 20.00     0.227 C 
HETATM   10  O10 UNL     1     -33.644  17.861  -3.250  1.00 20.00    -0.279 OA
HETATM   11 CL11 UNL     1     -34.535  16.281  -1.312  1.00 20.00    -0.043 Cl
ENDBRANCH   7   9
TORSDOF 1
ENDMDL
MODEL 4
REMARK VINA RESULT:      -4.6      2.857      3.779
REMARK  1 active torsions:
REMARK  status: ('A' for Active; 'I' for Inactive)
REMARK    1  A    between atoms: C1_1  and  C8_8 
ROOT
HETATM    1  C2  UNL     1     -34.513  14.079  -5.218  1.00 20.00     0.005 C 
HETATM    2  C3  UNL     1     -33.966  15.427  -5.711  1.00 20.00     0.006 C 
HETATM    3  C4  UNL     1     -32.868  14.878  -3.694  1.00 20.00     0.010 C 
HETATM    4  C5  UNL     1     -35.146  15.067  -2.998  1.00 20.00     0.023 C 
HETATM    5  C6  UNL     1     -34.180  14.098  -3.714  1.00 20.00    -0.013 C 
HETATM    6  C7  UNL     1     -33.475  16.092  -4.413  1.00 20.00     0.003 C 
HETATM    7  C8  UNL     1     -34.663  16.457  -3.479  1.00 20.00     0.036 C 
HETATM    8  C9  UNL     1     -35.780  17.269  -4.135  1.00 20.00     0.025 C 
ENDROOT
BRANCH   7   9
HETATM    9  C1  UNL     1     -34.135  17.280  -2.327  1.00 20.00     0.227 C 
HETATM   10  O10 UNL     1     -33.504  18.316  -2.510  1.00 20.00    -0.279 OA
HETATM   11 CL11 UNL     1     -34.532  16.579  -0.787  1.00 20.00    -0.043 Cl
ENDBRANCH   7   9
TORSDOF 1
ENDMDL
MODEL 5
REMARK VINA RESULT:      -4.5      1.813      2.773
REMARK  1 active torsions:
REMARK  status: ('A' for Active; 'I' for Inactive)
REMARK    1  A    between atoms: C1_1  and  C8_8 
ROOT
HETATM    1  C2  UNL     1     -35.823  17.131  -6.265  1.00 20.00     0.005 C 
HETATM    2  C3  UNL     1     -34.485  17.222  -5.516  1.00 20.00     0.006 C 
HETATM    3  C4  UNL     1     -34.497  15.219  -6.765  1.00 20.00     0.010 C 
HETATM    4  C5  UNL     1     -36.317  14.887  -5.254  1.00 20.00     0.023 C 
HETATM    5  C6  UNL     1     -35.954  15.625  -6.560  1.00 20.00    -0.013 C 
HETATM    6  C7  UNL     1     -34.062  15.748  -5.390  1.00 20.00     0.003 C 
HETATM    7  C8  UNL     1     -35.007  14.967  -4.433  1.00 20.00     0.036 C 
HETATM    8  C9  UNL     1     -35.216  15.608  -3.061  1.00 20.00     0.025 C 
ENDROOT
BRANCH   7   9
HETATM    9  C1  UNL     1     -34.425  13.594  -4.197  1.00 20.00     0.227 C 
HETATM   10  O10 UNL     1     -35.053  12.573  -4.460  1.00 20.00    -0.279 OA
HETATM   11 CL11 UNL     1     -32.820  13.669  -3.535  1.00 20.00    -0.043 Cl
ENDBRANCH   7   9
TORSDOF 1
ENDMDL
MODEL 6
REMARK VINA RESULT:      -4.5      1.643      2.611
REMARK  1 active torsions:
REMARK  status: ('A' for Active; 'I' for Inactive)
REMARK    1  A    between atoms: C1_1  and  C8_8 
ROOT
HETATM    1  C2  UNL     1     -32.762  14.891  -3.840  1.00 20.00     0.005 C 
HETATM    2  C3  UNL     1     -33.355  16.079  -4.614  1.00 20.00     0.006 C 
HETATM    3  C4  UNL     1     -34.752  15.633  -2.764  1.00 20.00     0.010 C 
HETATM    4  C5  UNL     1     -34.913  13.609  -4.021  1.00 20.00     0.023 C 
HETATM    5  C6  UNL     1     -33.971  14.353  -3.051  1.00 20.00    -0.013 C 
HETATM    6  C7  UNL     1     -34.848  16.015  -4.248  1.00 20.00     0.003 C 
HETATM    7  C8  UNL     1     -35.528  14.757  -4.859  1.00 20.00     0.036 C 
HETATM    8  C9  UNL     1     -35.312  14.565  -6.360  1.00 20.00     0.025 C 
ENDROOT
BRANCH   7   9
HETATM    9  C1  UNL     1     -37.018  14.859  -4.634  1.00 20.00     0.227 C 
HETATM   10  O10 UNL     1     -37.604  14.125  -3.843  1.00 20.00    -0.279 OA
HETATM   11 CL11 UNL     1     -37.743  16.101  -5.609  1.00 20.00    -0.043 Cl
ENDBRANCH   7   9
TORSDOF 1
ENDMDL
MODEL 7
REMARK VINA RESULT:      -4.5      2.052      3.066
REMARK  1 active torsions:
REMARK  status: ('A' for Active; 'I' for Inactive)
REMARK    1  A    between atoms: C1_1  and  C8_8 
ROOT
HETATM    1  C2  UNL     1     -35.680  15.965  -7.303  1.00 20.00     0.005 C 
HETATM    2  C3  UNL     1     -36.038  16.795  -6.060  1.00 20.00     0.006 C 
HETATM    3  C4  UNL     1     -33.794  16.090  -5.856  1.00 20.00     0.010 C 
HETATM    4  C5  UNL     1     -34.977  14.015  -5.886  1.00 20.00     0.023 C 
HETATM    5  C6  UNL     1     -34.476  15.130  -6.828  1.00 20.00    -0.013 C 
HETATM    6  C7  UNL     1     -35.057  16.263  -5.000  1.00 20.00     0.003 C 
HETATM    7  C8  UNL     1     -35.384  14.794  -4.611  1.00 20.00     0.036 C 
HETATM    8  C9  UNL     1     -36.836  14.536  -4.208  1.00 20.00     0.025 C 
ENDROOT
BRANCH   7   9
HETATM    9  C1  UNL     1     -34.521  14.404  -3.434  1.00 20.00     0.227 C 
HETATM   10  O10 UNL     1     -33.999  13.296  -3.355  1.00 20.00    -0.279 OA
HETATM   11 CL11 UNL     1     -34.383  15.688  -2.272  1.00 20.00    -0.043 Cl
ENDBRANCH   7   9
TORSDOF 1
ENDMDL
MODEL 8
REMARK VINA RESULT:      -4.4      2.260      3.664
REMARK  1 active torsions:
REMARK  status: ('A' for Active; 'I' for Inactive)
REMARK    1  A    between atoms: C1_1  and  C8_8 
ROOT
HETATM    1  C2  UNL     1     -36.507  15.026  -6.372  1.00 20.00     0.005 C 
HETATM    2  C3  UNL     1     -35.117  14.495  -6.758  1.00 20.00     0.006 C 
HETATM    3  C4  UNL     1     -35.602  13.770  -4.564  1.00 20.00     0.010 C 
HETATM    4  C5  UNL     1     -35.587  16.146  -4.322  1.00 20.00     0.023 C 
HETATM    5  C6  UNL     1     -36.476  14.992  -4.833  1.00 20.00    -0.013 C 
HETATM    6  C7  UNL     1     -34.429  14.315  -5.393  1.00 20.00     0.003 C 
HETATM    7  C8  UNL     1     -34.161  15.684  -4.708  1.00 20.00     0.036 C 
HETATM    8  C9  UNL     1     -33.428  16.710  -5.572  1.00 20.00     0.025 C 
ENDROOT
BRANCH   7   9
HETATM    9  C1  UNL     1     -33.312  15.450  -3.481  1.00 20.00     0.227 C 
HETATM   10  O10 UNL     1     -32.299  14.759  -3.519  1.00 20.00    -0.279 OA
HETATM   11 CL11 UNL     1     -33.948  16.260  -2.082  1.00 20.00    -0.043 Cl
ENDBRANCH   7   9
TORSDOF 1
ENDMDL
MODEL 9
REMARK VINA RESULT:      -4.4      2.278      3.545
REMARK  1 active torsions:
REMARK  status: ('A' for Active; 'I' for Inactive)
REMARK    1  A    between atoms: C1_1  and  C8_8 
ROOT
HETATM    1  C2  UNL     1     -34.266  15.293  -7.446  1.00 20.00     0.005 C 
HETATM    2  C3  UNL     1     -35.518  14.420  -7.270  1.00 20.00     0.006 C 
HETATM    3  C4  UNL     1     -35.878  16.463  -6.143  1.00 20.00     0.010 C 
HETATM    4  C5  UNL     1     -34.012  15.553  -4.962  1.00 20.00     0.023 C 
HETATM    5  C6  UNL     1     -34.368  16.286  -6.273  1.00 20.00    -0.013 C 
HETATM    6  C7  UNL     1     -36.130  14.958  -5.965  1.00 20.00     0.003 C 
HETATM    7  C8  UNL     1     -35.232  14.626  -4.739  1.00 20.00     0.036 C 
HETATM    8  C9  UNL     1     -34.833  13.157  -4.606  1.00 20.00     0.025 C 
ENDROOT
BRANCH   7   9
HETATM    9  C1  UNL     1     -35.979  15.000  -3.481  1.00 20.00     0.227 C 
HETATM   10  O10 UNL     1     -37.168  14.734  -3.333  1.00 20.00    -0.279 OA
HETATM   11 CL11 UNL     1     -34.960  15.816  -2.334  1.00 20.00    -0.043 Cl
ENDBRANCH   7   9
TORSDOF 1
ENDMDL
