MODEL 1
REMARK VINA RESULT:      -5.1      0.000      0.000
REMARK  1 active torsions:
REMARK  status: ('A' for Active; 'I' for Inactive)
REMARK    1  A    between atoms: C3_3  and  C8_8 
ROOT
HETATM    1  C1  UNL     1     -34.723  17.902  -4.945  1.00 20.00    -0.025 C 
HETATM    2  C2  UNL     1     -33.597  17.369  -5.443  1.00 20.00    -0.024 C 
HETATM    3  C4  UNL     1     -33.897  16.467  -3.348  1.00 20.00     0.018 C 
HETATM    4  C5  UNL     1     -35.243  16.950  -3.891  1.00 20.00     0.013 C 
HETATM    5  C6  UNL     1     -33.373  16.052  -4.732  1.00 20.00     0.024 C 
HETATM    6  C7  UNL     1     -35.783  15.683  -4.621  1.00 20.00     0.005 C 
HETATM    7  C8  UNL     1     -34.459  15.020  -5.173  1.00 20.00     0.027 C 
HETATM    8  C10 UNL     1     -36.622  14.811  -3.689  1.00 20.00     0.012 C 
HETATM    9  C11 UNL     1     -34.516  14.797  -6.689  1.00 20.00     0.024 C 
ENDROOT
BRANCH   7  10
HETATM   10  C3  UNL     1     -34.154  13.676  -4.555  1.00 20.00     0.132 C 
HETATM   11  C9  UNL     1     -33.017  13.626  -3.571  1.00 20.00     0.091 C 
HETATM   12  O12 UNL     1     -34.806  12.672  -4.840  1.00 20.00    -0.298 OA
ENDBRANCH   7  10
TORSDOF 1
ENDMDL
MODEL 2
REMARK VINA RESULT:      -5.0      1.826      3.598
REMARK  1 active torsions:
REMARK  status: ('A' for Active; 'I' for Inactive)
REMARK    1  A    between atoms: C3_3  and  C8_8 
ROOT
HETATM    1  C1  UNL     1     -33.371  13.668  -3.830  1.00 20.00    -0.025 C 
HETATM    2  C2  UNL     1     -32.756  14.833  -3.581  1.00 20.00    -0.024 C 
HETATM    3  C4  UNL     1     -34.209  15.201  -5.326  1.00 20.00     0.018 C 
HETATM    4  C5  UNL     1     -34.678  13.988  -4.521  1.00 20.00     0.013 C 
HETATM    5  C6  UNL     1     -33.659  15.934  -4.091  1.00 20.00     0.024 C 
HETATM    6  C7  UNL     1     -35.627  14.633  -3.466  1.00 20.00     0.005 C 
HETATM    7  C8  UNL     1     -34.937  16.029  -3.198  1.00 20.00     0.027 C 
HETATM    8  C10 UNL     1     -37.068  14.691  -3.967  1.00 20.00     0.012 C 
HETATM    9  C11 UNL     1     -34.633  16.245  -1.711  1.00 20.00     0.024 C 
ENDROOT
BRANCH   7  10
HETATM   10  C3  UNL     1     -35.771  17.209  -3.639  1.00 20.00     0.132 C 
HETATM   11  C9  UNL     1     -36.651  17.843  -2.596  1.00 20.00     0.091 C 
HETATM   12  O12 UNL     1     -35.730  17.633  -4.793  1.00 20.00    -0.298 OA
ENDBRANCH   7  10
TORSDOF 1
ENDMDL
MODEL 3
REMARK VINA RESULT:      -4.9      1.792      3.504
REMARK  1 active torsions:
REMARK  status: ('A' for Active; 'I' for Inactive)
REMARK    1  A    between atoms: C3_3  and  C8_8 
ROOT
HETATM    1  C1  UNL     1     -33.340  13.751  -3.788  1.00 20.00    -0.025 C 
HETATM    2  C2  UNL     1     -34.507  13.271  -4.242  1.00 20.00    -0.024 C 
HETATM    3  C4  UNL     1     -34.971  15.241  -3.148  1.00 20.00     0.018 C 
HETATM    4  C5  UNL     1     -33.510  15.242  -3.599  1.00 20.00     0.013 C 
HETATM    5  C6  UNL     1     -35.453  14.445  -4.372  1.00 20.00     0.024 C 
HETATM    6  C7  UNL     1     -33.596  15.892  -5.013  1.00 20.00     0.005 C 
HETATM    7  C8  UNL     1     -34.992  15.372  -5.541  1.00 20.00     0.027 C 
HETATM    8  C10 UNL     1     -33.439  17.410  -4.946  1.00 20.00     0.012 C 
HETATM    9  C11 UNL     1     -34.864  14.647  -6.886  1.00 20.00     0.024 C 
ENDROOT
BRANCH   7  10
HETATM   10  C3  UNL     1     -36.009  16.470  -5.742  1.00 20.00     0.132 C 
HETATM   11  C9  UNL     1     -36.121  17.042  -7.130  1.00 20.00     0.091 C 
HETATM   12  O12 UNL     1     -36.715  16.874  -4.819  1.00 20.00    -0.298 OA
ENDBRANCH   7  10
TORSDOF 1
ENDMDL
MODEL 4
REMARK VINA RESULT:      -4.9      0.973      2.343
REMARK  1 active torsions:
REMARK  status: ('A' for Active; 'I' for Inactive)
REMARK    1  A    between atoms: C3_3  and  C8_8 
ROOT
HETATM    1  C1  UNL     1     -33.578  17.644  -5.402  1.00 20.00    -0.025 C 
HETATM    2  C2  UNL     1     -33.737  17.395  -4.093  1.00 20.00    -0.024 C 
HETATM    3  C4  UNL     1     -35.728  16.874  -5.123  1.00 20.00     0.018 C 
HETATM    4  C5  UNL     1     -34.592  16.805  -6.146  1.00 20.00     0.013 C 
HETATM    5  C6  UNL     1     -34.848  16.377  -3.964  1.00 20.00     0.024 C 
HETATM    6  C7  UNL     1     -34.142  15.316  -6.045  1.00 20.00     0.005 C 
HETATM    7  C8  UNL     1     -34.370  14.996  -4.515  1.00 20.00     0.027 C 
HETATM    8  C10 UNL     1     -34.904  14.430  -7.028  1.00 20.00     0.012 C 
HETATM    9  C11 UNL     1     -33.096  14.473  -3.840  1.00 20.00     0.024 C 
ENDROOT
BRANCH   7  10
HETATM   10  C3  UNL     1     -35.440  13.959  -4.268  1.00 20.00     0.132 C 
HETATM   11  C9  UNL     1     -36.822  14.472  -3.963  1.00 20.00     0.091 C 
HETATM   12  O12 UNL     1     -35.196  12.754  -4.316  1.00 20.00    -0.298 OA
ENDBRANCH   7  10
TORSDOF 1
ENDMDL
MODEL 5
REMARK VINA RESULT:      -4.9      1.627      3.071
REMARK  1 active torsions:
REMARK  status: ('A' for Active; 'I' for Inactive)
REMARK    1  A    between atoms: C3_3  and  C8_8 
ROOT
HETATM    1  C1  UNL     1     -33.758  17.153  -1.631  1.00 20.00    -0.025 C 
HETATM    2  C2  UNL     1     -34.692  16.217  -1.404  1.00 20.00    -0.024 C 
HETATM    3  C4  UNL     1     -35.496  17.575  -3.078  1.00 20.00     0.018 C 
HETATM    4  C5  UNL     1     -33.970  17.667  -3.038  1.00 20.00     0.013 C 
HETATM    5  C6  UNL     1     -35.518  16.094  -2.665  1.00 20.00     0.024 C 
HETATM    6  C7  UNL     1     -33.541  16.539  -4.024  1.00 20.00     0.005 C 
HETATM    7  C8  UNL     1     -34.662  15.448  -3.800  1.00 20.00     0.027 C 
HETATM    8  C10 UNL     1     -33.403  17.063  -5.452  1.00 20.00     0.012 C 
HETATM    9  C11 UNL     1     -34.070  14.084  -3.423  1.00 20.00     0.024 C 
ENDROOT
BRANCH   7  10
HETATM   10  C3  UNL     1     -35.530  15.216  -5.014  1.00 20.00     0.132 C 
HETATM   11  C9  UNL     1     -35.071  14.159  -5.982  1.00 20.00     0.091 C 
HETATM   12  O12 UNL     1     -36.564  15.856  -5.201  1.00 20.00    -0.298 OA
ENDBRANCH   7  10
TORSDOF 1
ENDMDL
MODEL 6
REMARK VINA RESULT:      -4.9      1.726      3.013
REMARK  1 active torsions:
REMARK  status: ('A' for Active; 'I' for Inactive)
REMARK    1  A    between atoms: C3_3  and  C8_8 
ROOT
HETATM    1  C1  UNL     1     -34.481  15.084  -7.505  1.00 20.00    -0.025 C 
HETATM    2  C2  UNL     1     -34.579  16.367  -7.129  1.00 20.00    -0.024 C 
HETATM    3  C4  UNL     1     -36.381  15.262  -6.221  1.00 20.00     0.018 C 
HETATM    4  C5  UNL     1     -35.259  14.260  -6.503  1.00 20.00     0.013 C 
HETATM    5  C6  UNL     1     -35.411  16.401  -5.866  1.00 20.00     0.024 C 
HETATM    6  C7  UNL     1     -34.461  14.265  -5.164  1.00 20.00     0.005 C 
HETATM    7  C8  UNL     1     -34.610  15.764  -4.686  1.00 20.00     0.027 C 
HETATM    8  C10 UNL     1     -34.983  13.206  -4.195  1.00 20.00     0.012 C 
HETATM    9  C11 UNL     1     -33.249  16.426  -4.438  1.00 20.00     0.024 C 
ENDROOT
BRANCH   7  10
HETATM   10  C3  UNL     1     -35.397  15.914  -3.406  1.00 20.00     0.132 C 
HETATM   11  C9  UNL     1     -34.604  16.003  -2.130  1.00 20.00     0.091 C 
HETATM   12  O12 UNL     1     -36.626  15.965  -3.406  1.00 20.00    -0.298 OA
ENDBRANCH   7  10
TORSDOF 1
ENDMDL
MODEL 7
REMARK VINA RESULT:      -4.9     11.659     13.055
REMARK  1 active torsions:
REMARK  status: ('A' for Active; 'I' for Inactive)
REMARK    1  A    between atoms: C3_3  and  C8_8 
ROOT
HETATM    1  C1  UNL     1     -43.126   7.725  -0.767  1.00 20.00    -0.025 C 
HETATM    2  C2  UNL     1     -42.476   7.716  -1.940  1.00 20.00    -0.024 C 
HETATM    3  C4  UNL     1     -41.160   6.577  -0.436  1.00 20.00     0.018 C 
HETATM    4  C5  UNL     1     -42.614   6.552   0.040  1.00 20.00     0.013 C 
HETATM    5  C6  UNL     1     -41.541   6.527  -1.925  1.00 20.00     0.024 C 
HETATM    6  C7  UNL     1     -43.159   5.249  -0.619  1.00 20.00     0.005 C 
HETATM    7  C8  UNL     1     -42.365   5.202  -1.984  1.00 20.00     0.027 C 
HETATM    8  C10 UNL     1     -42.978   4.039   0.294  1.00 20.00     0.012 C 
HETATM    9  C11 UNL     1     -43.304   5.117  -3.194  1.00 20.00     0.024 C 
ENDROOT
BRANCH   7  10
HETATM   10  C3  UNL     1     -41.421   4.028  -2.094  1.00 20.00     0.132 C 
HETATM   11  C9  UNL     1     -41.897   2.850  -2.901  1.00 20.00     0.091 C 
HETATM   12  O12 UNL     1     -40.316   4.035  -1.553  1.00 20.00    -0.298 OA
ENDBRANCH   7  10
TORSDOF 1
ENDMDL
MODEL 8
REMARK VINA RESULT:      -4.8      1.220      2.729
REMARK  1 active torsions:
REMARK  status: ('A' for Active; 'I' for Inactive)
REMARK    1  A    between atoms: C3_3  and  C8_8 
ROOT
HETATM    1  C1  UNL     1     -37.004  17.174  -4.388  1.00 20.00    -0.025 C 
HETATM    2  C2  UNL     1     -37.027  16.533  -3.210  1.00 20.00    -0.024 C 
HETATM    3  C4  UNL     1     -37.127  14.925  -4.852  1.00 20.00     0.018 C 
HETATM    4  C5  UNL     1     -36.496  16.196  -5.424  1.00 20.00     0.013 C 
HETATM    5  C6  UNL     1     -36.518  15.130  -3.456  1.00 20.00     0.024 C 
HETATM    6  C7  UNL     1     -34.978  15.966  -5.154  1.00 20.00     0.005 C 
HETATM    7  C8  UNL     1     -34.993  15.169  -3.790  1.00 20.00     0.027 C 
HETATM    8  C10 UNL     1     -34.299  15.261  -6.326  1.00 20.00     0.012 C 
HETATM    9  C11 UNL     1     -34.145  15.855  -2.713  1.00 20.00     0.024 C 
ENDROOT
BRANCH   7  10
HETATM   10  C3  UNL     1     -34.469  13.757  -3.910  1.00 20.00     0.132 C 
HETATM   11  C9  UNL     1     -33.011  13.548  -3.604  1.00 20.00     0.091 C 
HETATM   12  O12 UNL     1     -35.200  12.823  -4.239  1.00 20.00    -0.298 OA
ENDBRANCH   7  10
TORSDOF 1
ENDMDL
MODEL 9
REMARK VINA RESULT:      -4.8      1.929      3.615
REMARK  1 active torsions:
REMARK  status: ('A' for Active; 'I' for Inactive)
REMARK    1  A    between atoms: C3_3  and  C8_8 
ROOT
HETATM    1  C1  UNL     1     -35.433  13.584  -4.160  1.00 20.00    -0.025 C 
HETATM    2  C2  UNL     1     -34.200  13.730  -3.653  1.00 20.00    -0.024 C 
HETATM    3  C4  UNL     1     -34.300  15.017  -5.558  1.00 20.00     0.018 C 
HETATM    4  C5  UNL     1     -35.715  14.797  -5.018  1.00 20.00     0.013 C 
HETATM    5  C6  UNL     1     -33.663  15.051  -4.160  1.00 20.00     0.024 C 
HETATM    6  C7  UNL     1     -35.902  16.017  -4.066  1.00 20.00     0.005 C 
HETATM    7  C8  UNL     1     -34.443  16.230  -3.497  1.00 20.00     0.027 C 
HETATM    8  C10 UNL     1     -36.509  17.213  -4.796  1.00 20.00     0.012 C 
HETATM    9  C11 UNL     1     -34.413  16.203  -1.964  1.00 20.00     0.024 C 
ENDROOT
BRANCH   7  10
HETATM   10  C3  UNL     1     -33.819  17.541  -3.913  1.00 20.00     0.132 C 
HETATM   11  C9  UNL     1     -33.887  18.669  -2.918  1.00 20.00     0.091 C 
HETATM   12  O12 UNL     1     -33.277  17.681  -5.009  1.00 20.00    -0.298 OA
ENDBRANCH   7  10
TORSDOF 1
ENDMDL
