MODEL 1
REMARK VINA RESULT:      -4.8      0.000      0.000
REMARK  1 active torsions:
REMARK  status: ('A' for Active; 'I' for Inactive)
REMARK    1  A    between atoms: C1_1  and  C4_4 
ROOT
HETATM    1  C2  UNL     1     -34.447  13.164  -4.810  1.00 20.00     0.014 C 
HETATM    2  C3  UNL     1     -34.085  13.727  -3.432  1.00 20.00     0.012 C 
HETATM    3  C4  UNL     1     -35.325  14.412  -5.043  1.00 20.00     0.064 C 
HETATM    4  C5  UNL     1     -33.544  16.244  -4.064  1.00 20.00    -0.000 A 
HETATM    5  C6  UNL     1     -34.462  15.054  -4.001  1.00 20.00    -0.019 A 
HETATM    6  C7  UNL     1     -34.783  16.283  -3.175  1.00 20.00    -0.035 A 
HETATM    7  C9  UNL     1     -33.390  17.130  -5.250  1.00 20.00     0.011 C 
HETATM    8  C10 UNL     1     -35.974  17.124  -3.556  1.00 20.00     0.016 C 
HETATM    9  C11 UNL     1     -34.543  16.240  -1.684  1.00 20.00     0.016 C 
ENDROOT
BRANCH   3  10
HETATM   10  C1  UNL     1     -35.325  15.015  -6.444  1.00 20.00     0.128 C 
HETATM   11  C8  UNL     1     -36.516  15.855  -6.819  1.00 20.00     0.091 C 
HETATM   12  O12 UNL     1     -34.398  14.824  -7.229  1.00 20.00    -0.298 OA
ENDBRANCH   3  10
TORSDOF 1
ENDMDL
MODEL 2
REMARK VINA RESULT:      -4.7      1.629      3.622
REMARK  1 active torsions:
REMARK  status: ('A' for Active; 'I' for Inactive)
REMARK    1  A    between atoms: C1_1  and  C4_4 
ROOT
HETATM    1  C2  UNL     1     -33.871  13.734  -3.590  1.00 20.00     0.014 C 
HETATM    2  C3  UNL     1     -34.531  13.285  -4.897  1.00 20.00     0.012 C 
HETATM    3  C4  UNL     1     -33.673  15.130  -4.218  1.00 20.00     0.064 C 
HETATM    4  C5  UNL     1     -36.158  15.330  -5.347  1.00 20.00    -0.000 A 
HETATM    5  C6  UNL     1     -34.793  14.735  -5.131  1.00 20.00    -0.019 A 
HETATM    6  C7  UNL     1     -35.135  15.340  -6.478  1.00 20.00    -0.035 A 
HETATM    7  C9  UNL     1     -36.645  16.581  -4.705  1.00 20.00     0.011 C 
HETATM    8  C10 UNL     1     -34.461  16.624  -6.890  1.00 20.00     0.016 C 
HETATM    9  C11 UNL     1     -35.408  14.417  -7.642  1.00 20.00     0.016 C 
ENDROOT
BRANCH   3  10
HETATM   10  C1  UNL     1     -33.879  16.340  -3.313  1.00 20.00     0.128 C 
HETATM   11  C8  UNL     1     -34.508  16.082  -1.971  1.00 20.00     0.091 C 
HETATM   12  O12 UNL     1     -33.546  17.471  -3.662  1.00 20.00    -0.298 OA
ENDBRANCH   3  10
TORSDOF 1
ENDMDL
MODEL 3
REMARK VINA RESULT:      -4.6      1.807      3.011
REMARK  1 active torsions:
REMARK  status: ('A' for Active; 'I' for Inactive)
REMARK    1  A    between atoms: C1_1  and  C4_4 
ROOT
HETATM    1  C2  UNL     1     -33.537  14.779  -3.474  1.00 20.00     0.014 C 
HETATM    2  C3  UNL     1     -32.955  15.864  -4.386  1.00 20.00     0.012 C 
HETATM    3  C4  UNL     1     -34.948  15.217  -3.923  1.00 20.00     0.064 C 
HETATM    4  C5  UNL     1     -34.376  15.460  -6.588  1.00 20.00    -0.000 A 
HETATM    5  C6  UNL     1     -34.250  15.779  -5.123  1.00 20.00    -0.019 A 
HETATM    6  C7  UNL     1     -34.769  16.841  -6.073  1.00 20.00    -0.035 A 
HETATM    7  C9  UNL     1     -35.370  14.515  -7.164  1.00 20.00     0.011 C 
HETATM    8  C10 UNL     1     -36.219  17.244  -5.990  1.00 20.00     0.016 C 
HETATM    9  C11 UNL     1     -33.859  17.986  -6.451  1.00 20.00     0.016 C 
ENDROOT
BRANCH   3  10
HETATM   10  C1  UNL     1     -35.984  14.120  -4.145  1.00 20.00     0.128 C 
HETATM   11  C8  UNL     1     -37.430  14.530  -4.073  1.00 20.00     0.091 C 
HETATM   12  O12 UNL     1     -35.654  12.958  -4.373  1.00 20.00    -0.298 OA
ENDBRANCH   3  10
TORSDOF 1
ENDMDL
MODEL 4
REMARK VINA RESULT:      -4.6      1.293      2.239
REMARK  1 active torsions:
REMARK  status: ('A' for Active; 'I' for Inactive)
REMARK    1  A    between atoms: C1_1  and  C4_4 
ROOT
HETATM    1  C2  UNL     1     -37.389  15.107  -4.833  1.00 20.00     0.014 C 
HETATM    2  C3  UNL     1     -37.078  15.304  -3.346  1.00 20.00     0.012 C 
HETATM    3  C4  UNL     1     -36.014  15.730  -5.159  1.00 20.00     0.064 C 
HETATM    4  C5  UNL     1     -34.591  14.391  -3.245  1.00 20.00    -0.000 A 
HETATM    5  C6  UNL     1     -35.646  15.329  -3.765  1.00 20.00    -0.019 A 
HETATM    6  C7  UNL     1     -34.513  15.879  -2.921  1.00 20.00    -0.035 A 
HETATM    7  C9  UNL     1     -33.576  13.708  -4.093  1.00 20.00     0.011 C 
HETATM    8  C10 UNL     1     -33.476  16.753  -3.578  1.00 20.00     0.016 C 
HETATM    9  C11 UNL     1     -34.797  16.273  -1.491  1.00 20.00     0.016 C 
ENDROOT
BRANCH   3  10
HETATM   10  C1  UNL     1     -35.226  15.119  -6.313  1.00 20.00     0.128 C 
HETATM   11  C8  UNL     1     -34.224  16.011  -6.996  1.00 20.00     0.091 C 
HETATM   12  O12 UNL     1     -35.400  13.955  -6.669  1.00 20.00    -0.298 OA
ENDBRANCH   3  10
TORSDOF 1
ENDMDL
MODEL 5
REMARK VINA RESULT:      -4.6      1.641      3.300
REMARK  1 active torsions:
REMARK  status: ('A' for Active; 'I' for Inactive)
REMARK    1  A    between atoms: C1_1  and  C4_4 
ROOT
HETATM    1  C2  UNL     1     -35.127  14.316  -7.162  1.00 20.00     0.014 C 
HETATM    2  C3  UNL     1     -35.791  15.696  -7.177  1.00 20.00     0.012 C 
HETATM    3  C4  UNL     1     -34.438  14.709  -5.838  1.00 20.00     0.064 C 
HETATM    4  C5  UNL     1     -36.626  15.860  -4.666  1.00 20.00    -0.000 A 
HETATM    5  C6  UNL     1     -35.549  15.703  -5.705  1.00 20.00    -0.019 A 
HETATM    6  C7  UNL     1     -35.570  16.946  -4.836  1.00 20.00    -0.035 A 
HETATM    7  C9  UNL     1     -36.731  15.040  -3.428  1.00 20.00     0.011 C 
HETATM    8  C10 UNL     1     -34.486  17.129  -3.805  1.00 20.00     0.016 C 
HETATM    9  C11 UNL     1     -36.034  18.249  -5.443  1.00 20.00     0.016 C 
ENDROOT
BRANCH   3  10
HETATM   10  C1  UNL     1     -34.311  13.628  -4.768  1.00 20.00     0.128 C 
HETATM   11  C8  UNL     1     -33.280  13.854  -3.696  1.00 20.00     0.091 C 
HETATM   12  O12 UNL     1     -35.018  12.622  -4.781  1.00 20.00    -0.298 OA
ENDBRANCH   3  10
TORSDOF 1
ENDMDL
MODEL 6
REMARK VINA RESULT:      -4.6      1.509      2.265
REMARK  1 active torsions:
REMARK  status: ('A' for Active; 'I' for Inactive)
REMARK    1  A    between atoms: C1_1  and  C4_4 
ROOT
HETATM    1  C2  UNL     1     -36.786  14.769  -3.714  1.00 20.00     0.014 C 
HETATM    2  C3  UNL     1     -36.264  15.896  -2.818  1.00 20.00     0.012 C 
HETATM    3  C4  UNL     1     -35.777  15.217  -4.793  1.00 20.00     0.064 C 
HETATM    4  C5  UNL     1     -33.648  15.578  -3.113  1.00 20.00    -0.000 A 
HETATM    5  C6  UNL     1     -35.029  15.835  -3.653  1.00 20.00    -0.019 A 
HETATM    6  C7  UNL     1     -33.986  16.933  -3.727  1.00 20.00    -0.035 A 
HETATM    7  C9  UNL     1     -32.659  14.651  -3.729  1.00 20.00     0.011 C 
HETATM    8  C10 UNL     1     -33.435  17.322  -5.075  1.00 20.00     0.016 C 
HETATM    9  C11 UNL     1     -34.089  18.099  -2.772  1.00 20.00     0.016 C 
ENDROOT
BRANCH   3  10
HETATM   10  C1  UNL     1     -35.083  14.124  -5.598  1.00 20.00     0.128 C 
HETATM   11  C8  UNL     1     -34.577  14.506  -6.963  1.00 20.00     0.091 C 
HETATM   12  O12 UNL     1     -34.942  12.986  -5.154  1.00 20.00    -0.298 OA
ENDBRANCH   3  10
TORSDOF 1
ENDMDL
MODEL 7
REMARK VINA RESULT:      -4.5      2.355      3.666
REMARK  1 active torsions:
REMARK  status: ('A' for Active; 'I' for Inactive)
REMARK    1  A    between atoms: C1_1  and  C4_4 
ROOT
HETATM    1  C2  UNL     1     -33.515  17.817  -5.048  1.00 20.00     0.014 C 
HETATM    2  C3  UNL     1     -33.180  16.325  -4.951  1.00 20.00     0.012 C 
HETATM    3  C4  UNL     1     -34.923  17.493  -4.505  1.00 20.00     0.064 C 
HETATM    4  C5  UNL     1     -34.120  15.774  -2.533  1.00 20.00    -0.000 A 
HETATM    5  C6  UNL     1     -34.283  16.259  -3.948  1.00 20.00    -0.019 A 
HETATM    6  C7  UNL     1     -34.976  14.982  -3.516  1.00 20.00    -0.035 A 
HETATM    7  C9  UNL     1     -34.699  16.446  -1.338  1.00 20.00     0.011 C 
HETATM    8  C10 UNL     1     -36.478  14.976  -3.392  1.00 20.00     0.016 C 
HETATM    9  C11 UNL     1     -34.417  13.658  -3.982  1.00 20.00     0.016 C 
ENDROOT
BRANCH   3  10
HETATM   10  C1  UNL     1     -35.540  18.485  -3.525  1.00 20.00     0.128 C 
HETATM   11  C8  UNL     1     -37.039  18.467  -3.396  1.00 20.00     0.091 C 
HETATM   12  O12 UNL     1     -34.846  19.262  -2.871  1.00 20.00    -0.298 OA
ENDBRANCH   3  10
TORSDOF 1
ENDMDL
MODEL 8
REMARK VINA RESULT:      -4.5      1.625      3.894
REMARK  1 active torsions:
REMARK  status: ('A' for Active; 'I' for Inactive)
REMARK    1  A    between atoms: C1_1  and  C4_4 
ROOT
HETATM    1  C2  UNL     1     -33.402  16.971  -5.673  1.00 20.00     0.014 C 
HETATM    2  C3  UNL     1     -34.381  16.533  -6.767  1.00 20.00     0.012 C 
HETATM    3  C4  UNL     1     -34.426  16.493  -4.622  1.00 20.00     0.064 C 
HETATM    4  C5  UNL     1     -35.081  14.142  -5.860  1.00 20.00    -0.000 A 
HETATM    5  C6  UNL     1     -34.964  15.636  -5.727  1.00 20.00    -0.019 A 
HETATM    6  C7  UNL     1     -36.339  15.003  -5.810  1.00 20.00    -0.035 A 
HETATM    7  C9  UNL     1     -34.742  13.169  -4.786  1.00 20.00     0.011 C 
HETATM    8  C10 UNL     1     -37.217  15.008  -4.585  1.00 20.00     0.016 C 
HETATM    9  C11 UNL     1     -37.121  15.129  -7.097  1.00 20.00     0.016 C 
ENDROOT
BRANCH   3  10
HETATM   10  C1  UNL     1     -33.881  15.800  -3.378  1.00 20.00     0.128 C 
HETATM   11  C8  UNL     1     -34.723  15.880  -2.134  1.00 20.00     0.091 C 
HETATM   12  O12 UNL     1     -32.805  15.204  -3.391  1.00 20.00    -0.298 OA
ENDBRANCH   3  10
TORSDOF 1
ENDMDL
MODEL 9
REMARK VINA RESULT:      -4.5      1.650      3.278
REMARK  1 active torsions:
REMARK  status: ('A' for Active; 'I' for Inactive)
REMARK    1  A    between atoms: C1_1  and  C4_4 
ROOT
HETATM    1  C2  UNL     1     -34.473  15.833  -2.311  1.00 20.00     0.014 C 
HETATM    2  C3  UNL     1     -35.187  17.021  -2.962  1.00 20.00     0.012 C 
HETATM    3  C4  UNL     1     -35.294  14.895  -3.222  1.00 20.00     0.064 C 
HETATM    4  C5  UNL     1     -35.010  16.351  -5.521  1.00 20.00    -0.000 A 
HETATM    5  C6  UNL     1     -35.444  16.096  -4.104  1.00 20.00    -0.019 A 
HETATM    6  C7  UNL     1     -36.494  16.322  -5.174  1.00 20.00    -0.035 A 
HETATM    7  C9  UNL     1     -34.382  15.334  -6.408  1.00 20.00     0.011 C 
HETATM    8  C10 UNL     1     -37.359  15.163  -5.600  1.00 20.00     0.016 C 
HETATM    9  C11 UNL     1     -37.221  17.646  -5.211  1.00 20.00     0.016 C 
ENDROOT
BRANCH   3  10
HETATM   10  C1  UNL     1     -34.581  13.673  -3.791  1.00 20.00     0.128 C 
HETATM   11  C8  UNL     1     -33.081  13.644  -3.665  1.00 20.00     0.091 C 
HETATM   12  O12 UNL     1     -35.200  12.755  -4.325  1.00 20.00    -0.298 OA
ENDBRANCH   3  10
TORSDOF 1
ENDMDL
