MODEL 1
REMARK VINA RESULT:      -4.7      0.000      0.000
REMARK  1 active torsions:
REMARK  status: ('A' for Active; 'I' for Inactive)
REMARK    1  A    between atoms: C1_1  and  C4_4 
ROOT
HETATM    1  C1  UNL     1     -34.315  16.093  -2.260  1.00 20.00    -0.068 C 
HETATM    2  C2  UNL     1     -34.542  16.600  -1.196  1.00 20.00    -0.108 C 
HETATM    3  C6  UNL     1     -34.818  17.217   0.101  1.00 20.00     0.112 C 
ENDROOT
BRANCH   1   4
HETATM    4  C4  UNL     1     -34.041  15.481  -3.547  1.00 20.00     0.129 C 
HETATM    5  C5  UNL     1     -35.223  14.666  -4.195  1.00 20.00     0.016 C 
HETATM    6  C3  UNL     1     -34.955  15.581  -5.409  1.00 20.00     0.182 C 
HETATM    7  C8  UNL     1     -36.623  14.891  -3.609  1.00 20.00     0.021 C 
HETATM    8  C9  UNL     1     -34.988  13.183  -4.463  1.00 20.00     0.021 C 
HETATM    9  O10 UNL     1     -34.163  16.486  -4.598  1.00 20.00    -0.366 OA
HETATM   10  C7  UNL     1     -32.634  14.887  -3.572  1.00 20.00     0.061 C 
ENDBRANCH   1   4
TORSDOF 1
ENDMDL
MODEL 2
REMARK VINA RESULT:      -4.5      1.320      2.441
REMARK  1 active torsions:
REMARK  status: ('A' for Active; 'I' for Inactive)
REMARK    1  A    between atoms: C1_1  and  C4_4 
ROOT
HETATM    1  C1  UNL     1     -35.006  15.741  -2.402  1.00 20.00    -0.068 C 
HETATM    2  C2  UNL     1     -34.773  16.399  -1.425  1.00 20.00    -0.108 C 
HETATM    3  C6  UNL     1     -34.490  17.200  -0.235  1.00 20.00     0.112 C 
ENDROOT
BRANCH   1   4
HETATM    4  C4  UNL     1     -35.288  14.946  -3.583  1.00 20.00     0.129 C 
HETATM    5  C5  UNL     1     -34.403  15.248  -4.851  1.00 20.00     0.016 C 
HETATM    6  C3  UNL     1     -34.131  13.729  -4.805  1.00 20.00     0.182 C 
HETATM    7  C8  UNL     1     -33.124  16.064  -4.626  1.00 20.00     0.021 C 
HETATM    8  C9  UNL     1     -35.122  15.719  -6.112  1.00 20.00     0.021 C 
HETATM    9  O10 UNL     1     -34.649  13.641  -3.453  1.00 20.00    -0.366 OA
HETATM   10  C7  UNL     1     -36.794  14.761  -3.760  1.00 20.00     0.061 C 
ENDBRANCH   1   4
TORSDOF 1
ENDMDL
MODEL 3
REMARK VINA RESULT:      -4.4      1.821      3.589
REMARK  1 active torsions:
REMARK  status: ('A' for Active; 'I' for Inactive)
REMARK    1  A    between atoms: C1_1  and  C4_4 
ROOT
HETATM    1  C1  UNL     1     -36.642  14.532  -4.309  1.00 20.00    -0.068 C 
HETATM    2  C2  UNL     1     -37.776  14.756  -3.984  1.00 20.00    -0.108 C 
HETATM    3  C6  UNL     1     -39.157  15.030  -3.589  1.00 20.00     0.112 C 
ENDROOT
BRANCH   1   4
HETATM    4  C4  UNL     1     -35.271  14.261  -4.701  1.00 20.00     0.129 C 
HETATM    5  C5  UNL     1     -34.152  14.977  -3.853  1.00 20.00     0.016 C 
HETATM    6  C3  UNL     1     -33.604  13.544  -3.691  1.00 20.00     0.182 C 
HETATM    7  C8  UNL     1     -34.580  15.581  -2.510  1.00 20.00     0.021 C 
HETATM    8  C9  UNL     1     -33.215  15.928  -4.592  1.00 20.00     0.021 C 
HETATM    9  O10 UNL     1     -34.855  12.974  -4.153  1.00 20.00    -0.366 OA
HETATM   10  C7  UNL     1     -35.141  14.233  -6.222  1.00 20.00     0.061 C 
ENDBRANCH   1   4
TORSDOF 1
ENDMDL
MODEL 4
REMARK VINA RESULT:      -4.2     11.759     13.564
REMARK  1 active torsions:
REMARK  status: ('A' for Active; 'I' for Inactive)
REMARK    1  A    between atoms: C1_1  and  C4_4 
ROOT
HETATM    1  C1  UNL     1     -41.906   4.162  -2.291  1.00 20.00    -0.068 C 
HETATM    2  C2  UNL     1     -41.997   3.079  -2.800  1.00 20.00    -0.108 C 
HETATM    3  C6  UNL     1     -42.108   1.758  -3.419  1.00 20.00     0.112 C 
ENDROOT
BRANCH   1   4
HETATM    4  C4  UNL     1     -41.796   5.473  -1.677  1.00 20.00     0.129 C 
HETATM    5  C5  UNL     1     -42.269   5.580  -0.179  1.00 20.00     0.016 C 
HETATM    6  C3  UNL     1     -40.864   6.182   0.038  1.00 20.00     0.182 C 
HETATM    7  C8  UNL     1     -42.451   4.263   0.587  1.00 20.00     0.021 C 
HETATM    8  C9  UNL     1     -43.417   6.538   0.127  1.00 20.00     0.021 C 
HETATM    9  O10 UNL     1     -40.418   5.695  -1.253  1.00 20.00    -0.366 OA
HETATM   10  C7  UNL     1     -42.209   6.565  -2.662  1.00 20.00     0.061 C 
ENDBRANCH   1   4
TORSDOF 1
ENDMDL
MODEL 5
REMARK VINA RESULT:      -4.0      1.263      2.999
REMARK  1 active torsions:
REMARK  status: ('A' for Active; 'I' for Inactive)
REMARK    1  A    between atoms: C1_1  and  C4_4 
ROOT
HETATM    1  C1  UNL     1     -36.387  15.357  -3.608  1.00 20.00    -0.068 C 
HETATM    2  C2  UNL     1     -37.558  15.117  -3.716  1.00 20.00    -0.108 C 
HETATM    3  C6  UNL     1     -38.985  14.825  -3.850  1.00 20.00     0.112 C 
ENDROOT
BRANCH   1   4
HETATM    4  C4  UNL     1     -34.971  15.648  -3.475  1.00 20.00     0.129 C 
HETATM    5  C5  UNL     1     -33.994  14.740  -4.314  1.00 20.00     0.016 C 
HETATM    6  C3  UNL     1     -33.463  16.094  -4.833  1.00 20.00     0.182 C 
HETATM    7  C8  UNL     1     -34.619  13.903  -5.437  1.00 20.00     0.021 C 
HETATM    8  C9  UNL     1     -32.967  13.917  -3.542  1.00 20.00     0.021 C 
HETATM    9  O10 UNL     1     -34.629  16.788  -4.320  1.00 20.00    -0.366 OA
HETATM   10  C7  UNL     1     -34.620  15.966  -2.023  1.00 20.00     0.061 C 
ENDBRANCH   1   4
TORSDOF 1
ENDMDL
MODEL 6
REMARK VINA RESULT:      -3.9      1.898      3.084
REMARK  1 active torsions:
REMARK  status: ('A' for Active; 'I' for Inactive)
REMARK    1  A    between atoms: C1_1  and  C4_4 
ROOT
HETATM    1  C1  UNL     1     -33.823  16.881  -4.410  1.00 20.00    -0.068 C 
HETATM    2  C2  UNL     1     -33.648  17.897  -5.026  1.00 20.00    -0.108 C 
HETATM    3  C6  UNL     1     -33.434  19.134  -5.775  1.00 20.00     0.112 C 
ENDROOT
BRANCH   1   4
HETATM    4  C4  UNL     1     -34.036  15.653  -3.666  1.00 20.00     0.129 C 
HETATM    5  C5  UNL     1     -34.640  14.445  -4.478  1.00 20.00     0.016 C 
HETATM    6  C3  UNL     1     -33.411  13.689  -3.927  1.00 20.00     0.182 C 
HETATM    7  C8  UNL     1     -34.606  14.552  -6.008  1.00 20.00     0.021 C 
HETATM    8  C9  UNL     1     -35.981  13.888  -4.011  1.00 20.00     0.021 C 
HETATM    9  O10 UNL     1     -32.772  14.934  -3.546  1.00 20.00    -0.366 OA
HETATM   10  C7  UNL     1     -34.585  15.955  -2.274  1.00 20.00     0.061 C 
ENDBRANCH   1   4
TORSDOF 1
ENDMDL
MODEL 7
REMARK VINA RESULT:      -3.9     11.901     13.735
REMARK  1 active torsions:
REMARK  status: ('A' for Active; 'I' for Inactive)
REMARK    1  A    between atoms: C1_1  and  C4_4 
ROOT
HETATM    1  C1  UNL     1     -41.639   3.639  -2.267  1.00 20.00    -0.068 C 
HETATM    2  C2  UNL     1     -41.533   2.735  -3.050  1.00 20.00    -0.108 C 
HETATM    3  C6  UNL     1     -41.404   1.634  -4.004  1.00 20.00     0.112 C 
ENDROOT
BRANCH   1   4
HETATM    4  C4  UNL     1     -41.767   4.732  -1.320  1.00 20.00     0.129 C 
HETATM    5  C5  UNL     1     -42.563   5.996  -1.823  1.00 20.00     0.016 C 
HETATM    6  C3  UNL     1     -43.386   5.770  -0.536  1.00 20.00     0.182 C 
HETATM    7  C8  UNL     1     -43.417   5.821  -3.085  1.00 20.00     0.021 C 
HETATM    8  C9  UNL     1     -41.815   7.324  -1.864  1.00 20.00     0.021 C 
HETATM    9  O10 UNL     1     -42.842   4.435  -0.379  1.00 20.00    -0.366 OA
HETATM   10  C7  UNL     1     -40.462   4.938  -0.555  1.00 20.00     0.061 C 
ENDBRANCH   1   4
TORSDOF 1
ENDMDL
MODEL 8
REMARK VINA RESULT:      -3.8      1.709      3.445
REMARK  1 active torsions:
REMARK  status: ('A' for Active; 'I' for Inactive)
REMARK    1  A    between atoms: C1_1  and  C4_4 
ROOT
HETATM    1  C1  UNL     1     -36.377  14.999  -3.633  1.00 20.00    -0.068 C 
HETATM    2  C2  UNL     1     -37.553  14.861  -3.835  1.00 20.00    -0.108 C 
HETATM    3  C6  UNL     1     -38.984  14.692  -4.082  1.00 20.00     0.112 C 
ENDROOT
BRANCH   1   4
HETATM    4  C4  UNL     1     -34.956  15.167  -3.388  1.00 20.00     0.129 C 
HETATM    5  C5  UNL     1     -34.312  16.500  -3.925  1.00 20.00     0.016 C 
HETATM    6  C3  UNL     1     -33.822  16.642  -2.468  1.00 20.00     0.182 C 
HETATM    7  C8  UNL     1     -35.276  17.628  -4.315  1.00 20.00     0.021 C 
HETATM    8  C9  UNL     1     -33.193  16.373  -4.954  1.00 20.00     0.021 C 
HETATM    9  O10 UNL     1     -34.751  15.624  -2.018  1.00 20.00    -0.366 OA
HETATM   10  C7  UNL     1     -34.214  13.849  -3.603  1.00 20.00     0.061 C 
ENDBRANCH   1   4
TORSDOF 1
ENDMDL
MODEL 9
REMARK VINA RESULT:      -3.8      2.103      4.201
REMARK  1 active torsions:
REMARK  status: ('A' for Active; 'I' for Inactive)
REMARK    1  A    between atoms: C1_1  and  C4_4 
ROOT
HETATM    1  C1  UNL     1     -34.546  15.832  -2.596  1.00 20.00    -0.068 C 
HETATM    2  C2  UNL     1     -34.324  14.805  -3.178  1.00 20.00    -0.108 C 
HETATM    3  C6  UNL     1     -34.053  13.555  -3.886  1.00 20.00     0.112 C 
ENDROOT
BRANCH   1   4
HETATM    4  C4  UNL     1     -34.814  17.074  -1.894  1.00 20.00     0.129 C 
HETATM    5  C5  UNL     1     -34.231  18.382  -2.550  1.00 20.00     0.016 C 
HETATM    6  C3  UNL     1     -35.690  18.874  -2.445  1.00 20.00     0.182 C 
HETATM    7  C8  UNL     1     -33.766  18.279  -4.008  1.00 20.00     0.021 C 
HETATM    8  C9  UNL     1     -33.234  19.193  -1.727  1.00 20.00     0.021 C 
HETATM    9  O10 UNL     1     -36.166  17.525  -2.207  1.00 20.00    -0.366 OA
HETATM   10  C7  UNL     1     -34.677  16.879  -0.386  1.00 20.00     0.061 C 
ENDBRANCH   1   4
TORSDOF 1
ENDMDL
