MODEL 1
REMARK VINA RESULT:      -5.2      0.000      0.000
REMARK  1 active torsions:
REMARK  status: ('A' for Active; 'I' for Inactive)
REMARK    1  A    between atoms: C5_5  and  C9_9 
ROOT
HETATM    1  C1  UNL     1     -34.926  15.839  -2.327  1.00 20.00    -0.029 C 
HETATM    2  C2  UNL     1     -33.638  15.985  -2.693  1.00 20.00    -0.021 C 
HETATM    3  C3  UNL     1     -33.752  17.058  -4.910  1.00 20.00    -0.021 C 
HETATM    4  C4  UNL     1     -35.031  16.853  -5.266  1.00 20.00    -0.024 C 
HETATM    5  C6  UNL     1     -36.015  15.548  -3.348  1.00 20.00     0.036 C 
HETATM    6  C7  UNL     1     -33.245  15.852  -4.152  1.00 20.00     0.045 C 
HETATM    7  C8  UNL     1     -35.477  15.481  -4.802  1.00 20.00     0.026 C 
HETATM    8  C9  UNL     1     -34.113  14.778  -4.831  1.00 20.00     0.106 C 
ENDROOT
BRANCH   8   9
HETATM    9  C5  UNL     1     -34.069  13.393  -4.210  1.00 20.00     0.178 C 
HETATM   10  O10 UNL     1     -35.120  12.706  -4.348  1.00 20.00    -0.648 OA
HETATM   11  O11 UNL     1     -32.983  13.105  -3.634  1.00 20.00    -0.648 OA
ENDBRANCH   8   9
TORSDOF 1
ENDMDL
MODEL 2
REMARK VINA RESULT:      -5.0      1.950      3.213
REMARK  1 active torsions:
REMARK  status: ('A' for Active; 'I' for Inactive)
REMARK    1  A    between atoms: C5_5  and  C9_9 
ROOT
HETATM    1  C1  UNL     1     -34.650  14.746  -6.196  1.00 20.00    -0.029 C 
HETATM    2  C2  UNL     1     -34.322  15.873  -5.536  1.00 20.00    -0.021 C 
HETATM    3  C3  UNL     1     -32.912  15.097  -3.668  1.00 20.00    -0.021 C 
HETATM    4  C4  UNL     1     -33.178  13.781  -3.632  1.00 20.00    -0.024 C 
HETATM    5  C6  UNL     1     -34.872  13.431  -5.465  1.00 20.00     0.036 C 
HETATM    6  C7  UNL     1     -34.172  15.851  -4.027  1.00 20.00     0.045 C 
HETATM    7  C8  UNL     1     -34.645  13.547  -3.933  1.00 20.00     0.026 C 
HETATM    8  C9  UNL     1     -35.198  14.881  -3.415  1.00 20.00     0.106 C 
ENDROOT
BRANCH   8   9
HETATM    9  C5  UNL     1     -36.656  15.162  -3.733  1.00 20.00     0.178 C 
HETATM   10  O10 UNL     1     -36.942  16.378  -3.918  1.00 20.00    -0.648 OA
HETATM   11  O11 UNL     1     -37.396  14.140  -3.772  1.00 20.00    -0.648 OA
ENDBRANCH   8   9
TORSDOF 1
ENDMDL
MODEL 3
REMARK VINA RESULT:      -5.0      0.806      2.409
REMARK  1 active torsions:
REMARK  status: ('A' for Active; 'I' for Inactive)
REMARK    1  A    between atoms: C5_5  and  C9_9 
ROOT
HETATM    1  C1  UNL     1     -34.202  16.043  -5.511  1.00 20.00    -0.029 C 
HETATM    2  C2  UNL     1     -35.463  15.677  -5.209  1.00 20.00    -0.021 C 
HETATM    3  C3  UNL     1     -35.800  16.496  -2.908  1.00 20.00    -0.021 C 
HETATM    4  C4  UNL     1     -34.543  16.734  -2.498  1.00 20.00    -0.024 C 
HETATM    5  C6  UNL     1     -33.106  16.067  -4.458  1.00 20.00     0.036 C 
HETATM    6  C7  UNL     1     -35.814  15.268  -3.791  1.00 20.00     0.045 C 
HETATM    7  C8  UNL     1     -33.616  15.667  -3.047  1.00 20.00     0.026 C 
HETATM    8  C9  UNL     1     -34.629  14.520  -3.155  1.00 20.00     0.106 C 
ENDROOT
BRANCH   8   9
HETATM    9  C5  UNL     1     -34.150  13.280  -3.890  1.00 20.00     0.178 C 
HETATM   10  O10 UNL     1     -35.046  12.642  -4.511  1.00 20.00    -0.648 OA
HETATM   11  O11 UNL     1     -32.915  13.047  -3.785  1.00 20.00    -0.648 OA
ENDBRANCH   8   9
TORSDOF 1
ENDMDL
MODEL 4
REMARK VINA RESULT:      -4.8      1.071      1.281
REMARK  1 active torsions:
REMARK  status: ('A' for Active; 'I' for Inactive)
REMARK    1  A    between atoms: C5_5  and  C9_9 
ROOT
HETATM    1  C1  UNL     1     -34.426  15.976  -2.332  1.00 20.00    -0.029 C 
HETATM    2  C2  UNL     1     -33.469  15.406  -3.090  1.00 20.00    -0.021 C 
HETATM    3  C3  UNL     1     -33.531  16.672  -5.205  1.00 20.00    -0.021 C 
HETATM    4  C4  UNL     1     -34.717  17.300  -5.132  1.00 20.00    -0.024 C 
HETATM    5  C6  UNL     1     -35.704  16.527  -2.946  1.00 20.00     0.036 C 
HETATM    6  C7  UNL     1     -33.656  15.296  -4.591  1.00 20.00     0.045 C 
HETATM    7  C8  UNL     1     -35.741  16.385  -4.491  1.00 20.00     0.026 C 
HETATM    8  C9  UNL     1     -35.139  15.038  -4.915  1.00 20.00     0.106 C 
ENDROOT
BRANCH   8   9
HETATM    9  C5  UNL     1     -35.757  13.806  -4.278  1.00 20.00     0.178 C 
HETATM   10  O10 UNL     1     -36.945  13.947  -3.873  1.00 20.00    -0.648 OA
HETATM   11  O11 UNL     1     -35.001  12.797  -4.235  1.00 20.00    -0.648 OA
ENDBRANCH   8   9
TORSDOF 1
ENDMDL
MODEL 5
REMARK VINA RESULT:      -4.8      1.889      2.987
REMARK  1 active torsions:
REMARK  status: ('A' for Active; 'I' for Inactive)
REMARK    1  A    between atoms: C5_5  and  C9_9 
ROOT
HETATM    1  C1  UNL     1     -33.677  13.802  -3.957  1.00 20.00    -0.029 C 
HETATM    2  C2  UNL     1     -34.497  13.254  -4.875  1.00 20.00    -0.021 C 
HETATM    3  C3  UNL     1     -34.449  14.843  -6.760  1.00 20.00    -0.021 C 
HETATM    4  C4  UNL     1     -33.929  15.946  -6.197  1.00 20.00    -0.024 C 
HETATM    5  C6  UNL     1     -33.568  15.309  -3.785  1.00 20.00     0.036 C 
HETATM    6  C7  UNL     1     -35.345  14.146  -5.761  1.00 20.00     0.045 C 
HETATM    7  C8  UNL     1     -34.458  16.096  -4.784  1.00 20.00     0.026 C 
HETATM    8  C9  UNL     1     -35.804  15.384  -4.969  1.00 20.00     0.106 C 
ENDROOT
BRANCH   8   9
HETATM    9  C5  UNL     1     -36.589  15.111  -3.699  1.00 20.00     0.178 C 
HETATM   10  O10 UNL     1     -36.343  15.889  -2.735  1.00 20.00    -0.648 OA
HETATM   11  O11 UNL     1     -37.390  14.137  -3.770  1.00 20.00    -0.648 OA
ENDBRANCH   8   9
TORSDOF 1
ENDMDL
MODEL 6
REMARK VINA RESULT:      -4.6      2.133      3.236
REMARK  1 active torsions:
REMARK  status: ('A' for Active; 'I' for Inactive)
REMARK    1  A    between atoms: C5_5  and  C9_9 
ROOT
HETATM    1  C1  UNL     1     -35.221  15.934  -2.510  1.00 20.00    -0.029 C 
HETATM    2  C2  UNL     1     -35.964  15.306  -3.442  1.00 20.00    -0.021 C 
HETATM    3  C3  UNL     1     -34.559  13.414  -4.168  1.00 20.00    -0.021 C 
HETATM    4  C4  UNL     1     -33.345  13.762  -3.708  1.00 20.00    -0.024 C 
HETATM    5  C6  UNL     1     -33.705  16.002  -2.614  1.00 20.00     0.036 C 
HETATM    6  C7  UNL     1     -35.291  14.653  -4.633  1.00 20.00     0.045 C 
HETATM    7  C8  UNL     1     -33.151  15.257  -3.858  1.00 20.00     0.026 C 
HETATM    8  C9  UNL     1     -34.070  15.486  -5.065  1.00 20.00     0.106 C 
ENDROOT
BRANCH   8   9
HETATM    9  C5  UNL     1     -34.345  16.936  -5.424  1.00 20.00     0.178 C 
HETATM   10  O10 UNL     1     -35.501  17.170  -5.876  1.00 20.00    -0.648 OA
HETATM   11  O11 UNL     1     -33.379  17.723  -5.224  1.00 20.00    -0.648 OA
ENDBRANCH   8   9
TORSDOF 1
ENDMDL
MODEL 7
REMARK VINA RESULT:      -4.6      1.054      2.029
REMARK  1 active torsions:
REMARK  status: ('A' for Active; 'I' for Inactive)
REMARK    1  A    between atoms: C5_5  and  C9_9 
ROOT
HETATM    1  C1  UNL     1     -36.491  16.104  -4.167  1.00 20.00    -0.029 C 
HETATM    2  C2  UNL     1     -35.999  15.443  -3.101  1.00 20.00    -0.021 C 
HETATM    3  C3  UNL     1     -33.712  16.327  -2.839  1.00 20.00    -0.021 C 
HETATM    4  C4  UNL     1     -33.493  16.921  -4.024  1.00 20.00    -0.024 C 
HETATM    5  C6  UNL     1     -35.603  16.502  -5.336  1.00 20.00     0.036 C 
HETATM    6  C7  UNL     1     -34.529  15.073  -3.052  1.00 20.00     0.045 C 
HETATM    7  C8  UNL     1     -34.119  16.097  -5.132  1.00 20.00     0.026 C 
HETATM    8  C9  UNL     1     -34.033  14.717  -4.465  1.00 20.00     0.106 C 
ENDROOT
BRANCH   8   9
HETATM    9  C5  UNL     1     -34.772  13.593  -5.169  1.00 20.00     0.178 C 
HETATM   10  O10 UNL     1     -35.057  12.599  -4.444  1.00 20.00    -0.648 OA
HETATM   11  O11 UNL     1     -35.007  13.799  -6.392  1.00 20.00    -0.648 OA
ENDBRANCH   8   9
TORSDOF 1
ENDMDL
MODEL 8
REMARK VINA RESULT:      -4.6      2.030      3.131
REMARK  1 active torsions:
REMARK  status: ('A' for Active; 'I' for Inactive)
REMARK    1  A    between atoms: C5_5  and  C9_9 
ROOT
HETATM    1  C1  UNL     1     -33.097  16.132  -4.649  1.00 20.00    -0.029 C 
HETATM    2  C2  UNL     1     -32.915  15.123  -3.775  1.00 20.00    -0.021 C 
HETATM    3  C3  UNL     1     -34.308  13.291  -4.662  1.00 20.00    -0.021 C 
HETATM    4  C4  UNL     1     -35.112  13.931  -5.527  1.00 20.00    -0.024 C 
HETATM    5  C6  UNL     1     -34.431  16.350  -5.347  1.00 20.00     0.036 C 
HETATM    6  C7  UNL     1     -34.059  14.177  -3.462  1.00 20.00     0.045 C 
HETATM    7  C8  UNL     1     -35.494  15.286  -4.964  1.00 20.00     0.026 C 
HETATM    8  C9  UNL     1     -35.391  14.947  -3.471  1.00 20.00     0.106 C 
ENDROOT
BRANCH   8   9
HETATM    9  C5  UNL     1     -35.488  16.124  -2.517  1.00 20.00     0.178 C 
HETATM   10  O10 UNL     1     -34.764  16.043  -1.485  1.00 20.00    -0.648 OA
HETATM   11  O11 UNL     1     -36.282  17.036  -2.879  1.00 20.00    -0.648 OA
ENDBRANCH   8   9
TORSDOF 1
ENDMDL
MODEL 9
REMARK VINA RESULT:      -4.6     11.619     12.871
REMARK  1 active torsions:
REMARK  status: ('A' for Active; 'I' for Inactive)
REMARK    1  A    between atoms: C5_5  and  C9_9 
ROOT
HETATM    1  C1  UNL     1     -43.417   5.669   0.249  1.00 20.00    -0.029 C 
HETATM    2  C2  UNL     1     -42.380   4.822   0.398  1.00 20.00    -0.021 C 
HETATM    3  C3  UNL     1     -40.399   6.183  -0.153  1.00 20.00    -0.021 C 
HETATM    4  C4  UNL     1     -40.939   7.238  -0.784  1.00 20.00    -0.024 C 
HETATM    5  C6  UNL     1     -43.412   6.755  -0.815  1.00 20.00     0.036 C 
HETATM    6  C7  UNL     1     -41.174   4.935  -0.514  1.00 20.00     0.045 C 
HETATM    7  C8  UNL     1     -42.100   6.781  -1.644  1.00 20.00     0.026 C 
HETATM    8  C9  UNL     1     -41.623   5.350  -1.926  1.00 20.00     0.106 C 
ENDROOT
BRANCH   8   9
HETATM    9  C5  UNL     1     -42.631   4.436  -2.601  1.00 20.00     0.178 C 
HETATM   10  O10 UNL     1     -42.572   3.222  -2.258  1.00 20.00    -0.648 OA
HETATM   11  O11 UNL     1     -43.399   5.010  -3.421  1.00 20.00    -0.648 OA
ENDBRANCH   8   9
TORSDOF 1
ENDMDL
