MODEL 1
REMARK VINA RESULT:      -4.8      0.000      0.000
REMARK  3 active torsions:
REMARK  status: ('A' for Active; 'I' for Inactive)
REMARK    1  A    between atoms: C1_1  and  C5_5 
REMARK    2  A    between atoms: C6_6  and  C8_8 
REMARK    3  A    between atoms: C8_8  and  C9_9 
ROOT
HETATM    1  C2  UNL     1     -35.322  15.065  -3.035  1.00 20.00     0.030 C 
HETATM    2  C3  UNL     1     -34.270  16.247  -4.457  1.00 20.00     0.030 C 
HETATM    3  C4  UNL     1     -33.237  14.768  -3.331  1.00 20.00     0.030 C 
HETATM    4  C5  UNL     1     -34.462  14.721  -4.277  1.00 20.00     0.050 C 
HETATM    5  C6  UNL     1     -34.080  16.037  -2.898  1.00 20.00    -0.037 C 
ENDROOT
BRANCH   4   6
HETATM    6  C1  UNL     1     -34.741  13.746  -5.299  1.00 20.00     0.181 C 
HETATM    7  O10 UNL     1     -34.790  12.549  -4.903  1.00 20.00    -0.647 OA
HETATM    8  O11 UNL     1     -34.900  14.224  -6.457  1.00 20.00    -0.647 OA
ENDBRANCH   4   6
BRANCH   5   9
HETATM    9  C8  UNL     1     -33.788  17.037  -1.850  1.00 20.00     0.009 C 
BRANCH   9  10
HETATM   10  C9  UNL     1     -34.624  16.827  -0.569  1.00 20.00    -0.004 C 
HETATM   11  C7  UNL     1     -34.360  17.885   0.492  1.00 20.00     0.005 C 
ENDBRANCH   9  10
ENDBRANCH   5   9
TORSDOF 3
ENDMDL
MODEL 2
REMARK VINA RESULT:      -4.8      0.089      1.112
REMARK  3 active torsions:
REMARK  status: ('A' for Active; 'I' for Inactive)
REMARK    1  A    between atoms: C1_1  and  C5_5 
REMARK    2  A    between atoms: C6_6  and  C8_8 
REMARK    3  A    between atoms: C8_8  and  C9_9 
ROOT
HETATM    1  C2  UNL     1     -34.294  16.238  -4.551  1.00 20.00     0.030 C 
HETATM    2  C3  UNL     1     -33.243  14.773  -3.423  1.00 20.00     0.030 C 
HETATM    3  C4  UNL     1     -35.329  15.053  -3.121  1.00 20.00     0.030 C 
HETATM    4  C5  UNL     1     -34.471  14.710  -4.363  1.00 20.00     0.050 C 
HETATM    5  C6  UNL     1     -34.095  16.038  -2.994  1.00 20.00    -0.037 C 
ENDROOT
BRANCH   4   6
HETATM    6  C1  UNL     1     -34.752  13.725  -5.375  1.00 20.00     0.181 C 
HETATM    7  O10 UNL     1     -34.782  12.530  -4.970  1.00 20.00    -0.647 OA
HETATM    8  O11 UNL     1     -34.928  14.193  -6.534  1.00 20.00    -0.647 OA
ENDBRANCH   4   6
BRANCH   5   9
HETATM    9  C8  UNL     1     -33.810  17.046  -1.952  1.00 20.00     0.009 C 
BRANCH   9  10
HETATM   10  C9  UNL     1     -34.610  16.812  -0.653  1.00 20.00    -0.004 C 
HETATM   11  C7  UNL     1     -34.321  17.852   0.418  1.00 20.00     0.005 C 
ENDBRANCH   9  10
ENDBRANCH   5   9
TORSDOF 3
ENDMDL
MODEL 3
REMARK VINA RESULT:      -4.4     11.083     11.996
REMARK  3 active torsions:
REMARK  status: ('A' for Active; 'I' for Inactive)
REMARK    1  A    between atoms: C1_1  and  C5_5 
REMARK    2  A    between atoms: C6_6  and  C8_8 
REMARK    3  A    between atoms: C8_8  and  C9_9 
ROOT
HETATM    1  C2  UNL     1     -32.818   5.228   3.517  1.00 20.00     0.030 C 
HETATM    2  C3  UNL     1     -33.024   6.829   4.903  1.00 20.00     0.030 C 
HETATM    3  C4  UNL     1     -34.408   6.623   3.302  1.00 20.00     0.030 C 
HETATM    4  C5  UNL     1     -33.965   5.686   4.452  1.00 20.00     0.050 C 
HETATM    5  C6  UNL     1     -32.835   6.800   3.330  1.00 20.00    -0.037 C 
ENDROOT
BRANCH   4   6
HETATM    6  C1  UNL     1     -34.805   4.863   5.282  1.00 20.00     0.181 C 
HETATM    7  O10 UNL     1     -35.219   3.798   4.744  1.00 20.00    -0.647 OA
HETATM    8  O11 UNL     1     -35.016   5.320   6.440  1.00 20.00    -0.647 OA
ENDBRANCH   4   6
BRANCH   5   9
HETATM    9  C8  UNL     1     -31.977   7.648   2.477  1.00 20.00     0.009 C 
BRANCH   9  10
HETATM   10  C9  UNL     1     -32.624   9.007   2.133  1.00 20.00    -0.004 C 
HETATM   11  C7  UNL     1     -32.275   9.494   0.735  1.00 20.00     0.005 C 
ENDBRANCH   9  10
ENDBRANCH   5   9
TORSDOF 3
ENDMDL
MODEL 4
REMARK VINA RESULT:      -4.4     11.072     11.956
REMARK  3 active torsions:
REMARK  status: ('A' for Active; 'I' for Inactive)
REMARK    1  A    between atoms: C1_1  and  C5_5 
REMARK    2  A    between atoms: C6_6  and  C8_8 
REMARK    3  A    between atoms: C8_8  and  C9_9 
ROOT
HETATM    1  C2  UNL     1     -32.995   6.817   4.883  1.00 20.00     0.030 C 
HETATM    2  C3  UNL     1     -34.414   6.652   3.308  1.00 20.00     0.030 C 
HETATM    3  C4  UNL     1     -32.850   5.222   3.484  1.00 20.00     0.030 C 
HETATM    4  C5  UNL     1     -33.970   5.697   4.442  1.00 20.00     0.050 C 
HETATM    5  C6  UNL     1     -32.836   6.796   3.308  1.00 20.00    -0.037 C 
ENDROOT
BRANCH   4   6
HETATM    6  C1  UNL     1     -34.809   4.880   5.279  1.00 20.00     0.181 C 
HETATM    7  O10 UNL     1     -35.033   5.341   6.432  1.00 20.00    -0.647 OA
HETATM    8  O11 UNL     1     -35.206   3.807   4.744  1.00 20.00    -0.647 OA
ENDBRANCH   4   6
BRANCH   5   9
HETATM    9  C8  UNL     1     -31.974   7.631   2.446  1.00 20.00     0.009 C 
BRANCH   9  10
HETATM   10  C9  UNL     1     -32.603   9.001   2.112  1.00 20.00    -0.004 C 
HETATM   11  C7  UNL     1     -32.288   9.470   0.700  1.00 20.00     0.005 C 
ENDBRANCH   9  10
ENDBRANCH   5   9
TORSDOF 3
ENDMDL
MODEL 5
REMARK VINA RESULT:      -4.4     11.073     11.966
REMARK  3 active torsions:
REMARK  status: ('A' for Active; 'I' for Inactive)
REMARK    1  A    between atoms: C1_1  and  C5_5 
REMARK    2  A    between atoms: C6_6  and  C8_8 
REMARK    3  A    between atoms: C8_8  and  C9_9 
ROOT
HETATM    1  C2  UNL     1     -34.424   6.643   3.298  1.00 20.00     0.030 C 
HETATM    2  C3  UNL     1     -32.851   5.224   3.487  1.00 20.00     0.030 C 
HETATM    3  C4  UNL     1     -33.022   6.816   4.887  1.00 20.00     0.030 C 
HETATM    4  C5  UNL     1     -33.982   5.689   4.436  1.00 20.00     0.050 C 
HETATM    5  C6  UNL     1     -32.848   6.799   3.313  1.00 20.00    -0.037 C 
ENDROOT
BRANCH   4   6
HETATM    6  C1  UNL     1     -34.819   4.868   5.270  1.00 20.00     0.181 C 
HETATM    7  O10 UNL     1     -35.237   3.803   4.735  1.00 20.00    -0.647 OA
HETATM    8  O11 UNL     1     -35.024   5.326   6.429  1.00 20.00    -0.647 OA
ENDBRANCH   4   6
BRANCH   5   9
HETATM    9  C8  UNL     1     -31.986   7.643   2.460  1.00 20.00     0.009 C 
BRANCH   9  10
HETATM   10  C9  UNL     1     -32.620   9.011   2.130  1.00 20.00    -0.004 C 
HETATM   11  C7  UNL     1     -32.282   9.500   0.731  1.00 20.00     0.005 C 
ENDBRANCH   9  10
ENDBRANCH   5   9
TORSDOF 3
ENDMDL
MODEL 6
REMARK VINA RESULT:      -4.4      1.632      2.092
REMARK  3 active torsions:
REMARK  status: ('A' for Active; 'I' for Inactive)
REMARK    1  A    between atoms: C1_1  and  C5_5 
REMARK    2  A    between atoms: C6_6  and  C8_8 
REMARK    3  A    between atoms: C8_8  and  C9_9 
ROOT
HETATM    1  C2  UNL     1     -34.367  15.677  -2.471  1.00 20.00     0.030 C 
HETATM    2  C3  UNL     1     -35.505  15.662  -4.267  1.00 20.00     0.030 C 
HETATM    3  C4  UNL     1     -33.414  16.038  -4.337  1.00 20.00     0.030 C 
HETATM    4  C5  UNL     1     -34.266  14.868  -3.788  1.00 20.00     0.050 C 
HETATM    5  C6  UNL     1     -34.601  16.773  -3.590  1.00 20.00    -0.037 C 
ENDROOT
BRANCH   4   6
HETATM    6  C1  UNL     1     -34.015  13.459  -3.938  1.00 20.00     0.181 C 
HETATM    7  O10 UNL     1     -32.837  13.089  -3.678  1.00 20.00    -0.647 OA
HETATM    8  O11 UNL     1     -35.014  12.781  -4.311  1.00 20.00    -0.647 OA
ENDBRANCH   4   6
BRANCH   5   9
HETATM    9  C8  UNL     1     -34.855  18.221  -3.440  1.00 20.00     0.009 C 
BRANCH   9  10
HETATM   10  C9  UNL     1     -33.569  19.034  -3.183  1.00 20.00    -0.004 C 
HETATM   11  C7  UNL     1     -33.237  19.168  -1.706  1.00 20.00     0.005 C 
ENDBRANCH   9  10
ENDBRANCH   5   9
TORSDOF 3
ENDMDL
MODEL 7
REMARK VINA RESULT:      -4.4      1.344      1.829
REMARK  3 active torsions:
REMARK  status: ('A' for Active; 'I' for Inactive)
REMARK    1  A    between atoms: C1_1  and  C5_5 
REMARK    2  A    between atoms: C6_6  and  C8_8 
REMARK    3  A    between atoms: C8_8  and  C9_9 
ROOT
HETATM    1  C2  UNL     1     -35.059  16.402  -4.159  1.00 20.00     0.030 C 
HETATM    2  C3  UNL     1     -33.419  15.330  -3.333  1.00 20.00     0.030 C 
HETATM    3  C4  UNL     1     -35.168  15.662  -2.169  1.00 20.00     0.030 C 
HETATM    4  C5  UNL     1     -34.915  14.989  -3.540  1.00 20.00     0.050 C 
HETATM    5  C6  UNL     1     -34.160  16.655  -2.881  1.00 20.00    -0.037 C 
ENDROOT
BRANCH   4   6
HETATM    6  C1  UNL     1     -35.474  13.755  -4.026  1.00 20.00     0.181 C 
HETATM    7  O10 UNL     1     -36.735  13.703  -4.042  1.00 20.00    -0.647 OA
HETATM    8  O11 UNL     1     -34.622  12.887  -4.369  1.00 20.00    -0.647 OA
ENDBRANCH   4   6
BRANCH   5   9
HETATM    9  C8  UNL     1     -33.587  17.921  -2.378  1.00 20.00     0.009 C 
BRANCH   9  10
HETATM   10  C9  UNL     1     -33.327  17.902  -0.857  1.00 20.00    -0.004 C 
HETATM   11  C7  UNL     1     -32.565  19.124  -0.369  1.00 20.00     0.005 C 
ENDBRANCH   9  10
ENDBRANCH   5   9
TORSDOF 3
ENDMDL
MODEL 8
REMARK VINA RESULT:      -4.2      2.854      3.475
REMARK  3 active torsions:
REMARK  status: ('A' for Active; 'I' for Inactive)
REMARK    1  A    between atoms: C1_1  and  C5_5 
REMARK    2  A    between atoms: C6_6  and  C8_8 
REMARK    3  A    between atoms: C8_8  and  C9_9 
ROOT
HETATM    1  C2  UNL     1     -35.395  15.689  -5.008  1.00 20.00     0.030 C 
HETATM    2  C3  UNL     1     -34.407  14.821  -6.680  1.00 20.00     0.030 C 
HETATM    3  C4  UNL     1     -33.279  15.816  -5.176  1.00 20.00     0.030 C 
HETATM    4  C5  UNL     1     -34.273  14.629  -5.149  1.00 20.00     0.050 C 
HETATM    5  C6  UNL     1     -34.452  16.303  -6.122  1.00 20.00    -0.037 C 
ENDROOT
BRANCH   4   6
HETATM    6  C1  UNL     1     -34.138  13.390  -4.430  1.00 20.00     0.181 C 
HETATM    7  O10 UNL     1     -33.146  13.324  -3.651  1.00 20.00    -0.647 OA
HETATM    8  O11 UNL     1     -35.033  12.534  -4.676  1.00 20.00    -0.647 OA
ENDBRANCH   4   6
BRANCH   5   9
HETATM    9  C8  UNL     1     -34.587  17.576  -6.861  1.00 20.00     0.009 C 
BRANCH   9  10
HETATM   10  C9  UNL     1     -33.815  18.739  -6.202  1.00 20.00    -0.004 C 
HETATM   11  C7  UNL     1     -34.489  19.261  -4.943  1.00 20.00     0.005 C 
ENDBRANCH   9  10
ENDBRANCH   5   9
TORSDOF 3
ENDMDL
MODEL 9
REMARK VINA RESULT:      -4.1     12.293     14.154
REMARK  3 active torsions:
REMARK  status: ('A' for Active; 'I' for Inactive)
REMARK    1  A    between atoms: C1_1  and  C5_5 
REMARK    2  A    between atoms: C6_6  and  C8_8 
REMARK    3  A    between atoms: C8_8  and  C9_9 
ROOT
HETATM    1  C2  UNL     1     -42.700   4.333  -0.738  1.00 20.00     0.030 C 
HETATM    2  C3  UNL     1     -40.759   4.121  -1.582  1.00 20.00     0.030 C 
HETATM    3  C4  UNL     1     -42.258   5.214  -2.622  1.00 20.00     0.030 C 
HETATM    4  C5  UNL     1     -41.629   5.347  -1.213  1.00 20.00     0.050 C 
HETATM    5  C6  UNL     1     -42.198   3.717  -2.107  1.00 20.00    -0.037 C 
ENDROOT
BRANCH   4   6
HETATM    6  C1  UNL     1     -41.208   6.555  -0.554  1.00 20.00     0.181 C 
HETATM    7  O10 UNL     1     -41.729   7.618  -0.992  1.00 20.00    -0.647 OA
HETATM    8  O11 UNL     1     -40.370   6.386   0.376  1.00 20.00    -0.647 OA
ENDBRANCH   4   6
BRANCH   5   9
HETATM    9  C8  UNL     1     -42.630   2.479  -2.788  1.00 20.00     0.009 C 
BRANCH   9  10
HETATM   10  C9  UNL     1     -41.569   1.926  -3.764  1.00 20.00    -0.004 C 
HETATM   11  C7  UNL     1     -41.660   0.420  -3.948  1.00 20.00     0.005 C 
ENDBRANCH   9  10
ENDBRANCH   5   9
TORSDOF 3
ENDMDL
