MODEL 1
REMARK VINA RESULT:      -5.1      0.000      0.000
REMARK  0 active torsions:
REMARK  status: ('A' for Active; 'I' for Inactive)
ROOT
HETATM    1  C1  UNL     1     -34.555  14.589  -5.908  1.00 20.00     0.057 C 
HETATM    2  C2  UNL     1     -34.053  17.778  -4.109  1.00 20.00    -0.019 C 
HETATM    3  C3  UNL     1     -34.074  16.493  -4.487  1.00 20.00    -0.051 C 
HETATM    4  C4  UNL     1     -34.345  15.912  -5.783  1.00 20.00    -0.052 C 
HETATM    5  C5  UNL     1     -34.603  13.695  -4.715  1.00 20.00     0.150 C 
HETATM    6  C6  UNL     1     -33.731  17.916  -2.656  1.00 20.00     0.028 C 
HETATM    7  C7  UNL     1     -34.583  14.329  -3.338  1.00 20.00     0.092 C 
HETATM    8  C8  UNL     1     -33.933  16.493  -2.129  1.00 20.00     0.013 C 
HETATM    9  C9  UNL     1     -33.724  15.585  -3.344  1.00 20.00     0.026 C 
HETATM   10  C10 UNL     1     -34.362  16.815  -6.982  1.00 20.00     0.049 C 
HETATM   11  O11 UNL     1     -34.730  12.481  -4.866  1.00 20.00    -0.293 OA
ENDROOT
TORSDOF 0
ENDMDL
MODEL 2
REMARK VINA RESULT:      -5.1      0.607      2.843
REMARK  0 active torsions:
REMARK  status: ('A' for Active; 'I' for Inactive)
ROOT
HETATM    1  C1  UNL     1     -34.436  14.541  -3.269  1.00 20.00     0.057 C 
HETATM    2  C2  UNL     1     -33.719  17.789  -4.879  1.00 20.00    -0.019 C 
HETATM    3  C3  UNL     1     -34.177  16.568  -4.572  1.00 20.00    -0.051 C 
HETATM    4  C4  UNL     1     -34.138  15.852  -3.316  1.00 20.00    -0.052 C 
HETATM    5  C5  UNL     1     -34.730  13.766  -4.509  1.00 20.00     0.150 C 
HETATM    6  C6  UNL     1     -33.972  18.123  -6.315  1.00 20.00     0.028 C 
HETATM    7  C7  UNL     1     -34.518  14.444  -5.849  1.00 20.00     0.092 C 
HETATM    8  C8  UNL     1     -34.318  16.762  -6.922  1.00 20.00     0.013 C 
HETATM    9  C9  UNL     1     -34.846  15.926  -5.753  1.00 20.00     0.026 C 
HETATM   10  C10 UNL     1     -33.780  16.610  -2.071  1.00 20.00     0.049 C 
HETATM   11  O11 UNL     1     -35.065  12.585  -4.427  1.00 20.00    -0.293 OA
ENDROOT
TORSDOF 0
ENDMDL
MODEL 3
REMARK VINA RESULT:      -5.0      1.219      2.205
REMARK  0 active torsions:
REMARK  status: ('A' for Active; 'I' for Inactive)
ROOT
HETATM    1  C1  UNL     1     -34.733  13.767  -5.572  1.00 20.00     0.057 C 
HETATM    2  C2  UNL     1     -34.510  17.209  -6.897  1.00 20.00    -0.019 C 
HETATM    3  C3  UNL     1     -34.325  16.064  -6.227  1.00 20.00    -0.051 C 
HETATM    4  C4  UNL     1     -34.836  14.739  -6.496  1.00 20.00    -0.052 C 
HETATM    5  C5  UNL     1     -34.173  14.039  -4.217  1.00 20.00     0.150 C 
HETATM    6  C6  UNL     1     -33.790  18.347  -6.246  1.00 20.00     0.028 C 
HETATM    7  C7  UNL     1     -33.879  15.477  -3.835  1.00 20.00     0.092 C 
HETATM    8  C8  UNL     1     -33.449  17.784  -4.864  1.00 20.00     0.013 C 
HETATM    9  C9  UNL     1     -33.413  16.265  -5.050  1.00 20.00     0.026 C 
HETATM   10  C10 UNL     1     -35.459  14.472  -7.836  1.00 20.00     0.049 C 
HETATM   11  O11 UNL     1     -34.031  13.116  -3.417  1.00 20.00    -0.293 OA
ENDROOT
TORSDOF 0
ENDMDL
MODEL 4
REMARK VINA RESULT:      -4.9     12.024     13.848
REMARK  0 active torsions:
REMARK  status: ('A' for Active; 'I' for Inactive)
ROOT
HETATM    1  C1  UNL     1     -34.576   5.537   6.607  1.00 20.00     0.057 C 
HETATM    2  C2  UNL     1     -32.503   7.262   4.081  1.00 20.00    -0.019 C 
HETATM    3  C3  UNL     1     -33.433   6.541   4.721  1.00 20.00    -0.051 C 
HETATM    4  C4  UNL     1     -33.773   6.502   6.125  1.00 20.00    -0.052 C 
HETATM    5  C5  UNL     1     -35.070   4.431   5.736  1.00 20.00     0.150 C 
HETATM    6  C6  UNL     1     -32.499   6.974   2.614  1.00 20.00     0.028 C 
HETATM    7  C7  UNL     1     -34.510   4.316   4.332  1.00 20.00     0.092 C 
HETATM    8  C8  UNL     1     -33.320   5.685   2.522  1.00 20.00     0.013 C 
HETATM    9  C9  UNL     1     -34.220   5.696   3.761  1.00 20.00     0.026 C 
HETATM   10  C10 UNL     1     -33.229   7.576   7.023  1.00 20.00     0.049 C 
HETATM   11  O11 UNL     1     -35.856   3.601   6.189  1.00 20.00    -0.293 OA
ENDROOT
TORSDOF 0
ENDMDL
MODEL 5
REMARK VINA RESULT:      -4.7      2.178      4.245
REMARK  0 active torsions:
REMARK  status: ('A' for Active; 'I' for Inactive)
ROOT
HETATM    1  C1  UNL     1     -33.949  17.809  -3.392  1.00 20.00     0.057 C 
HETATM    2  C2  UNL     1     -34.889  14.236  -3.480  1.00 20.00    -0.019 C 
HETATM    3  C3  UNL     1     -34.383  15.449  -3.737  1.00 20.00    -0.051 C 
HETATM    4  C4  UNL     1     -34.268  16.607  -2.879  1.00 20.00    -0.052 C 
HETATM    5  C5  UNL     1     -33.788  18.007  -4.862  1.00 20.00     0.150 C 
HETATM    6  C6  UNL     1     -34.808  13.344  -4.677  1.00 20.00     0.028 C 
HETATM    7  C7  UNL     1     -34.163  16.866  -5.787  1.00 20.00     0.092 C 
HETATM    8  C8  UNL     1     -34.516  14.329  -5.812  1.00 20.00     0.013 C 
HETATM    9  C9  UNL     1     -33.846  15.528  -5.137  1.00 20.00     0.026 C 
HETATM   10  C10 UNL     1     -34.490  16.429  -1.404  1.00 20.00     0.049 C 
HETATM   11  O11 UNL     1     -33.431  19.101  -5.295  1.00 20.00    -0.293 OA
ENDROOT
TORSDOF 0
ENDMDL
MODEL 6
REMARK VINA RESULT:      -4.7      0.991      1.281
REMARK  0 active torsions:
REMARK  status: ('A' for Active; 'I' for Inactive)
ROOT
HETATM    1  C1  UNL     1     -34.122  15.797  -5.488  1.00 20.00     0.057 C 
HETATM    2  C2  UNL     1     -33.999  18.217  -2.698  1.00 20.00    -0.019 C 
HETATM    3  C3  UNL     1     -33.971  17.116  -3.460  1.00 20.00    -0.051 C 
HETATM    4  C4  UNL     1     -33.896  16.985  -4.898  1.00 20.00    -0.052 C 
HETATM    5  C5  UNL     1     -34.539  14.604  -4.697  1.00 20.00     0.150 C 
HETATM    6  C6  UNL     1     -34.089  17.875  -1.245  1.00 20.00     0.028 C 
HETATM    7  C7  UNL     1     -34.875  14.794  -3.230  1.00 20.00     0.092 C 
HETATM    8  C8  UNL     1     -34.492  16.399  -1.270  1.00 20.00     0.013 C 
HETATM    9  C9  UNL     1     -33.994  15.872  -2.619  1.00 20.00     0.026 C 
HETATM   10  C10 UNL     1     -33.538  18.197  -5.708  1.00 20.00     0.049 C 
HETATM   11  O11 UNL     1     -34.673  13.517  -5.256  1.00 20.00    -0.293 OA
ENDROOT
TORSDOF 0
ENDMDL
MODEL 7
REMARK VINA RESULT:      -4.7      1.831      2.369
REMARK  0 active torsions:
REMARK  status: ('A' for Active; 'I' for Inactive)
ROOT
HETATM    1  C1  UNL     1     -36.443  14.132  -4.207  1.00 20.00     0.057 C 
HETATM    2  C2  UNL     1     -35.942  17.150  -2.133  1.00 20.00    -0.019 C 
HETATM    3  C3  UNL     1     -35.794  16.107  -2.961  1.00 20.00    -0.051 C 
HETATM    4  C4  UNL     1     -36.793  15.281  -3.601  1.00 20.00    -0.052 C 
HETATM    5  C5  UNL     1     -35.039  13.629  -4.167  1.00 20.00     0.150 C 
HETATM    6  C6  UNL     1     -34.620  17.702  -1.705  1.00 20.00     0.028 C 
HETATM    7  C7  UNL     1     -34.042  14.350  -3.281  1.00 20.00     0.092 C 
HETATM    8  C8  UNL     1     -33.645  16.592  -2.106  1.00 20.00     0.013 C 
HETATM    9  C9  UNL     1     -34.343  15.840  -3.243  1.00 20.00     0.026 C 
HETATM   10  C10 UNL     1     -38.220  15.748  -3.591  1.00 20.00     0.049 C 
HETATM   11  O11 UNL     1     -34.737  12.611  -4.786  1.00 20.00    -0.293 OA
ENDROOT
TORSDOF 0
ENDMDL
MODEL 8
REMARK VINA RESULT:      -4.7      2.298      2.779
REMARK  0 active torsions:
REMARK  status: ('A' for Active; 'I' for Inactive)
ROOT
HETATM    1  C1  UNL     1     -35.814  13.917  -3.930  1.00 20.00     0.057 C 
HETATM    2  C2  UNL     1     -33.442  16.415  -2.591  1.00 20.00    -0.019 C 
HETATM    3  C3  UNL     1     -34.518  15.665  -2.861  1.00 20.00    -0.051 C 
HETATM    4  C4  UNL     1     -34.616  14.396  -3.548  1.00 20.00    -0.052 C 
HETATM    5  C5  UNL     1     -37.063  14.709  -3.741  1.00 20.00     0.150 C 
HETATM    6  C6  UNL     1     -33.815  17.666  -1.861  1.00 20.00     0.028 C 
HETATM    7  C7  UNL     1     -36.941  16.144  -3.264  1.00 20.00     0.092 C 
HETATM    8  C8  UNL     1     -35.331  17.735  -2.064  1.00 20.00     0.013 C 
HETATM    9  C9  UNL     1     -35.768  16.288  -2.308  1.00 20.00     0.026 C 
HETATM   10  C10 UNL     1     -33.355  13.620  -3.799  1.00 20.00     0.049 C 
HETATM   11  O11 UNL     1     -38.150  14.217  -4.040  1.00 20.00    -0.293 OA
ENDROOT
TORSDOF 0
ENDMDL
MODEL 9
REMARK VINA RESULT:      -4.6      2.311      3.522
REMARK  0 active torsions:
REMARK  status: ('A' for Active; 'I' for Inactive)
ROOT
HETATM    1  C1  UNL     1     -34.567  16.699  -7.259  1.00 20.00     0.057 C 
HETATM    2  C2  UNL     1     -34.528  13.691  -5.112  1.00 20.00    -0.019 C 
HETATM    3  C3  UNL     1     -34.552  14.942  -5.588  1.00 20.00    -0.051 C 
HETATM    4  C4  UNL     1     -34.827  15.422  -6.925  1.00 20.00    -0.052 C 
HETATM    5  C5  UNL     1     -33.912  17.635  -6.299  1.00 20.00     0.150 C 
HETATM    6  C6  UNL     1     -34.187  13.664  -3.657  1.00 20.00     0.028 C 
HETATM    7  C7  UNL     1     -33.384  17.074  -4.993  1.00 20.00     0.092 C 
HETATM    8  C8  UNL     1     -33.638  15.072  -3.414  1.00 20.00     0.013 C 
HETATM    9  C9  UNL     1     -34.273  15.942  -4.503  1.00 20.00     0.026 C 
HETATM   10  C10 UNL     1     -35.428  14.469  -7.916  1.00 20.00     0.049 C 
HETATM   11  O11 UNL     1     -33.749  18.813  -6.610  1.00 20.00    -0.293 OA
ENDROOT
TORSDOF 0
ENDMDL
