MODEL 1
REMARK VINA RESULT:      -4.3      0.000      0.000
REMARK  1 active torsions:
REMARK  status: ('A' for Active; 'I' for Inactive)
REMARK    1  A    between atoms: C1_1  and  C2_2 
ROOT
HETATM    1  C2  UNL     1     -34.753  15.017  -3.367  1.00 20.00     0.084 A 
HETATM    2  C3  UNL     1     -33.945  15.937  -2.484  1.00 20.00     0.018 A 
HETATM    3  C4  UNL     1     -34.367  16.402  -3.863  1.00 20.00     0.048 A 
HETATM    4  C6  UNL     1     -34.539  16.475  -1.228  1.00 20.00     0.012 C 
HETATM    5  C7  UNL     1     -33.305  16.570  -4.911  1.00 20.00     0.034 C 
HETATM    6 CL9  UNL     1     -35.698  17.575  -4.011  1.00 20.00    -0.118 Cl
ENDROOT
BRANCH   1   7
HETATM    7  C1  UNL     1     -34.118  13.816  -3.925  1.00 20.00     0.129 C 
HETATM    8  C5  UNL     1     -34.819  13.155  -5.081  1.00 20.00     0.091 C 
HETATM    9  O8  UNL     1     -33.064  13.374  -3.471  1.00 20.00    -0.298 OA
ENDBRANCH   1   7
TORSDOF 1
ENDMDL
MODEL 2
REMARK VINA RESULT:      -4.2     11.884     12.596
REMARK  1 active torsions:
REMARK  status: ('A' for Active; 'I' for Inactive)
REMARK    1  A    between atoms: C1_1  and  C2_2 
ROOT
HETATM    1  C2  UNL     1     -33.036   5.786   4.494  1.00 20.00     0.084 A 
HETATM    2  C3  UNL     1     -33.958   6.723   5.238  1.00 20.00     0.018 A 
HETATM    3  C4  UNL     1     -34.508   5.435   4.658  1.00 20.00     0.048 A 
HETATM    4  C6  UNL     1     -33.776   6.942   6.701  1.00 20.00     0.012 C 
HETATM    5  C7  UNL     1     -35.449   5.528   3.492  1.00 20.00     0.034 C 
HETATM    6 CL9  UNL     1     -34.868   4.077   5.751  1.00 20.00    -0.118 Cl
ENDROOT
BRANCH   1   7
HETATM    7  C1  UNL     1     -32.502   6.192   3.188  1.00 20.00     0.129 C 
HETATM    8  C5  UNL     1     -32.305   7.667   2.966  1.00 20.00     0.091 C 
HETATM    9  O8  UNL     1     -32.229   5.366   2.318  1.00 20.00    -0.298 OA
ENDBRANCH   1   7
TORSDOF 1
ENDMDL
MODEL 3
REMARK VINA RESULT:      -4.1      1.695      2.457
REMARK  1 active torsions:
REMARK  status: ('A' for Active; 'I' for Inactive)
REMARK    1  A    between atoms: C1_1  and  C2_2 
ROOT
HETATM    1  C2  UNL     1     -34.242  14.851  -4.267  1.00 20.00     0.084 A 
HETATM    2  C3  UNL     1     -34.616  16.278  -4.590  1.00 20.00     0.018 A 
HETATM    3  C4  UNL     1     -35.220  15.602  -3.375  1.00 20.00     0.048 A 
HETATM    4  C6  UNL     1     -33.592  17.357  -4.493  1.00 20.00     0.012 C 
HETATM    5  C7  UNL     1     -36.684  15.273  -3.400  1.00 20.00     0.034 C 
HETATM    6 CL9  UNL     1     -34.620  16.035  -1.756  1.00 20.00    -0.118 Cl
ENDROOT
BRANCH   1   7
HETATM    7  C1  UNL     1     -34.707  13.771  -5.147  1.00 20.00     0.129 C 
HETATM    8  C5  UNL     1     -35.068  14.156  -6.557  1.00 20.00     0.091 C 
HETATM    9  O8  UNL     1     -34.795  12.610  -4.752  1.00 20.00    -0.298 OA
ENDBRANCH   1   7
TORSDOF 1
ENDMDL
MODEL 4
REMARK VINA RESULT:      -4.0      2.204      3.442
REMARK  1 active torsions:
REMARK  status: ('A' for Active; 'I' for Inactive)
REMARK    1  A    between atoms: C1_1  and  C2_2 
ROOT
HETATM    1  C2  UNL     1     -34.387  14.460  -5.692  1.00 20.00     0.084 A 
HETATM    2  C3  UNL     1     -35.702  14.564  -6.427  1.00 20.00     0.018 A 
HETATM    3  C4  UNL     1     -35.211  15.736  -5.601  1.00 20.00     0.048 A 
HETATM    4  C6  UNL     1     -35.723  14.573  -7.917  1.00 20.00     0.012 C 
HETATM    5  C7  UNL     1     -35.955  16.077  -4.342  1.00 20.00     0.034 C 
HETATM    6 CL9  UNL     1     -34.538  17.159  -6.432  1.00 20.00    -0.118 Cl
ENDROOT
BRANCH   1   7
HETATM    7  C1  UNL     1     -34.277  13.554  -4.542  1.00 20.00     0.129 C 
HETATM    8  C5  UNL     1     -33.111  13.775  -3.616  1.00 20.00     0.091 C 
HETATM    9  O8  UNL     1     -35.098  12.660  -4.344  1.00 20.00    -0.298 OA
ENDBRANCH   1   7
TORSDOF 1
ENDMDL
MODEL 5
REMARK VINA RESULT:      -3.9      2.402      2.750
REMARK  1 active torsions:
REMARK  status: ('A' for Active; 'I' for Inactive)
REMARK    1  A    between atoms: C1_1  and  C2_2 
ROOT
HETATM    1  C2  UNL     1     -35.724  15.669  -3.974  1.00 20.00     0.084 A 
HETATM    2  C3  UNL     1     -35.085  15.231  -2.678  1.00 20.00     0.018 A 
HETATM    3  C4  UNL     1     -34.370  14.974  -3.989  1.00 20.00     0.048 A 
HETATM    4  C6  UNL     1     -34.629  16.251  -1.691  1.00 20.00     0.012 C 
HETATM    5  C7  UNL     1     -34.245  13.555  -4.463  1.00 20.00     0.034 C 
HETATM    6 CL9  UNL     1     -32.977  15.992  -4.430  1.00 20.00    -0.118 Cl
ENDROOT
BRANCH   1   7
HETATM    7  C1  UNL     1     -36.928  14.977  -4.451  1.00 20.00     0.129 C 
HETATM    8  C5  UNL     1     -37.348  15.249  -5.870  1.00 20.00     0.091 C 
HETATM    9  O8  UNL     1     -37.561  14.211  -3.726  1.00 20.00    -0.298 OA
ENDBRANCH   1   7
TORSDOF 1
ENDMDL
MODEL 6
REMARK VINA RESULT:      -3.8      2.205      3.433
REMARK  1 active torsions:
REMARK  status: ('A' for Active; 'I' for Inactive)
REMARK    1  A    between atoms: C1_1  and  C2_2 
ROOT
HETATM    1  C2  UNL     1     -33.608  16.214  -3.328  1.00 20.00     0.084 A 
HETATM    2  C3  UNL     1     -34.392  14.930  -3.459  1.00 20.00     0.018 A 
HETATM    3  C4  UNL     1     -34.606  16.044  -4.464  1.00 20.00     0.048 A 
HETATM    4  C6  UNL     1     -33.688  13.659  -3.793  1.00 20.00     0.012 C 
HETATM    5  C7  UNL     1     -35.917  16.774  -4.445  1.00 20.00     0.034 C 
HETATM    6 CL9  UNL     1     -33.909  15.884  -6.095  1.00 20.00    -0.118 Cl
ENDROOT
BRANCH   1   7
HETATM    7  C1  UNL     1     -33.895  17.118  -2.207  1.00 20.00     0.129 C 
HETATM    8  C5  UNL     1     -34.600  16.521  -1.019  1.00 20.00     0.091 C 
HETATM    9  O8  UNL     1     -33.574  18.305  -2.237  1.00 20.00    -0.298 OA
ENDBRANCH   1   7
TORSDOF 1
ENDMDL
MODEL 7
REMARK VINA RESULT:      -3.8      2.148      2.547
REMARK  1 active torsions:
REMARK  status: ('A' for Active; 'I' for Inactive)
REMARK    1  A    between atoms: C1_1  and  C2_2 
ROOT
HETATM    1  C2  UNL     1     -35.486  14.825  -4.677  1.00 20.00     0.084 A 
HETATM    2  C3  UNL     1     -34.839  16.174  -4.880  1.00 20.00     0.018 A 
HETATM    3  C4  UNL     1     -35.438  15.445  -6.066  1.00 20.00     0.048 A 
HETATM    4  C6  UNL     1     -35.453  17.393  -4.281  1.00 20.00     0.012 C 
HETATM    5  C7  UNL     1     -34.506  14.904  -7.111  1.00 20.00     0.034 C 
HETATM    6 CL9  UNL     1     -36.997  15.998  -6.725  1.00 20.00    -0.118 Cl
ENDROOT
BRANCH   1   7
HETATM    7  C1  UNL     1     -34.645  13.669  -4.341  1.00 20.00     0.129 C 
HETATM    8  C5  UNL     1     -33.306  13.964  -3.720  1.00 20.00     0.091 C 
HETATM    9  O8  UNL     1     -35.016  12.516  -4.557  1.00 20.00    -0.298 OA
ENDBRANCH   1   7
TORSDOF 1
ENDMDL
MODEL 8
REMARK VINA RESULT:      -3.8      2.914      3.745
REMARK  1 active torsions:
REMARK  status: ('A' for Active; 'I' for Inactive)
REMARK    1  A    between atoms: C1_1  and  C2_2 
ROOT
HETATM    1  C2  UNL     1     -35.908  14.535  -4.765  1.00 20.00     0.084 A 
HETATM    2  C3  UNL     1     -34.949  15.615  -5.205  1.00 20.00     0.018 A 
HETATM    3  C4  UNL     1     -34.698  14.874  -3.907  1.00 20.00     0.048 A 
HETATM    4  C6  UNL     1     -34.116  15.419  -6.426  1.00 20.00     0.012 C 
HETATM    5  C7  UNL     1     -34.863  15.626  -2.618  1.00 20.00     0.034 C 
HETATM    6 CL9  UNL     1     -33.416  13.641  -3.848  1.00 20.00    -0.118 Cl
ENDROOT
BRANCH   1   7
HETATM    7  C1  UNL     1     -37.262  14.909  -4.336  1.00 20.00     0.129 C 
HETATM    8  C5  UNL     1     -37.769  16.252  -4.790  1.00 20.00     0.091 C 
HETATM    9  O8  UNL     1     -37.947  14.163  -3.640  1.00 20.00    -0.298 OA
ENDBRANCH   1   7
TORSDOF 1
ENDMDL
MODEL 9
REMARK VINA RESULT:      -3.7      1.628      2.493
REMARK  1 active torsions:
REMARK  status: ('A' for Active; 'I' for Inactive)
REMARK    1  A    between atoms: C1_1  and  C2_2 
ROOT
HETATM    1  C2  UNL     1     -34.922  15.728  -4.107  1.00 20.00     0.084 A 
HETATM    2  C3  UNL     1     -35.978  14.974  -3.335  1.00 20.00     0.018 A 
HETATM    3  C4  UNL     1     -35.490  16.315  -2.823  1.00 20.00     0.048 A 
HETATM    4  C6  UNL     1     -37.332  14.775  -3.925  1.00 20.00     0.012 C 
HETATM    5  C7  UNL     1     -34.669  16.338  -1.566  1.00 20.00     0.034 C 
HETATM    6 CL9  UNL     1     -36.530  17.746  -3.015  1.00 20.00    -0.118 Cl
ENDROOT
BRANCH   1   7
HETATM    7  C1  UNL     1     -33.552  15.201  -4.150  1.00 20.00     0.129 C 
HETATM    8  C5  UNL     1     -33.376  13.745  -3.813  1.00 20.00     0.091 C 
HETATM    9  O8  UNL     1     -32.595  15.914  -4.447  1.00 20.00    -0.298 OA
ENDBRANCH   1   7
TORSDOF 1
ENDMDL
