MODEL 1
REMARK VINA RESULT:      -5.0      0.000      0.000
REMARK  1 active torsions:
REMARK  status: ('A' for Active; 'I' for Inactive)
REMARK    1  A    between atoms: C3_3  and  C9_9 
ROOT
HETATM    1  C1  UNL     1     -34.583  15.195  -6.605  1.00 20.00    -0.030 C 
HETATM    2  C2  UNL     1     -33.802  15.968  -5.834  1.00 20.00    -0.026 C 
HETATM    3  C4  UNL     1     -36.070  15.093  -6.408  1.00 20.00     0.031 C 
HETATM    4  C5  UNL     1     -34.252  16.086  -3.369  1.00 20.00     0.022 C 
HETATM    5  C6  UNL     1     -35.833  17.157  -4.993  1.00 20.00     0.013 C 
HETATM    6  C7  UNL     1     -36.553  15.031  -3.868  1.00 20.00     0.018 C 
HETATM    7  C8  UNL     1     -34.362  16.815  -4.720  1.00 20.00     0.009 C 
HETATM    8  C9  UNL     1     -35.163  14.857  -3.248  1.00 20.00     0.073 C 
HETATM    9  C10 UNL     1     -36.610  15.852  -5.175  1.00 20.00    -0.010 C 
ENDROOT
BRANCH   8  10
HETATM   10  C3  UNL     1     -34.486  13.619  -3.771  1.00 20.00     0.223 C 
HETATM   11  O11 UNL     1     -35.123  12.707  -4.288  1.00 20.00    -0.279 OA
HETATM   12 CL12 UNL     1     -32.764  13.671  -3.546  1.00 20.00    -0.043 Cl
ENDBRANCH   8  10
TORSDOF 1
ENDMDL
MODEL 2
REMARK VINA RESULT:      -5.0      2.125      2.941
REMARK  1 active torsions:
REMARK  status: ('A' for Active; 'I' for Inactive)
REMARK    1  A    between atoms: C3_3  and  C9_9 
ROOT
HETATM    1  C1  UNL     1     -34.659  13.474  -5.169  1.00 20.00    -0.030 C 
HETATM    2  C2  UNL     1     -34.578  13.629  -3.838  1.00 20.00    -0.026 C 
HETATM    3  C4  UNL     1     -34.452  14.609  -6.132  1.00 20.00     0.031 C 
HETATM    4  C5  UNL     1     -35.528  15.698  -2.788  1.00 20.00     0.022 C 
HETATM    5  C6  UNL     1     -33.447  15.831  -4.178  1.00 20.00     0.013 C 
HETATM    6  C7  UNL     1     -35.581  16.721  -5.156  1.00 20.00     0.018 C 
HETATM    7  C8  UNL     1     -34.246  14.956  -3.205  1.00 20.00     0.009 C 
HETATM    8  C9  UNL     1     -36.383  16.178  -3.969  1.00 20.00     0.073 C 
HETATM    9  C10 UNL     1     -34.257  15.990  -5.467  1.00 20.00    -0.010 C 
ENDROOT
BRANCH   8  10
HETATM   10  C3  UNL     1     -37.353  15.116  -4.410  1.00 20.00     0.223 C 
HETATM   11  O11 UNL     1     -37.753  14.249  -3.639  1.00 20.00    -0.279 OA
HETATM   12 CL12 UNL     1     -37.797  15.288  -6.081  1.00 20.00    -0.043 Cl
ENDBRANCH   8  10
TORSDOF 1
ENDMDL
MODEL 3
REMARK VINA RESULT:      -5.0      2.365      3.399
REMARK  1 active torsions:
REMARK  status: ('A' for Active; 'I' for Inactive)
REMARK    1  A    between atoms: C3_3  and  C9_9 
ROOT
HETATM    1  C1  UNL     1     -33.866  15.871  -5.869  1.00 20.00    -0.030 C 
HETATM    2  C2  UNL     1     -34.489  14.688  -5.985  1.00 20.00    -0.026 C 
HETATM    3  C4  UNL     1     -33.210  16.321  -4.593  1.00 20.00     0.031 C 
HETATM    4  C5  UNL     1     -35.884  13.849  -4.077  1.00 20.00     0.022 C 
HETATM    5  C6  UNL     1     -33.386  13.917  -3.879  1.00 20.00     0.013 C 
HETATM    6  C7  UNL     1     -34.720  15.626  -2.612  1.00 20.00     0.018 C 
HETATM    7  C8  UNL     1     -34.559  13.704  -4.845  1.00 20.00     0.009 C 
HETATM    8  C9  UNL     1     -36.011  15.164  -3.295  1.00 20.00     0.073 C 
HETATM    9  C10 UNL     1     -33.413  15.368  -3.394  1.00 20.00    -0.010 C 
ENDROOT
BRANCH   8  10
HETATM   10  C3  UNL     1     -36.592  16.256  -4.152  1.00 20.00     0.223 C 
HETATM   11  O11 UNL     1     -36.299  17.435  -3.979  1.00 20.00    -0.279 OA
HETATM   12 CL12 UNL     1     -37.679  15.634  -5.356  1.00 20.00    -0.043 Cl
ENDBRANCH   8  10
TORSDOF 1
ENDMDL
MODEL 4
REMARK VINA RESULT:      -5.0      2.119      3.470
REMARK  1 active torsions:
REMARK  status: ('A' for Active; 'I' for Inactive)
REMARK    1  A    between atoms: C3_3  and  C9_9 
ROOT
HETATM    1  C1  UNL     1     -35.107  13.430  -4.174  1.00 20.00    -0.030 C 
HETATM    2  C2  UNL     1     -36.082  14.299  -3.865  1.00 20.00    -0.026 C 
HETATM    3  C4  UNL     1     -33.648  13.752  -4.001  1.00 20.00     0.031 C 
HETATM    4  C5  UNL     1     -35.770  16.729  -4.403  1.00 20.00     0.022 C 
HETATM    5  C6  UNL     1     -34.436  15.662  -2.569  1.00 20.00     0.013 C 
HETATM    6  C7  UNL     1     -33.263  16.205  -4.721  1.00 20.00     0.018 C 
HETATM    7  C8  UNL     1     -35.788  15.663  -3.293  1.00 20.00     0.009 C 
HETATM    8  C9  UNL     1     -34.592  16.594  -5.378  1.00 20.00     0.073 C 
HETATM    9  C10 UNL     1     -33.358  15.201  -3.551  1.00 20.00    -0.010 C 
ENDROOT
BRANCH   8  10
HETATM   10  C3  UNL     1     -34.926  15.669  -6.516  1.00 20.00     0.223 C 
HETATM   11  O11 UNL     1     -34.063  15.005  -7.082  1.00 20.00    -0.279 OA
HETATM   12 CL12 UNL     1     -36.623  15.678  -6.889  1.00 20.00    -0.043 Cl
ENDBRANCH   8  10
TORSDOF 1
ENDMDL
MODEL 5
REMARK VINA RESULT:      -4.9      2.279      3.500
REMARK  1 active torsions:
REMARK  status: ('A' for Active; 'I' for Inactive)
REMARK    1  A    between atoms: C3_3  and  C9_9 
ROOT
HETATM    1  C1  UNL     1     -35.924  15.255  -3.106  1.00 20.00    -0.030 C 
HETATM    2  C2  UNL     1     -34.718  15.764  -2.810  1.00 20.00    -0.026 C 
HETATM    3  C4  UNL     1     -36.114  14.147  -4.105  1.00 20.00     0.031 C 
HETATM    4  C5  UNL     1     -33.050  16.107  -4.652  1.00 20.00     0.022 C 
HETATM    5  C6  UNL     1     -33.634  13.790  -3.895  1.00 20.00     0.013 C 
HETATM    6  C7  UNL     1     -34.531  14.573  -6.105  1.00 20.00     0.018 C 
HETATM    7  C8  UNL     1     -33.451  15.244  -3.442  1.00 20.00     0.009 C 
HETATM    8  C9  UNL     1     -34.007  15.989  -5.846  1.00 20.00     0.073 C 
HETATM    9  C10 UNL     1     -34.828  13.724  -4.850  1.00 20.00    -0.010 C 
ENDROOT
BRANCH   8  10
HETATM   10  C3  UNL     1     -35.138  16.976  -5.742  1.00 20.00     0.223 C 
HETATM   11  O11 UNL     1     -36.247  16.736  -6.207  1.00 20.00    -0.279 OA
HETATM   12 CL12 UNL     1     -34.666  18.426  -4.908  1.00 20.00    -0.043 Cl
ENDBRANCH   8  10
TORSDOF 1
ENDMDL
MODEL 6
REMARK VINA RESULT:      -4.9      2.110      3.207
REMARK  1 active torsions:
REMARK  status: ('A' for Active; 'I' for Inactive)
REMARK    1  A    between atoms: C3_3  and  C9_9 
ROOT
HETATM    1  C1  UNL     1     -36.711  15.809  -4.549  1.00 20.00    -0.030 C 
HETATM    2  C2  UNL     1     -36.373  14.736  -3.818  1.00 20.00    -0.026 C 
HETATM    3  C4  UNL     1     -35.910  16.267  -5.737  1.00 20.00     0.031 C 
HETATM    4  C5  UNL     1     -33.953  14.314  -3.311  1.00 20.00     0.022 C 
HETATM    5  C6  UNL     1     -34.827  14.000  -5.639  1.00 20.00     0.013 C 
HETATM    6  C7  UNL     1     -33.399  16.012  -5.174  1.00 20.00     0.018 C 
HETATM    7  C8  UNL     1     -35.171  13.887  -4.148  1.00 20.00     0.009 C 
HETATM    8  C9  UNL     1     -33.402  15.700  -3.674  1.00 20.00     0.073 C 
HETATM    9  C10 UNL     1     -34.605  15.475  -5.977  1.00 20.00    -0.010 C 
ENDROOT
BRANCH   8  10
HETATM   10  C3  UNL     1     -34.095  16.786  -2.896  1.00 20.00     0.223 C 
HETATM   11  O11 UNL     1     -34.242  17.914  -3.355  1.00 20.00    -0.279 OA
HETATM   12 CL12 UNL     1     -34.629  16.234  -1.337  1.00 20.00    -0.043 Cl
ENDBRANCH   8  10
TORSDOF 1
ENDMDL
MODEL 7
REMARK VINA RESULT:      -4.8      1.524      2.434
REMARK  1 active torsions:
REMARK  status: ('A' for Active; 'I' for Inactive)
REMARK    1  A    between atoms: C3_3  and  C9_9 
ROOT
HETATM    1  C1  UNL     1     -34.483  16.825  -5.751  1.00 20.00    -0.030 C 
HETATM    2  C2  UNL     1     -35.621  16.832  -5.038  1.00 20.00    -0.026 C 
HETATM    3  C4  UNL     1     -34.042  15.640  -6.564  1.00 20.00     0.031 C 
HETATM    4  C5  UNL     1     -36.295  14.763  -3.793  1.00 20.00     0.022 C 
HETATM    5  C6  UNL     1     -36.404  14.819  -6.296  1.00 20.00     0.013 C 
HETATM    6  C7  UNL     1     -34.563  13.492  -5.222  1.00 20.00     0.018 C 
HETATM    7  C8  UNL     1     -36.561  15.654  -5.019  1.00 20.00     0.009 C 
HETATM    8  C9  UNL     1     -34.951  14.024  -3.839  1.00 20.00     0.073 C 
HETATM    9  C10 UNL     1     -34.940  14.390  -6.420  1.00 20.00    -0.010 C 
ENDROOT
BRANCH   8  10
HETATM   10  C3  UNL     1     -33.847  14.859  -3.250  1.00 20.00     0.223 C 
HETATM   11  O11 UNL     1     -32.692  14.778  -3.655  1.00 20.00    -0.279 OA
HETATM   12 CL12 UNL     1     -34.420  15.898  -1.980  1.00 20.00    -0.043 Cl
ENDBRANCH   8  10
TORSDOF 1
ENDMDL
MODEL 8
REMARK VINA RESULT:      -4.8      2.061      3.234
REMARK  1 active torsions:
REMARK  status: ('A' for Active; 'I' for Inactive)
REMARK    1  A    between atoms: C3_3  and  C9_9 
ROOT
HETATM    1  C1  UNL     1     -35.323  16.983  -3.244  1.00 20.00    -0.030 C 
HETATM    2  C2  UNL     1     -34.937  17.147  -4.519  1.00 20.00    -0.026 C 
HETATM    3  C4  UNL     1     -34.784  15.886  -2.368  1.00 20.00     0.031 C 
HETATM    4  C5  UNL     1     -34.589  15.124  -5.961  1.00 20.00     0.022 C 
HETATM    5  C6  UNL     1     -32.984  15.643  -4.106  1.00 20.00     0.013 C 
HETATM    6  C7  UNL     1     -34.584  13.734  -3.787  1.00 20.00     0.018 C 
HETATM    7  C8  UNL     1     -33.909  16.254  -5.167  1.00 20.00     0.009 C 
HETATM    8  C9  UNL     1     -35.315  14.095  -5.084  1.00 20.00     0.073 C 
HETATM    9  C10 UNL     1     -33.842  14.893  -3.086  1.00 20.00    -0.010 C 
ENDROOT
BRANCH   8  10
HETATM   10  C3  UNL     1     -36.733  14.515  -4.808  1.00 20.00     0.223 C 
HETATM   11  O11 UNL     1     -37.316  14.180  -3.781  1.00 20.00    -0.279 OA
HETATM   12 CL12 UNL     1     -37.387  15.491  -6.088  1.00 20.00    -0.043 Cl
ENDBRANCH   8  10
TORSDOF 1
ENDMDL
MODEL 9
REMARK VINA RESULT:      -4.7      2.000      2.754
REMARK  1 active torsions:
REMARK  status: ('A' for Active; 'I' for Inactive)
REMARK    1  A    between atoms: C3_3  and  C9_9 
ROOT
HETATM    1  C1  UNL     1     -33.993  17.171  -4.858  1.00 20.00    -0.030 C 
HETATM    2  C2  UNL     1     -33.135  16.182  -4.563  1.00 20.00    -0.026 C 
HETATM    3  C4  UNL     1     -35.210  17.465  -4.025  1.00 20.00     0.031 C 
HETATM    4  C5  UNL     1     -34.033  13.994  -3.730  1.00 20.00     0.022 C 
HETATM    5  C6  UNL     1     -34.121  16.030  -2.271  1.00 20.00     0.013 C 
HETATM    6  C7  UNL     1     -36.263  15.218  -3.299  1.00 20.00     0.018 C 
HETATM    7  C8  UNL     1     -33.314  15.301  -3.353  1.00 20.00     0.009 C 
HETATM    8  C9  UNL     1     -35.501  14.184  -4.134  1.00 20.00     0.073 C 
HETATM    9  C10 UNL     1     -35.459  16.466  -2.873  1.00 20.00    -0.010 C 
ENDROOT
BRANCH   8  10
HETATM   10  C3  UNL     1     -35.631  14.472  -5.605  1.00 20.00     0.223 C 
HETATM   11  O11 UNL     1     -34.779  14.108  -6.410  1.00 20.00    -0.279 OA
HETATM   12 CL12 UNL     1     -37.085  15.348  -5.975  1.00 20.00    -0.043 Cl
ENDBRANCH   8  10
TORSDOF 1
ENDMDL
