MODEL 1
REMARK VINA RESULT:      -4.2      0.000      0.000
REMARK  1 active torsions:
REMARK  status: ('A' for Active; 'I' for Inactive)
REMARK    1  A    between atoms: C1_1  and  C4_4 
ROOT
HETATM    1  C2  UNL     1     -32.926  14.677  -3.950  1.00 20.00     0.225 A 
HETATM    2  C3  UNL     1     -33.854  15.665  -3.334  1.00 20.00     0.225 A 
HETATM    3  C4  UNL     1     -34.299  14.885  -4.549  1.00 20.00     0.099 A 
HETATM    4  C5  UNL     1     -34.364  15.637  -5.855  1.00 20.00     0.031 C 
HETATM    5  F7  UNL     1     -32.686  13.506  -3.253  1.00 20.00    -0.245 F 
HETATM    6  F8  UNL     1     -34.409  15.344  -2.108  1.00 20.00    -0.245 F 
ENDROOT
BRANCH   3   7
HETATM    7  C1  UNL     1     -35.303  13.814  -4.339  1.00 20.00     0.233 C 
HETATM    8  O6  UNL     1     -35.008  12.626  -4.435  1.00 20.00    -0.279 OA
HETATM    9 CL9  UNL     1     -36.873  14.454  -3.959  1.00 20.00    -0.043 Cl
ENDBRANCH   3   7
TORSDOF 1
ENDMDL
MODEL 2
REMARK VINA RESULT:      -4.0      1.829      2.221
REMARK  1 active torsions:
REMARK  status: ('A' for Active; 'I' for Inactive)
REMARK    1  A    between atoms: C1_1  and  C4_4 
ROOT
HETATM    1  C2  UNL     1     -33.943  16.048  -4.458  1.00 20.00     0.225 A 
HETATM    2  C3  UNL     1     -33.530  15.103  -3.383  1.00 20.00     0.225 A 
HETATM    3  C4  UNL     1     -34.829  14.870  -4.122  1.00 20.00     0.099 A 
HETATM    4  C5  UNL     1     -36.102  15.168  -3.371  1.00 20.00     0.031 C 
HETATM    5  F7  UNL     1     -33.231  16.015  -5.645  1.00 20.00    -0.245 F 
HETATM    6  F8  UNL     1     -32.465  14.261  -3.646  1.00 20.00    -0.245 F 
ENDROOT
BRANCH   3   7
HETATM    7  C1  UNL     1     -34.866  13.747  -5.091  1.00 20.00     0.233 C 
HETATM    8  O6  UNL     1     -34.670  12.587  -4.741  1.00 20.00    -0.279 OA
HETATM    9 CL9  UNL     1     -35.209  14.287  -6.706  1.00 20.00    -0.043 Cl
ENDBRANCH   3   7
TORSDOF 1
ENDMDL
MODEL 3
REMARK VINA RESULT:      -3.9      2.621      3.178
REMARK  1 active torsions:
REMARK  status: ('A' for Active; 'I' for Inactive)
REMARK    1  A    between atoms: C1_1  and  C4_4 
ROOT
HETATM    1  C2  UNL     1     -36.429  15.163  -3.401  1.00 20.00     0.225 A 
HETATM    2  C3  UNL     1     -35.610  16.138  -4.171  1.00 20.00     0.225 A 
HETATM    3  C4  UNL     1     -34.970  15.350  -3.052  1.00 20.00     0.099 A 
HETATM    4  C5  UNL     1     -34.666  16.099  -1.779  1.00 20.00     0.031 C 
HETATM    5  F7  UNL     1     -36.805  13.996  -4.044  1.00 20.00    -0.245 F 
HETATM    6  F8  UNL     1     -35.284  15.810  -5.475  1.00 20.00    -0.245 F 
ENDROOT
BRANCH   3   7
HETATM    7  C1  UNL     1     -34.034  14.265  -3.433  1.00 20.00     0.233 C 
HETATM    8  O6  UNL     1     -34.410  13.103  -3.558  1.00 20.00    -0.279 OA
HETATM    9 CL9  UNL     1     -32.415  14.849  -3.665  1.00 20.00    -0.043 Cl
ENDBRANCH   3   7
TORSDOF 1
ENDMDL
MODEL 4
REMARK VINA RESULT:      -3.9      2.622      3.109
REMARK  1 active torsions:
REMARK  status: ('A' for Active; 'I' for Inactive)
REMARK    1  A    between atoms: C1_1  and  C4_4 
ROOT
HETATM    1  C2  UNL     1     -35.985  14.969  -5.985  1.00 20.00     0.225 A 
HETATM    2  C3  UNL     1     -34.878  15.856  -5.533  1.00 20.00     0.225 A 
HETATM    3  C4  UNL     1     -35.358  14.744  -4.628  1.00 20.00     0.099 A 
HETATM    4  C5  UNL     1     -36.174  15.149  -3.427  1.00 20.00     0.031 C 
HETATM    5  F7  UNL     1     -35.705  14.063  -6.994  1.00 20.00    -0.245 F 
HETATM    6  F8  UNL     1     -33.650  15.714  -6.154  1.00 20.00    -0.245 F 
ENDROOT
BRANCH   3   7
HETATM    7  C1  UNL     1     -34.472  13.565  -4.474  1.00 20.00     0.233 C 
HETATM    8  O6  UNL     1     -34.791  12.460  -4.902  1.00 20.00    -0.279 OA
HETATM    9 CL9  UNL     1     -32.999  13.957  -3.641  1.00 20.00    -0.043 Cl
ENDBRANCH   3   7
TORSDOF 1
ENDMDL
MODEL 5
REMARK VINA RESULT:      -3.9      1.888      2.285
REMARK  1 active torsions:
REMARK  status: ('A' for Active; 'I' for Inactive)
REMARK    1  A    between atoms: C1_1  and  C4_4 
ROOT
HETATM    1  C2  UNL     1     -34.848  15.957  -3.496  1.00 20.00     0.225 A 
HETATM    2  C3  UNL     1     -36.095  15.425  -4.112  1.00 20.00     0.225 A 
HETATM    3  C4  UNL     1     -34.752  14.959  -4.628  1.00 20.00     0.099 A 
HETATM    4  C5  UNL     1     -34.317  15.493  -5.970  1.00 20.00     0.031 C 
HETATM    5  F7  UNL     1     -34.534  15.530  -2.218  1.00 20.00    -0.245 F 
HETATM    6  F8  UNL     1     -36.852  14.542  -3.362  1.00 20.00    -0.245 F 
ENDROOT
BRANCH   3   7
HETATM    7  C1  UNL     1     -34.334  13.579  -4.286  1.00 20.00     0.233 C 
HETATM    8  O6  UNL     1     -35.039  12.609  -4.547  1.00 20.00    -0.279 OA
HETATM    9 CL9  UNL     1     -32.785  13.538  -3.502  1.00 20.00    -0.043 Cl
ENDBRANCH   3   7
TORSDOF 1
ENDMDL
MODEL 6
REMARK VINA RESULT:      -3.9     12.594     13.192
REMARK  1 active torsions:
REMARK  status: ('A' for Active; 'I' for Inactive)
REMARK    1  A    between atoms: C1_1  and  C4_4 
ROOT
HETATM    1  C2  UNL     1     -35.320   5.196   6.021  1.00 20.00     0.225 A 
HETATM    2  C3  UNL     1     -34.625   4.051   5.371  1.00 20.00     0.225 A 
HETATM    3  C4  UNL     1     -34.679   5.388   4.666  1.00 20.00     0.099 A 
HETATM    4  C5  UNL     1     -35.608   5.496   3.483  1.00 20.00     0.031 C 
HETATM    5  F7  UNL     1     -34.710   5.771   7.122  1.00 20.00    -0.245 F 
HETATM    6  F8  UNL     1     -33.419   3.644   5.913  1.00 20.00    -0.245 F 
ENDROOT
BRANCH   3   7
HETATM    7  C1  UNL     1     -33.426   6.178   4.611  1.00 20.00     0.233 C 
HETATM    8  O6  UNL     1     -33.090   6.919   5.530  1.00 20.00    -0.279 OA
HETATM    9 CL9  UNL     1     -32.551   5.917   3.133  1.00 20.00    -0.043 Cl
ENDBRANCH   3   7
TORSDOF 1
ENDMDL
MODEL 7
REMARK VINA RESULT:      -3.8      2.331      2.879
REMARK  1 active torsions:
REMARK  status: ('A' for Active; 'I' for Inactive)
REMARK    1  A    between atoms: C1_1  and  C4_4 
ROOT
HETATM    1  C2  UNL     1     -34.140  13.706  -3.427  1.00 20.00     0.225 A 
HETATM    2  C3  UNL     1     -35.236  13.693  -4.434  1.00 20.00     0.225 A 
HETATM    3  C4  UNL     1     -34.726  15.014  -3.907  1.00 20.00     0.099 A 
HETATM    4  C5  UNL     1     -35.620  15.754  -2.944  1.00 20.00     0.031 C 
HETATM    5  F7  UNL     1     -32.872  13.358  -3.858  1.00 20.00    -0.245 F 
HETATM    6  F8  UNL     1     -34.910  13.332  -5.730  1.00 20.00    -0.245 F 
ENDROOT
BRANCH   3   7
HETATM    7  C1  UNL     1     -33.898  15.836  -4.822  1.00 20.00     0.233 C 
HETATM    8  O6  UNL     1     -32.709  16.050  -4.600  1.00 20.00    -0.279 OA
HETATM    9 CL9  UNL     1     -34.807  16.422  -6.181  1.00 20.00    -0.043 Cl
ENDBRANCH   3   7
TORSDOF 1
ENDMDL
MODEL 8
REMARK VINA RESULT:      -3.7      2.138      2.883
REMARK  1 active torsions:
REMARK  status: ('A' for Active; 'I' for Inactive)
REMARK    1  A    between atoms: C1_1  and  C4_4 
ROOT
HETATM    1  C2  UNL     1     -35.602  14.840  -4.787  1.00 20.00     0.225 A 
HETATM    2  C3  UNL     1     -34.603  13.985  -5.485  1.00 20.00     0.225 A 
HETATM    3  C4  UNL     1     -34.159  15.286  -4.856  1.00 20.00     0.099 A 
HETATM    4  C5  UNL     1     -33.844  16.424  -5.794  1.00 20.00     0.031 C 
HETATM    5  F7  UNL     1     -36.091  14.388  -3.573  1.00 20.00    -0.245 F 
HETATM    6  F8  UNL     1     -34.235  12.800  -4.873  1.00 20.00    -0.245 F 
ENDROOT
BRANCH   3   7
HETATM    7  C1  UNL     1     -33.359  15.200  -3.611  1.00 20.00     0.233 C 
HETATM    8  O6  UNL     1     -32.291  14.595  -3.572  1.00 20.00    -0.279 OA
HETATM    9 CL9  UNL     1     -34.114  16.033  -2.287  1.00 20.00    -0.043 Cl
ENDBRANCH   3   7
TORSDOF 1
ENDMDL
MODEL 9
REMARK VINA RESULT:      -3.7     12.133     12.594
REMARK  1 active torsions:
REMARK  status: ('A' for Active; 'I' for Inactive)
REMARK    1  A    between atoms: C1_1  and  C4_4 
ROOT
HETATM    1  C2  UNL     1     -34.556   4.623   3.415  1.00 20.00     0.225 A 
HETATM    2  C3  UNL     1     -35.731   5.349   3.972  1.00 20.00     0.225 A 
HETATM    3  C4  UNL     1     -34.506   5.143   4.834  1.00 20.00     0.099 A 
HETATM    4  C5  UNL     1     -34.614   4.120   5.937  1.00 20.00     0.031 C 
HETATM    5  F7  UNL     1     -33.802   5.272   2.453  1.00 20.00    -0.245 F 
HETATM    6  F8  UNL     1     -35.986   6.620   3.488  1.00 20.00    -0.245 F 
ENDROOT
BRANCH   3   7
HETATM    7  C1  UNL     1     -33.652   6.327   5.096  1.00 20.00     0.233 C 
HETATM    8  O6  UNL     1     -32.854   6.743   4.261  1.00 20.00    -0.279 OA
HETATM    9 CL9  UNL     1     -33.931   6.999   6.673  1.00 20.00    -0.043 Cl
ENDBRANCH   3   7
TORSDOF 1
ENDMDL
