MODEL 1
REMARK VINA RESULT:      -4.6      0.000      0.000
REMARK  1 active torsions:
REMARK  status: ('A' for Active; 'I' for Inactive)
REMARK    1  A    between atoms: C3_3  and  C7_7 
ROOT
HETATM    1  C1  UNL     1     -36.005  16.294  -4.200  1.00 20.00    -0.029 C 
HETATM    2  C2  UNL     1     -35.977  16.195  -2.864  1.00 20.00    -0.026 C 
HETATM    3  C4  UNL     1     -34.811  16.042  -5.074  1.00 20.00     0.039 C 
HETATM    4  C5  UNL     1     -33.455  15.946  -2.937  1.00 20.00     0.020 C 
HETATM    5  C6  UNL     1     -34.736  15.852  -2.083  1.00 20.00     0.004 C 
HETATM    6  C7  UNL     1     -33.642  15.368  -4.343  1.00 20.00     0.059 C 
HETATM    7  C9  UNL     1     -34.607  16.745  -0.848  1.00 20.00     0.014 C 
ENDROOT
BRANCH   6   8
HETATM    8  C3  UNL     1     -33.827  13.877  -4.285  1.00 20.00     0.127 C 
HETATM    9  C8  UNL     1     -34.934  13.299  -5.126  1.00 20.00     0.091 C 
HETATM   10  O10 UNL     1     -33.109  13.163  -3.586  1.00 20.00    -0.298 OA
ENDBRANCH   6   8
TORSDOF 1
ENDMDL
MODEL 2
REMARK VINA RESULT:      -4.6      1.966      2.845
REMARK  1 active torsions:
REMARK  status: ('A' for Active; 'I' for Inactive)
REMARK    1  A    between atoms: C3_3  and  C7_7 
ROOT
HETATM    1  C1  UNL     1     -33.502  13.822  -3.881  1.00 20.00    -0.029 C 
HETATM    2  C2  UNL     1     -33.461  14.971  -3.192  1.00 20.00    -0.026 C 
HETATM    3  C4  UNL     1     -34.752  13.278  -4.510  1.00 20.00     0.039 C 
HETATM    4  C5  UNL     1     -35.991  15.106  -3.270  1.00 20.00     0.020 C 
HETATM    5  C6  UNL     1     -34.670  15.832  -2.940  1.00 20.00     0.004 C 
HETATM    6  C7  UNL     1     -35.907  14.288  -4.561  1.00 20.00     0.059 C 
HETATM    7  C9  UNL     1     -34.693  16.327  -1.494  1.00 20.00     0.014 C 
ENDROOT
BRANCH   6   8
HETATM    8  C3  UNL     1     -35.782  15.192  -5.756  1.00 20.00     0.127 C 
HETATM    9  C8  UNL     1     -35.013  14.655  -6.934  1.00 20.00     0.091 C 
HETATM   10  O10 UNL     1     -36.286  16.314  -5.773  1.00 20.00    -0.298 OA
ENDBRANCH   6   8
TORSDOF 1
ENDMDL
MODEL 3
REMARK VINA RESULT:      -4.6      1.939      3.924
REMARK  1 active torsions:
REMARK  status: ('A' for Active; 'I' for Inactive)
REMARK    1  A    between atoms: C3_3  and  C7_7 
ROOT
HETATM    1  C1  UNL     1     -33.658  13.633  -4.017  1.00 20.00    -0.029 C 
HETATM    2  C2  UNL     1     -34.552  13.700  -5.013  1.00 20.00    -0.026 C 
HETATM    3  C4  UNL     1     -32.856  14.809  -3.544  1.00 20.00     0.039 C 
HETATM    4  C5  UNL     1     -33.769  16.049  -5.554  1.00 20.00     0.020 C 
HETATM    5  C6  UNL     1     -34.830  14.956  -5.796  1.00 20.00     0.004 C 
HETATM    6  C7  UNL     1     -33.358  16.156  -4.083  1.00 20.00     0.059 C 
HETATM    7  C9  UNL     1     -34.937  14.653  -7.291  1.00 20.00     0.014 C 
ENDROOT
BRANCH   6   8
HETATM    8  C3  UNL     1     -34.494  16.683  -3.250  1.00 20.00     0.127 C 
HETATM    9  C8  UNL     1     -34.534  16.250  -1.809  1.00 20.00     0.091 C 
HETATM   10  O10 UNL     1     -35.347  17.433  -3.722  1.00 20.00    -0.298 OA
ENDBRANCH   6   8
TORSDOF 1
ENDMDL
MODEL 4
REMARK VINA RESULT:      -4.5      1.940      3.726
REMARK  1 active torsions:
REMARK  status: ('A' for Active; 'I' for Inactive)
REMARK    1  A    between atoms: C3_3  and  C7_7 
ROOT
HETATM    1  C1  UNL     1     -33.792  16.241  -5.953  1.00 20.00    -0.029 C 
HETATM    2  C2  UNL     1     -34.372  15.588  -6.969  1.00 20.00    -0.026 C 
HETATM    3  C4  UNL     1     -34.248  16.126  -4.527  1.00 20.00     0.039 C 
HETATM    4  C5  UNL     1     -36.244  14.853  -5.426  1.00 20.00     0.020 C 
HETATM    5  C6  UNL     1     -35.569  14.690  -6.804  1.00 20.00     0.004 C 
HETATM    6  C7  UNL     1     -35.230  14.972  -4.284  1.00 20.00     0.059 C 
HETATM    7  C9  UNL     1     -36.589  14.932  -7.916  1.00 20.00     0.014 C 
ENDROOT
BRANCH   6   8
HETATM    8  C3  UNL     1     -34.500  13.673  -4.083  1.00 20.00     0.127 C 
HETATM    9  C8  UNL     1     -33.076  13.764  -3.605  1.00 20.00     0.091 C 
HETATM   10  O10 UNL     1     -35.041  12.588  -4.297  1.00 20.00    -0.298 OA
ENDBRANCH   6   8
TORSDOF 1
ENDMDL
MODEL 5
REMARK VINA RESULT:      -4.3     11.938     13.552
REMARK  1 active torsions:
REMARK  status: ('A' for Active; 'I' for Inactive)
REMARK    1  A    between atoms: C3_3  and  C7_7 
ROOT
HETATM    1  C1  UNL     1     -43.350   3.854  -0.325  1.00 20.00    -0.029 C 
HETATM    2  C2  UNL     1     -43.220   3.436  -1.591  1.00 20.00    -0.026 C 
HETATM    3  C4  UNL     1     -42.293   4.632   0.403  1.00 20.00     0.039 C 
HETATM    4  C5  UNL     1     -40.786   4.145  -1.574  1.00 20.00     0.020 C 
HETATM    5  C6  UNL     1     -41.986   3.671  -2.421  1.00 20.00     0.004 C 
HETATM    6  C7  UNL     1     -41.186   5.173  -0.512  1.00 20.00     0.059 C 
HETATM    7  C9  UNL     1     -41.608   2.412  -3.202  1.00 20.00     0.014 C 
ENDROOT
BRANCH   6   8
HETATM    8  C3  UNL     1     -41.599   6.468  -1.155  1.00 20.00     0.127 C 
HETATM    9  C8  UNL     1     -42.784   7.174  -0.553  1.00 20.00     0.091 C 
HETATM   10  O10 UNL     1     -40.998   6.929  -2.124  1.00 20.00    -0.298 OA
ENDBRANCH   6   8
TORSDOF 1
ENDMDL
MODEL 6
REMARK VINA RESULT:      -4.2      1.557      3.502
REMARK  1 active torsions:
REMARK  status: ('A' for Active; 'I' for Inactive)
REMARK    1  A    between atoms: C3_3  and  C7_7 
ROOT
HETATM    1  C1  UNL     1     -36.845  15.739  -4.775  1.00 20.00    -0.029 C 
HETATM    2  C2  UNL     1     -36.107  15.953  -5.872  1.00 20.00    -0.026 C 
HETATM    3  C4  UNL     1     -36.498  14.720  -3.728  1.00 20.00     0.039 C 
HETATM    4  C5  UNL     1     -34.707  13.910  -5.326  1.00 20.00     0.020 C 
HETATM    5  C6  UNL     1     -34.861  15.173  -6.200  1.00 20.00     0.004 C 
HETATM    6  C7  UNL     1     -35.075  14.160  -3.861  1.00 20.00     0.059 C 
HETATM    7  C9  UNL     1     -34.832  14.791  -7.680  1.00 20.00     0.014 C 
ENDROOT
BRANCH   6   8
HETATM    8  C3  UNL     1     -34.071  15.071  -3.209  1.00 20.00     0.127 C 
HETATM    9  C8  UNL     1     -34.585  15.975  -2.121  1.00 20.00     0.091 C 
HETATM   10  O10 UNL     1     -32.888  15.076  -3.547  1.00 20.00    -0.298 OA
ENDBRANCH   6   8
TORSDOF 1
ENDMDL
MODEL 7
REMARK VINA RESULT:      -4.2      2.378      4.212
REMARK  1 active torsions:
REMARK  status: ('A' for Active; 'I' for Inactive)
REMARK    1  A    between atoms: C3_3  and  C7_7 
ROOT
HETATM    1  C1  UNL     1     -34.894  13.845  -3.915  1.00 20.00    -0.029 C 
HETATM    2  C2  UNL     1     -34.818  13.670  -5.241  1.00 20.00    -0.026 C 
HETATM    3  C4  UNL     1     -35.615  14.992  -3.270  1.00 20.00     0.039 C 
HETATM    4  C5  UNL     1     -35.839  15.963  -5.598  1.00 20.00     0.020 C 
HETATM    5  C6  UNL     1     -35.419  14.624  -6.239  1.00 20.00     0.004 C 
HETATM    6  C7  UNL     1     -36.513  15.778  -4.236  1.00 20.00     0.059 C 
HETATM    7  C9  UNL     1     -34.453  14.880  -7.397  1.00 20.00     0.014 C 
ENDROOT
BRANCH   6   8
HETATM    8  C3  UNL     1     -37.853  15.113  -4.392  1.00 20.00     0.127 C 
HETATM    9  C8  UNL     1     -38.748  15.642  -5.480  1.00 20.00     0.091 C 
HETATM   10  O10 UNL     1     -38.200  14.182  -3.667  1.00 20.00    -0.298 OA
ENDBRANCH   6   8
TORSDOF 1
ENDMDL
MODEL 8
REMARK VINA RESULT:      -4.1      2.114      3.782
REMARK  1 active torsions:
REMARK  status: ('A' for Active; 'I' for Inactive)
REMARK    1  A    between atoms: C3_3  and  C7_7 
ROOT
HETATM    1  C1  UNL     1     -33.524  17.109  -4.820  1.00 20.00    -0.029 C 
HETATM    2  C2  UNL     1     -33.062  15.907  -4.448  1.00 20.00    -0.026 C 
HETATM    3  C4  UNL     1     -34.716  17.769  -4.190  1.00 20.00     0.039 C 
HETATM    4  C5  UNL     1     -35.109  15.573  -2.990  1.00 20.00     0.020 C 
HETATM    5  C6  UNL     1     -33.704  15.065  -3.377  1.00 20.00     0.004 C 
HETATM    6  C7  UNL     1     -35.175  17.099  -2.887  1.00 20.00     0.059 C 
HETATM    7  C9  UNL     1     -33.780  13.601  -3.809  1.00 20.00     0.014 C 
ENDROOT
BRANCH   6   8
HETATM    8  C3  UNL     1     -34.371  17.589  -1.714  1.00 20.00     0.127 C 
HETATM    9  C8  UNL     1     -34.649  16.939  -0.385  1.00 20.00     0.091 C 
HETATM   10  O10 UNL     1     -33.526  18.475  -1.835  1.00 20.00    -0.298 OA
ENDBRANCH   6   8
TORSDOF 1
ENDMDL
MODEL 9
REMARK VINA RESULT:      -4.1      1.659      2.359
REMARK  1 active torsions:
REMARK  status: ('A' for Active; 'I' for Inactive)
REMARK    1  A    between atoms: C3_3  and  C7_7 
ROOT
HETATM    1  C1  UNL     1     -33.187  16.274  -4.594  1.00 20.00    -0.029 C 
HETATM    2  C2  UNL     1     -34.193  17.160  -4.585  1.00 20.00    -0.026 C 
HETATM    3  C4  UNL     1     -33.159  15.044  -3.735  1.00 20.00     0.039 C 
HETATM    4  C5  UNL     1     -35.198  15.993  -2.571  1.00 20.00     0.020 C 
HETATM    5  C6  UNL     1     -35.395  17.041  -3.687  1.00 20.00     0.004 C 
HETATM    6  C7  UNL     1     -34.506  14.723  -3.072  1.00 20.00     0.059 C 
HETATM    7  C9  UNL     1     -35.752  18.395  -3.073  1.00 20.00     0.014 C 
ENDROOT
BRANCH   6   8
HETATM    8  C3  UNL     1     -35.403  13.963  -4.010  1.00 20.00     0.127 C 
HETATM    9  C8  UNL     1     -34.735  13.244  -5.151  1.00 20.00     0.091 C 
HETATM   10  O10 UNL     1     -36.623  13.929  -3.852  1.00 20.00    -0.298 OA
ENDBRANCH   6   8
TORSDOF 1
ENDMDL
