MODEL 1
REMARK VINA RESULT:      -5.6      0.000      0.000
REMARK  1 active torsions:
REMARK  status: ('A' for Active; 'I' for Inactive)
REMARK    1  A    between atoms: C5_5  and  C7_7 
ROOT
HETATM    1  C1  UNL     1     -34.792   4.301   6.050  1.00 20.00    -0.003 A 
HETATM    2  C2  UNL     1     -34.516   5.623   6.575  1.00 20.00    -0.003 A 
HETATM    3  C3  UNL     1     -34.645   4.344   4.712  1.00 20.00    -0.012 A 
HETATM    4  C4  UNL     1     -34.209   6.429   5.542  1.00 20.00    -0.012 A 
HETATM    5  C6  UNL     1     -34.788   6.305   3.016  1.00 20.00     0.032 A 
HETATM    6  C7  UNL     1     -33.327   5.923   3.123  1.00 20.00     0.072 A 
HETATM    7  C8  UNL     1     -34.260   5.693   4.271  1.00 20.00     0.006 A 
ENDROOT
BRANCH   6   8
HETATM    8  C5  UNL     1     -32.313   6.985   3.171  1.00 20.00     0.128 C 
HETATM    9  C9  UNL     1     -32.229   7.895   1.976  1.00 20.00     0.091 C 
HETATM   10  O10 UNL     1     -31.574   7.125   4.143  1.00 20.00    -0.298 OA
ENDBRANCH   6   8
TORSDOF 1
ENDMDL
MODEL 2
REMARK VINA RESULT:      -4.8     11.690     12.558
REMARK  1 active torsions:
REMARK  status: ('A' for Active; 'I' for Inactive)
REMARK    1  A    between atoms: C5_5  and  C7_7 
ROOT
HETATM    1  C1  UNL     1     -34.128  18.039  -2.277  1.00 20.00    -0.003 A 
HETATM    2  C2  UNL     1     -34.691  17.093  -1.335  1.00 20.00    -0.003 A 
HETATM    3  C3  UNL     1     -33.693  17.351  -3.350  1.00 20.00    -0.012 A 
HETATM    4  C4  UNL     1     -34.583  15.860  -1.864  1.00 20.00    -0.012 A 
HETATM    5  C6  UNL     1     -32.977  14.873  -3.646  1.00 20.00     0.032 A 
HETATM    6  C7  UNL     1     -34.314  15.029  -4.338  1.00 20.00     0.072 A 
HETATM    7  C8  UNL     1     -33.946  15.912  -3.187  1.00 20.00     0.006 A 
ENDROOT
BRANCH   6   8
HETATM    8  C5  UNL     1     -35.323  13.971  -4.189  1.00 20.00     0.128 C 
HETATM    9  C9  UNL     1     -36.749  14.415  -4.011  1.00 20.00     0.091 C 
HETATM   10  O10 UNL     1     -35.015  12.780  -4.212  1.00 20.00    -0.298 OA
ENDBRANCH   6   8
TORSDOF 1
ENDMDL
MODEL 3
REMARK VINA RESULT:      -4.7      1.772      3.875
REMARK  1 active torsions:
REMARK  status: ('A' for Active; 'I' for Inactive)
REMARK    1  A    between atoms: C5_5  and  C7_7 
ROOT
HETATM    1  C1  UNL     1     -32.216   8.007   2.598  1.00 20.00    -0.003 A 
HETATM    2  C2  UNL     1     -31.421   7.077   3.376  1.00 20.00    -0.003 A 
HETATM    3  C3  UNL     1     -33.448   7.484   2.455  1.00 20.00    -0.012 A 
HETATM    4  C4  UNL     1     -32.194   6.019   3.681  1.00 20.00    -0.012 A 
HETATM    5  C6  UNL     1     -34.316   5.039   2.554  1.00 20.00     0.032 A 
HETATM    6  C7  UNL     1     -34.799   5.727   3.813  1.00 20.00     0.072 A 
HETATM    7  C8  UNL     1     -33.547   6.181   3.130  1.00 20.00     0.006 A 
ENDROOT
BRANCH   6   8
HETATM    8  C5  UNL     1     -34.745   5.001   5.089  1.00 20.00     0.128 C 
HETATM    9  C9  UNL     1     -34.396   5.805   6.311  1.00 20.00     0.091 C 
HETATM   10  O10 UNL     1     -34.978   3.795   5.154  1.00 20.00    -0.298 OA
ENDBRANCH   6   8
TORSDOF 1
ENDMDL
MODEL 4
REMARK VINA RESULT:      -4.7     11.646     12.518
REMARK  1 active torsions:
REMARK  status: ('A' for Active; 'I' for Inactive)
REMARK    1  A    between atoms: C5_5  and  C7_7 
ROOT
HETATM    1  C1  UNL     1     -35.183  13.228  -4.262  1.00 20.00    -0.003 A 
HETATM    2  C2  UNL     1     -36.225  14.233  -4.194  1.00 20.00    -0.003 A 
HETATM    3  C3  UNL     1     -34.000  13.838  -4.058  1.00 20.00    -0.012 A 
HETATM    4  C4  UNL     1     -35.644  15.422  -3.950  1.00 20.00    -0.012 A 
HETATM    5  C6  UNL     1     -33.242  16.300  -4.383  1.00 20.00     0.032 A 
HETATM    6  C7  UNL     1     -33.330  16.062  -2.891  1.00 20.00     0.072 A 
HETATM    7  C8  UNL     1     -34.186  15.280  -3.838  1.00 20.00     0.006 A 
ENDROOT
BRANCH   6   8
HETATM    8  C5  UNL     1     -33.907  17.107  -2.035  1.00 20.00     0.128 C 
HETATM    9  C9  UNL     1     -34.619  16.647  -0.792  1.00 20.00     0.091 C 
HETATM   10  O10 UNL     1     -33.810  18.299  -2.320  1.00 20.00    -0.298 OA
ENDBRANCH   6   8
TORSDOF 1
ENDMDL
MODEL 5
REMARK VINA RESULT:      -4.4     11.574     12.395
REMARK  1 active torsions:
REMARK  status: ('A' for Active; 'I' for Inactive)
REMARK    1  A    between atoms: C5_5  and  C7_7 
ROOT
HETATM    1  C1  UNL     1     -34.063  17.703  -0.285  1.00 20.00    -0.003 A 
HETATM    2  C2  UNL     1     -33.425  18.244  -1.469  1.00 20.00    -0.003 A 
HETATM    3  C3  UNL     1     -34.774  16.621  -0.652  1.00 20.00    -0.012 A 
HETATM    4  C4  UNL     1     -33.767  17.474  -2.518  1.00 20.00    -0.012 A 
HETATM    5  C6  UNL     1     -35.795  15.909  -2.931  1.00 20.00     0.032 A 
HETATM    6  C7  UNL     1     -34.616  14.995  -2.674  1.00 20.00     0.072 A 
HETATM    7  C8  UNL     1     -34.649  16.376  -2.096  1.00 20.00     0.006 A 
ENDROOT
BRANCH   6   8
HETATM    8  C5  UNL     1     -33.717  14.661  -3.787  1.00 20.00     0.128 C 
HETATM    9  C9  UNL     1     -34.326  13.933  -4.954  1.00 20.00     0.091 C 
HETATM   10  O10 UNL     1     -32.525  14.965  -3.766  1.00 20.00    -0.298 OA
ENDBRANCH   6   8
TORSDOF 1
ENDMDL
MODEL 6
REMARK VINA RESULT:      -4.4     11.483     13.201
REMARK  1 active torsions:
REMARK  status: ('A' for Active; 'I' for Inactive)
REMARK    1  A    between atoms: C5_5  and  C7_7 
ROOT
HETATM    1  C1  UNL     1     -34.782  14.745  -7.145  1.00 20.00    -0.003 A 
HETATM    2  C2  UNL     1     -34.109  15.970  -6.762  1.00 20.00    -0.003 A 
HETATM    3  C3  UNL     1     -34.984  14.015  -6.033  1.00 20.00    -0.012 A 
HETATM    4  C4  UNL     1     -33.924  15.948  -5.429  1.00 20.00    -0.012 A 
HETATM    5  C6  UNL     1     -33.780  13.990  -3.732  1.00 20.00     0.032 A 
HETATM    6  C7  UNL     1     -35.135  14.628  -3.511  1.00 20.00     0.072 A 
HETATM    7  C8  UNL     1     -34.464  14.711  -4.846  1.00 20.00     0.006 A 
ENDROOT
BRANCH   6   8
HETATM    8  C5  UNL     1     -35.235  15.806  -2.639  1.00 20.00     0.128 C 
HETATM    9  C9  UNL     1     -36.324  16.794  -2.959  1.00 20.00     0.091 C 
HETATM   10  O10 UNL     1     -34.469  15.973  -1.692  1.00 20.00    -0.298 OA
ENDBRANCH   6   8
TORSDOF 1
ENDMDL
MODEL 7
REMARK VINA RESULT:      -4.4     11.878     12.829
REMARK  1 active torsions:
REMARK  status: ('A' for Active; 'I' for Inactive)
REMARK    1  A    between atoms: C5_5  and  C7_7 
ROOT
HETATM    1  C1  UNL     1     -35.232  13.748  -4.143  1.00 20.00    -0.003 A 
HETATM    2  C2  UNL     1     -33.797  13.942  -4.177  1.00 20.00    -0.003 A 
HETATM    3  C3  UNL     1     -35.772  14.747  -3.421  1.00 20.00    -0.012 A 
HETATM    4  C4  UNL     1     -33.508  15.053  -3.475  1.00 20.00    -0.012 A 
HETATM    5  C6  UNL     1     -34.779  16.286  -1.580  1.00 20.00     0.032 A 
HETATM    6  C7  UNL     1     -34.956  17.140  -2.817  1.00 20.00     0.072 A 
HETATM    7  C8  UNL     1     -34.730  15.665  -2.936  1.00 20.00     0.006 A 
ENDROOT
BRANCH   6   8
HETATM    8  C5  UNL     1     -33.903  18.099  -3.178  1.00 20.00     0.128 C 
HETATM    9  C9  UNL     1     -33.630  18.284  -4.646  1.00 20.00     0.091 C 
HETATM   10  O10 UNL     1     -33.278  18.722  -2.321  1.00 20.00    -0.298 OA
ENDBRANCH   6   8
TORSDOF 1
ENDMDL
MODEL 8
REMARK VINA RESULT:      -4.3      1.472      2.440
REMARK  1 active torsions:
REMARK  status: ('A' for Active; 'I' for Inactive)
REMARK    1  A    between atoms: C5_5  and  C7_7 
ROOT
HETATM    1  C1  UNL     1     -34.790   5.664   4.902  1.00 20.00    -0.003 A 
HETATM    2  C2  UNL     1     -35.168   5.556   3.508  1.00 20.00    -0.003 A 
HETATM    3  C3  UNL     1     -33.533   6.144   4.958  1.00 20.00    -0.012 A 
HETATM    4  C4  UNL     1     -34.131   5.973   2.759  1.00 20.00    -0.012 A 
HETATM    5  C6  UNL     1     -31.585   6.103   3.242  1.00 20.00     0.032 A 
HETATM    6  C7  UNL     1     -32.089   7.530   3.301  1.00 20.00     0.072 A 
HETATM    7  C8  UNL     1     -33.004   6.386   3.608  1.00 20.00     0.006 A 
ENDROOT
BRANCH   6   8
HETATM    8  C5  UNL     1     -32.221   8.292   2.051  1.00 20.00     0.128 C 
HETATM    9  C9  UNL     1     -32.891   9.635   2.145  1.00 20.00     0.091 C 
HETATM   10  O10 UNL     1     -31.800   7.853   0.982  1.00 20.00    -0.298 OA
ENDBRANCH   6   8
TORSDOF 1
ENDMDL
MODEL 9
REMARK VINA RESULT:      -4.3     11.844     12.900
REMARK  1 active torsions:
REMARK  status: ('A' for Active; 'I' for Inactive)
REMARK    1  A    between atoms: C5_5  and  C7_7 
ROOT
HETATM    1  C1  UNL     1     -34.702  16.194  -2.029  1.00 20.00    -0.003 A 
HETATM    2  C2  UNL     1     -35.895  16.590  -2.750  1.00 20.00    -0.003 A 
HETATM    3  C3  UNL     1     -34.139  15.163  -2.687  1.00 20.00    -0.012 A 
HETATM    4  C4  UNL     1     -36.020  15.789  -3.824  1.00 20.00    -0.012 A 
HETATM    5  C6  UNL     1     -35.126  13.405  -4.323  1.00 20.00     0.032 A 
HETATM    6  C7  UNL     1     -34.276  14.345  -5.151  1.00 20.00     0.072 A 
HETATM    7  C8  UNL     1     -34.920  14.817  -3.884  1.00 20.00     0.006 A 
ENDROOT
BRANCH   6   8
HETATM    8  C5  UNL     1     -34.770  14.787  -6.462  1.00 20.00     0.128 C 
HETATM    9  C9  UNL     1     -34.327  16.147  -6.929  1.00 20.00     0.091 C 
HETATM   10  O10 UNL     1     -35.508  14.078  -7.145  1.00 20.00    -0.298 OA
ENDBRANCH   6   8
TORSDOF 1
ENDMDL
