MODEL 1
REMARK VINA RESULT:      -4.7      0.000      0.000
REMARK  0 active torsions:
REMARK  status: ('A' for Active; 'I' for Inactive)
ROOT
HETATM    1  C1  UNL     1     -34.548  16.655  -0.879  1.00 20.00     0.014 C 
HETATM    2  C2  UNL     1     -34.426  16.413  -2.049  1.00 20.00    -0.081 C 
HETATM    3  C3  UNL     1     -35.498  13.527  -4.148  1.00 20.00     0.035 C 
HETATM    4  C4  UNL     1     -34.428  14.789  -5.999  1.00 20.00     0.035 C 
HETATM    5  C5  UNL     1     -33.441  14.838  -3.713  1.00 20.00     0.053 C 
HETATM    6  C6  UNL     1     -36.299  14.785  -3.775  1.00 20.00     0.274 C 
HETATM    7  C7  UNL     1     -35.346  15.966  -5.631  1.00 20.00     0.274 C 
HETATM    8  C8  UNL     1     -34.276  16.118  -3.485  1.00 20.00     0.300 C 
HETATM    9  C9  UNL     1     -34.148  13.945  -4.747  1.00 20.00    -0.008 C 
HETATM   10  N10 UNL     1     -35.593  16.027  -4.171  1.00 20.00     0.104 N 
ENDROOT
TORSDOF 0
ENDMDL
MODEL 2
REMARK VINA RESULT:      -4.6      1.208      2.270
REMARK  0 active torsions:
REMARK  status: ('A' for Active; 'I' for Inactive)
ROOT
HETATM    1  C1  UNL     1     -34.560  16.799  -0.647  1.00 20.00     0.014 C 
HETATM    2  C2  UNL     1     -34.832  16.209  -1.657  1.00 20.00    -0.081 C 
HETATM    3  C3  UNL     1     -33.254  16.138  -5.032  1.00 20.00     0.035 C 
HETATM    4  C4  UNL     1     -35.080  14.548  -5.584  1.00 20.00     0.035 C 
HETATM    5  C5  UNL     1     -35.504  16.461  -4.046  1.00 20.00     0.053 C 
HETATM    6  C6  UNL     1     -32.909  15.287  -3.799  1.00 20.00     0.274 C 
HETATM    7  C7  UNL     1     -34.599  13.696  -4.397  1.00 20.00     0.274 C 
HETATM    8  C8  UNL     1     -35.167  15.485  -2.896  1.00 20.00     0.300 C 
HETATM    9  C9  UNL     1     -34.758  16.026  -5.319  1.00 20.00    -0.008 C 
HETATM   10  N10 UNL     1     -34.086  14.542  -3.294  1.00 20.00     0.104 N 
ENDROOT
TORSDOF 0
ENDMDL
MODEL 3
REMARK VINA RESULT:      -4.3      1.638      2.412
REMARK  0 active torsions:
REMARK  status: ('A' for Active; 'I' for Inactive)
ROOT
HETATM    1  C1  UNL     1     -33.503  18.759  -5.234  1.00 20.00     0.014 C 
HETATM    2  C2  UNL     1     -33.555  17.559  -5.234  1.00 20.00    -0.081 C 
HETATM    3  C3  UNL     1     -35.538  15.126  -3.227  1.00 20.00     0.035 C 
HETATM    4  C4  UNL     1     -34.342  13.414  -4.570  1.00 20.00     0.035 C 
HETATM    5  C5  UNL     1     -33.176  15.503  -3.875  1.00 20.00     0.053 C 
HETATM    6  C6  UNL     1     -35.939  15.841  -4.526  1.00 20.00     0.274 C 
HETATM    7  C7  UNL     1     -34.878  14.127  -5.823  1.00 20.00     0.274 C 
HETATM    8  C8  UNL     1     -33.618  16.087  -5.235  1.00 20.00     0.300 C 
HETATM    9  C9  UNL     1     -34.185  14.430  -3.429  1.00 20.00    -0.008 C 
HETATM   10  N10 UNL     1     -34.968  15.592  -5.618  1.00 20.00     0.104 N 
ENDROOT
TORSDOF 0
ENDMDL
MODEL 4
REMARK VINA RESULT:      -4.3      1.173      3.593
REMARK  0 active torsions:
REMARK  status: ('A' for Active; 'I' for Inactive)
ROOT
HETATM    1  C1  UNL     1     -35.380  14.400  -7.605  1.00 20.00     0.014 C 
HETATM    2  C2  UNL     1     -35.450  14.760  -6.462  1.00 20.00    -0.081 C 
HETATM    3  C3  UNL     1     -32.884  15.172  -3.793  1.00 20.00     0.035 C 
HETATM    4  C4  UNL     1     -34.805  15.888  -2.393  1.00 20.00     0.035 C 
HETATM    5  C5  UNL     1     -35.090  14.085  -4.088  1.00 20.00     0.053 C 
HETATM    6  C6  UNL     1     -33.311  16.182  -4.868  1.00 20.00     0.274 C 
HETATM    7  C7  UNL     1     -35.100  16.948  -3.468  1.00 20.00     0.274 C 
HETATM    8  C8  UNL     1     -35.537  15.201  -5.059  1.00 20.00     0.300 C 
HETATM    9  C9  UNL     1     -34.126  14.673  -3.043  1.00 20.00    -0.008 C 
HETATM   10  N10 UNL     1     -34.768  16.453  -4.825  1.00 20.00     0.104 N 
ENDROOT
TORSDOF 0
ENDMDL
MODEL 5
REMARK VINA RESULT:      -4.2      1.310      2.625
REMARK  0 active torsions:
REMARK  status: ('A' for Active; 'I' for Inactive)
ROOT
HETATM    1  C1  UNL     1     -38.423  14.762  -3.797  1.00 20.00     0.014 C 
HETATM    2  C2  UNL     1     -37.322  15.209  -3.968  1.00 20.00    -0.081 C 
HETATM    3  C3  UNL     1     -33.930  13.679  -3.779  1.00 20.00     0.035 C 
HETATM    4  C4  UNL     1     -33.136  15.955  -4.373  1.00 20.00     0.035 C 
HETATM    5  C5  UNL     1     -35.118  15.664  -2.893  1.00 20.00     0.053 C 
HETATM    6  C6  UNL     1     -34.892  13.720  -4.976  1.00 20.00     0.274 C 
HETATM    7  C7  UNL     1     -34.045  15.871  -5.611  1.00 20.00     0.274 C 
HETATM    8  C8  UNL     1     -35.971  15.758  -4.178  1.00 20.00     0.300 C 
HETATM    9  C9  UNL     1     -33.729  15.103  -3.241  1.00 20.00    -0.008 C 
HETATM   10  N10 UNL     1     -35.283  15.107  -5.325  1.00 20.00     0.104 N 
ENDROOT
TORSDOF 0
ENDMDL
MODEL 6
REMARK VINA RESULT:      -4.2      1.172      3.020
REMARK  0 active torsions:
REMARK  status: ('A' for Active; 'I' for Inactive)
ROOT
HETATM    1  C1  UNL     1     -36.035  17.525  -6.578  1.00 20.00     0.014 C 
HETATM    2  C2  UNL     1     -35.389  16.618  -6.128  1.00 20.00    -0.081 C 
HETATM    3  C3  UNL     1     -34.562  15.611  -2.637  1.00 20.00     0.035 C 
HETATM    4  C4  UNL     1     -33.308  13.765  -3.725  1.00 20.00     0.035 C 
HETATM    5  C5  UNL     1     -33.380  16.023  -4.775  1.00 20.00     0.053 C 
HETATM    6  C6  UNL     1     -35.799  15.239  -3.469  1.00 20.00     0.274 C 
HETATM    7  C7  UNL     1     -34.619  13.390  -4.436  1.00 20.00     0.274 C 
HETATM    8  C8  UNL     1     -34.596  15.506  -5.575  1.00 20.00     0.300 C 
HETATM    9  C9  UNL     1     -33.295  15.273  -3.434  1.00 20.00    -0.008 C 
HETATM   10  N10 UNL     1     -35.430  14.591  -4.750  1.00 20.00     0.104 N 
ENDROOT
TORSDOF 0
ENDMDL
MODEL 7
REMARK VINA RESULT:      -4.1     11.513     13.342
REMARK  0 active torsions:
REMARK  status: ('A' for Active; 'I' for Inactive)
ROOT
HETATM    1  C1  UNL     1     -41.954   2.389  -3.690  1.00 20.00     0.014 C 
HETATM    2  C2  UNL     1     -42.038   3.069  -2.704  1.00 20.00    -0.081 C 
HETATM    3  C3  UNL     1     -41.564   6.718  -2.120  1.00 20.00     0.035 C 
HETATM    4  C4  UNL     1     -42.108   6.164   0.238  1.00 20.00     0.035 C 
HETATM    5  C5  UNL     1     -40.791   4.572  -1.153  1.00 20.00     0.053 C 
HETATM    6  C6  UNL     1     -42.835   5.982  -2.570  1.00 20.00     0.274 C 
HETATM    7  C7  UNL     1     -43.415   5.545  -0.285  1.00 20.00     0.274 C 
HETATM    8  C8  UNL     1     -42.141   3.904  -1.495  1.00 20.00     0.300 C 
HETATM    9  C9  UNL     1     -41.022   6.061  -0.843  1.00 20.00    -0.008 C 
HETATM   10  N10 UNL     1     -43.225   4.917  -1.615  1.00 20.00     0.104 N 
ENDROOT
TORSDOF 0
ENDMDL
MODEL 8
REMARK VINA RESULT:      -4.1     11.331     13.122
REMARK  0 active torsions:
REMARK  status: ('A' for Active; 'I' for Inactive)
ROOT
HETATM    1  C1  UNL     1     -42.660   2.375  -2.696  1.00 20.00     0.014 C 
HETATM    2  C2  UNL     1     -42.173   3.427  -2.382  1.00 20.00    -0.081 C 
HETATM    3  C3  UNL     1     -43.389   6.220  -0.235  1.00 20.00     0.035 C 
HETATM    4  C4  UNL     1     -41.219   7.282  -0.808  1.00 20.00     0.035 C 
HETATM    5  C5  UNL     1     -42.427   5.906  -2.497  1.00 20.00     0.053 C 
HETATM    6  C6  UNL     1     -42.637   4.949   0.189  1.00 20.00     0.274 C 
HETATM    7  C7  UNL     1     -40.538   6.017  -0.261  1.00 20.00     0.274 C 
HETATM    8  C8  UNL     1     -41.576   4.718  -1.996  1.00 20.00     0.300 C 
HETATM    9  C9  UNL     1     -42.609   6.921  -1.355  1.00 20.00    -0.008 C 
HETATM   10  N10 UNL     1     -41.347   4.804  -0.528  1.00 20.00     0.104 N 
ENDROOT
TORSDOF 0
ENDMDL
MODEL 9
REMARK VINA RESULT:      -4.1      1.567      2.988
REMARK  0 active torsions:
REMARK  status: ('A' for Active; 'I' for Inactive)
ROOT
HETATM    1  C1  UNL     1     -38.137  15.857  -5.754  1.00 20.00     0.014 C 
HETATM    2  C2  UNL     1     -37.061  15.919  -5.226  1.00 20.00    -0.081 C 
HETATM    3  C3  UNL     1     -34.349  13.411  -4.743  1.00 20.00     0.035 C 
HETATM    4  C4  UNL     1     -33.171  15.266  -3.588  1.00 20.00     0.035 C 
HETATM    5  C5  UNL     1     -35.641  15.026  -3.380  1.00 20.00     0.053 C 
HETATM    6  C6  UNL     1     -34.589  14.335  -5.947  1.00 20.00     0.274 C 
HETATM    7  C7  UNL     1     -33.356  16.088  -4.875  1.00 20.00     0.274 C 
HETATM    8  C8  UNL     1     -35.739  15.996  -4.579  1.00 20.00     0.300 C 
HETATM    9  C9  UNL     1     -34.315  14.250  -3.458  1.00 20.00    -0.008 C 
HETATM   10  N10 UNL     1     -34.635  15.762  -5.549  1.00 20.00     0.104 N 
ENDROOT
TORSDOF 0
ENDMDL
