MODEL 1
REMARK VINA RESULT:      -4.9      0.000      0.000
REMARK  2 active torsions:
REMARK  status: ('A' for Active; 'I' for Inactive)
REMARK    1  A    between atoms: C1_1  and  C5_5 
REMARK    2  A    between atoms: C5_5  and  C6_6 
ROOT
HETATM    1  C2  UNL     1     -34.350   5.359   2.834  1.00 20.00     0.003 C 
HETATM    2  C3  UNL     1     -35.387   5.951   3.803  1.00 20.00     0.026 C 
HETATM    3  C4  UNL     1     -33.281   5.581   3.917  1.00 20.00     0.026 C 
HETATM    4  C5  UNL     1     -34.422   5.615   4.984  1.00 20.00     0.110 C 
ENDROOT
BRANCH   4   5
HETATM    5  C1  UNL     1     -34.285   6.725   6.064  1.00 20.00     0.249 C 
HETATM    6  O7  UNL     1     -33.278   6.886   6.744  1.00 20.00    -0.306 OA
ENDBRANCH   4   5
BRANCH   4   7
HETATM    7  C6  UNL     1     -34.696   4.255   5.627  1.00 20.00     0.401 C 
HETATM    8  F8  UNL     1     -35.153   3.398   4.703  1.00 20.00    -0.170 F 
HETATM    9  F9  UNL     1     -33.568   3.765   6.158  1.00 20.00    -0.170 F 
HETATM   10  F10 UNL     1     -35.615   4.385   6.595  1.00 20.00    -0.170 F 
ENDBRANCH   4   7
TORSDOF 2
ENDMDL
MODEL 2
REMARK VINA RESULT:      -4.5      1.831      2.354
REMARK  2 active torsions:
REMARK  status: ('A' for Active; 'I' for Inactive)
REMARK    1  A    between atoms: C1_1  and  C5_5 
REMARK    2  A    between atoms: C5_5  and  C6_6 
ROOT
HETATM    1  C2  UNL     1     -32.548   7.050   2.715  1.00 20.00     0.003 C 
HETATM    2  C3  UNL     1     -33.717   7.585   3.561  1.00 20.00     0.026 C 
HETATM    3  C4  UNL     1     -32.344   5.955   3.775  1.00 20.00     0.026 C 
HETATM    4  C5  UNL     1     -33.817   6.183   4.242  1.00 20.00     0.110 C 
ENDROOT
BRANCH   4   5
HETATM    5  C1  UNL     1     -34.029   6.208   5.782  1.00 20.00     0.249 C 
HETATM    6  O7  UNL     1     -34.849   5.506   6.363  1.00 20.00    -0.306 OA
ENDBRANCH   4   5
BRANCH   4   7
HETATM    7  C6  UNL     1     -34.822   5.248   3.566  1.00 20.00     0.401 C 
HETATM    8  F8  UNL     1     -36.037   5.814   3.557  1.00 20.00    -0.170 F 
HETATM    9  F9  UNL     1     -34.443   5.006   2.303  1.00 20.00    -0.170 F 
HETATM   10  F10 UNL     1     -34.886   4.087   4.234  1.00 20.00    -0.170 F 
ENDBRANCH   4   7
TORSDOF 2
ENDMDL
MODEL 3
REMARK VINA RESULT:      -4.4      2.095      3.154
REMARK  2 active torsions:
REMARK  status: ('A' for Active; 'I' for Inactive)
REMARK    1  A    between atoms: C1_1  and  C5_5 
REMARK    2  A    between atoms: C5_5  and  C6_6 
ROOT
HETATM    1  C2  UNL     1     -34.698   5.208   6.568  1.00 20.00     0.003 C 
HETATM    2  C3  UNL     1     -33.933   4.397   5.508  1.00 20.00     0.026 C 
HETATM    3  C4  UNL     1     -34.177   6.488   5.894  1.00 20.00     0.026 C 
HETATM    4  C5  UNL     1     -33.933   5.661   4.592  1.00 20.00     0.110 C 
ENDROOT
BRANCH   4   5
HETATM    5  C1  UNL     1     -32.591   5.952   3.863  1.00 20.00     0.249 C 
HETATM    6  O7  UNL     1     -32.382   6.970   3.212  1.00 20.00    -0.306 OA
ENDBRANCH   4   5
BRANCH   4   7
HETATM    7  C6  UNL     1     -35.109   5.705   3.613  1.00 20.00     0.401 C 
HETATM    8  F8  UNL     1     -36.144   5.017   4.114  1.00 20.00    -0.170 F 
HETATM    9  F9  UNL     1     -35.486   6.975   3.409  1.00 20.00    -0.170 F 
HETATM   10  F10 UNL     1     -34.748   5.161   2.443  1.00 20.00    -0.170 F 
ENDBRANCH   4   7
TORSDOF 2
ENDMDL
MODEL 4
REMARK VINA RESULT:      -4.4     13.329     14.037
REMARK  2 active torsions:
REMARK  status: ('A' for Active; 'I' for Inactive)
REMARK    1  A    between atoms: C1_1  and  C5_5 
REMARK    2  A    between atoms: C5_5  and  C6_6 
ROOT
HETATM    1  C2  UNL     1     -34.943  16.767  -5.900  1.00 20.00     0.003 C 
HETATM    2  C3  UNL     1     -33.994  15.619  -6.286  1.00 20.00     0.026 C 
HETATM    3  C4  UNL     1     -35.710  15.772  -5.014  1.00 20.00     0.026 C 
HETATM    4  C5  UNL     1     -34.437  14.867  -4.991  1.00 20.00     0.110 C 
ENDROOT
BRANCH   4   5
HETATM    5  C1  UNL     1     -34.703  13.345  -5.167  1.00 20.00     0.249 C 
HETATM    6  O7  UNL     1     -35.088  12.617  -4.259  1.00 20.00    -0.306 OA
ENDBRANCH   4   5
BRANCH   4   7
HETATM    7  C6  UNL     1     -33.525  15.129  -3.791  1.00 20.00     0.401 C 
HETATM    8  F8  UNL     1     -32.590  14.172  -3.712  1.00 20.00    -0.170 F 
HETATM    9  F9  UNL     1     -32.923  16.319  -3.926  1.00 20.00    -0.170 F 
HETATM   10  F10 UNL     1     -34.247  15.128  -2.661  1.00 20.00    -0.170 F 
ENDBRANCH   4   7
TORSDOF 2
ENDMDL
MODEL 5
REMARK VINA RESULT:      -4.4     13.585     14.245
REMARK  2 active torsions:
REMARK  status: ('A' for Active; 'I' for Inactive)
REMARK    1  A    between atoms: C1_1  and  C5_5 
REMARK    2  A    between atoms: C5_5  and  C6_6 
ROOT
HETATM    1  C2  UNL     1     -33.693  16.190  -2.721  1.00 20.00     0.003 C 
HETATM    2  C3  UNL     1     -34.879  15.295  -3.120  1.00 20.00     0.026 C 
HETATM    3  C4  UNL     1     -32.774  15.244  -3.511  1.00 20.00     0.026 C 
HETATM    4  C5  UNL     1     -34.024  14.756  -4.310  1.00 20.00     0.110 C 
ENDROOT
BRANCH   4   5
HETATM    5  C1  UNL     1     -34.105  13.220  -4.542  1.00 20.00     0.249 C 
HETATM    6  O7  UNL     1     -35.154  12.587  -4.520  1.00 20.00    -0.306 OA
ENDBRANCH   4   5
BRANCH   4   7
HETATM    7  C6  UNL     1     -34.248  15.520  -5.617  1.00 20.00     0.401 C 
HETATM    8  F8  UNL     1     -34.191  14.673  -6.655  1.00 20.00    -0.170 F 
HETATM    9  F9  UNL     1     -35.451  16.111  -5.600  1.00 20.00    -0.170 F 
HETATM   10  F10 UNL     1     -33.301  16.457  -5.765  1.00 20.00    -0.170 F 
ENDBRANCH   4   7
TORSDOF 2
ENDMDL
MODEL 6
REMARK VINA RESULT:      -4.2     12.776     13.441
REMARK  2 active torsions:
REMARK  status: ('A' for Active; 'I' for Inactive)
REMARK    1  A    between atoms: C1_1  and  C5_5 
REMARK    2  A    between atoms: C5_5  and  C6_6 
ROOT
HETATM    1  C2  UNL     1     -33.769  16.983  -2.415  1.00 20.00     0.003 C 
HETATM    2  C3  UNL     1     -34.327  16.861  -3.844  1.00 20.00     0.026 C 
HETATM    3  C4  UNL     1     -34.750  15.880  -1.988  1.00 20.00     0.026 C 
HETATM    4  C5  UNL     1     -34.840  15.431  -3.482  1.00 20.00     0.110 C 
ENDROOT
BRANCH   4   5
HETATM    5  C1  UNL     1     -36.271  15.093  -3.988  1.00 20.00     0.249 C 
HETATM    6  O7  UNL     1     -36.818  14.013  -3.795  1.00 20.00    -0.306 OA
ENDBRANCH   4   5
BRANCH   4   7
HETATM    7  C6  UNL     1     -33.853  14.320  -3.845  1.00 20.00     0.401 C 
HETATM    8  F8  UNL     1     -32.596  14.761  -3.698  1.00 20.00    -0.170 F 
HETATM    9  F9  UNL     1     -34.042  13.262  -3.043  1.00 20.00    -0.170 F 
HETATM   10  F10 UNL     1     -34.038  13.944  -5.118  1.00 20.00    -0.170 F 
ENDBRANCH   4   7
TORSDOF 2
ENDMDL
MODEL 7
REMARK VINA RESULT:      -4.2      2.034      2.619
REMARK  2 active torsions:
REMARK  status: ('A' for Active; 'I' for Inactive)
REMARK    1  A    between atoms: C1_1  and  C5_5 
REMARK    2  A    between atoms: C5_5  and  C6_6 
ROOT
HETATM    1  C2  UNL     1     -32.752   6.960   3.706  1.00 20.00     0.003 C 
HETATM    2  C3  UNL     1     -32.811   5.443   3.957  1.00 20.00     0.026 C 
HETATM    3  C4  UNL     1     -34.269   7.012   3.950  1.00 20.00     0.026 C 
HETATM    4  C5  UNL     1     -34.154   5.660   4.725  1.00 20.00     0.110 C 
ENDROOT
BRANCH   4   5
HETATM    5  C1  UNL     1     -35.269   4.622   4.415  1.00 20.00     0.249 C 
HETATM    6  O7  UNL     1     -35.312   3.505   4.920  1.00 20.00    -0.306 OA
ENDBRANCH   4   5
BRANCH   4   7
HETATM    7  C6  UNL     1     -33.972   5.836   6.234  1.00 20.00     0.401 C 
HETATM    8  F8  UNL     1     -33.358   4.760   6.747  1.00 20.00    -0.170 F 
HETATM    9  F9  UNL     1     -33.229   6.923   6.481  1.00 20.00    -0.170 F 
HETATM   10  F10 UNL     1     -35.168   5.979   6.823  1.00 20.00    -0.170 F 
ENDBRANCH   4   7
TORSDOF 2
ENDMDL
MODEL 8
REMARK VINA RESULT:      -4.2     13.286     13.936
REMARK  2 active torsions:
REMARK  status: ('A' for Active; 'I' for Inactive)
REMARK    1  A    between atoms: C1_1  and  C5_5 
REMARK    2  A    between atoms: C5_5  and  C6_6 
ROOT
HETATM    1  C2  UNL     1     -34.771  16.247  -1.377  1.00 20.00     0.003 C 
HETATM    2  C3  UNL     1     -33.571  16.813  -2.156  1.00 20.00     0.026 C 
HETATM    3  C4  UNL     1     -35.527  16.145  -2.712  1.00 20.00     0.026 C 
HETATM    4  C5  UNL     1     -34.152  16.164  -3.452  1.00 20.00     0.110 C 
ENDROOT
BRANCH   4   5
HETATM    5  C1  UNL     1     -34.095  17.058  -4.723  1.00 20.00     0.249 C 
HETATM    6  O7  UNL     1     -33.052  17.350  -5.298  1.00 20.00    -0.306 OA
ENDBRANCH   4   5
BRANCH   4   7
HETATM    7  C6  UNL     1     -33.594  14.768  -3.738  1.00 20.00     0.401 C 
HETATM    8  F8  UNL     1     -34.197  13.867  -2.950  1.00 20.00    -0.170 F 
HETATM    9  F9  UNL     1     -33.811  14.444  -5.020  1.00 20.00    -0.170 F 
HETATM   10  F10 UNL     1     -32.275  14.747  -3.497  1.00 20.00    -0.170 F 
ENDBRANCH   4   7
TORSDOF 2
ENDMDL
MODEL 9
REMARK VINA RESULT:      -4.2      2.096      2.829
REMARK  2 active torsions:
REMARK  status: ('A' for Active; 'I' for Inactive)
REMARK    1  A    between atoms: C1_1  and  C5_5 
REMARK    2  A    between atoms: C5_5  and  C6_6 
ROOT
HETATM    1  C2  UNL     1     -34.985   3.671   4.867  1.00 20.00     0.003 C 
HETATM    2  C3  UNL     1     -33.784   4.265   5.624  1.00 20.00     0.026 C 
HETATM    3  C4  UNL     1     -35.602   5.079   4.840  1.00 20.00     0.026 C 
HETATM    4  C5  UNL     1     -34.174   5.671   5.068  1.00 20.00     0.110 C 
ENDROOT
BRANCH   4   5
HETATM    5  C1  UNL     1     -34.095   6.835   6.096  1.00 20.00     0.249 C 
HETATM    6  O7  UNL     1     -33.061   7.164   6.667  1.00 20.00    -0.306 OA
ENDBRANCH   4   5
BRANCH   4   7
HETATM    7  C6  UNL     1     -33.451   6.035   3.770  1.00 20.00     0.401 C 
HETATM    8  F8  UNL     1     -33.590   7.346   3.523  1.00 20.00    -0.170 F 
HETATM    9  F9  UNL     1     -32.147   5.747   3.877  1.00 20.00    -0.170 F 
HETATM   10  F10 UNL     1     -33.971   5.341   2.748  1.00 20.00    -0.170 F 
ENDBRANCH   4   7
TORSDOF 2
ENDMDL
