MODEL 1
REMARK VINA RESULT:      -5.2      0.000      0.000
REMARK  2 active torsions:
REMARK  status: ('A' for Active; 'I' for Inactive)
REMARK    1  A    between atoms: C4_4  and  C5_5 
REMARK    2  A    between atoms: C9_9  and  C11_11 
ROOT
HETATM    1  C1  UNL     1     -34.090  17.333  -0.694  1.00 20.00     0.012 C 
HETATM    2  C2  UNL     1     -34.497  16.568  -1.525  1.00 20.00    -0.117 C 
HETATM    3  C11 UNL     1     -35.003  15.637  -2.537  1.00 20.00     0.098 C 
ENDROOT
BRANCH   3   4
HETATM    4  C9  UNL     1     -33.865  14.806  -3.138  1.00 20.00     0.000 C 
HETATM    5  C6  UNL     1     -34.404  13.575  -3.893  1.00 20.00     0.033 C 
HETATM    6  C3  UNL     1     -34.852  13.867  -5.298  1.00 20.00    -0.016 C 
HETATM    7  C4  UNL     1     -34.540  15.005  -5.935  1.00 20.00    -0.016 C 
HETATM    8  C7  UNL     1     -33.698  16.092  -5.340  1.00 20.00     0.042 C 
HETATM    9  C8  UNL     1     -32.975  15.650  -4.063  1.00 20.00     0.010 C 
BRANCH   7  10
HETATM   10  C5  UNL     1     -35.040  15.179  -7.300  1.00 20.00     0.151 C 
HETATM   11  C10 UNL     1     -34.953  16.552  -7.918  1.00 20.00     0.096 C 
HETATM   12  O12 UNL     1     -35.525  14.229  -7.918  1.00 20.00    -0.293 OA
ENDBRANCH   7  10
ENDBRANCH   3   4
TORSDOF 2
ENDMDL
MODEL 2
REMARK VINA RESULT:      -4.9      3.554      5.916
REMARK  2 active torsions:
REMARK  status: ('A' for Active; 'I' for Inactive)
REMARK    1  A    between atoms: C4_4  and  C5_5 
REMARK    2  A    between atoms: C9_9  and  C11_11 
ROOT
HETATM    1  C1  UNL     1     -33.166  13.815  -3.651  1.00 20.00     0.012 C 
HETATM    2  C2  UNL     1     -33.310  14.995  -3.814  1.00 20.00    -0.117 C 
HETATM    3  C11 UNL     1     -33.479  16.436  -4.019  1.00 20.00     0.098 C 
ENDROOT
BRANCH   3   4
HETATM    4  C9  UNL     1     -34.713  16.957  -3.277  1.00 20.00     0.000 C 
HETATM    5  C6  UNL     1     -34.828  16.339  -1.870  1.00 20.00     0.033 C 
HETATM    6  C3  UNL     1     -33.987  17.026  -0.830  1.00 20.00    -0.016 C 
HETATM    7  C4  UNL     1     -33.431  18.229  -1.029  1.00 20.00    -0.016 C 
HETATM    8  C7  UNL     1     -33.600  19.032  -2.284  1.00 20.00     0.042 C 
HETATM    9  C8  UNL     1     -34.714  18.491  -3.187  1.00 20.00     0.010 C 
BRANCH   7  10
HETATM   10  C5  UNL     1     -32.626  18.794   0.055  1.00 20.00     0.151 C 
HETATM   11  C10 UNL     1     -33.213  18.806   1.444  1.00 20.00     0.096 C 
HETATM   12  O12 UNL     1     -31.503  19.253  -0.169  1.00 20.00    -0.293 OA
ENDBRANCH   7  10
ENDBRANCH   3   4
TORSDOF 2
ENDMDL
MODEL 3
REMARK VINA RESULT:      -4.9      1.733      2.776
REMARK  2 active torsions:
REMARK  status: ('A' for Active; 'I' for Inactive)
REMARK    1  A    between atoms: C4_4  and  C5_5 
REMARK    2  A    between atoms: C9_9  and  C11_11 
ROOT
HETATM    1  C1  UNL     1     -35.301  17.689   1.045  1.00 20.00     0.012 C 
HETATM    2  C2  UNL     1     -34.888  17.159   0.050  1.00 20.00    -0.117 C 
HETATM    3  C11 UNL     1     -34.381  16.506  -1.159  1.00 20.00     0.098 C 
ENDROOT
BRANCH   3   4
HETATM    4  C9  UNL     1     -34.829  17.254  -2.418  1.00 20.00     0.000 C 
HETATM    5  C6  UNL     1     -33.789  17.130  -3.548  1.00 20.00     0.033 C 
HETATM    6  C3  UNL     1     -33.894  15.856  -4.340  1.00 20.00    -0.016 C 
HETATM    7  C4  UNL     1     -34.963  15.050  -4.273  1.00 20.00    -0.016 C 
HETATM    8  C7  UNL     1     -36.173  15.332  -3.434  1.00 20.00     0.042 C 
HETATM    9  C8  UNL     1     -36.204  16.770  -2.905  1.00 20.00     0.010 C 
BRANCH   7  10
HETATM   10  C5  UNL     1     -34.949  13.832  -5.086  1.00 20.00     0.151 C 
HETATM   11  C10 UNL     1     -35.058  13.975  -6.583  1.00 20.00     0.096 C 
HETATM   12  O12 UNL     1     -34.856  12.723  -4.554  1.00 20.00    -0.293 OA
ENDBRANCH   7  10
ENDBRANCH   3   4
TORSDOF 2
ENDMDL
MODEL 4
REMARK VINA RESULT:      -4.9      2.252      4.925
REMARK  2 active torsions:
REMARK  status: ('A' for Active; 'I' for Inactive)
REMARK    1  A    between atoms: C4_4  and  C5_5 
REMARK    2  A    between atoms: C9_9  and  C11_11 
ROOT
HETATM    1  C1  UNL     1     -36.645  14.766  -7.861  1.00 20.00     0.012 C 
HETATM    2  C2  UNL     1     -35.702  14.699  -7.121  1.00 20.00    -0.117 C 
HETATM    3  C11 UNL     1     -34.547  14.623  -6.223  1.00 20.00     0.098 C 
ENDROOT
BRANCH   3   4
HETATM    4  C9  UNL     1     -34.864  13.772  -4.989  1.00 20.00     0.000 C 
HETATM    5  C6  UNL     1     -33.649  13.672  -4.046  1.00 20.00     0.033 C 
HETATM    6  C3  UNL     1     -33.494  14.848  -3.122  1.00 20.00    -0.016 C 
HETATM    7  C4  UNL     1     -34.470  15.744  -2.922  1.00 20.00    -0.016 C 
HETATM    8  C7  UNL     1     -35.821  15.667  -3.567  1.00 20.00     0.042 C 
HETATM    9  C8  UNL     1     -36.085  14.310  -4.229  1.00 20.00     0.010 C 
BRANCH   7  10
HETATM   10  C5  UNL     1     -34.200  16.852  -2.003  1.00 20.00     0.151 C 
HETATM   11  C10 UNL     1     -34.679  16.726  -0.579  1.00 20.00     0.096 C 
HETATM   12  O12 UNL     1     -33.602  17.858  -2.391  1.00 20.00    -0.293 OA
ENDBRANCH   7  10
ENDBRANCH   3   4
TORSDOF 2
ENDMDL
MODEL 5
REMARK VINA RESULT:      -4.8      2.462      3.513
REMARK  2 active torsions:
REMARK  status: ('A' for Active; 'I' for Inactive)
REMARK    1  A    between atoms: C4_4  and  C5_5 
REMARK    2  A    between atoms: C9_9  and  C11_11 
ROOT
HETATM    1  C1  UNL     1     -33.896  18.645   1.747  1.00 20.00     0.012 C 
HETATM    2  C2  UNL     1     -34.355  17.956   0.877  1.00 20.00    -0.117 C 
HETATM    3  C11 UNL     1     -34.919  17.111  -0.179  1.00 20.00     0.098 C 
ENDROOT
BRANCH   3   4
HETATM    4  C9  UNL     1     -34.475  17.590  -1.564  1.00 20.00     0.000 C 
HETATM    5  C6  UNL     1     -33.543  16.567  -2.243  1.00 20.00     0.033 C 
HETATM    6  C3  UNL     1     -34.267  15.442  -2.929  1.00 20.00    -0.016 C 
HETATM    7  C4  UNL     1     -35.582  15.479  -3.188  1.00 20.00    -0.016 C 
HETATM    8  C7  UNL     1     -36.468  16.641  -2.851  1.00 20.00     0.042 C 
HETATM    9  C8  UNL     1     -35.678  17.897  -2.469  1.00 20.00     0.010 C 
BRANCH   7  10
HETATM   10  C5  UNL     1     -36.177  14.320  -3.856  1.00 20.00     0.151 C 
HETATM   11  C10 UNL     1     -35.257  13.358  -4.563  1.00 20.00     0.096 C 
HETATM   12  O12 UNL     1     -37.398  14.145  -3.842  1.00 20.00    -0.293 OA
ENDBRANCH   7  10
ENDBRANCH   3   4
TORSDOF 2
ENDMDL
MODEL 6
REMARK VINA RESULT:      -4.7      2.507      2.897
REMARK  2 active torsions:
REMARK  status: ('A' for Active; 'I' for Inactive)
REMARK    1  A    between atoms: C4_4  and  C5_5 
REMARK    2  A    between atoms: C9_9  and  C11_11 
ROOT
HETATM    1  C1  UNL     1     -33.944  18.646   0.337  1.00 20.00     0.012 C 
HETATM    2  C2  UNL     1     -34.238  17.648  -0.261  1.00 20.00    -0.117 C 
HETATM    3  C11 UNL     1     -34.601  16.426  -0.984  1.00 20.00     0.098 C 
ENDROOT
BRANCH   3   4
HETATM    4  C9  UNL     1     -34.061  16.453  -2.417  1.00 20.00     0.000 C 
HETATM    5  C6  UNL     1     -34.048  15.044  -3.042  1.00 20.00     0.033 C 
HETATM    6  C3  UNL     1     -35.372  14.616  -3.612  1.00 20.00    -0.016 C 
HETATM    7  C4  UNL     1     -36.377  15.476  -3.831  1.00 20.00    -0.016 C 
HETATM    8  C7  UNL     1     -36.292  16.948  -3.560  1.00 20.00     0.042 C 
HETATM    9  C8  UNL     1     -34.857  17.422  -3.305  1.00 20.00     0.010 C 
BRANCH   7  10
HETATM   10  C5  UNL     1     -37.622  14.941  -4.385  1.00 20.00     0.151 C 
HETATM   11  C10 UNL     1     -38.026  15.372  -5.772  1.00 20.00     0.096 C 
HETATM   12  O12 UNL     1     -38.320  14.166  -3.727  1.00 20.00    -0.293 OA
ENDBRANCH   7  10
ENDBRANCH   3   4
TORSDOF 2
ENDMDL
MODEL 7
REMARK VINA RESULT:      -4.7      1.138      1.589
REMARK  2 active torsions:
REMARK  status: ('A' for Active; 'I' for Inactive)
REMARK    1  A    between atoms: C4_4  and  C5_5 
REMARK    2  A    between atoms: C9_9  and  C11_11 
ROOT
HETATM    1  C1  UNL     1     -34.204  17.181  -0.776  1.00 20.00     0.012 C 
HETATM    2  C2  UNL     1     -34.028  16.537  -1.774  1.00 20.00    -0.117 C 
HETATM    3  C11 UNL     1     -33.805  15.756  -2.993  1.00 20.00     0.098 C 
ENDROOT
BRANCH   3   4
HETATM    4  C9  UNL     1     -34.824  14.618  -3.113  1.00 20.00     0.000 C 
HETATM    5  C6  UNL     1     -36.239  15.156  -3.399  1.00 20.00     0.033 C 
HETATM    6  C3  UNL     1     -36.497  15.459  -4.849  1.00 20.00    -0.016 C 
HETATM    7  C4  UNL     1     -35.694  15.025  -5.831  1.00 20.00    -0.016 C 
HETATM    8  C7  UNL     1     -34.478  14.180  -5.606  1.00 20.00     0.042 C 
HETATM    9  C8  UNL     1     -34.413  13.601  -4.188  1.00 20.00     0.010 C 
BRANCH   7  10
HETATM   10  C5  UNL     1     -36.044  15.390  -7.206  1.00 20.00     0.151 C 
HETATM   11  C10 UNL     1     -35.179  16.401  -7.914  1.00 20.00     0.096 C 
HETATM   12  O12 UNL     1     -37.024  14.886  -7.760  1.00 20.00    -0.293 OA
ENDBRANCH   7  10
ENDBRANCH   3   4
TORSDOF 2
ENDMDL
MODEL 8
REMARK VINA RESULT:      -4.6      2.392      3.392
REMARK  2 active torsions:
REMARK  status: ('A' for Active; 'I' for Inactive)
REMARK    1  A    between atoms: C4_4  and  C5_5 
REMARK    2  A    between atoms: C9_9  and  C11_11 
ROOT
HETATM    1  C1  UNL     1     -33.673  18.473  -4.534  1.00 20.00     0.012 C 
HETATM    2  C2  UNL     1     -33.399  17.307  -4.614  1.00 20.00    -0.117 C 
HETATM    3  C11 UNL     1     -33.060  15.885  -4.720  1.00 20.00     0.098 C 
ENDROOT
BRANCH   3   4
HETATM    4  C9  UNL     1     -33.426  15.135  -3.436  1.00 20.00     0.000 C 
HETATM    5  C6  UNL     1     -34.428  15.934  -2.581  1.00 20.00     0.033 C 
HETATM    6  C3  UNL     1     -35.860  15.777  -3.010  1.00 20.00    -0.016 C 
HETATM    7  C4  UNL     1     -36.261  14.811  -3.850  1.00 20.00    -0.016 C 
HETATM    8  C7  UNL     1     -35.347  13.776  -4.432  1.00 20.00     0.042 C 
HETATM    9  C8  UNL     1     -33.981  13.734  -3.738  1.00 20.00     0.010 C 
BRANCH   7  10
HETATM   10  C5  UNL     1     -37.682  14.762  -4.201  1.00 20.00     0.151 C 
HETATM   11  C10 UNL     1     -38.088  15.213  -5.581  1.00 20.00     0.096 C 
HETATM   12  O12 UNL     1     -38.518  14.368  -3.384  1.00 20.00    -0.293 OA
ENDBRANCH   7  10
ENDBRANCH   3   4
TORSDOF 2
ENDMDL
MODEL 9
REMARK VINA RESULT:      -4.5      1.830      2.071
REMARK  2 active torsions:
REMARK  status: ('A' for Active; 'I' for Inactive)
REMARK    1  A    between atoms: C4_4  and  C5_5 
REMARK    2  A    between atoms: C9_9  and  C11_11 
ROOT
HETATM    1  C1  UNL     1     -35.076  17.259   0.469  1.00 20.00     0.012 C 
HETATM    2  C2  UNL     1     -34.470  17.108  -0.556  1.00 20.00    -0.117 C 
HETATM    3  C11 UNL     1     -33.726  16.931  -1.806  1.00 20.00     0.098 C 
ENDROOT
BRANCH   3   4
HETATM    4  C9  UNL     1     -34.100  15.611  -2.488  1.00 20.00     0.000 C 
HETATM    5  C6  UNL     1     -35.547  15.640  -3.017  1.00 20.00     0.033 C 
HETATM    6  C3  UNL     1     -35.696  16.306  -4.356  1.00 20.00    -0.016 C 
HETATM    7  C4  UNL     1     -34.649  16.576  -5.150  1.00 20.00    -0.016 C 
HETATM    8  C7  UNL     1     -33.231  16.228  -4.810  1.00 20.00     0.042 C 
HETATM    9  C8  UNL     1     -33.125  15.264  -3.623  1.00 20.00     0.010 C 
BRANCH   7  10
HETATM   10  C5  UNL     1     -34.917  17.234  -6.430  1.00 20.00     0.151 C 
HETATM   11  C10 UNL     1     -34.902  16.390  -7.679  1.00 20.00     0.096 C 
HETATM   12  O12 UNL     1     -35.142  18.445  -6.479  1.00 20.00    -0.293 OA
ENDBRANCH   7  10
ENDBRANCH   3   4
TORSDOF 2
ENDMDL
