MODEL 1
REMARK VINA RESULT:      -4.6      0.000      0.000
REMARK  0 active torsions:
REMARK  status: ('A' for Active; 'I' for Inactive)
ROOT
HETATM    1  C1  UNL     1     -33.546  13.760  -3.910  1.00 20.00     0.037 C 
HETATM    2  C2  UNL     1     -34.995  13.312  -4.183  1.00 20.00     0.019 C 
HETATM    3  C3  UNL     1     -33.289  16.274  -4.513  1.00 20.00     0.051 C 
HETATM    4  C4  UNL     1     -35.700  16.944  -4.263  1.00 20.00     0.052 C 
HETATM    5  C5  UNL     1     -33.454  15.211  -3.385  1.00 20.00     0.224 C 
HETATM    6  C6  UNL     1     -35.826  15.638  -3.468  1.00 20.00     0.237 C 
HETATM    7  C7  UNL     1     -35.903  14.491  -4.532  1.00 20.00     0.081 C 
HETATM    8  C8  UNL     1     -34.583  16.659  -5.257  1.00 20.00     0.052 C 
HETATM    9  C9  UNL     1     -34.491  16.456  -1.556  1.00 20.00     0.310 C 
HETATM   10  N10 UNL     1     -34.661  15.433  -2.579  1.00 20.00     0.094 N 
HETATM   11  S11 UNL     1     -35.295  15.222  -6.099  1.00 20.00    -0.157 SA
ENDROOT
TORSDOF 0
ENDMDL
MODEL 2
REMARK VINA RESULT:      -4.6      1.792      3.097
REMARK  0 active torsions:
REMARK  status: ('A' for Active; 'I' for Inactive)
ROOT
HETATM    1  C1  UNL     1     -33.534  13.543  -3.871  1.00 20.00     0.037 C 
HETATM    2  C2  UNL     1     -32.752  14.854  -3.661  1.00 20.00     0.019 C 
HETATM    3  C3  UNL     1     -36.070  14.070  -4.074  1.00 20.00     0.051 C 
HETATM    4  C4  UNL     1     -35.873  16.458  -4.839  1.00 20.00     0.052 C 
HETATM    5  C5  UNL     1     -34.746  13.710  -4.814  1.00 20.00     0.224 C 
HETATM    6  C6  UNL     1     -34.428  16.071  -5.184  1.00 20.00     0.237 C 
HETATM    7  C7  UNL     1     -33.643  16.085  -3.829  1.00 20.00     0.081 C 
HETATM    8  C8  UNL     1     -36.222  15.549  -3.667  1.00 20.00     0.052 C 
HETATM    9  C9  UNL     1     -35.074  14.605  -7.064  1.00 20.00     0.310 C 
HETATM   10  N10 UNL     1     -34.362  14.728  -5.800  1.00 20.00     0.094 N 
HETATM   11  S11 UNL     1     -34.917  16.039  -2.513  1.00 20.00    -0.157 SA
ENDROOT
TORSDOF 0
ENDMDL
MODEL 3
REMARK VINA RESULT:      -4.3      1.794      3.188
REMARK  0 active torsions:
REMARK  status: ('A' for Active; 'I' for Inactive)
ROOT
HETATM    1  C1  UNL     1     -34.388  14.966  -6.690  1.00 20.00     0.037 C 
HETATM    2  C2  UNL     1     -33.900  16.336  -6.183  1.00 20.00     0.019 C 
HETATM    3  C3  UNL     1     -34.963  13.447  -4.662  1.00 20.00     0.051 C 
HETATM    4  C4  UNL     1     -35.408  15.263  -2.979  1.00 20.00     0.052 C 
HETATM    5  C5  UNL     1     -35.501  14.359  -5.806  1.00 20.00     0.224 C 
HETATM    6  C6  UNL     1     -35.541  16.167  -4.211  1.00 20.00     0.237 C 
HETATM    7  C7  UNL     1     -34.079  16.486  -4.672  1.00 20.00     0.081 C 
HETATM    8  C8  UNL     1     -34.425  14.188  -3.421  1.00 20.00     0.052 C 
HETATM    9  C9  UNL     1     -37.658  15.141  -4.966  1.00 20.00     0.310 C 
HETATM   10  N10 UNL     1     -36.284  15.492  -5.298  1.00 20.00     0.094 N 
HETATM   11  S11 UNL     1     -33.015  15.236  -3.857  1.00 20.00    -0.157 SA
ENDROOT
TORSDOF 0
ENDMDL
MODEL 4
REMARK VINA RESULT:      -4.2      1.665      3.010
REMARK  0 active torsions:
REMARK  status: ('A' for Active; 'I' for Inactive)
ROOT
HETATM    1  C1  UNL     1     -33.399  16.655  -4.945  1.00 20.00     0.037 C 
HETATM    2  C2  UNL     1     -33.480  16.421  -3.425  1.00 20.00     0.019 C 
HETATM    3  C3  UNL     1     -34.567  14.695  -6.186  1.00 20.00     0.051 C 
HETATM    4  C4  UNL     1     -36.092  13.959  -4.326  1.00 20.00     0.052 C 
HETATM    5  C5  UNL     1     -34.660  16.171  -5.696  1.00 20.00     0.224 C 
HETATM    6  C6  UNL     1     -35.794  15.344  -3.735  1.00 20.00     0.237 C 
HETATM    7  C7  UNL     1     -34.378  15.235  -3.074  1.00 20.00     0.081 C 
HETATM    8  C8  UNL     1     -34.833  13.620  -5.112  1.00 20.00     0.052 C 
HETATM    9  C9  UNL     1     -37.062  16.562  -5.471  1.00 20.00     0.310 C 
HETATM   10  N10 UNL     1     -35.790  16.388  -4.784  1.00 20.00     0.094 N 
HETATM   11  S11 UNL     1     -33.613  13.726  -3.779  1.00 20.00    -0.157 SA
ENDROOT
TORSDOF 0
ENDMDL
MODEL 5
REMARK VINA RESULT:      -4.2      0.832      2.844
REMARK  0 active torsions:
REMARK  status: ('A' for Active; 'I' for Inactive)
ROOT
HETATM    1  C1  UNL     1     -36.067  17.037  -4.942  1.00 20.00     0.037 C 
HETATM    2  C2  UNL     1     -34.728  16.935  -5.697  1.00 20.00     0.019 C 
HETATM    3  C3  UNL     1     -36.552  14.790  -3.731  1.00 20.00     0.051 C 
HETATM    4  C4  UNL     1     -34.181  13.968  -3.554  1.00 20.00     0.052 C 
HETATM    5  C5  UNL     1     -36.063  16.265  -3.604  1.00 20.00     0.224 C 
HETATM    6  C6  UNL     1     -33.811  15.433  -3.823  1.00 20.00     0.237 C 
HETATM    7  C7  UNL     1     -33.980  15.644  -5.365  1.00 20.00     0.081 C 
HETATM    8  C8  UNL     1     -35.510  13.791  -4.275  1.00 20.00     0.052 C 
HETATM    9  C9  UNL     1     -34.622  16.234  -1.631  1.00 20.00     0.310 C 
HETATM   10  N10 UNL     1     -34.694  16.358  -3.080  1.00 20.00     0.094 N 
HETATM   11  S11 UNL     1     -35.000  14.239  -5.953  1.00 20.00    -0.157 SA
ENDROOT
TORSDOF 0
ENDMDL
MODEL 6
REMARK VINA RESULT:      -4.1      1.620      2.561
REMARK  0 active torsions:
REMARK  status: ('A' for Active; 'I' for Inactive)
ROOT
HETATM    1  C1  UNL     1     -33.229  16.032  -4.051  1.00 20.00     0.037 C 
HETATM    2  C2  UNL     1     -34.144  15.326  -3.032  1.00 20.00     0.019 C 
HETATM    3  C3  UNL     1     -34.051  15.510  -6.459  1.00 20.00     0.051 C 
HETATM    4  C4  UNL     1     -36.450  14.989  -5.907  1.00 20.00     0.052 C 
HETATM    5  C5  UNL     1     -33.994  16.542  -5.293  1.00 20.00     0.224 C 
HETATM    6  C6  UNL     1     -36.149  15.720  -4.592  1.00 20.00     0.237 C 
HETATM    7  C7  UNL     1     -35.368  14.698  -3.698  1.00 20.00     0.081 C 
HETATM    8  C8  UNL     1     -35.106  14.395  -6.307  1.00 20.00     0.052 C 
HETATM    9  C9  UNL     1     -35.963  17.943  -5.655  1.00 20.00     0.310 C 
HETATM   10  N10 UNL     1     -35.330  16.930  -4.822  1.00 20.00     0.094 N 
HETATM   11  S11 UNL     1     -34.775  13.391  -4.838  1.00 20.00    -0.157 SA
ENDROOT
TORSDOF 0
ENDMDL
MODEL 7
REMARK VINA RESULT:      -4.1      1.767      3.301
REMARK  0 active torsions:
REMARK  status: ('A' for Active; 'I' for Inactive)
ROOT
HETATM    1  C1  UNL     1     -35.608  17.466  -4.781  1.00 20.00     0.037 C 
HETATM    2  C2  UNL     1     -36.525  16.889  -3.686  1.00 20.00     0.019 C 
HETATM    3  C3  UNL     1     -33.326  16.224  -4.743  1.00 20.00     0.051 C 
HETATM    4  C4  UNL     1     -34.107  14.087  -3.671  1.00 20.00     0.052 C 
HETATM    5  C5  UNL     1     -34.710  16.395  -5.440  1.00 20.00     0.224 C 
HETATM    6  C6  UNL     1     -35.505  14.563  -4.089  1.00 20.00     0.237 C 
HETATM    7  C7  UNL     1     -35.926  15.643  -3.035  1.00 20.00     0.081 C 
HETATM    8  C8  UNL     1     -33.333  15.380  -3.453  1.00 20.00     0.052 C 
HETATM    9  C9  UNL     1     -35.100  14.230  -6.503  1.00 20.00     0.310 C 
HETATM   10  N10 UNL     1     -35.491  15.152  -5.446  1.00 20.00     0.094 N 
HETATM   11  S11 UNL     1     -34.379  16.143  -2.188  1.00 20.00    -0.157 SA
ENDROOT
TORSDOF 0
ENDMDL
MODEL 8
REMARK VINA RESULT:      -4.1      1.400      3.071
REMARK  0 active torsions:
REMARK  status: ('A' for Active; 'I' for Inactive)
ROOT
HETATM    1  C1  UNL     1     -34.769  16.288  -1.580  1.00 20.00     0.037 C 
HETATM    2  C2  UNL     1     -33.749  17.359  -2.009  1.00 20.00     0.019 C 
HETATM    3  C3  UNL     1     -36.178  15.559  -3.637  1.00 20.00     0.051 C 
HETATM    4  C4  UNL     1     -34.531  16.187  -5.431  1.00 20.00     0.052 C 
HETATM    5  C5  UNL     1     -35.008  15.215  -2.666  1.00 20.00     0.224 C 
HETATM    6  C6  UNL     1     -33.510  16.188  -4.286  1.00 20.00     0.237 C 
HETATM    7  C7  UNL     1     -33.715  17.542  -3.526  1.00 20.00     0.081 C 
HETATM    8  C8  UNL     1     -35.840  16.569  -4.753  1.00 20.00     0.052 C 
HETATM    9  C9  UNL     1     -33.573  13.737  -3.981  1.00 20.00     0.310 C 
HETATM   10  N10 UNL     1     -33.729  15.049  -3.368  1.00 20.00     0.094 N 
HETATM   11  S11 UNL     1     -35.356  18.166  -4.052  1.00 20.00    -0.157 SA
ENDROOT
TORSDOF 0
ENDMDL
MODEL 9
REMARK VINA RESULT:      -4.1      1.665      2.901
REMARK  0 active torsions:
REMARK  status: ('A' for Active; 'I' for Inactive)
ROOT
HETATM    1  C1  UNL     1     -36.621  15.915  -5.295  1.00 20.00     0.037 C 
HETATM    2  C2  UNL     1     -35.766  15.334  -6.437  1.00 20.00     0.019 C 
HETATM    3  C3  UNL     1     -35.472  15.425  -3.017  1.00 20.00     0.051 C 
HETATM    4  C4  UNL     1     -33.115  15.172  -3.860  1.00 20.00     0.052 C 
HETATM    5  C5  UNL     1     -35.771  16.473  -4.131  1.00 20.00     0.224 C 
HETATM    6  C6  UNL     1     -33.641  15.899  -5.104  1.00 20.00     0.237 C 
HETATM    7  C7  UNL     1     -34.415  14.823  -5.938  1.00 20.00     0.081 C 
HETATM    8  C8  UNL     1     -34.335  14.431  -3.329  1.00 20.00     0.052 C 
HETATM    9  C9  UNL     1     -33.925  18.064  -3.948  1.00 20.00     0.310 C 
HETATM   10  N10 UNL     1     -34.547  17.010  -4.738  1.00 20.00     0.094 N 
HETATM   11  S11 UNL     1     -34.733  13.433  -4.786  1.00 20.00    -0.157 SA
ENDROOT
TORSDOF 0
ENDMDL
