MODEL 1
REMARK VINA RESULT:      -4.7      0.000      0.000
REMARK  1 active torsions:
REMARK  status: ('A' for Active; 'I' for Inactive)
REMARK    1  A    between atoms: C3_3  and  C4_4 
ROOT
HETATM    1  C1  UNL     1     -34.575   5.394   3.327  1.00 20.00     0.012 A 
HETATM    2  C2  UNL     1     -33.428   5.484   2.658  1.00 20.00     0.003 A 
HETATM    3  C4  UNL     1     -34.523   6.267   4.522  1.00 20.00     0.231 A 
HETATM    4  C5  UNL     1     -32.507   6.420   3.356  1.00 20.00     0.141 A 
HETATM    5  C6  UNL     1     -32.086   7.596   2.491  1.00 20.00     0.044 C 
HETATM    6  O8  UNL     1     -33.247   6.919   4.491  1.00 20.00    -0.364 OA
ENDROOT
BRANCH   3   7
HETATM    7  C3  UNL     1     -34.580   5.426   5.755  1.00 20.00     0.251 C 
HETATM    8  O7  UNL     1     -34.369   5.899   6.868  1.00 20.00    -0.277 OA
HETATM    9 CL9  UNL     1     -34.969   3.770   5.400  1.00 20.00    -0.041 Cl
ENDBRANCH   3   7
TORSDOF 1
ENDMDL
MODEL 2
REMARK VINA RESULT:      -4.2      2.213      3.710
REMARK  1 active torsions:
REMARK  status: ('A' for Active; 'I' for Inactive)
REMARK    1  A    between atoms: C3_3  and  C4_4 
ROOT
HETATM    1  C1  UNL     1     -33.943   5.573   2.762  1.00 20.00     0.012 A 
HETATM    2  C2  UNL     1     -34.996   5.516   3.574  1.00 20.00     0.003 A 
HETATM    3  C4  UNL     1     -32.730   5.910   3.542  1.00 20.00     0.231 A 
HETATM    4  C5  UNL     1     -34.577   5.822   4.967  1.00 20.00     0.141 A 
HETATM    5  C6  UNL     1     -34.875   4.693   5.939  1.00 20.00     0.044 C 
HETATM    6  O8  UNL     1     -33.147   6.019   4.909  1.00 20.00    -0.364 OA
ENDROOT
BRANCH   3   7
HETATM    7  C3  UNL     1     -32.217   7.245   3.111  1.00 20.00     0.251 C 
HETATM    8  O7  UNL     1     -32.595   7.776   2.071  1.00 20.00    -0.277 OA
HETATM    9 CL9  UNL     1     -31.068   7.900   4.238  1.00 20.00    -0.041 Cl
ENDBRANCH   3   7
TORSDOF 1
ENDMDL
MODEL 3
REMARK VINA RESULT:      -4.1     11.903     13.269
REMARK  1 active torsions:
REMARK  status: ('A' for Active; 'I' for Inactive)
REMARK    1  A    between atoms: C3_3  and  C4_4 
ROOT
HETATM    1  C1  UNL     1     -34.904  15.097  -6.219  1.00 20.00     0.012 A 
HETATM    2  C2  UNL     1     -34.050  16.050  -6.583  1.00 20.00     0.003 A 
HETATM    3  C4  UNL     1     -34.861  14.926  -4.749  1.00 20.00     0.231 A 
HETATM    4  C5  UNL     1     -33.356  16.592  -5.385  1.00 20.00     0.141 A 
HETATM    5  C6  UNL     1     -33.574  18.084  -5.195  1.00 20.00     0.044 C 
HETATM    6  O8  UNL     1     -33.924  15.892  -4.257  1.00 20.00    -0.364 OA
ENDROOT
BRANCH   3   7
HETATM    7  C3  UNL     1     -34.335  13.567  -4.421  1.00 20.00     0.251 C 
HETATM    8  O7  UNL     1     -34.922  12.547  -4.771  1.00 20.00    -0.277 OA
HETATM    9 CL9  UNL     1     -32.851  13.639  -3.521  1.00 20.00    -0.041 Cl
ENDBRANCH   3   7
TORSDOF 1
ENDMDL
MODEL 4
REMARK VINA RESULT:      -4.0     12.276     12.794
REMARK  1 active torsions:
REMARK  status: ('A' for Active; 'I' for Inactive)
REMARK    1  A    between atoms: C3_3  and  C4_4 
ROOT
HETATM    1  C1  UNL     1     -35.465  16.086  -4.636  1.00 20.00     0.012 A 
HETATM    2  C2  UNL     1     -34.681  16.775  -3.809  1.00 20.00     0.003 A 
HETATM    3  C4  UNL     1     -35.601  14.694  -4.148  1.00 20.00     0.231 A 
HETATM    4  C5  UNL     1     -34.219  15.896  -2.702  1.00 20.00     0.141 A 
HETATM    5  C6  UNL     1     -34.626  16.405  -1.329  1.00 20.00     0.044 C 
HETATM    6  O8  UNL     1     -34.852  14.617  -2.929  1.00 20.00    -0.364 OA
ENDROOT
BRANCH   3   7
HETATM    7  C3  UNL     1     -34.975  13.760  -5.132  1.00 20.00     0.251 C 
HETATM    8  O7  UNL     1     -34.724  12.594  -4.843  1.00 20.00    -0.277 OA
HETATM    9 CL9  UNL     1     -34.674  14.526  -6.662  1.00 20.00    -0.041 Cl
ENDBRANCH   3   7
TORSDOF 1
ENDMDL
MODEL 5
REMARK VINA RESULT:      -3.9     11.777     12.696
REMARK  1 active torsions:
REMARK  status: ('A' for Active; 'I' for Inactive)
REMARK    1  A    between atoms: C3_3  and  C4_4 
ROOT
HETATM    1  C1  UNL     1     -35.019  13.576  -3.939  1.00 20.00     0.012 A 
HETATM    2  C2  UNL     1     -34.711  13.252  -5.192  1.00 20.00     0.003 A 
HETATM    3  C4  UNL     1     -35.164  15.045  -3.826  1.00 20.00     0.231 A 
HETATM    4  C5  UNL     1     -34.615  14.481  -6.023  1.00 20.00     0.141 A 
HETATM    5  C6  UNL     1     -35.584  14.486  -7.194  1.00 20.00     0.044 C 
HETATM    6  O8  UNL     1     -34.948  15.575  -5.140  1.00 20.00    -0.364 OA
ENDROOT
BRANCH   3   7
HETATM    7  C3  UNL     1     -34.096  15.583  -2.932  1.00 20.00     0.251 C 
HETATM    8  O7  UNL     1     -32.912  15.561  -3.255  1.00 20.00    -0.277 OA
HETATM    9 CL9  UNL     1     -34.742  16.212  -1.446  1.00 20.00    -0.041 Cl
ENDBRANCH   3   7
TORSDOF 1
ENDMDL
MODEL 6
REMARK VINA RESULT:      -3.9     12.087     12.444
REMARK  1 active torsions:
REMARK  status: ('A' for Active; 'I' for Inactive)
REMARK    1  A    between atoms: C3_3  and  C4_4 
ROOT
HETATM    1  C1  UNL     1     -34.247  15.627  -4.057  1.00 20.00     0.012 A 
HETATM    2  C2  UNL     1     -33.561  15.860  -2.941  1.00 20.00     0.003 A 
HETATM    3  C4  UNL     1     -35.699  15.723  -3.778  1.00 20.00     0.231 A 
HETATM    4  C5  UNL     1     -34.499  16.123  -1.817  1.00 20.00     0.141 A 
HETATM    5  C6  UNL     1     -34.298  17.488  -1.181  1.00 20.00     0.044 C 
HETATM    6  O8  UNL     1     -35.822  16.070  -2.394  1.00 20.00    -0.364 OA
ENDROOT
BRANCH   3   7
HETATM    7  C3  UNL     1     -36.332  14.384  -3.975  1.00 20.00     0.251 C 
HETATM    8  O7  UNL     1     -37.534  14.208  -3.801  1.00 20.00    -0.277 OA
HETATM    9 CL9  UNL     1     -35.178  13.180  -4.462  1.00 20.00    -0.041 Cl
ENDBRANCH   3   7
TORSDOF 1
ENDMDL
MODEL 7
REMARK VINA RESULT:      -3.9      2.451      3.913
REMARK  1 active torsions:
REMARK  status: ('A' for Active; 'I' for Inactive)
REMARK    1  A    between atoms: C3_3  and  C4_4 
ROOT
HETATM    1  C1  UNL     1     -33.683   7.044   5.358  1.00 20.00     0.012 A 
HETATM    2  C2  UNL     1     -33.818   6.070   6.255  1.00 20.00     0.003 A 
HETATM    3  C4  UNL     1     -33.899   6.500   3.997  1.00 20.00     0.231 A 
HETATM    4  C5  UNL     1     -34.126   4.789   5.567  1.00 20.00     0.141 A 
HETATM    5  C6  UNL     1     -35.446   4.179   6.009  1.00 20.00     0.044 C 
HETATM    6  O8  UNL     1     -34.210   5.111   4.162  1.00 20.00    -0.364 OA
ENDROOT
BRANCH   3   7
HETATM    7  C3  UNL     1     -32.630   6.597   3.216  1.00 20.00     0.251 C 
HETATM    8  O7  UNL     1     -31.849   5.654   3.135  1.00 20.00    -0.277 OA
HETATM    9 CL9  UNL     1     -32.434   8.158   2.478  1.00 20.00    -0.041 Cl
ENDBRANCH   3   7
TORSDOF 1
ENDMDL
MODEL 8
REMARK VINA RESULT:      -3.8     12.121     13.174
REMARK  1 active torsions:
REMARK  status: ('A' for Active; 'I' for Inactive)
REMARK    1  A    between atoms: C3_3  and  C4_4 
ROOT
HETATM    1  C1  UNL     1     -34.449  15.182  -3.040  1.00 20.00     0.012 A 
HETATM    2  C2  UNL     1     -34.850  16.448  -3.123  1.00 20.00     0.003 A 
HETATM    3  C4  UNL     1     -33.861  14.761  -4.333  1.00 20.00     0.231 A 
HETATM    4  C5  UNL     1     -34.572  16.979  -4.484  1.00 20.00     0.141 A 
HETATM    5  C6  UNL     1     -33.656  18.191  -4.474  1.00 20.00     0.044 C 
HETATM    6  O8  UNL     1     -33.915  15.906  -5.193  1.00 20.00    -0.364 OA
ENDROOT
BRANCH   3   7
HETATM    7  C3  UNL     1     -34.708  13.690  -4.939  1.00 20.00     0.251 C 
HETATM    8  O7  UNL     1     -35.000  12.672  -4.320  1.00 20.00    -0.277 OA
HETATM    9 CL9  UNL     1     -35.192  14.080  -6.561  1.00 20.00    -0.041 Cl
ENDBRANCH   3   7
TORSDOF 1
ENDMDL
MODEL 9
REMARK VINA RESULT:      -3.7     12.669     13.746
REMARK  1 active torsions:
REMARK  status: ('A' for Active; 'I' for Inactive)
REMARK    1  A    between atoms: C3_3  and  C4_4 
ROOT
HETATM    1  C1  UNL     1     -33.765  14.924  -4.021  1.00 20.00     0.012 A 
HETATM    2  C2  UNL     1     -34.684  14.947  -3.058  1.00 20.00     0.003 A 
HETATM    3  C4  UNL     1     -33.250  16.294  -4.249  1.00 20.00     0.231 A 
HETATM    4  C5  UNL     1     -34.868  16.338  -2.568  1.00 20.00     0.141 A 
HETATM    5  C6  UNL     1     -34.581  16.489  -1.084  1.00 20.00     0.044 C 
HETATM    6  O8  UNL     1     -33.923  17.141  -3.309  1.00 20.00    -0.364 OA
ENDROOT
BRANCH   3   7
HETATM    7  C3  UNL     1     -33.626  16.744  -5.623  1.00 20.00     0.251 C 
HETATM    8  O7  UNL     1     -33.583  17.926  -5.949  1.00 20.00    -0.277 OA
HETATM    9 CL9  UNL     1     -34.107  15.417  -6.637  1.00 20.00    -0.041 Cl
ENDBRANCH   3   7
TORSDOF 1
ENDMDL
