MODEL 1
REMARK VINA RESULT:      -5.1      0.000      0.000
REMARK  1 active torsions:
REMARK  status: ('A' for Active; 'I' for Inactive)
REMARK    1  A    between atoms: C3_3  and  C6_6 
ROOT
HETATM    1  C1  UNL     1     -33.731  13.757  -4.020  1.00 20.00    -0.022 C 
HETATM    2  C2  UNL     1     -33.013  14.844  -3.703  1.00 20.00    -0.022 C 
HETATM    3  C4  UNL     1     -35.065  14.237  -4.543  1.00 20.00     0.053 C 
HETATM    4  C5  UNL     1     -33.864  16.055  -4.016  1.00 20.00     0.047 C 
HETATM    5  C6  UNL     1     -35.840  14.815  -3.330  1.00 20.00     0.062 C 
HETATM    6  C7  UNL     1     -35.057  16.137  -3.023  1.00 20.00     0.003 C 
HETATM    7  C8  UNL     1     -34.596  15.515  -5.247  1.00 20.00     0.186 C 
HETATM    8  C9  UNL     1     -34.656  16.269  -1.559  1.00 20.00     0.011 C 
HETATM    9  F11 UNL     1     -33.760  15.258  -6.275  1.00 20.00    -0.248 F 
ENDROOT
BRANCH   5  10
HETATM   10  C3  UNL     1     -37.270  15.076  -3.692  1.00 20.00     0.236 C 
HETATM   11  O10 UNL     1     -38.132  14.204  -3.715  1.00 20.00    -0.306 OA
ENDBRANCH   5  10
TORSDOF 1
ENDMDL
MODEL 2
REMARK VINA RESULT:      -4.9      1.716      2.679
REMARK  1 active torsions:
REMARK  status: ('A' for Active; 'I' for Inactive)
REMARK    1  A    between atoms: C3_3  and  C6_6 
ROOT
HETATM    1  C1  UNL     1     -33.887  16.649  -4.252  1.00 20.00    -0.022 C 
HETATM    2  C2  UNL     1     -33.144  15.565  -3.983  1.00 20.00    -0.022 C 
HETATM    3  C4  UNL     1     -35.220  16.461  -3.565  1.00 20.00     0.053 C 
HETATM    4  C5  UNL     1     -33.978  14.651  -3.113  1.00 20.00     0.047 C 
HETATM    5  C6  UNL     1     -35.965  15.339  -4.334  1.00 20.00     0.062 C 
HETATM    6  C7  UNL     1     -35.154  14.058  -3.939  1.00 20.00     0.003 C 
HETATM    7  C8  UNL     1     -34.739  15.713  -2.317  1.00 20.00     0.186 C 
HETATM    8  C9  UNL     1     -34.728  13.225  -5.142  1.00 20.00     0.011 C 
HETATM    9  F11 UNL     1     -33.923  16.467  -1.549  1.00 20.00    -0.248 F 
ENDROOT
BRANCH   5  10
HETATM   10  C3  UNL     1     -37.395  15.259  -3.895  1.00 20.00     0.236 C 
HETATM   11  O10 UNL     1     -37.976  14.202  -3.670  1.00 20.00    -0.306 OA
ENDBRANCH   5  10
TORSDOF 1
ENDMDL
MODEL 3
REMARK VINA RESULT:      -4.7      2.189      3.221
REMARK  1 active torsions:
REMARK  status: ('A' for Active; 'I' for Inactive)
REMARK    1  A    between atoms: C3_3  and  C6_6 
ROOT
HETATM    1  C1  UNL     1     -35.592  17.076  -3.447  1.00 20.00    -0.022 C 
HETATM    2  C2  UNL     1     -34.503  17.564  -4.060  1.00 20.00    -0.022 C 
HETATM    3  C4  UNL     1     -35.306  15.631  -3.108  1.00 20.00     0.053 C 
HETATM    4  C5  UNL     1     -33.485  16.447  -4.129  1.00 20.00     0.047 C 
HETATM    5  C6  UNL     1     -35.292  14.851  -4.449  1.00 20.00     0.062 C 
HETATM    6  C7  UNL     1     -33.967  15.350  -5.120  1.00 20.00     0.003 C 
HETATM    7  C8  UNL     1     -33.809  15.751  -2.805  1.00 20.00     0.186 C 
HETATM    8  C9  UNL     1     -34.166  15.831  -6.552  1.00 20.00     0.011 C 
HETATM    9  F11 UNL     1     -33.562  16.537  -1.735  1.00 20.00    -0.248 F 
ENDROOT
BRANCH   5  10
HETATM   10  C3  UNL     1     -35.278  13.374  -4.200  1.00 20.00     0.236 C 
HETATM   11  O10 UNL     1     -34.676  12.575  -4.909  1.00 20.00    -0.306 OA
ENDBRANCH   5  10
TORSDOF 1
ENDMDL
MODEL 4
REMARK VINA RESULT:      -4.7      1.867      2.969
REMARK  1 active torsions:
REMARK  status: ('A' for Active; 'I' for Inactive)
REMARK    1  A    between atoms: C3_3  and  C6_6 
ROOT
HETATM    1  C1  UNL     1     -34.478  16.429  -1.769  1.00 20.00    -0.022 C 
HETATM    2  C2  UNL     1     -35.484  17.116  -2.330  1.00 20.00    -0.022 C 
HETATM    3  C4  UNL     1     -33.786  15.664  -2.874  1.00 20.00     0.053 C 
HETATM    4  C5  UNL     1     -35.465  16.816  -3.813  1.00 20.00     0.047 C 
HETATM    5  C6  UNL     1     -34.760  14.541  -3.319  1.00 20.00     0.062 C 
HETATM    6  C7  UNL     1     -35.886  15.340  -4.061  1.00 20.00     0.003 C 
HETATM    7  C8  UNL     1     -33.953  16.684  -4.006  1.00 20.00     0.186 C 
HETATM    8  C9  UNL     1     -37.287  14.989  -3.576  1.00 20.00     0.011 C 
HETATM    9  F11 UNL     1     -33.298  17.838  -3.759  1.00 20.00    -0.248 F 
ENDROOT
BRANCH   5  10
HETATM   10  C3  UNL     1     -34.066  13.570  -4.224  1.00 20.00     0.236 C 
HETATM   11  O10 UNL     1     -34.639  12.644  -4.790  1.00 20.00    -0.306 OA
ENDBRANCH   5  10
TORSDOF 1
ENDMDL
MODEL 5
REMARK VINA RESULT:      -4.7      1.777      2.285
REMARK  1 active torsions:
REMARK  status: ('A' for Active; 'I' for Inactive)
REMARK    1  A    between atoms: C3_3  and  C6_6 
ROOT
HETATM    1  C1  UNL     1     -33.231  16.614  -5.086  1.00 20.00    -0.022 C 
HETATM    2  C2  UNL     1     -33.899  17.541  -4.382  1.00 20.00    -0.022 C 
HETATM    3  C4  UNL     1     -34.152  15.427  -5.252  1.00 20.00     0.053 C 
HETATM    4  C5  UNL     1     -35.269  16.977  -4.080  1.00 20.00     0.047 C 
HETATM    5  C6  UNL     1     -34.285  14.765  -3.856  1.00 20.00     0.062 C 
HETATM    6  C7  UNL     1     -35.150  15.805  -3.066  1.00 20.00     0.003 C 
HETATM    7  C8  UNL     1     -35.484  16.177  -5.366  1.00 20.00     0.186 C 
HETATM    8  C9  UNL     1     -34.543  16.188  -1.721  1.00 20.00     0.011 C 
HETATM    9  F11 UNL     1     -35.538  16.965  -6.462  1.00 20.00    -0.248 F 
ENDROOT
BRANCH   5  10
HETATM   10  C3  UNL     1     -34.964  13.434  -3.967  1.00 20.00     0.236 C 
HETATM   11  O10 UNL     1     -34.718  12.621  -4.852  1.00 20.00    -0.306 OA
ENDBRANCH   5  10
TORSDOF 1
ENDMDL
MODEL 6
REMARK VINA RESULT:      -4.6      2.608      3.670
REMARK  1 active torsions:
REMARK  status: ('A' for Active; 'I' for Inactive)
REMARK    1  A    between atoms: C3_3  and  C6_6 
ROOT
HETATM    1  C1  UNL     1     -32.935  14.451  -3.617  1.00 20.00    -0.022 C 
HETATM    2  C2  UNL     1     -34.068  13.737  -3.687  1.00 20.00    -0.022 C 
HETATM    3  C4  UNL     1     -33.306  15.902  -3.818  1.00 20.00     0.053 C 
HETATM    4  C5  UNL     1     -35.200  14.709  -3.931  1.00 20.00     0.047 C 
HETATM    5  C6  UNL     1     -33.715  16.058  -5.306  1.00 20.00     0.062 C 
HETATM    6  C7  UNL     1     -35.089  15.305  -5.363  1.00 20.00     0.003 C 
HETATM    7  C8  UNL     1     -34.671  15.894  -3.122  1.00 20.00     0.186 C 
HETATM    8  C9  UNL     1     -35.162  14.279  -6.486  1.00 20.00     0.011 C 
HETATM    9  F11 UNL     1     -34.575  15.618  -1.804  1.00 20.00    -0.248 F 
ENDROOT
BRANCH   5  10
HETATM   10  C3  UNL     1     -33.849  17.505  -5.668  1.00 20.00     0.236 C 
HETATM   11  O10 UNL     1     -33.287  18.409  -5.058  1.00 20.00    -0.306 OA
ENDBRANCH   5  10
TORSDOF 1
ENDMDL
MODEL 7
REMARK VINA RESULT:      -4.6      1.845      2.910
REMARK  1 active torsions:
REMARK  status: ('A' for Active; 'I' for Inactive)
REMARK    1  A    between atoms: C3_3  and  C6_6 
ROOT
HETATM    1  C1  UNL     1     -34.191  15.119  -5.575  1.00 20.00    -0.022 C 
HETATM    2  C2  UNL     1     -35.246  14.295  -5.510  1.00 20.00    -0.022 C 
HETATM    3  C4  UNL     1     -33.655  15.272  -4.169  1.00 20.00     0.053 C 
HETATM    4  C5  UNL     1     -35.417  13.892  -4.062  1.00 20.00     0.047 C 
HETATM    5  C6  UNL     1     -34.695  16.112  -3.383  1.00 20.00     0.062 C 
HETATM    6  C7  UNL     1     -35.891  15.112  -3.223  1.00 20.00     0.003 C 
HETATM    7  C8  UNL     1     -33.944  13.859  -3.652  1.00 20.00     0.186 C 
HETATM    8  C9  UNL     1     -37.226  15.703  -3.659  1.00 20.00     0.011 C 
HETATM    9  F11 UNL     1     -33.243  12.915  -4.316  1.00 20.00    -0.248 F 
ENDROOT
BRANCH   5  10
HETATM   10  C3  UNL     1     -34.136  16.540  -2.060  1.00 20.00     0.236 C 
HETATM   11  O10 UNL     1     -34.664  16.274  -0.985  1.00 20.00    -0.306 OA
ENDBRANCH   5  10
TORSDOF 1
ENDMDL
MODEL 8
REMARK VINA RESULT:      -4.6      2.132      2.976
REMARK  1 active torsions:
REMARK  status: ('A' for Active; 'I' for Inactive)
REMARK    1  A    between atoms: C3_3  and  C6_6 
ROOT
HETATM    1  C1  UNL     1     -34.043  13.779  -4.261  1.00 20.00    -0.022 C 
HETATM    2  C2  UNL     1     -34.500  14.323  -5.398  1.00 20.00    -0.022 C 
HETATM    3  C4  UNL     1     -34.589  14.603  -3.117  1.00 20.00     0.053 C 
HETATM    4  C5  UNL     1     -35.356  15.512  -5.018  1.00 20.00     0.047 C 
HETATM    5  C6  UNL     1     -33.854  15.969  -3.160  1.00 20.00     0.062 C 
HETATM    6  C7  UNL     1     -34.464  16.644  -4.436  1.00 20.00     0.003 C 
HETATM    7  C8  UNL     1     -35.951  14.967  -3.718  1.00 20.00     0.186 C 
HETATM    8  C9  UNL     1     -33.405  17.174  -5.395  1.00 20.00     0.011 C 
HETATM    9  F11 UNL     1     -36.729  13.882  -3.921  1.00 20.00    -0.248 F 
ENDROOT
BRANCH   5  10
HETATM   10  C3  UNL     1     -34.133  16.756  -1.917  1.00 20.00     0.236 C 
HETATM   11  O10 UNL     1     -34.630  16.272  -0.906  1.00 20.00    -0.306 OA
ENDBRANCH   5  10
TORSDOF 1
ENDMDL
MODEL 9
REMARK VINA RESULT:      -4.6      2.228      3.006
REMARK  1 active torsions:
REMARK  status: ('A' for Active; 'I' for Inactive)
REMARK    1  A    between atoms: C3_3  and  C6_6 
ROOT
HETATM    1  C1  UNL     1     -35.220  15.352  -2.929  1.00 20.00    -0.022 C 
HETATM    2  C2  UNL     1     -33.999  15.875  -2.747  1.00 20.00    -0.022 C 
HETATM    3  C4  UNL     1     -35.179  14.552  -4.211  1.00 20.00     0.053 C 
HETATM    4  C5  UNL     1     -33.136  15.422  -3.904  1.00 20.00     0.047 C 
HETATM    5  C6  UNL     1     -35.068  15.574  -5.373  1.00 20.00     0.062 C 
HETATM    6  C7  UNL     1     -33.604  16.111  -5.217  1.00 20.00     0.003 C 
HETATM    7  C8  UNL     1     -33.740  14.033  -4.119  1.00 20.00     0.186 C 
HETATM    8  C9  UNL     1     -33.524  17.632  -5.198  1.00 20.00     0.011 C 
HETATM    9  F11 UNL     1     -33.555  13.219  -3.057  1.00 20.00    -0.248 F 
ENDROOT
BRANCH   5  10
HETATM   10  C3  UNL     1     -35.283  14.898  -6.692  1.00 20.00     0.236 C 
HETATM   11  O10 UNL     1     -34.415  14.804  -7.554  1.00 20.00    -0.306 OA
ENDBRANCH   5  10
TORSDOF 1
ENDMDL
