MODEL 1
REMARK VINA RESULT:      -4.0      0.000      0.000
REMARK  3 active torsions:
REMARK  status: ('A' for Active; 'I' for Inactive)
REMARK    1  A    between atoms: C7_7  and  C8_8 
REMARK    2  A    between atoms: C8_8  and  N10_10 
REMARK    3  A    between atoms: C9_9  and  N10_10 
ROOT
HETATM    1  C1  UNL     1     -34.596  16.559  -0.933  1.00 20.00     0.015 C 
HETATM    2  C2  UNL     1     -34.772  16.056  -2.009  1.00 20.00    -0.076 C 
HETATM    3  C4  UNL     1     -34.124  14.180  -3.459  1.00 20.00     0.063 C 
HETATM    4  C5  UNL     1     -36.468  15.070  -3.497  1.00 20.00     0.063 C 
HETATM    5  C9  UNL     1     -34.991  15.437  -3.333  1.00 20.00     0.213 C 
ENDROOT
BRANCH   5   6
HETATM    6  N10 UNL     1     -34.618  16.387  -4.365  1.00 20.00     0.104 N 
HETATM    7  C6  UNL     1     -33.197  16.259  -4.705  1.00 20.00     0.312 C 
BRANCH   6   8
HETATM    8  C8  UNL     1     -35.439  16.204  -5.566  1.00 20.00     0.273 C 
BRANCH   8   9
HETATM    9  C7  UNL     1     -34.616  15.771  -6.772  1.00 20.00     0.026 C 
HETATM   10  C3  UNL     1     -35.159  14.513  -7.435  1.00 20.00     0.007 C 
ENDBRANCH   8   9
ENDBRANCH   6   8
ENDBRANCH   5   6
TORSDOF 3
ENDMDL
MODEL 2
REMARK VINA RESULT:      -4.0      1.188      4.242
REMARK  3 active torsions:
REMARK  status: ('A' for Active; 'I' for Inactive)
REMARK    1  A    between atoms: C7_7  and  C8_8 
REMARK    2  A    between atoms: C8_8  and  N10_10 
REMARK    3  A    between atoms: C9_9  and  N10_10 
ROOT
HETATM    1  C1  UNL     1     -34.487  14.855  -7.165  1.00 20.00     0.015 C 
HETATM    2  C2  UNL     1     -34.587  14.791  -5.971  1.00 20.00    -0.076 C 
HETATM    3  C4  UNL     1     -36.081  14.141  -4.130  1.00 20.00     0.063 C 
HETATM    4  C5  UNL     1     -33.602  13.816  -3.936  1.00 20.00     0.063 C 
HETATM    5  C9  UNL     1     -34.708  14.712  -4.500  1.00 20.00     0.213 C 
ENDROOT
BRANCH   5   6
HETATM    6  N10 UNL     1     -34.573  16.045  -3.943  1.00 20.00     0.104 N 
HETATM    7  C6  UNL     1     -35.887  16.658  -3.728  1.00 20.00     0.312 C 
BRANCH   6   8
HETATM    8  C8  UNL     1     -33.823  16.011  -2.683  1.00 20.00     0.273 C 
BRANCH   8   9
HETATM    9  C7  UNL     1     -34.689  16.372  -1.482  1.00 20.00     0.026 C 
HETATM   10  C3  UNL     1     -34.038  17.408  -0.577  1.00 20.00     0.007 C 
ENDBRANCH   8   9
ENDBRANCH   6   8
ENDBRANCH   5   6
TORSDOF 3
ENDMDL
MODEL 3
REMARK VINA RESULT:      -3.8      1.141      2.745
REMARK  3 active torsions:
REMARK  status: ('A' for Active; 'I' for Inactive)
REMARK    1  A    between atoms: C7_7  and  C8_8 
REMARK    2  A    between atoms: C8_8  and  N10_10 
REMARK    3  A    between atoms: C9_9  and  N10_10 
ROOT
HETATM    1  C1  UNL     1     -34.666  16.271  -1.518  1.00 20.00     0.015 C 
HETATM    2  C2  UNL     1     -34.413  15.809  -2.597  1.00 20.00    -0.076 C 
HETATM    3  C4  UNL     1     -33.123  16.162  -4.660  1.00 20.00     0.063 C 
HETATM    4  C5  UNL     1     -33.485  13.849  -3.761  1.00 20.00     0.063 C 
HETATM    5  C9  UNL     1     -34.102  15.241  -3.925  1.00 20.00     0.213 C 
ENDROOT
BRANCH   5   6
HETATM    6  N10 UNL     1     -35.330  15.131  -4.690  1.00 20.00     0.104 N 
HETATM    7  C6  UNL     1     -35.053  14.695  -6.063  1.00 20.00     0.312 C 
BRANCH   6   8
HETATM    8  C8  UNL     1     -36.266  14.203  -4.048  1.00 20.00     0.273 C 
BRANCH   8   9
HETATM    9  C7  UNL     1     -37.694  14.736  -4.032  1.00 20.00     0.026 C 
HETATM   10  C3  UNL     1     -37.753  16.256  -4.020  1.00 20.00     0.007 C 
ENDBRANCH   8   9
ENDBRANCH   6   8
ENDBRANCH   5   6
TORSDOF 3
ENDMDL
MODEL 4
REMARK VINA RESULT:      -3.8      1.196      2.088
REMARK  3 active torsions:
REMARK  status: ('A' for Active; 'I' for Inactive)
REMARK    1  A    between atoms: C7_7  and  C8_8 
REMARK    2  A    between atoms: C8_8  and  N10_10 
REMARK    3  A    between atoms: C9_9  and  N10_10 
ROOT
HETATM    1  C1  UNL     1     -34.548  16.640  -0.848  1.00 20.00     0.015 C 
HETATM    2  C2  UNL     1     -34.388  16.338  -1.999  1.00 20.00    -0.076 C 
HETATM    3  C4  UNL     1     -34.029  17.233  -4.261  1.00 20.00     0.063 C 
HETATM    4  C5  UNL     1     -32.942  15.088  -3.551  1.00 20.00     0.063 C 
HETATM    5  C9  UNL     1     -34.190  15.965  -3.415  1.00 20.00     0.213 C 
ENDROOT
BRANCH   5   6
HETATM    6  N10 UNL     1     -35.348  15.221  -3.874  1.00 20.00     0.104 N 
HETATM    7  C6  UNL     1     -36.378  16.126  -4.394  1.00 20.00     0.312 C 
BRANCH   6   8
HETATM    8  C8  UNL     1     -34.970  14.247  -4.903  1.00 20.00     0.273 C 
BRANCH   8   9
HETATM    9  C7  UNL     1     -35.538  14.599  -6.273  1.00 20.00     0.026 C 
HETATM   10  C3  UNL     1     -34.457  14.942  -7.287  1.00 20.00     0.007 C 
ENDBRANCH   8   9
ENDBRANCH   6   8
ENDBRANCH   5   6
TORSDOF 3
ENDMDL
MODEL 5
REMARK VINA RESULT:      -3.8      1.253      3.593
REMARK  3 active torsions:
REMARK  status: ('A' for Active; 'I' for Inactive)
REMARK    1  A    between atoms: C7_7  and  C8_8 
REMARK    2  A    between atoms: C8_8  and  N10_10 
REMARK    3  A    between atoms: C9_9  and  N10_10 
ROOT
HETATM    1  C1  UNL     1     -37.033  15.653  -4.487  1.00 20.00     0.015 C 
HETATM    2  C2  UNL     1     -35.959  15.244  -4.834  1.00 20.00    -0.076 C 
HETATM    3  C4  UNL     1     -34.521  13.251  -4.921  1.00 20.00     0.063 C 
HETATM    4  C5  UNL     1     -34.469  14.944  -6.771  1.00 20.00     0.063 C 
HETATM    5  C9  UNL     1     -34.637  14.741  -5.262  1.00 20.00     0.213 C 
ENDROOT
BRANCH   5   6
HETATM    6  N10 UNL     1     -33.602  15.478  -4.563  1.00 20.00     0.104 N 
HETATM    7  C6  UNL     1     -33.700  16.914  -4.847  1.00 20.00     0.312 C 
BRANCH   6   8
HETATM    8  C8  UNL     1     -33.680  15.247  -3.118  1.00 20.00     0.273 C 
BRANCH   8   9
HETATM    9  C7  UNL     1     -33.698  16.546  -2.321  1.00 20.00     0.026 C 
HETATM   10  C3  UNL     1     -34.679  16.509  -1.159  1.00 20.00     0.007 C 
ENDBRANCH   8   9
ENDBRANCH   6   8
ENDBRANCH   5   6
TORSDOF 3
ENDMDL
MODEL 6
REMARK VINA RESULT:      -3.7      0.526      1.971
REMARK  3 active torsions:
REMARK  status: ('A' for Active; 'I' for Inactive)
REMARK    1  A    between atoms: C7_7  and  C8_8 
REMARK    2  A    between atoms: C8_8  and  N10_10 
REMARK    3  A    between atoms: C9_9  and  N10_10 
ROOT
HETATM    1  C1  UNL     1     -33.432  13.566  -3.792  1.00 20.00     0.015 C 
HETATM    2  C2  UNL     1     -34.162  14.487  -3.545  1.00 20.00    -0.076 C 
HETATM    3  C4  UNL     1     -36.516  15.151  -3.302  1.00 20.00     0.063 C 
HETATM    4  C5  UNL     1     -34.748  16.166  -1.843  1.00 20.00     0.063 C 
HETATM    5  C9  UNL     1     -35.059  15.621  -3.239  1.00 20.00     0.213 C 
ENDROOT
BRANCH   5   6
HETATM    6  N10 UNL     1     -34.846  16.669  -4.219  1.00 20.00     0.104 N 
HETATM    7  C6  UNL     1     -33.414  16.922  -4.412  1.00 20.00     0.312 C 
BRANCH   6   8
HETATM    8  C8  UNL     1     -35.471  16.323  -5.500  1.00 20.00     0.273 C 
BRANCH   8   9
HETATM    9  C7  UNL     1     -34.456  16.225  -6.633  1.00 20.00     0.026 C 
HETATM   10  C3  UNL     1     -34.553  14.912  -7.397  1.00 20.00     0.007 C 
ENDBRANCH   8   9
ENDBRANCH   6   8
ENDBRANCH   5   6
TORSDOF 3
ENDMDL
MODEL 7
REMARK VINA RESULT:      -3.7      1.266      3.595
REMARK  3 active torsions:
REMARK  status: ('A' for Active; 'I' for Inactive)
REMARK    1  A    between atoms: C7_7  and  C8_8 
REMARK    2  A    between atoms: C8_8  and  N10_10 
REMARK    3  A    between atoms: C9_9  and  N10_10 
ROOT
HETATM    1  C1  UNL     1     -33.503  13.659  -3.805  1.00 20.00     0.015 C 
HETATM    2  C2  UNL     1     -33.915  14.661  -4.324  1.00 20.00    -0.076 C 
HETATM    3  C4  UNL     1     -34.152  15.839  -6.468  1.00 20.00     0.063 C 
HETATM    4  C5  UNL     1     -35.927  16.027  -4.707  1.00 20.00     0.063 C 
HETATM    5  C9  UNL     1     -34.423  15.893  -4.961  1.00 20.00     0.213 C 
ENDROOT
BRANCH   5   6
HETATM    6  N10 UNL     1     -33.739  17.037  -4.387  1.00 20.00     0.104 N 
HETATM    7  C6  UNL     1     -33.495  18.065  -5.404  1.00 20.00     0.312 C 
BRANCH   6   8
HETATM    8  C8  UNL     1     -34.509  17.604  -3.276  1.00 20.00     0.273 C 
BRANCH   8   9
HETATM    9  C7  UNL     1     -33.822  17.402  -1.931  1.00 20.00     0.026 C 
HETATM   10  C3  UNL     1     -34.620  16.512  -0.990  1.00 20.00     0.007 C 
ENDBRANCH   8   9
ENDBRANCH   6   8
ENDBRANCH   5   6
TORSDOF 3
ENDMDL
MODEL 8
REMARK VINA RESULT:      -3.7      0.810      2.157
REMARK  3 active torsions:
REMARK  status: ('A' for Active; 'I' for Inactive)
REMARK    1  A    between atoms: C7_7  and  C8_8 
REMARK    2  A    between atoms: C8_8  and  N10_10 
REMARK    3  A    between atoms: C9_9  and  N10_10 
ROOT
HETATM    1  C1  UNL     1     -37.352  14.789  -3.830  1.00 20.00     0.015 C 
HETATM    2  C2  UNL     1     -36.224  15.132  -3.604  1.00 20.00    -0.076 C 
HETATM    3  C4  UNL     1     -34.732  16.057  -1.881  1.00 20.00     0.063 C 
HETATM    4  C5  UNL     1     -33.883  14.374  -3.535  1.00 20.00     0.063 C 
HETATM    5  C9  UNL     1     -34.835  15.554  -3.326  1.00 20.00     0.213 C 
ENDROOT
BRANCH   5   6
HETATM    6  N10 UNL     1     -34.476  16.625  -4.237  1.00 20.00     0.104 N 
HETATM    7  C6  UNL     1     -33.828  17.727  -3.519  1.00 20.00     0.312 C 
BRANCH   6   8
HETATM    8  C8  UNL     1     -33.596  16.132  -5.301  1.00 20.00     0.273 C 
BRANCH   8   9
HETATM    9  C7  UNL     1     -34.237  16.236  -6.680  1.00 20.00     0.026 C 
HETATM   10  C3  UNL     1     -34.686  14.888  -7.222  1.00 20.00     0.007 C 
ENDBRANCH   8   9
ENDBRANCH   6   8
ENDBRANCH   5   6
TORSDOF 3
ENDMDL
MODEL 9
REMARK VINA RESULT:      -3.7     11.572     12.901
REMARK  3 active torsions:
REMARK  status: ('A' for Active; 'I' for Inactive)
REMARK    1  A    between atoms: C7_7  and  C8_8 
REMARK    2  A    between atoms: C8_8  and  N10_10 
REMARK    3  A    between atoms: C9_9  and  N10_10 
ROOT
HETATM    1  C1  UNL     1     -33.984   6.888   6.821  1.00 20.00     0.015 C 
HETATM    2  C2  UNL     1     -34.227   6.180   5.882  1.00 20.00    -0.076 C 
HETATM    3  C4  UNL     1     -34.672   3.859   5.202  1.00 20.00     0.063 C 
HETATM    4  C5  UNL     1     -35.824   5.769   4.054  1.00 20.00     0.063 C 
HETATM    5  C9  UNL     1     -34.527   5.309   4.726  1.00 20.00     0.213 C 
ENDROOT
BRANCH   5   6
HETATM    6  N10 UNL     1     -33.437   5.399   3.773  1.00 20.00     0.104 N 
HETATM    7  C6  UNL     1     -33.908   5.117   2.413  1.00 20.00     0.312 C 
BRANCH   6   8
HETATM    8  C8  UNL     1     -32.807   6.722   3.821  1.00 20.00     0.273 C 
BRANCH   8   9
HETATM    9  C7  UNL     1     -31.940   6.997   2.598  1.00 20.00     0.026 C 
HETATM   10  C3  UNL     1     -32.149   8.393   2.032  1.00 20.00     0.007 C 
ENDBRANCH   8   9
ENDBRANCH   6   8
ENDBRANCH   5   6
TORSDOF 3
ENDMDL
