MODEL 1
REMARK VINA RESULT:      -4.9      0.000      0.000
REMARK  1 active torsions:
REMARK  status: ('A' for Active; 'I' for Inactive)
REMARK    1  A    between atoms: C1_1  and  C9_9 
ROOT
HETATM    1  C2  UNL     1     -35.799  16.167  -2.529  1.00 20.00     0.002 C 
HETATM    2  C3  UNL     1     -34.378  16.333  -1.978  1.00 20.00     0.005 C 
HETATM    3  C4  UNL     1     -33.477  16.922  -4.289  1.00 20.00     0.006 C 
HETATM    4  C5  UNL     1     -35.932  14.969  -3.478  1.00 20.00     0.018 C 
HETATM    5  C6  UNL     1     -34.430  16.119  -5.189  1.00 20.00     0.019 C 
HETATM    6  C7  UNL     1     -33.454  14.649  -3.576  1.00 20.00     0.023 C 
HETATM    7  C8  UNL     1     -33.286  16.064  -3.029  1.00 20.00    -0.013 C 
HETATM    8  C9  UNL     1     -34.721  14.821  -4.415  1.00 20.00     0.036 C 
ENDROOT
BRANCH   8   9
HETATM    9  C1  UNL     1     -34.925  13.659  -5.340  1.00 20.00     0.227 C 
HETATM   10  O10 UNL     1     -34.824  12.499  -4.951  1.00 20.00    -0.279 OA
HETATM   11 CL11 UNL     1     -35.306  14.170  -6.956  1.00 20.00    -0.043 Cl
ENDBRANCH   8   9
TORSDOF 1
ENDMDL
MODEL 2
REMARK VINA RESULT:      -4.9      2.134      3.047
REMARK  1 active torsions:
REMARK  status: ('A' for Active; 'I' for Inactive)
REMARK    1  A    between atoms: C1_1  and  C9_9 
ROOT
HETATM    1  C2  UNL     1     -34.114  15.939  -5.713  1.00 20.00     0.002 C 
HETATM    2  C3  UNL     1     -33.145  16.003  -4.527  1.00 20.00     0.005 C 
HETATM    3  C4  UNL     1     -33.862  13.691  -3.726  1.00 20.00     0.006 C 
HETATM    4  C5  UNL     1     -35.585  15.953  -5.279  1.00 20.00     0.018 C 
HETATM    5  C6  UNL     1     -35.323  13.655  -4.203  1.00 20.00     0.019 C 
HETATM    6  C7  UNL     1     -34.981  15.615  -2.876  1.00 20.00     0.023 C 
HETATM    7  C8  UNL     1     -33.599  15.150  -3.328  1.00 20.00    -0.013 C 
HETATM    8  C9  UNL     1     -35.842  15.094  -4.028  1.00 20.00     0.036 C 
ENDROOT
BRANCH   8   9
HETATM    9  C1  UNL     1     -37.298  15.119  -3.677  1.00 20.00     0.227 C 
HETATM   10  O10 UNL     1     -37.996  14.111  -3.747  1.00 20.00    -0.279 OA
HETATM   11 CL11 UNL     1     -37.825  16.697  -3.182  1.00 20.00    -0.043 Cl
ENDBRANCH   8   9
TORSDOF 1
ENDMDL
MODEL 3
REMARK VINA RESULT:      -4.9      2.219      2.982
REMARK  1 active torsions:
REMARK  status: ('A' for Active; 'I' for Inactive)
REMARK    1  A    between atoms: C1_1  and  C9_9 
ROOT
HETATM    1  C2  UNL     1     -33.630  15.533  -3.109  1.00 20.00     0.002 C 
HETATM    2  C3  UNL     1     -33.209  14.201  -3.739  1.00 20.00     0.005 C 
HETATM    3  C4  UNL     1     -34.483  14.733  -5.883  1.00 20.00     0.006 C 
HETATM    4  C5  UNL     1     -35.136  15.611  -2.833  1.00 20.00     0.018 C 
HETATM    5  C6  UNL     1     -35.627  15.602  -5.336  1.00 20.00     0.019 C 
HETATM    6  C7  UNL     1     -35.581  13.529  -4.146  1.00 20.00     0.023 C 
HETATM    7  C8  UNL     1     -34.208  13.687  -4.793  1.00 20.00    -0.013 C 
HETATM    8  C9  UNL     1     -35.977  14.995  -3.965  1.00 20.00     0.036 C 
ENDROOT
BRANCH   8   9
HETATM    9  C1  UNL     1     -37.437  15.134  -3.656  1.00 20.00     0.227 C 
HETATM   10  O10 UNL     1     -38.205  14.178  -3.725  1.00 20.00    -0.279 OA
HETATM   11 CL11 UNL     1     -37.860  16.757  -3.208  1.00 20.00    -0.043 Cl
ENDBRANCH   8   9
TORSDOF 1
ENDMDL
MODEL 4
REMARK VINA RESULT:      -4.8      1.553      2.532
REMARK  1 active torsions:
REMARK  status: ('A' for Active; 'I' for Inactive)
REMARK    1  A    between atoms: C1_1  and  C9_9 
ROOT
HETATM    1  C2  UNL     1     -33.247  13.687  -3.592  1.00 20.00     0.002 C 
HETATM    2  C3  UNL     1     -32.576  15.014  -3.963  1.00 20.00     0.005 C 
HETATM    3  C4  UNL     1     -34.135  16.312  -2.417  1.00 20.00     0.006 C 
HETATM    4  C5  UNL     1     -34.694  13.593  -4.089  1.00 20.00     0.018 C 
HETATM    5  C6  UNL     1     -35.400  15.440  -2.477  1.00 20.00     0.019 C 
HETATM    6  C7  UNL     1     -34.742  16.017  -4.702  1.00 20.00     0.023 C 
HETATM    7  C8  UNL     1     -33.515  16.227  -3.820  1.00 20.00    -0.013 C 
HETATM    8  C9  UNL     1     -35.463  14.916  -3.923  1.00 20.00     0.036 C 
ENDROOT
BRANCH   8   9
HETATM    9  C1  UNL     1     -36.878  14.751  -4.390  1.00 20.00     0.227 C 
HETATM   10  O10 UNL     1     -37.739  14.246  -3.675  1.00 20.00    -0.279 OA
HETATM   11 CL11 UNL     1     -37.107  15.349  -6.004  1.00 20.00    -0.043 Cl
ENDBRANCH   8   9
TORSDOF 1
ENDMDL
MODEL 5
REMARK VINA RESULT:      -4.7      0.937      1.175
REMARK  1 active torsions:
REMARK  status: ('A' for Active; 'I' for Inactive)
REMARK    1  A    between atoms: C1_1  and  C9_9 
ROOT
HETATM    1  C2  UNL     1     -34.758  15.987  -2.053  1.00 20.00     0.002 C 
HETATM    2  C3  UNL     1     -33.761  17.050  -2.528  1.00 20.00     0.005 C 
HETATM    3  C4  UNL     1     -35.148  17.517  -4.616  1.00 20.00     0.006 C 
HETATM    4  C5  UNL     1     -34.788  14.753  -2.963  1.00 20.00     0.018 C 
HETATM    5  C6  UNL     1     -35.784  16.139  -4.860  1.00 20.00     0.019 C 
HETATM    6  C7  UNL     1     -33.410  15.890  -4.713  1.00 20.00     0.023 C 
HETATM    7  C8  UNL     1     -33.747  17.227  -4.058  1.00 20.00    -0.013 C 
HETATM    8  C9  UNL     1     -34.705  15.117  -4.456  1.00 20.00     0.036 C 
ENDROOT
BRANCH   8   9
HETATM    9  C1  UNL     1     -34.777  13.877  -5.294  1.00 20.00     0.227 C 
HETATM   10  O10 UNL     1     -34.665  12.758  -4.800  1.00 20.00    -0.279 OA
HETATM   11 CL11 UNL     1     -35.029  14.236  -6.974  1.00 20.00    -0.043 Cl
ENDBRANCH   8   9
TORSDOF 1
ENDMDL
MODEL 6
REMARK VINA RESULT:      -4.7      2.078      3.317
REMARK  1 active torsions:
REMARK  status: ('A' for Active; 'I' for Inactive)
REMARK    1  A    between atoms: C1_1  and  C9_9 
ROOT
HETATM    1  C2  UNL     1     -33.814  17.314  -5.654  1.00 20.00     0.002 C 
HETATM    2  C3  UNL     1     -34.355  17.167  -7.080  1.00 20.00     0.005 C 
HETATM    3  C4  UNL     1     -36.497  16.076  -6.230  1.00 20.00     0.006 C 
HETATM    4  C5  UNL     1     -33.504  15.965  -4.994  1.00 20.00     0.018 C 
HETATM    5  C6  UNL     1     -35.986  15.375  -4.961  1.00 20.00     0.019 C 
HETATM    6  C7  UNL     1     -34.646  14.699  -6.823  1.00 20.00     0.023 C 
HETATM    7  C8  UNL     1     -35.340  15.993  -7.236  1.00 20.00    -0.013 C 
HETATM    8  C9  UNL     1     -34.564  14.895  -5.308  1.00 20.00     0.036 C 
ENDROOT
BRANCH   8   9
HETATM    9  C1  UNL     1     -34.227  13.614  -4.608  1.00 20.00     0.227 C 
HETATM   10  O10 UNL     1     -34.882  12.591  -4.784  1.00 20.00    -0.279 OA
HETATM   11 CL11 UNL     1     -32.847  13.782  -3.568  1.00 20.00    -0.043 Cl
ENDBRANCH   8   9
TORSDOF 1
ENDMDL
MODEL 7
REMARK VINA RESULT:      -4.6      2.859      3.814
REMARK  1 active torsions:
REMARK  status: ('A' for Active; 'I' for Inactive)
REMARK    1  A    between atoms: C1_1  and  C9_9 
ROOT
HETATM    1  C2  UNL     1     -33.934  13.542  -4.335  1.00 20.00     0.002 C 
HETATM    2  C3  UNL     1     -35.053  13.775  -5.355  1.00 20.00     0.005 C 
HETATM    3  C4  UNL     1     -33.926  15.896  -6.211  1.00 20.00     0.006 C 
HETATM    4  C5  UNL     1     -33.899  14.612  -3.237  1.00 20.00     0.018 C 
HETATM    5  C6  UNL     1     -33.212  16.382  -4.940  1.00 20.00     0.019 C 
HETATM    6  C7  UNL     1     -35.532  16.058  -4.459  1.00 20.00     0.023 C 
HETATM    7  C8  UNL     1     -35.236  15.258  -5.725  1.00 20.00    -0.013 C 
HETATM    8  C9  UNL     1     -34.162  16.027  -3.781  1.00 20.00     0.036 C 
ENDROOT
BRANCH   8   9
HETATM    9  C1  UNL     1     -34.078  17.029  -2.670  1.00 20.00     0.227 C 
HETATM   10  O10 UNL     1     -33.686  18.176  -2.864  1.00 20.00    -0.279 OA
HETATM   11 CL11 UNL     1     -34.592  16.365  -1.150  1.00 20.00    -0.043 Cl
ENDBRANCH   8   9
TORSDOF 1
ENDMDL
MODEL 8
REMARK VINA RESULT:      -4.6     12.008     13.018
REMARK  1 active torsions:
REMARK  status: ('A' for Active; 'I' for Inactive)
REMARK    1  A    between atoms: C1_1  and  C9_9 
ROOT
HETATM    1  C2  UNL     1     -43.015   5.223   0.408  1.00 20.00     0.002 C 
HETATM    2  C3  UNL     1     -41.535   5.466   0.725  1.00 20.00     0.005 C 
HETATM    3  C4  UNL     1     -41.223   6.803  -1.423  1.00 20.00     0.006 C 
HETATM    4  C5  UNL     1     -43.221   4.325  -0.818  1.00 20.00     0.018 C 
HETATM    5  C6  UNL     1     -42.256   6.130  -2.341  1.00 20.00     0.019 C 
HETATM    6  C7  UNL     1     -40.803   4.458  -1.441  1.00 20.00     0.023 C 
HETATM    7  C8  UNL     1     -40.674   5.679  -0.533  1.00 20.00    -0.013 C 
HETATM    8  C9  UNL     1     -42.232   4.640  -1.954  1.00 20.00     0.036 C 
ENDROOT
BRANCH   8   9
HETATM    9  C1  UNL     1     -42.506   3.758  -3.134  1.00 20.00     0.227 C 
HETATM   10  O10 UNL     1     -43.417   3.998  -3.922  1.00 20.00    -0.279 OA
HETATM   11 CL11 UNL     1     -41.404   2.419  -3.219  1.00 20.00    -0.043 Cl
ENDBRANCH   8   9
TORSDOF 1
ENDMDL
MODEL 9
REMARK VINA RESULT:      -4.6      2.747      3.934
REMARK  1 active torsions:
REMARK  status: ('A' for Active; 'I' for Inactive)
REMARK    1  A    between atoms: C1_1  and  C9_9 
ROOT
HETATM    1  C2  UNL     1     -34.582  15.050  -6.171  1.00 20.00     0.002 C 
HETATM    2  C3  UNL     1     -34.738  13.632  -5.612  1.00 20.00     0.005 C 
HETATM    3  C4  UNL     1     -36.625  14.373  -4.066  1.00 20.00     0.006 C 
HETATM    4  C5  UNL     1     -34.061  16.046  -5.128  1.00 20.00     0.018 C 
HETATM    5  C6  UNL     1     -36.227  15.833  -3.798  1.00 20.00     0.019 C 
HETATM    6  C7  UNL     1     -34.382  14.409  -3.265  1.00 20.00     0.023 C 
HETATM    7  C8  UNL     1     -35.300  13.604  -4.180  1.00 20.00    -0.013 C 
HETATM    8  C9  UNL     1     -34.689  15.831  -3.740  1.00 20.00     0.036 C 
ENDROOT
BRANCH   8   9
HETATM    9  C1  UNL     1     -34.170  16.854  -2.776  1.00 20.00     0.227 C 
HETATM   10  O10 UNL     1     -33.576  17.858  -3.158  1.00 20.00    -0.279 OA
HETATM   11 CL11 UNL     1     -34.513  16.432  -1.127  1.00 20.00    -0.043 Cl
ENDBRANCH   8   9
TORSDOF 1
ENDMDL
