MODEL 1
REMARK VINA RESULT:      -4.6      0.000      0.000
REMARK  2 active torsions:
REMARK  status: ('A' for Active; 'I' for Inactive)
REMARK    1  A    between atoms: C2_2  and  C7_7 
REMARK    2  A    between atoms: C6_6  and  C7_7 
ROOT
HETATM    1  C1  UNL     1     -34.579   4.825   5.770  1.00 20.00     0.064 C 
HETATM    2  C4  UNL     1     -33.813   7.039   6.522  1.00 20.00     0.026 C 
HETATM    3  C6  UNL     1     -33.681   5.955   5.449  1.00 20.00     0.099 C 
HETATM    4  N8  UNL     1     -35.282   3.937   6.022  1.00 20.00    -0.197 NA
ENDROOT
BRANCH   3   5
HETATM    5  C7  UNL     1     -33.938   6.462   4.011  1.00 20.00     0.068 C 
HETATM    6  C5  UNL     1     -34.978   5.648   3.235  1.00 20.00     0.019 C 
BRANCH   5   7
HETATM    7  C2  UNL     1     -32.627   6.532   3.223  1.00 20.00     0.128 C 
HETATM    8  C3  UNL     1     -32.278   7.859   2.593  1.00 20.00     0.091 C 
HETATM    9  O9  UNL     1     -31.891   5.556   3.080  1.00 20.00    -0.298 OA
ENDBRANCH   5   7
ENDBRANCH   3   5
TORSDOF 2
ENDMDL
MODEL 2
REMARK VINA RESULT:      -4.4     11.784     12.272
REMARK  2 active torsions:
REMARK  status: ('A' for Active; 'I' for Inactive)
REMARK    1  A    between atoms: C2_2  and  C7_7 
REMARK    2  A    between atoms: C6_6  and  C7_7 
ROOT
HETATM    1  C1  UNL     1     -34.761  16.124  -1.888  1.00 20.00     0.064 C 
HETATM    2  C4  UNL     1     -36.546  15.181  -3.294  1.00 20.00     0.026 C 
HETATM    3  C6  UNL     1     -35.065  15.559  -3.220  1.00 20.00     0.099 C 
HETATM    4  N8  UNL     1     -34.522  16.570  -0.844  1.00 20.00    -0.197 NA
ENDROOT
BRANCH   3   5
HETATM    5  C7  UNL     1     -34.104  14.392  -3.547  1.00 20.00     0.068 C 
HETATM    6  C5  UNL     1     -32.627  14.794  -3.611  1.00 20.00     0.019 C 
BRANCH   5   7
HETATM    7  C2  UNL     1     -34.520  13.701  -4.849  1.00 20.00     0.128 C 
HETATM    8  C3  UNL     1     -34.525  14.546  -6.099  1.00 20.00     0.091 C 
HETATM    9  O9  UNL     1     -34.859  12.519  -4.888  1.00 20.00    -0.298 OA
ENDBRANCH   5   7
ENDBRANCH   3   5
TORSDOF 2
ENDMDL
MODEL 3
REMARK VINA RESULT:      -4.4     12.013     12.670
REMARK  2 active torsions:
REMARK  status: ('A' for Active; 'I' for Inactive)
REMARK    1  A    between atoms: C2_2  and  C7_7 
REMARK    2  A    between atoms: C6_6  and  C7_7 
ROOT
HETATM    1  C1  UNL     1     -33.759  16.656  -4.112  1.00 20.00     0.064 C 
HETATM    2  C4  UNL     1     -34.231  16.552  -1.699  1.00 20.00     0.026 C 
HETATM    3  C6  UNL     1     -34.518  15.933  -3.069  1.00 20.00     0.099 C 
HETATM    4  N8  UNL     1     -33.166  17.225  -4.931  1.00 20.00    -0.197 NA
ENDROOT
BRANCH   3   5
HETATM    5  C7  UNL     1     -34.231  14.415  -3.143  1.00 20.00     0.068 C 
HETATM    6  C5  UNL     1     -32.810  14.067  -3.596  1.00 20.00     0.019 C 
BRANCH   5   7
HETATM    7  C2  UNL     1     -35.257  13.716  -4.039  1.00 20.00     0.128 C 
HETATM    8  C3  UNL     1     -36.611  14.370  -4.166  1.00 20.00     0.091 C 
HETATM    9  O9  UNL     1     -35.014  12.658  -4.618  1.00 20.00    -0.298 OA
ENDBRANCH   5   7
ENDBRANCH   3   5
TORSDOF 2
ENDMDL
MODEL 4
REMARK VINA RESULT:      -4.3      2.739      4.153
REMARK  2 active torsions:
REMARK  status: ('A' for Active; 'I' for Inactive)
REMARK    1  A    between atoms: C2_2  and  C7_7 
REMARK    2  A    between atoms: C6_6  and  C7_7 
ROOT
HETATM    1  C1  UNL     1     -32.432   7.222   2.905  1.00 20.00     0.064 C 
HETATM    2  C4  UNL     1     -33.534   5.079   2.412  1.00 20.00     0.026 C 
HETATM    3  C6  UNL     1     -33.002   6.000   3.512  1.00 20.00     0.099 C 
HETATM    4  N8  UNL     1     -31.982   8.181   2.430  1.00 20.00    -0.197 NA
ENDROOT
BRANCH   3   5
HETATM    5  C7  UNL     1     -34.053   6.366   4.585  1.00 20.00     0.068 C 
HETATM    6  C5  UNL     1     -33.460   6.694   5.959  1.00 20.00     0.019 C 
BRANCH   5   7
HETATM    7  C2  UNL     1     -35.100   5.256   4.714  1.00 20.00     0.128 C 
HETATM    8  C3  UNL     1     -34.847   4.196   5.758  1.00 20.00     0.091 C 
HETATM    9  O9  UNL     1     -36.095   5.201   3.992  1.00 20.00    -0.298 OA
ENDBRANCH   5   7
ENDBRANCH   3   5
TORSDOF 2
ENDMDL
MODEL 5
REMARK VINA RESULT:      -4.2     11.576     12.948
REMARK  2 active torsions:
REMARK  status: ('A' for Active; 'I' for Inactive)
REMARK    1  A    between atoms: C2_2  and  C7_7 
REMARK    2  A    between atoms: C6_6  and  C7_7 
ROOT
HETATM    1  C1  UNL     1     -36.937  14.916  -4.145  1.00 20.00     0.064 C 
HETATM    2  C4  UNL     1     -36.233  16.980  -5.285  1.00 20.00     0.026 C 
HETATM    3  C6  UNL     1     -35.764  15.695  -4.598  1.00 20.00     0.099 C 
HETATM    4  N8  UNL     1     -37.856  14.305  -3.788  1.00 20.00    -0.197 NA
ENDROOT
BRANCH   3   5
HETATM    5  C7  UNL     1     -34.835  14.821  -5.471  1.00 20.00     0.068 C 
HETATM    6  C5  UNL     1     -35.457  14.376  -6.799  1.00 20.00     0.019 C 
BRANCH   5   7
HETATM    7  C2  UNL     1     -34.345  13.602  -4.683  1.00 20.00     0.128 C 
HETATM    8  C3  UNL     1     -33.260  13.840  -3.663  1.00 20.00     0.091 C 
HETATM    9  O9  UNL     1     -34.789  12.471  -4.877  1.00 20.00    -0.298 OA
ENDBRANCH   5   7
ENDBRANCH   3   5
TORSDOF 2
ENDMDL
MODEL 6
REMARK VINA RESULT:      -4.2     12.091     12.572
REMARK  2 active torsions:
REMARK  status: ('A' for Active; 'I' for Inactive)
REMARK    1  A    between atoms: C2_2  and  C7_7 
REMARK    2  A    between atoms: C6_6  and  C7_7 
ROOT
HETATM    1  C1  UNL     1     -36.013  15.961  -3.148  1.00 20.00     0.064 C 
HETATM    2  C4  UNL     1     -34.169  16.497  -1.611  1.00 20.00     0.026 C 
HETATM    3  C6  UNL     1     -34.762  15.446  -2.552  1.00 20.00     0.099 C 
HETATM    4  N8  UNL     1     -36.997  16.363  -3.614  1.00 20.00    -0.197 NA
ENDROOT
BRANCH   3   5
HETATM    5  C7  UNL     1     -33.788  14.974  -3.657  1.00 20.00     0.068 C 
HETATM    6  C5  UNL     1     -33.221  16.106  -4.519  1.00 20.00     0.019 C 
BRANCH   5   7
HETATM    7  C2  UNL     1     -34.452  13.917  -4.543  1.00 20.00     0.128 C 
HETATM    8  C3  UNL     1     -34.676  14.282  -5.991  1.00 20.00     0.091 C 
HETATM    9  O9  UNL     1     -34.813  12.824  -4.108  1.00 20.00    -0.298 OA
ENDBRANCH   5   7
ENDBRANCH   3   5
TORSDOF 2
ENDMDL
MODEL 7
REMARK VINA RESULT:      -4.2     11.945     12.768
REMARK  2 active torsions:
REMARK  status: ('A' for Active; 'I' for Inactive)
REMARK    1  A    between atoms: C2_2  and  C7_7 
REMARK    2  A    between atoms: C6_6  and  C7_7 
ROOT
HETATM    1  C1  UNL     1     -35.003  13.698  -4.137  1.00 20.00     0.064 C 
HETATM    2  C4  UNL     1     -36.234  15.813  -4.391  1.00 20.00     0.026 C 
HETATM    3  C6  UNL     1     -35.454  14.915  -3.428  1.00 20.00     0.099 C 
HETATM    4  N8  UNL     1     -34.651  12.742  -4.692  1.00 20.00    -0.197 NA
ENDROOT
BRANCH   3   5
HETATM    5  C7  UNL     1     -34.259  15.619  -2.744  1.00 20.00     0.068 C 
HETATM    6  C5  UNL     1     -34.621  16.354  -1.450  1.00 20.00     0.019 C 
BRANCH   5   7
HETATM    7  C2  UNL     1     -33.567  16.575  -3.719  1.00 20.00     0.128 C 
HETATM    8  C3  UNL     1     -33.863  18.046  -3.558  1.00 20.00     0.091 C 
HETATM    9  O9  UNL     1     -32.820  16.178  -4.613  1.00 20.00    -0.298 OA
ENDBRANCH   5   7
ENDBRANCH   3   5
TORSDOF 2
ENDMDL
MODEL 8
REMARK VINA RESULT:      -4.0     11.647     12.438
REMARK  2 active torsions:
REMARK  status: ('A' for Active; 'I' for Inactive)
REMARK    1  A    between atoms: C2_2  and  C7_7 
REMARK    2  A    between atoms: C6_6  and  C7_7 
ROOT
HETATM    1  C1  UNL     1     -37.255  14.995  -3.706  1.00 20.00     0.064 C 
HETATM    2  C4  UNL     1     -35.552  16.156  -5.049  1.00 20.00     0.026 C 
HETATM    3  C6  UNL     1     -36.083  15.893  -3.637  1.00 20.00     0.099 C 
HETATM    4  N8  UNL     1     -38.177  14.292  -3.759  1.00 20.00    -0.197 NA
ENDROOT
BRANCH   3   5
HETATM    5  C7  UNL     1     -35.022  15.328  -2.664  1.00 20.00     0.068 C 
HETATM    6  C5  UNL     1     -34.182  16.399  -1.961  1.00 20.00     0.019 C 
BRANCH   5   7
HETATM    7  C2  UNL     1     -34.110  14.329  -3.383  1.00 20.00     0.128 C 
HETATM    8  C3  UNL     1     -32.707  14.788  -3.697  1.00 20.00     0.091 C 
HETATM    9  O9  UNL     1     -34.494  13.209  -3.716  1.00 20.00    -0.298 OA
ENDBRANCH   5   7
ENDBRANCH   3   5
TORSDOF 2
ENDMDL
MODEL 9
REMARK VINA RESULT:      -4.0     12.277     13.057
REMARK  2 active torsions:
REMARK  status: ('A' for Active; 'I' for Inactive)
REMARK    1  A    between atoms: C2_2  and  C7_7 
REMARK    2  A    between atoms: C6_6  and  C7_7 
ROOT
HETATM    1  C1  UNL     1     -33.352  16.046  -4.357  1.00 20.00     0.064 C 
HETATM    2  C4  UNL     1     -33.472  13.652  -3.801  1.00 20.00     0.026 C 
HETATM    3  C6  UNL     1     -33.732  15.077  -3.307  1.00 20.00     0.099 C 
HETATM    4  N8  UNL     1     -33.052  16.807  -5.180  1.00 20.00    -0.197 NA
ENDROOT
BRANCH   3   5
HETATM    5  C7  UNL     1     -35.187  15.322  -2.842  1.00 20.00     0.068 C 
HETATM    6  C5  UNL     1     -36.221  15.288  -3.971  1.00 20.00     0.019 C 
BRANCH   5   7
HETATM    7  C2  UNL     1     -35.290  16.641  -2.071  1.00 20.00     0.128 C 
HETATM    8  C3  UNL     1     -34.562  16.719  -0.751  1.00 20.00     0.091 C 
HETATM    9  O9  UNL     1     -35.950  17.595  -2.482  1.00 20.00    -0.298 OA
ENDBRANCH   5   7
ENDBRANCH   3   5
TORSDOF 2
ENDMDL
