MODEL 1
REMARK VINA RESULT:      -4.6      0.000      0.000
REMARK  1 active torsions:
REMARK  status: ('A' for Active; 'I' for Inactive)
REMARK    1  A    between atoms: C3_3  and  C7_7 
ROOT
HETATM    1  C1  UNL     1     -36.466  14.559  -3.809  1.00 20.00     0.218 C 
HETATM    2  C4  UNL     1     -35.510  14.088  -4.884  1.00 20.00     0.103 C 
HETATM    3  C5  UNL     1     -34.182  13.680  -4.260  1.00 20.00     0.012 C 
HETATM    4  C6  UNL     1     -33.561  14.783  -3.393  1.00 20.00     0.029 C 
HETATM    5  C7  UNL     1     -34.536  15.915  -3.075  1.00 20.00     0.106 C 
HETATM    6  N8  UNL     1     -35.886  15.419  -2.894  1.00 20.00    -0.353 N 
HETATM    7  O9  UNL     1     -37.647  14.221  -3.783  1.00 20.00    -0.274 OA
HETATM    8  H20 UNL     1     -36.403  15.699  -2.107  1.00 20.00     0.163 HD
ENDROOT
BRANCH   5   9
HETATM    9  C3  UNL     1     -34.021  16.617  -1.837  1.00 20.00    -0.012 C 
HETATM   10  C2  UNL     1     -34.696  16.693  -0.684  1.00 20.00     0.009 C 
ENDBRANCH   5   9
TORSDOF 1
ENDMDL
MODEL 2
REMARK VINA RESULT:      -4.4     12.058     12.515
REMARK  1 active torsions:
REMARK  status: ('A' for Active; 'I' for Inactive)
REMARK    1  A    between atoms: C3_3  and  C7_7 
ROOT
HETATM    1  C1  UNL     1     -34.813   4.492   5.027  1.00 20.00     0.218 C 
HETATM    2  C4  UNL     1     -34.232   4.912   6.361  1.00 20.00     0.103 C 
HETATM    3  C5  UNL     1     -34.165   6.431   6.447  1.00 20.00     0.012 C 
HETATM    4  C6  UNL     1     -33.408   7.067   5.274  1.00 20.00     0.029 C 
HETATM    5  C7  UNL     1     -33.168   6.096   4.120  1.00 20.00     0.106 C 
HETATM    6  N8  UNL     1     -34.280   5.181   3.953  1.00 20.00    -0.353 N 
HETATM    7  O9  UNL     1     -35.656   3.605   4.926  1.00 20.00    -0.274 OA
HETATM    8  H20 UNL     1     -34.665   5.045   3.060  1.00 20.00     0.163 HD
ENDROOT
BRANCH   5   9
HETATM    9  C3  UNL     1     -32.927   6.926   2.877  1.00 20.00    -0.012 C 
HETATM   10  C2  UNL     1     -31.899   7.768   2.727  1.00 20.00     0.009 C 
ENDBRANCH   5   9
TORSDOF 1
ENDMDL
MODEL 3
REMARK VINA RESULT:      -4.4      1.730      1.909
REMARK  1 active torsions:
REMARK  status: ('A' for Active; 'I' for Inactive)
REMARK    1  A    between atoms: C3_3  and  C7_7 
ROOT
HETATM    1  C1  UNL     1     -34.698  13.813  -4.619  1.00 20.00     0.218 C 
HETATM    2  C4  UNL     1     -34.906  14.748  -5.791  1.00 20.00     0.103 C 
HETATM    3  C5  UNL     1     -33.838  15.835  -5.789  1.00 20.00     0.012 C 
HETATM    4  C6  UNL     1     -33.761  16.599  -4.461  1.00 20.00     0.029 C 
HETATM    5  C7  UNL     1     -34.525  15.914  -3.330  1.00 20.00     0.106 C 
HETATM    6  N8  UNL     1     -34.441  14.470  -3.429  1.00 20.00    -0.353 N 
HETATM    7  O9  UNL     1     -34.779  12.593  -4.727  1.00 20.00    -0.274 OA
HETATM    8  H20 UNL     1     -34.197  13.944  -2.636  1.00 20.00     0.163 HD
ENDROOT
BRANCH   5   9
HETATM    9  C3  UNL     1     -33.953  16.426  -2.026  1.00 20.00    -0.012 C 
HETATM   10  C2  UNL     1     -34.668  16.583  -0.906  1.00 20.00     0.009 C 
ENDBRANCH   5   9
TORSDOF 1
ENDMDL
MODEL 4
REMARK VINA RESULT:      -4.2     12.378     12.954
REMARK  1 active torsions:
REMARK  status: ('A' for Active; 'I' for Inactive)
REMARK    1  A    between atoms: C3_3  and  C7_7 
ROOT
HETATM    1  C1  UNL     1     -33.910   6.457   6.264  1.00 20.00     0.218 C 
HETATM    2  C4  UNL     1     -35.009   5.509   6.695  1.00 20.00     0.103 C 
HETATM    3  C5  UNL     1     -34.823   4.154   6.025  1.00 20.00     0.012 C 
HETATM    4  C6  UNL     1     -34.722   4.247   4.497  1.00 20.00     0.029 C 
HETATM    5  C7  UNL     1     -34.503   5.674   3.998  1.00 20.00     0.106 C 
HETATM    6  N8  UNL     1     -33.664   6.433   4.904  1.00 20.00    -0.353 N 
HETATM    7  O9  UNL     1     -33.323   7.188   7.057  1.00 20.00    -0.274 OA
HETATM    8  H20 UNL     1     -32.903   6.942   4.547  1.00 20.00     0.163 HD
ENDROOT
BRANCH   5   9
HETATM    9  C3  UNL     1     -33.900   5.579   2.614  1.00 20.00    -0.012 C 
HETATM   10  C2  UNL     1     -32.653   5.959   2.313  1.00 20.00     0.009 C 
ENDBRANCH   5   9
TORSDOF 1
ENDMDL
MODEL 5
REMARK VINA RESULT:      -4.2     11.502     11.903
REMARK  1 active torsions:
REMARK  status: ('A' for Active; 'I' for Inactive)
REMARK    1  A    between atoms: C3_3  and  C7_7 
ROOT
HETATM    1  C1  UNL     1     -34.339   5.837   5.597  1.00 20.00     0.218 C 
HETATM    2  C4  UNL     1     -35.356   5.230   4.656  1.00 20.00     0.103 C 
HETATM    3  C5  UNL     1     -34.650   4.561   3.483  1.00 20.00     0.012 C 
HETATM    4  C6  UNL     1     -33.686   5.501   2.747  1.00 20.00     0.029 C 
HETATM    5  C7  UNL     1     -33.393   6.784   3.521  1.00 20.00     0.106 C 
HETATM    6  N8  UNL     1     -33.342   6.545   4.950  1.00 20.00    -0.353 N 
HETATM    7  O9  UNL     1     -34.421   5.725   6.818  1.00 20.00    -0.274 OA
HETATM    8  H20 UNL     1     -32.586   6.892   5.472  1.00 20.00     0.163 HD
ENDROOT
BRANCH   5   9
HETATM    9  C3  UNL     1     -32.087   7.339   2.994  1.00 20.00    -0.012 C 
HETATM   10  C2  UNL     1     -31.998   8.211   1.984  1.00 20.00     0.009 C 
ENDBRANCH   5   9
TORSDOF 1
ENDMDL
MODEL 6
REMARK VINA RESULT:      -4.1      2.612      3.611
REMARK  1 active torsions:
REMARK  status: ('A' for Active; 'I' for Inactive)
REMARK    1  A    between atoms: C3_3  and  C7_7 
ROOT
HETATM    1  C1  UNL     1     -34.483  13.593  -4.622  1.00 20.00     0.218 C 
HETATM    2  C4  UNL     1     -33.269  14.008  -3.819  1.00 20.00     0.103 C 
HETATM    3  C5  UNL     1     -33.306  15.508  -3.553  1.00 20.00     0.012 C 
HETATM    4  C6  UNL     1     -33.452  16.341  -4.833  1.00 20.00     0.029 C 
HETATM    5  C7  UNL     1     -33.851  15.507  -6.049  1.00 20.00     0.106 C 
HETATM    6  N8  UNL     1     -34.755  14.435  -5.685  1.00 20.00    -0.353 N 
HETATM    7  O9  UNL     1     -35.136  12.587  -4.357  1.00 20.00    -0.274 OA
HETATM    8  H20 UNL     1     -35.578  14.299  -6.203  1.00 20.00     0.163 HD
ENDROOT
BRANCH   5   9
HETATM    9  C3  UNL     1     -34.469  16.451  -7.057  1.00 20.00    -0.012 C 
HETATM   10  C2  UNL     1     -34.475  17.783  -6.931  1.00 20.00     0.009 C 
ENDBRANCH   5   9
TORSDOF 1
ENDMDL
MODEL 7
REMARK VINA RESULT:      -4.0     11.479     11.865
REMARK  1 active torsions:
REMARK  status: ('A' for Active; 'I' for Inactive)
REMARK    1  A    between atoms: C3_3  and  C7_7 
ROOT
HETATM    1  C1  UNL     1     -32.682   6.740   3.026  1.00 20.00     0.218 C 
HETATM    2  C4  UNL     1     -33.254   5.490   2.393  1.00 20.00     0.103 C 
HETATM    3  C5  UNL     1     -34.710   5.314   2.803  1.00 20.00     0.012 C 
HETATM    4  C6  UNL     1     -34.911   5.321   4.324  1.00 20.00     0.029 C 
HETATM    5  C7  UNL     1     -33.685   5.820   5.087  1.00 20.00     0.106 C 
HETATM    6  N8  UNL     1     -33.001   6.874   4.365  1.00 20.00    -0.353 N 
HETATM    7  O9  UNL     1     -31.983   7.535   2.402  1.00 20.00    -0.274 OA
HETATM    8  H20 UNL     1     -32.755   7.701   4.834  1.00 20.00     0.163 HD
ENDROOT
BRANCH   5   9
HETATM    9  C3  UNL     1     -34.160   6.283   6.447  1.00 20.00    -0.012 C 
HETATM   10  C2  UNL     1     -33.700   7.374   7.069  1.00 20.00     0.009 C 
ENDBRANCH   5   9
TORSDOF 1
ENDMDL
MODEL 8
REMARK VINA RESULT:      -4.0      1.739      2.042
REMARK  1 active torsions:
REMARK  status: ('A' for Active; 'I' for Inactive)
REMARK    1  A    between atoms: C3_3  and  C7_7 
ROOT
HETATM    1  C1  UNL     1     -36.113  14.394  -4.074  1.00 20.00     0.218 C 
HETATM    2  C4  UNL     1     -35.086  13.326  -4.385  1.00 20.00     0.103 C 
HETATM    3  C5  UNL     1     -33.792  13.610  -3.633  1.00 20.00     0.012 C 
HETATM    4  C6  UNL     1     -33.241  15.017  -3.894  1.00 20.00     0.029 C 
HETATM    5  C7  UNL     1     -34.251  15.938  -4.577  1.00 20.00     0.106 C 
HETATM    6  N8  UNL     1     -35.602  15.679  -4.121  1.00 20.00    -0.353 N 
HETATM    7  O9  UNL     1     -37.287  14.129  -3.832  1.00 20.00    -0.274 OA
HETATM    8  H20 UNL     1     -36.170  16.429  -3.839  1.00 20.00     0.163 HD
ENDROOT
BRANCH   5   9
HETATM    9  C3  UNL     1     -33.822  17.362  -4.296  1.00 20.00    -0.012 C 
HETATM   10  C2  UNL     1     -33.565  18.267  -5.247  1.00 20.00     0.009 C 
ENDBRANCH   5   9
TORSDOF 1
ENDMDL
MODEL 9
REMARK VINA RESULT:      -4.0      2.754      3.387
REMARK  1 active torsions:
REMARK  status: ('A' for Active; 'I' for Inactive)
REMARK    1  A    between atoms: C3_3  and  C7_7 
ROOT
HETATM    1  C1  UNL     1     -33.438  13.714  -3.934  1.00 20.00     0.218 C 
HETATM    2  C4  UNL     1     -34.895  13.420  -4.215  1.00 20.00     0.103 C 
HETATM    3  C5  UNL     1     -35.306  14.035  -5.547  1.00 20.00     0.012 C 
HETATM    4  C6  UNL     1     -35.005  15.536  -5.633  1.00 20.00     0.029 C 
HETATM    5  C7  UNL     1     -34.079  16.026  -4.522  1.00 20.00     0.106 C 
HETATM    6  N8  UNL     1     -33.085  15.029  -4.179  1.00 20.00    -0.353 N 
HETATM    7  O9  UNL     1     -32.664  12.863  -3.504  1.00 20.00    -0.274 OA
HETATM    8  H20 UNL     1     -32.140  15.289  -4.117  1.00 20.00     0.163 HD
ENDROOT
BRANCH   5   9
HETATM    9  C3  UNL     1     -33.446  17.315  -5.000  1.00 20.00    -0.012 C 
HETATM   10  C2  UNL     1     -33.815  17.964  -6.110  1.00 20.00     0.009 C 
ENDBRANCH   5   9
TORSDOF 1
ENDMDL
