MODEL 1
REMARK VINA RESULT:      -5.3      0.000      0.000
REMARK  0 active torsions:
REMARK  status: ('A' for Active; 'I' for Inactive)
ROOT
HETATM    1  C1  UNL     1     -34.615  14.854  -7.148  1.00 20.00     0.015 C 
HETATM    2  C2  UNL     1     -34.812  14.419  -6.046  1.00 20.00    -0.075 C 
HETATM    3  C3  UNL     1     -33.731  16.486  -2.219  1.00 20.00     0.001 C 
HETATM    4  C4  UNL     1     -35.249  16.207  -2.140  1.00 20.00     0.005 C 
HETATM    5  C5  UNL     1     -33.198  15.593  -3.364  1.00 20.00     0.009 C 
HETATM    6  C6  UNL     1     -36.367  14.356  -3.978  1.00 20.00     0.060 C 
HETATM    7  C7  UNL     1     -35.524  15.563  -3.480  1.00 20.00    -0.003 C 
HETATM    8  C8  UNL     1     -34.314  14.578  -3.526  1.00 20.00     0.040 C 
HETATM    9  C9  UNL     1     -35.050  13.898  -4.722  1.00 20.00     0.162 C 
HETATM   10  O10 UNL     1     -34.904  12.501  -4.722  1.00 20.00    -0.214 OA
ENDROOT
TORSDOF 0
ENDMDL
MODEL 2
REMARK VINA RESULT:      -4.7      1.417      3.674
REMARK  0 active torsions:
REMARK  status: ('A' for Active; 'I' for Inactive)
ROOT
HETATM    1  C1  UNL     1     -34.776  15.903  -2.128  1.00 20.00     0.015 C 
HETATM    2  C2  UNL     1     -35.289  15.301  -3.031  1.00 20.00    -0.075 C 
HETATM    3  C3  UNL     1     -34.903  16.332  -7.375  1.00 20.00     0.001 C 
HETATM    4  C4  UNL     1     -34.420  14.870  -7.239  1.00 20.00     0.005 C 
HETATM    5  C5  UNL     1     -35.666  16.648  -6.068  1.00 20.00     0.009 C 
HETATM    6  C6  UNL     1     -35.042  13.474  -4.848  1.00 20.00     0.060 C 
HETATM    7  C7  UNL     1     -34.539  14.635  -5.750  1.00 20.00    -0.003 C 
HETATM    8  C8  UNL     1     -35.949  15.262  -5.519  1.00 20.00     0.040 C 
HETATM    9  C9  UNL     1     -35.905  14.578  -4.117  1.00 20.00     0.162 C 
HETATM   10  O10 UNL     1     -37.158  14.086  -3.717  1.00 20.00    -0.214 OA
ENDROOT
TORSDOF 0
ENDMDL
MODEL 3
REMARK VINA RESULT:      -4.5      1.296      2.946
REMARK  0 active torsions:
REMARK  status: ('A' for Active; 'I' for Inactive)
ROOT
HETATM    1  C1  UNL     1     -37.918  14.709  -3.818  1.00 20.00     0.015 C 
HETATM    2  C2  UNL     1     -36.765  14.432  -4.006  1.00 20.00    -0.075 C 
HETATM    3  C3  UNL     1     -33.912  16.806  -6.519  1.00 20.00     0.001 C 
HETATM    4  C4  UNL     1     -33.266  16.706  -5.119  1.00 20.00     0.005 C 
HETATM    5  C5  UNL     1     -35.024  15.731  -6.549  1.00 20.00     0.009 C 
HETATM    6  C6  UNL     1     -34.299  14.785  -3.304  1.00 20.00     0.060 C 
HETATM    7  C7  UNL     1     -34.314  15.942  -4.340  1.00 20.00    -0.003 C 
HETATM    8  C8  UNL     1     -34.632  14.833  -5.391  1.00 20.00     0.040 C 
HETATM    9  C9  UNL     1     -35.379  14.101  -4.232  1.00 20.00     0.162 C 
HETATM   10  O10 UNL     1     -35.221  12.706  -4.285  1.00 20.00    -0.214 OA
ENDROOT
TORSDOF 0
ENDMDL
MODEL 4
REMARK VINA RESULT:      -4.5      1.888      2.563
REMARK  0 active torsions:
REMARK  status: ('A' for Active; 'I' for Inactive)
ROOT
HETATM    1  C1  UNL     1     -37.516  15.393  -6.851  1.00 20.00     0.015 C 
HETATM    2  C2  UNL     1     -37.346  15.130  -5.691  1.00 20.00    -0.075 C 
HETATM    3  C3  UNL     1     -33.465  13.807  -3.883  1.00 20.00     0.001 C 
HETATM    4  C4  UNL     1     -33.896  15.064  -3.095  1.00 20.00     0.005 C 
HETATM    5  C5  UNL     1     -34.723  13.337  -4.649  1.00 20.00     0.009 C 
HETATM    6  C6  UNL     1     -36.577  15.955  -3.362  1.00 20.00     0.060 C 
HETATM    7  C7  UNL     1     -35.172  15.460  -3.804  1.00 20.00    -0.003 C 
HETATM    8  C8  UNL     1     -35.837  14.052  -3.907  1.00 20.00     0.040 C 
HETATM    9  C9  UNL     1     -37.141  14.814  -4.299  1.00 20.00     0.162 C 
HETATM   10  O10 UNL     1     -38.295  14.218  -3.766  1.00 20.00    -0.214 OA
ENDROOT
TORSDOF 0
ENDMDL
MODEL 5
REMARK VINA RESULT:      -4.5      1.467      3.608
REMARK  0 active torsions:
REMARK  status: ('A' for Active; 'I' for Inactive)
ROOT
HETATM    1  C1  UNL     1     -34.237  16.282  -1.920  1.00 20.00     0.015 C 
HETATM    2  C2  UNL     1     -34.462  15.451  -2.757  1.00 20.00    -0.075 C 
HETATM    3  C3  UNL     1     -38.208  15.193  -5.203  1.00 20.00     0.001 C 
HETATM    4  C4  UNL     1     -37.044  15.283  -6.214  1.00 20.00     0.005 C 
HETATM    5  C5  UNL     1     -37.562  14.829  -3.846  1.00 20.00     0.009 C 
HETATM    6  C6  UNL     1     -34.410  14.818  -5.266  1.00 20.00     0.060 C 
HETATM    7  C7  UNL     1     -35.843  15.417  -5.304  1.00 20.00    -0.003 C 
HETATM    8  C8  UNL     1     -36.202  14.306  -4.269  1.00 20.00     0.040 C 
HETATM    9  C9  UNL     1     -34.733  14.453  -3.762  1.00 20.00     0.162 C 
HETATM   10  O10 UNL     1     -34.166  13.224  -3.386  1.00 20.00    -0.214 OA
ENDROOT
TORSDOF 0
ENDMDL
MODEL 6
REMARK VINA RESULT:      -4.4      1.635      3.885
REMARK  0 active torsions:
REMARK  status: ('A' for Active; 'I' for Inactive)
ROOT
HETATM    1  C1  UNL     1     -34.709  16.254  -1.728  1.00 20.00     0.015 C 
HETATM    2  C2  UNL     1     -34.105  15.888  -2.700  1.00 20.00    -0.075 C 
HETATM    3  C3  UNL     1     -35.970  14.597  -6.566  1.00 20.00     0.001 C 
HETATM    4  C4  UNL     1     -35.002  15.748  -6.922  1.00 20.00     0.005 C 
HETATM    5  C5  UNL     1     -35.575  14.140  -5.142  1.00 20.00     0.009 C 
HETATM    6  C6  UNL     1     -33.075  16.522  -4.988  1.00 20.00     0.060 C 
HETATM    7  C7  UNL     1     -34.468  16.145  -5.564  1.00 20.00    -0.003 C 
HETATM    8  C8  UNL     1     -34.182  14.721  -4.993  1.00 20.00     0.040 C 
HETATM    9  C9  UNL     1     -33.382  15.450  -3.868  1.00 20.00     0.162 C 
HETATM   10  O10 UNL     1     -32.229  14.746  -3.484  1.00 20.00    -0.214 OA
ENDROOT
TORSDOF 0
ENDMDL
MODEL 7
REMARK VINA RESULT:      -4.4      2.297      3.898
REMARK  0 active torsions:
REMARK  status: ('A' for Active; 'I' for Inactive)
ROOT
HETATM    1  C1  UNL     1     -34.431  17.014  -0.424  1.00 20.00     0.015 C 
HETATM    2  C2  UNL     1     -34.626  16.950  -1.607  1.00 20.00    -0.075 C 
HETATM    3  C3  UNL     1     -33.782  13.374  -4.174  1.00 20.00     0.001 C 
HETATM    4  C4  UNL     1     -35.279  13.700  -4.375  1.00 20.00     0.005 C 
HETATM    5  C5  UNL     1     -33.161  14.630  -3.518  1.00 20.00     0.009 C 
HETATM    6  C6  UNL     1     -36.224  16.234  -3.513  1.00 20.00     0.060 C 
HETATM    7  C7  UNL     1     -35.476  14.874  -3.441  1.00 20.00    -0.003 C 
HETATM    8  C8  UNL     1     -34.202  15.694  -3.813  1.00 20.00     0.040 C 
HETATM    9  C9  UNL     1     -34.861  16.871  -3.028  1.00 20.00     0.162 C 
HETATM   10  O10 UNL     1     -34.621  18.119  -3.625  1.00 20.00    -0.214 OA
ENDROOT
TORSDOF 0
ENDMDL
MODEL 8
REMARK VINA RESULT:      -4.3     10.570     12.221
REMARK  0 active torsions:
REMARK  status: ('A' for Active; 'I' for Inactive)
ROOT
HETATM    1  C1  UNL     1     -43.205   4.992   1.100  1.00 20.00     0.015 C 
HETATM    2  C2  UNL     1     -42.414   5.244   0.233  1.00 20.00    -0.075 C 
HETATM    3  C3  UNL     1     -43.417   7.086  -3.727  1.00 20.00     0.001 C 
HETATM    4  C4  UNL     1     -42.361   8.011  -3.082  1.00 20.00     0.005 C 
HETATM    5  C5  UNL     1     -43.361   5.761  -2.932  1.00 20.00     0.009 C 
HETATM    6  C6  UNL     1     -40.885   7.017  -0.871  1.00 20.00     0.060 C 
HETATM    7  C7  UNL     1     -42.128   7.341  -1.746  1.00 20.00    -0.003 C 
HETATM    8  C8  UNL     1     -42.018   5.863  -2.234  1.00 20.00     0.040 C 
HETATM    9  C9  UNL     1     -41.464   5.547  -0.809  1.00 20.00     0.162 C 
HETATM   10  O10 UNL     1     -40.446   4.580  -0.829  1.00 20.00    -0.214 OA
ENDROOT
TORSDOF 0
ENDMDL
MODEL 9
REMARK VINA RESULT:      -4.3      2.176      3.026
REMARK  0 active torsions:
REMARK  status: ('A' for Active; 'I' for Inactive)
ROOT
HETATM    1  C1  UNL     1     -35.182  13.301  -4.276  1.00 20.00     0.015 C 
HETATM    2  C2  UNL     1     -34.344  14.121  -4.016  1.00 20.00    -0.075 C 
HETATM    3  C3  UNL     1     -34.074  18.207  -5.836  1.00 20.00     0.001 C 
HETATM    4  C4  UNL     1     -34.154  18.425  -4.309  1.00 20.00     0.005 C 
HETATM    5  C5  UNL     1     -33.720  16.714  -6.032  1.00 20.00     0.009 C 
HETATM    6  C6  UNL     1     -33.692  16.196  -2.614  1.00 20.00     0.060 C 
HETATM    7  C7  UNL     1     -34.292  17.010  -3.793  1.00 20.00    -0.003 C 
HETATM    8  C8  UNL     1     -33.191  16.329  -4.663  1.00 20.00     0.040 C 
HETATM    9  C9  UNL     1     -33.339  15.107  -3.703  1.00 20.00     0.162 C 
HETATM   10  O10 UNL     1     -32.112  14.476  -3.440  1.00 20.00    -0.214 OA
ENDROOT
TORSDOF 0
ENDMDL
