MODEL 1
REMARK VINA RESULT:      -4.1      0.000      0.000
REMARK  1 active torsions:
REMARK  status: ('A' for Active; 'I' for Inactive)
REMARK    1  A    between atoms: C1_1  and  N7_7 
ROOT
HETATM    1  C2  UNL     1     -35.175  15.050  -2.876  1.00 20.00     0.159 C 
HETATM    2  C3  UNL     1     -34.655  16.401  -2.425  1.00 20.00     0.138 C 
HETATM    3  C4  UNL     1     -33.267  15.690  -4.132  1.00 20.00     0.221 C 
HETATM    4  C5  UNL     1     -34.672  16.589  -0.922  1.00 20.00     0.041 C 
HETATM    5  C6  UNL     1     -33.337  16.648  -5.312  1.00 20.00     0.063 C 
HETATM    6  N7  UNL     1     -34.403  14.798  -4.065  1.00 20.00    -0.330 N 
HETATM    7  O9  UNL     1     -33.296  16.442  -2.905  1.00 20.00    -0.360 OA
ENDROOT
BRANCH   6   8
HETATM    8  C1  UNL     1     -34.637  13.752  -4.924  1.00 20.00     0.352 C 
HETATM    9  O8  UNL     1     -34.903  12.593  -4.624  1.00 20.00    -0.283 OA
ENDBRANCH   6   8
TORSDOF 1
ENDMDL
MODEL 2
REMARK VINA RESULT:      -3.8      1.514      2.144
REMARK  1 active torsions:
REMARK  status: ('A' for Active; 'I' for Inactive)
REMARK    1  A    between atoms: C1_1  and  N7_7 
ROOT
HETATM    1  C2  UNL     1     -34.156  14.977  -3.050  1.00 20.00     0.159 C 
HETATM    2  C3  UNL     1     -34.904  15.935  -2.144  1.00 20.00     0.138 C 
HETATM    3  C4  UNL     1     -36.211  15.646  -4.030  1.00 20.00     0.221 C 
HETATM    4  C5  UNL     1     -34.013  16.961  -1.475  1.00 20.00     0.041 C 
HETATM    5  C6  UNL     1     -37.546  15.015  -3.664  1.00 20.00     0.063 C 
HETATM    6  N7  UNL     1     -35.130  14.687  -4.072  1.00 20.00    -0.330 N 
HETATM    7  O9  UNL     1     -35.841  16.599  -3.017  1.00 20.00    -0.360 OA
ENDROOT
BRANCH   6   8
HETATM    8  C1  UNL     1     -34.962  13.727  -5.041  1.00 20.00     0.352 C 
HETATM    9  O8  UNL     1     -34.760  12.530  -4.870  1.00 20.00    -0.283 OA
ENDBRANCH   6   8
TORSDOF 1
ENDMDL
MODEL 3
REMARK VINA RESULT:      -3.8      1.173      2.715
REMARK  1 active torsions:
REMARK  status: ('A' for Active; 'I' for Inactive)
REMARK    1  A    between atoms: C1_1  and  N7_7 
ROOT
HETATM    1  C2  UNL     1     -33.291  15.838  -4.965  1.00 20.00     0.159 C 
HETATM    2  C3  UNL     1     -33.614  17.263  -4.560  1.00 20.00     0.138 C 
HETATM    3  C4  UNL     1     -35.043  15.892  -3.367  1.00 20.00     0.221 C 
HETATM    4  C5  UNL     1     -33.612  18.240  -5.717  1.00 20.00     0.041 C 
HETATM    5  C6  UNL     1     -34.795  16.032  -1.872  1.00 20.00     0.063 C 
HETATM    6  N7  UNL     1     -34.058  15.063  -4.024  1.00 20.00    -0.330 N 
HETATM    7  O9  UNL     1     -34.936  17.185  -3.991  1.00 20.00    -0.360 OA
ENDROOT
BRANCH   6   8
HETATM    8  C1  UNL     1     -33.960  13.698  -3.894  1.00 20.00     0.352 C 
HETATM    9  O8  UNL     1     -34.826  12.867  -4.144  1.00 20.00    -0.283 OA
ENDBRANCH   6   8
TORSDOF 1
ENDMDL
MODEL 4
REMARK VINA RESULT:      -3.7      2.039      2.444
REMARK  1 active torsions:
REMARK  status: ('A' for Active; 'I' for Inactive)
REMARK    1  A    between atoms: C1_1  and  N7_7 
ROOT
HETATM    1  C2  UNL     1     -35.992  16.227  -3.100  1.00 20.00     0.159 C 
HETATM    2  C3  UNL     1     -34.485  16.108  -2.988  1.00 20.00     0.138 C 
HETATM    3  C4  UNL     1     -35.246  14.110  -3.869  1.00 20.00     0.221 C 
HETATM    4  C5  UNL     1     -33.922  16.692  -1.709  1.00 20.00     0.041 C 
HETATM    5  C6  UNL     1     -34.679  13.889  -5.263  1.00 20.00     0.063 C 
HETATM    6  N7  UNL     1     -36.345  15.051  -3.853  1.00 20.00    -0.330 N 
HETATM    7  O9  UNL     1     -34.232  14.688  -3.027  1.00 20.00    -0.360 OA
ENDROOT
BRANCH   6   8
HETATM    8  C1  UNL     1     -37.603  14.804  -4.345  1.00 20.00     0.352 C 
HETATM    9  O8  UNL     1     -38.497  14.162  -3.805  1.00 20.00    -0.283 OA
ENDBRANCH   6   8
TORSDOF 1
ENDMDL
MODEL 5
REMARK VINA RESULT:      -3.7      2.231      3.013
REMARK  1 active torsions:
REMARK  status: ('A' for Active; 'I' for Inactive)
REMARK    1  A    between atoms: C1_1  and  N7_7 
ROOT
HETATM    1  C2  UNL     1     -34.868  16.175  -4.583  1.00 20.00     0.159 C 
HETATM    2  C3  UNL     1     -34.564  16.970  -5.837  1.00 20.00     0.138 C 
HETATM    3  C4  UNL     1     -34.506  14.738  -6.435  1.00 20.00     0.221 C 
HETATM    4  C5  UNL     1     -33.644  18.151  -5.601  1.00 20.00     0.041 C 
HETATM    5  C6  UNL     1     -35.582  14.433  -7.467  1.00 20.00     0.063 C 
HETATM    6  N7  UNL     1     -35.031  14.837  -5.091  1.00 20.00    -0.330 N 
HETATM    7  O9  UNL     1     -33.925  16.024  -6.718  1.00 20.00    -0.360 OA
ENDROOT
BRANCH   6   8
HETATM    8  C1  UNL     1     -35.479  13.779  -4.338  1.00 20.00     0.352 C 
HETATM    9  O8  UNL     1     -35.049  12.632  -4.344  1.00 20.00    -0.283 OA
ENDBRANCH   6   8
TORSDOF 1
ENDMDL
MODEL 6
REMARK VINA RESULT:      -3.6      2.088      3.388
REMARK  1 active torsions:
REMARK  status: ('A' for Active; 'I' for Inactive)
REMARK    1  A    between atoms: C1_1  and  N7_7 
ROOT
HETATM    1  C2  UNL     1     -36.149  15.958  -4.620  1.00 20.00     0.159 C 
HETATM    2  C3  UNL     1     -36.769  14.868  -3.768  1.00 20.00     0.138 C 
HETATM    3  C4  UNL     1     -34.872  13.962  -4.730  1.00 20.00     0.221 C 
HETATM    4  C5  UNL     1     -38.280  14.808  -3.861  1.00 20.00     0.041 C 
HETATM    5  C6  UNL     1     -33.867  13.563  -3.659  1.00 20.00     0.063 C 
HETATM    6  N7  UNL     1     -34.880  15.385  -4.989  1.00 20.00    -0.330 N 
HETATM    7  O9  UNL     1     -36.201  13.645  -4.279  1.00 20.00    -0.360 OA
ENDROOT
BRANCH   6   8
HETATM    8  C1  UNL     1     -33.886  16.076  -5.639  1.00 20.00     0.352 C 
HETATM    9  O8  UNL     1     -32.918  16.632  -5.132  1.00 20.00    -0.283 OA
ENDBRANCH   6   8
TORSDOF 1
ENDMDL
MODEL 7
REMARK VINA RESULT:      -3.5      1.930      3.514
REMARK  1 active torsions:
REMARK  status: ('A' for Active; 'I' for Inactive)
REMARK    1  A    between atoms: C1_1  and  N7_7 
ROOT
HETATM    1  C2  UNL     1     -34.605  17.452  -3.694  1.00 20.00     0.159 C 
HETATM    2  C3  UNL     1     -34.008  17.071  -5.034  1.00 20.00     0.138 C 
HETATM    3  C4  UNL     1     -33.160  15.583  -3.481  1.00 20.00     0.221 C 
HETATM    4  C5  UNL     1     -33.591  18.259  -5.875  1.00 20.00     0.041 C 
HETATM    5  C6  UNL     1     -33.592  14.161  -3.810  1.00 20.00     0.063 C 
HETATM    6  N7  UNL     1     -34.206  16.355  -2.849  1.00 20.00    -0.330 N 
HETATM    7  O9  UNL     1     -32.848  16.281  -4.701  1.00 20.00    -0.360 OA
ENDROOT
BRANCH   6   8
HETATM    8  C1  UNL     1     -34.655  16.175  -1.563  1.00 20.00     0.352 C 
HETATM    9  O8  UNL     1     -34.343  16.826  -0.572  1.00 20.00    -0.283 OA
ENDBRANCH   6   8
TORSDOF 1
ENDMDL
MODEL 8
REMARK VINA RESULT:      -3.5      1.751      2.445
REMARK  1 active torsions:
REMARK  status: ('A' for Active; 'I' for Inactive)
REMARK    1  A    between atoms: C1_1  and  N7_7 
ROOT
HETATM    1  C2  UNL     1     -33.794  16.409  -3.857  1.00 20.00     0.159 C 
HETATM    2  C3  UNL     1     -34.264  15.642  -2.637  1.00 20.00     0.138 C 
HETATM    3  C4  UNL     1     -35.315  14.692  -4.464  1.00 20.00     0.221 C 
HETATM    4  C5  UNL     1     -34.553  16.522  -1.439  1.00 20.00     0.041 C 
HETATM    5  C6  UNL     1     -34.900  13.237  -4.624  1.00 20.00     0.063 C 
HETATM    6  N7  UNL     1     -34.313  15.618  -4.944  1.00 20.00    -0.330 N 
HETATM    7  O9  UNL     1     -35.477  14.991  -3.066  1.00 20.00    -0.360 OA
ENDROOT
BRANCH   6   8
HETATM    8  C1  UNL     1     -34.004  15.833  -6.265  1.00 20.00     0.352 C 
HETATM    9  O8  UNL     1     -34.214  15.076  -7.207  1.00 20.00    -0.283 OA
ENDBRANCH   6   8
TORSDOF 1
ENDMDL
MODEL 9
REMARK VINA RESULT:      -3.5      1.729      2.482
REMARK  1 active torsions:
REMARK  status: ('A' for Active; 'I' for Inactive)
REMARK    1  A    between atoms: C1_1  and  N7_7 
ROOT
HETATM    1  C2  UNL     1     -33.711  17.186  -2.881  1.00 20.00     0.159 C 
HETATM    2  C3  UNL     1     -34.190  16.336  -1.721  1.00 20.00     0.138 C 
HETATM    3  C4  UNL     1     -34.708  15.176  -3.653  1.00 20.00     0.221 C 
HETATM    4  C5  UNL     1     -34.848  17.133  -0.614  1.00 20.00     0.041 C 
HETATM    5  C6  UNL     1     -33.966  13.848  -3.694  1.00 20.00     0.063 C 
HETATM    6  N7  UNL     1     -33.868  16.299  -4.006  1.00 20.00    -0.330 N 
HETATM    7  O9  UNL     1     -35.149  15.433  -2.307  1.00 20.00    -0.360 OA
ENDROOT
BRANCH   6   8
HETATM    8  C1  UNL     1     -33.408  16.575  -5.271  1.00 20.00     0.352 C 
HETATM    9  O8  UNL     1     -33.924  16.247  -6.333  1.00 20.00    -0.283 OA
ENDBRANCH   6   8
TORSDOF 1
ENDMDL
