MODEL 1
REMARK VINA RESULT:      -4.8      0.000      0.000
REMARK  1 active torsions:
REMARK  status: ('A' for Active; 'I' for Inactive)
REMARK    1  A    between atoms: C1_1  and  C5_5 
ROOT
HETATM    1  C2  UNL     1     -37.095  15.980  -5.126  1.00 20.00     0.002 C 
HETATM    2  C3  UNL     1     -36.611  14.784  -4.305  1.00 20.00     0.017 C 
HETATM    3  C4  UNL     1     -35.854  16.789  -5.492  1.00 20.00     0.010 C 
HETATM    4  C5  UNL     1     -35.092  14.968  -4.115  1.00 20.00     0.023 C 
HETATM    5  C6  UNL     1     -34.673  15.807  -5.362  1.00 20.00    -0.034 C 
HETATM    6  C8  UNL     1     -34.816  15.651  -2.765  1.00 20.00     0.024 C 
HETATM    7  C9  UNL     1     -34.581  14.957  -6.653  1.00 20.00     0.016 C 
HETATM    8  C10 UNL     1     -33.351  16.570  -5.203  1.00 20.00     0.016 C 
ENDROOT
BRANCH   4   9
HETATM    9  C1  UNL     1     -34.405  13.628  -4.061  1.00 20.00     0.132 C 
HETATM   10  C7  UNL     1     -32.997  13.612  -3.531  1.00 20.00     0.091 C 
HETATM   11  O11 UNL     1     -34.968  12.599  -4.430  1.00 20.00    -0.298 OA
ENDBRANCH   4   9
TORSDOF 1
ENDMDL
MODEL 2
REMARK VINA RESULT:      -4.8      1.199      3.324
REMARK  1 active torsions:
REMARK  status: ('A' for Active; 'I' for Inactive)
REMARK    1  A    between atoms: C1_1  and  C5_5 
ROOT
HETATM    1  C2  UNL     1     -33.256  13.613  -3.663  1.00 20.00     0.002 C 
HETATM    2  C3  UNL     1     -34.661  13.391  -4.224  1.00 20.00     0.017 C 
HETATM    3  C4  UNL     1     -32.997  15.116  -3.714  1.00 20.00     0.010 C 
HETATM    4  C5  UNL     1     -35.168  14.769  -4.695  1.00 20.00     0.023 C 
HETATM    5  C6  UNL     1     -34.392  15.767  -3.781  1.00 20.00    -0.034 C 
HETATM    6  C8  UNL     1     -34.896  14.937  -6.199  1.00 20.00     0.024 C 
HETATM    7  C9  UNL     1     -34.978  15.850  -2.350  1.00 20.00     0.016 C 
HETATM    8  C10 UNL     1     -34.295  17.196  -4.335  1.00 20.00     0.016 C 
ENDROOT
BRANCH   4   9
HETATM    9  C1  UNL     1     -36.661  14.864  -4.521  1.00 20.00     0.132 C 
HETATM   10  C7  UNL     1     -37.362  15.959  -5.279  1.00 20.00     0.091 C 
HETATM   11  O11 UNL     1     -37.278  14.086  -3.795  1.00 20.00    -0.298 OA
ENDBRANCH   4   9
TORSDOF 1
ENDMDL
MODEL 3
REMARK VINA RESULT:      -4.7      0.764      2.619
REMARK  1 active torsions:
REMARK  status: ('A' for Active; 'I' for Inactive)
REMARK    1  A    between atoms: C1_1  and  C5_5 
ROOT
HETATM    1  C2  UNL     1     -33.984  17.414  -4.738  1.00 20.00     0.002 C 
HETATM    2  C3  UNL     1     -33.329  16.034  -4.821  1.00 20.00     0.017 C 
HETATM    3  C4  UNL     1     -35.482  17.198  -4.929  1.00 20.00     0.010 C 
HETATM    4  C5  UNL     1     -34.452  15.035  -5.165  1.00 20.00     0.023 C 
HETATM    5  C6  UNL     1     -35.729  15.717  -4.581  1.00 20.00    -0.034 C 
HETATM    6  C8  UNL     1     -34.493  14.800  -6.684  1.00 20.00     0.024 C 
HETATM    7  C9  UNL     1     -35.836  15.572  -3.044  1.00 20.00     0.016 C 
HETATM    8  C10 UNL     1     -37.049  15.230  -5.195  1.00 20.00     0.016 C 
ENDROOT
BRANCH   4   9
HETATM    9  C1  UNL     1     -34.172  13.695  -4.535  1.00 20.00     0.132 C 
HETATM   10  C7  UNL     1     -33.015  13.628  -3.576  1.00 20.00     0.091 C 
HETATM   11  O11 UNL     1     -34.856  12.706  -4.792  1.00 20.00    -0.298 OA
ENDBRANCH   4   9
TORSDOF 1
ENDMDL
MODEL 4
REMARK VINA RESULT:      -4.6      1.958      3.498
REMARK  1 active torsions:
REMARK  status: ('A' for Active; 'I' for Inactive)
REMARK    1  A    between atoms: C1_1  and  C5_5 
ROOT
HETATM    1  C2  UNL     1     -33.278  13.772  -3.848  1.00 20.00     0.002 C 
HETATM    2  C3  UNL     1     -33.122  15.287  -3.705  1.00 20.00     0.017 C 
HETATM    3  C4  UNL     1     -34.776  13.484  -3.822  1.00 20.00     0.010 C 
HETATM    4  C5  UNL     1     -34.539  15.856  -3.492  1.00 20.00     0.023 C 
HETATM    5  C6  UNL     1     -35.455  14.813  -4.206  1.00 20.00    -0.034 C 
HETATM    6  C8  UNL     1     -34.812  16.022  -1.988  1.00 20.00     0.024 C 
HETATM    7  C9  UNL     1     -35.442  14.959  -5.746  1.00 20.00     0.016 C 
HETATM    8  C10 UNL     1     -36.918  14.826  -3.741  1.00 20.00     0.016 C 
ENDROOT
BRANCH   4   9
HETATM    9  C1  UNL     1     -34.647  17.231  -4.098  1.00 20.00     0.132 C 
HETATM   10  C7  UNL     1     -33.492  17.690  -4.945  1.00 20.00     0.091 C 
HETATM   11  O11 UNL     1     -35.632  17.944  -3.909  1.00 20.00    -0.298 OA
ENDBRANCH   4   9
TORSDOF 1
ENDMDL
MODEL 5
REMARK VINA RESULT:      -4.5      0.970      2.741
REMARK  1 active torsions:
REMARK  status: ('A' for Active; 'I' for Inactive)
REMARK    1  A    between atoms: C1_1  and  C5_5 
ROOT
HETATM    1  C2  UNL     1     -34.742  15.891  -2.146  1.00 20.00     0.002 C 
HETATM    2  C3  UNL     1     -34.140  14.859  -3.101  1.00 20.00     0.017 C 
HETATM    3  C4  UNL     1     -35.720  16.726  -2.966  1.00 20.00     0.010 C 
HETATM    4  C5  UNL     1     -34.705  15.175  -4.501  1.00 20.00     0.023 C 
HETATM    5  C6  UNL     1     -36.073  15.859  -4.190  1.00 20.00    -0.034 C 
HETATM    6  C8  UNL     1     -33.712  16.059  -5.274  1.00 20.00     0.024 C 
HETATM    7  C9  UNL     1     -37.171  14.845  -3.788  1.00 20.00     0.016 C 
HETATM    8  C10 UNL     1     -36.625  16.729  -5.328  1.00 20.00     0.016 C 
ENDROOT
BRANCH   4   9
HETATM    9  C1  UNL     1     -34.859  13.909  -5.302  1.00 20.00     0.132 C 
HETATM   10  C7  UNL     1     -35.099  14.068  -6.779  1.00 20.00     0.091 C 
HETATM   11  O11 UNL     1     -34.791  12.800  -4.775  1.00 20.00    -0.298 OA
ENDBRANCH   4   9
TORSDOF 1
ENDMDL
MODEL 6
REMARK VINA RESULT:      -4.5      1.836      3.624
REMARK  1 active torsions:
REMARK  status: ('A' for Active; 'I' for Inactive)
REMARK    1  A    between atoms: C1_1  and  C5_5 
ROOT
HETATM    1  C2  UNL     1     -34.444  13.262  -4.948  1.00 20.00     0.002 C 
HETATM    2  C3  UNL     1     -34.640  14.497  -5.829  1.00 20.00     0.017 C 
HETATM    3  C4  UNL     1     -34.388  13.758  -3.506  1.00 20.00     0.010 C 
HETATM    4  C5  UNL     1     -34.592  15.718  -4.888  1.00 20.00     0.023 C 
HETATM    5  C6  UNL     1     -35.073  15.138  -3.522  1.00 20.00    -0.034 C 
HETATM    6  C8  UNL     1     -33.169  16.302  -4.867  1.00 20.00     0.024 C 
HETATM    7  C9  UNL     1     -36.607  14.938  -3.463  1.00 20.00     0.016 C 
HETATM    8  C10 UNL     1     -34.656  15.962  -2.296  1.00 20.00     0.016 C 
ENDROOT
BRANCH   4   9
HETATM    9  C1  UNL     1     -35.491  16.811  -5.403  1.00 20.00     0.132 C 
HETATM   10  C7  UNL     1     -36.316  16.491  -6.619  1.00 20.00     0.091 C 
HETATM   11  O11 UNL     1     -35.549  17.911  -4.855  1.00 20.00    -0.298 OA
ENDBRANCH   4   9
TORSDOF 1
ENDMDL
MODEL 7
REMARK VINA RESULT:      -4.5      1.110      2.807
REMARK  1 active torsions:
REMARK  status: ('A' for Active; 'I' for Inactive)
REMARK    1  A    between atoms: C1_1  and  C5_5 
ROOT
HETATM    1  C2  UNL     1     -33.726  17.348  -4.916  1.00 20.00     0.002 C 
HETATM    2  C3  UNL     1     -35.182  17.171  -4.485  1.00 20.00     0.017 C 
HETATM    3  C4  UNL     1     -33.038  16.004  -4.697  1.00 20.00     0.010 C 
HETATM    4  C5  UNL     1     -35.301  15.741  -3.918  1.00 20.00     0.023 C 
HETATM    5  C6  UNL     1     -34.175  14.964  -4.669  1.00 20.00    -0.034 C 
HETATM    6  C8  UNL     1     -35.143  15.774  -2.389  1.00 20.00     0.024 C 
HETATM    7  C9  UNL     1     -34.563  14.603  -6.123  1.00 20.00     0.016 C 
HETATM    8  C10 UNL     1     -33.713  13.677  -3.969  1.00 20.00     0.016 C 
ENDROOT
BRANCH   4   9
HETATM    9  C1  UNL     1     -36.672  15.182  -4.191  1.00 20.00     0.132 C 
HETATM   10  C7  UNL     1     -37.601  16.038  -5.008  1.00 20.00     0.091 C 
HETATM   11  O11 UNL     1     -37.016  14.079  -3.769  1.00 20.00    -0.298 OA
ENDBRANCH   4   9
TORSDOF 1
ENDMDL
MODEL 8
REMARK VINA RESULT:      -4.4      1.439      3.210
REMARK  1 active torsions:
REMARK  status: ('A' for Active; 'I' for Inactive)
REMARK    1  A    between atoms: C1_1  and  C5_5 
ROOT
HETATM    1  C2  UNL     1     -37.271  15.586  -4.766  1.00 20.00     0.002 C 
HETATM    2  C3  UNL     1     -36.155  16.398  -5.426  1.00 20.00     0.017 C 
HETATM    3  C4  UNL     1     -36.599  14.407  -4.069  1.00 20.00     0.010 C 
HETATM    4  C5  UNL     1     -34.846  15.618  -5.190  1.00 20.00     0.023 C 
HETATM    5  C6  UNL     1     -35.130  14.832  -3.873  1.00 20.00    -0.034 C 
HETATM    6  C8  UNL     1     -34.543  14.731  -6.410  1.00 20.00     0.024 C 
HETATM    7  C9  UNL     1     -35.028  15.721  -2.610  1.00 20.00     0.016 C 
HETATM    8  C10 UNL     1     -34.236  13.602  -3.658  1.00 20.00     0.016 C 
ENDROOT
BRANCH   4   9
HETATM    9  C1  UNL     1     -33.686  16.570  -5.059  1.00 20.00     0.132 C 
HETATM   10  C7  UNL     1     -33.990  18.033  -5.231  1.00 20.00     0.091 C 
HETATM   11  O11 UNL     1     -32.548  16.170  -4.821  1.00 20.00    -0.298 OA
ENDBRANCH   4   9
TORSDOF 1
ENDMDL
MODEL 9
REMARK VINA RESULT:      -4.4      1.819      2.973
REMARK  1 active torsions:
REMARK  status: ('A' for Active; 'I' for Inactive)
REMARK    1  A    between atoms: C1_1  and  C5_5 
ROOT
HETATM    1  C2  UNL     1     -34.229  13.383  -4.747  1.00 20.00     0.002 C 
HETATM    2  C3  UNL     1     -34.686  14.067  -3.458  1.00 20.00     0.017 C 
HETATM    3  C4  UNL     1     -34.785  14.211  -5.902  1.00 20.00     0.010 C 
HETATM    4  C5  UNL     1     -35.596  15.238  -3.881  1.00 20.00     0.023 C 
HETATM    5  C6  UNL     1     -35.072  15.603  -5.305  1.00 20.00    -0.034 C 
HETATM    6  C8  UNL     1     -37.068  14.793  -3.838  1.00 20.00     0.024 C 
HETATM    7  C9  UNL     1     -33.755  16.416  -5.268  1.00 20.00     0.016 C 
HETATM    8  C10 UNL     1     -36.076  16.368  -6.178  1.00 20.00     0.016 C 
ENDROOT
BRANCH   4   9
HETATM    9  C1  UNL     1     -35.469  16.379  -2.906  1.00 20.00     0.132 C 
HETATM   10  C7  UNL     1     -34.503  16.191  -1.768  1.00 20.00     0.091 C 
HETATM   11  O11 UNL     1     -36.121  17.414  -3.035  1.00 20.00    -0.298 OA
ENDBRANCH   4   9
TORSDOF 1
ENDMDL
