MODEL 1
REMARK VINA RESULT:      -3.9      0.000      0.000
REMARK  2 active torsions:
REMARK  status: ('A' for Active; 'I' for Inactive)
REMARK    1  A    between atoms: C1_1  and  C5_5 
REMARK    2  A    between atoms: C5_5  and  O8_8 
ROOT
HETATM    1  C2  UNL     1     -34.754  14.863  -7.474  1.00 20.00     0.007 C 
HETATM    2  C3  UNL     1     -35.934  14.697  -6.503  1.00 20.00     0.047 C 
HETATM    3  C4  UNL     1     -34.029  15.658  -6.376  1.00 20.00     0.047 C 
HETATM    4  C5  UNL     1     -34.943  14.955  -5.324  1.00 20.00     0.136 C 
ENDROOT
BRANCH   4   5
HETATM    5  C1  UNL     1     -34.353  13.684  -4.654  1.00 20.00     0.253 C 
HETATM    6  O7  UNL     1     -34.842  12.574  -4.834  1.00 20.00    -0.276 OA
HETATM    7 CL9  UNL     1     -32.971  14.049  -3.665  1.00 20.00    -0.041 Cl
ENDBRANCH   4   5
BRANCH   4   8
HETATM    8  O8  UNL     1     -35.469  15.850  -4.318  1.00 20.00    -0.376 OA
HETATM    9  C6  UNL     1     -36.255  15.140  -3.383  1.00 20.00     0.203 C 
ENDBRANCH   4   8
TORSDOF 2
ENDMDL
MODEL 2
REMARK VINA RESULT:      -3.8      1.888      2.580
REMARK  2 active torsions:
REMARK  status: ('A' for Active; 'I' for Inactive)
REMARK    1  A    between atoms: C1_1  and  C5_5 
REMARK    2  A    between atoms: C5_5  and  O8_8 
ROOT
HETATM    1  C2  UNL     1     -32.761  15.192  -3.703  1.00 20.00     0.007 C 
HETATM    2  C3  UNL     1     -33.578  15.927  -4.777  1.00 20.00     0.047 C 
HETATM    3  C4  UNL     1     -34.089  14.769  -3.054  1.00 20.00     0.047 C 
HETATM    4  C5  UNL     1     -34.785  14.997  -4.434  1.00 20.00     0.136 C 
ENDROOT
BRANCH   4   5
HETATM    5  C1  UNL     1     -34.938  13.739  -5.331  1.00 20.00     0.253 C 
HETATM    6  O7  UNL     1     -34.789  12.606  -4.885  1.00 20.00    -0.276 OA
HETATM    7 CL9  UNL     1     -35.330  14.153  -6.973  1.00 20.00    -0.041 Cl
ENDBRANCH   4   5
BRANCH   4   8
HETATM    8  O8  UNL     1     -36.044  15.700  -4.342  1.00 20.00    -0.376 OA
HETATM    9  C6  UNL     1     -37.091  14.805  -4.031  1.00 20.00     0.203 C 
ENDBRANCH   4   8
TORSDOF 2
ENDMDL
MODEL 3
REMARK VINA RESULT:      -3.8      2.073      2.974
REMARK  2 active torsions:
REMARK  status: ('A' for Active; 'I' for Inactive)
REMARK    1  A    between atoms: C1_1  and  C5_5 
REMARK    2  A    between atoms: C5_5  and  O8_8 
ROOT
HETATM    1  C2  UNL     1     -34.618  13.159  -4.760  1.00 20.00     0.007 C 
HETATM    2  C3  UNL     1     -34.616  14.499  -5.514  1.00 20.00     0.047 C 
HETATM    3  C4  UNL     1     -33.558  13.748  -3.814  1.00 20.00     0.047 C 
HETATM    4  C5  UNL     1     -34.047  15.173  -4.225  1.00 20.00     0.136 C 
ENDROOT
BRANCH   4   5
HETATM    5  C1  UNL     1     -35.101  15.824  -3.289  1.00 20.00     0.253 C 
HETATM    6  O7  UNL     1     -36.247  16.048  -3.664  1.00 20.00    -0.276 OA
HETATM    7 CL9  UNL     1     -34.450  16.170  -1.715  1.00 20.00    -0.041 Cl
ENDBRANCH   4   5
BRANCH   4   8
HETATM    8  O8  UNL     1     -32.973  16.104  -4.490  1.00 20.00    -0.376 OA
HETATM    9  C6  UNL     1     -33.489  17.354  -4.897  1.00 20.00     0.203 C 
ENDBRANCH   4   8
TORSDOF 2
ENDMDL
MODEL 4
REMARK VINA RESULT:      -3.8      2.099      3.029
REMARK  2 active torsions:
REMARK  status: ('A' for Active; 'I' for Inactive)
REMARK    1  A    between atoms: C1_1  and  C5_5 
REMARK    2  A    between atoms: C5_5  and  O8_8 
ROOT
HETATM    1  C2  UNL     1     -33.757  16.016  -2.859  1.00 20.00     0.007 C 
HETATM    2  C3  UNL     1     -33.074  14.987  -3.774  1.00 20.00     0.047 C 
HETATM    3  C4  UNL     1     -34.695  16.357  -4.029  1.00 20.00     0.047 C 
HETATM    4  C5  UNL     1     -34.376  14.955  -4.637  1.00 20.00     0.136 C 
ENDROOT
BRANCH   4   5
HETATM    5  C1  UNL     1     -35.381  13.823  -4.292  1.00 20.00     0.253 C 
HETATM    6  O7  UNL     1     -35.049  12.641  -4.301  1.00 20.00    -0.276 OA
HETATM    7 CL9  UNL     1     -36.959  14.443  -3.913  1.00 20.00    -0.041 Cl
ENDBRANCH   4   5
BRANCH   4   8
HETATM    8  O8  UNL     1     -34.122  14.981  -6.059  1.00 20.00    -0.376 OA
HETATM    9  C6  UNL     1     -35.280  14.606  -6.777  1.00 20.00     0.203 C 
ENDBRANCH   4   8
TORSDOF 2
ENDMDL
MODEL 5
REMARK VINA RESULT:      -3.8      1.328      2.947
REMARK  2 active torsions:
REMARK  status: ('A' for Active; 'I' for Inactive)
REMARK    1  A    between atoms: C1_1  and  C5_5 
REMARK    2  A    between atoms: C5_5  and  O8_8 
ROOT
HETATM    1  C2  UNL     1     -34.755  16.040  -2.092  1.00 20.00     0.007 C 
HETATM    2  C3  UNL     1     -33.935  16.177  -3.385  1.00 20.00     0.047 C 
HETATM    3  C4  UNL     1     -35.925  15.529  -2.949  1.00 20.00     0.047 C 
HETATM    4  C5  UNL     1     -34.890  15.136  -4.049  1.00 20.00     0.136 C 
ENDROOT
BRANCH   4   5
HETATM    5  C1  UNL     1     -34.399  13.663  -4.022  1.00 20.00     0.253 C 
HETATM    6  O7  UNL     1     -35.141  12.730  -4.311  1.00 20.00    -0.276 OA
HETATM    7 CL9  UNL     1     -32.731  13.539  -3.549  1.00 20.00    -0.041 Cl
ENDBRANCH   4   5
BRANCH   4   8
HETATM    8  O8  UNL     1     -35.295  15.501  -5.388  1.00 20.00    -0.376 OA
HETATM    9  C6  UNL     1     -34.306  15.130  -6.325  1.00 20.00     0.203 C 
ENDBRANCH   4   8
TORSDOF 2
ENDMDL
MODEL 6
REMARK VINA RESULT:      -3.7      1.078      1.099
REMARK  2 active torsions:
REMARK  status: ('A' for Active; 'I' for Inactive)
REMARK    1  A    between atoms: C1_1  and  C5_5 
REMARK    2  A    between atoms: C5_5  and  O8_8 
ROOT
HETATM    1  C2  UNL     1     -34.208  15.394  -6.956  1.00 20.00     0.007 C 
HETATM    2  C3  UNL     1     -35.344  14.358  -6.954  1.00 20.00     0.047 C 
HETATM    3  C4  UNL     1     -34.899  16.079  -5.766  1.00 20.00     0.047 C 
HETATM    4  C5  UNL     1     -35.618  14.727  -5.461  1.00 20.00     0.136 C 
ENDROOT
BRANCH   4   5
HETATM    5  C1  UNL     1     -34.929  13.816  -4.409  1.00 20.00     0.253 C 
HETATM    6  O7  UNL     1     -35.068  12.597  -4.421  1.00 20.00    -0.276 OA
HETATM    7 CL9  UNL     1     -33.985  14.730  -3.272  1.00 20.00    -0.041 Cl
ENDBRANCH   4   5
BRANCH   4   8
HETATM    8  O8  UNL     1     -37.023  14.870  -5.154  1.00 20.00    -0.376 OA
HETATM    9  C6  UNL     1     -37.229  14.865  -3.756  1.00 20.00     0.203 C 
ENDBRANCH   4   8
TORSDOF 2
ENDMDL
MODEL 7
REMARK VINA RESULT:      -3.7      2.073      2.785
REMARK  2 active torsions:
REMARK  status: ('A' for Active; 'I' for Inactive)
REMARK    1  A    between atoms: C1_1  and  C5_5 
REMARK    2  A    between atoms: C5_5  and  O8_8 
ROOT
HETATM    1  C2  UNL     1     -35.303  13.310  -4.386  1.00 20.00     0.007 C 
HETATM    2  C3  UNL     1     -35.815  14.630  -3.787  1.00 20.00     0.047 C 
HETATM    3  C4  UNL     1     -34.461  14.141  -5.368  1.00 20.00     0.047 C 
HETATM    4  C5  UNL     1     -34.544  15.332  -4.362  1.00 20.00     0.136 C 
ENDROOT
BRANCH   4   5
HETATM    5  C1  UNL     1     -33.352  15.472  -3.377  1.00 20.00     0.253 C 
HETATM    6  O7  UNL     1     -32.296  14.873  -3.553  1.00 20.00    -0.276 OA
HETATM    7 CL9  UNL     1     -33.717  16.545  -2.059  1.00 20.00    -0.041 Cl
ENDBRANCH   4   5
BRANCH   4   8
HETATM    8  O8  UNL     1     -34.826  16.604  -4.988  1.00 20.00    -0.376 OA
HETATM    9  C6  UNL     1     -33.634  17.204  -5.452  1.00 20.00     0.203 C 
ENDBRANCH   4   8
TORSDOF 2
ENDMDL
MODEL 8
REMARK VINA RESULT:      -3.6      2.628      3.247
REMARK  2 active torsions:
REMARK  status: ('A' for Active; 'I' for Inactive)
REMARK    1  A    between atoms: C1_1  and  C5_5 
REMARK    2  A    between atoms: C5_5  and  O8_8 
ROOT
HETATM    1  C2  UNL     1     -34.579  13.261  -4.742  1.00 20.00     0.007 C 
HETATM    2  C3  UNL     1     -33.608  13.817  -3.688  1.00 20.00     0.047 C 
HETATM    3  C4  UNL     1     -35.639  14.238  -4.206  1.00 20.00     0.047 C 
HETATM    4  C5  UNL     1     -34.479  15.111  -3.631  1.00 20.00     0.136 C 
ENDROOT
BRANCH   4   5
HETATM    5  C1  UNL     1     -34.001  16.282  -4.533  1.00 20.00     0.253 C 
HETATM    6  O7  UNL     1     -32.832  16.385  -4.890  1.00 20.00    -0.276 OA
HETATM    7 CL9  UNL     1     -35.298  17.364  -4.940  1.00 20.00    -0.041 Cl
ENDBRANCH   4   5
BRANCH   4   8
HETATM    8  O8  UNL     1     -34.718  15.584  -2.286  1.00 20.00    -0.376 OA
HETATM    9  C6  UNL     1     -33.857  16.660  -1.978  1.00 20.00     0.203 C 
ENDBRANCH   4   8
TORSDOF 2
ENDMDL
MODEL 9
REMARK VINA RESULT:      -3.6      2.240      3.652
REMARK  2 active torsions:
REMARK  status: ('A' for Active; 'I' for Inactive)
REMARK    1  A    between atoms: C1_1  and  C5_5 
REMARK    2  A    between atoms: C5_5  and  O8_8 
ROOT
HETATM    1  C2  UNL     1     -34.613  16.295  -1.436  1.00 20.00     0.007 C 
HETATM    2  C3  UNL     1     -33.752  16.973  -2.514  1.00 20.00     0.047 C 
HETATM    3  C4  UNL     1     -35.514  15.765  -2.563  1.00 20.00     0.047 C 
HETATM    4  C5  UNL     1     -34.317  15.949  -3.548  1.00 20.00     0.136 C 
ENDROOT
BRANCH   4   5
HETATM    5  C1  UNL     1     -33.441  14.690  -3.793  1.00 20.00     0.253 C 
HETATM    6  O7  UNL     1     -32.248  14.669  -3.508  1.00 20.00    -0.276 OA
HETATM    7 CL9  UNL     1     -34.353  13.386  -4.492  1.00 20.00    -0.041 Cl
ENDBRANCH   4   5
BRANCH   4   8
HETATM    8  O8  UNL     1     -34.687  16.552  -4.809  1.00 20.00    -0.376 OA
HETATM    9  C6  UNL     1     -33.582  16.579  -5.689  1.00 20.00     0.203 C 
ENDBRANCH   4   8
TORSDOF 2
ENDMDL
