MODEL 1
REMARK VINA RESULT:      -4.6      0.000      0.000
REMARK  0 active torsions:
REMARK  status: ('A' for Active; 'I' for Inactive)
ROOT
HETATM    1  C1  UNL     1     -32.946   6.436   2.533  1.00 20.00     0.003 A 
HETATM    2  C2  UNL     1     -33.767   5.375   2.564  1.00 20.00     0.013 A 
HETATM    3  C3  UNL     1     -32.806   6.989   3.871  1.00 20.00     0.030 A 
HETATM    4  C4  UNL     1     -34.934   4.277   4.495  1.00 20.00    -0.011 C 
HETATM    5  C5  UNL     1     -34.168   5.223   3.941  1.00 20.00    -0.013 A 
HETATM    6  C6  UNL     1     -33.551   6.276   4.735  1.00 20.00     0.039 A 
HETATM    7  C7  UNL     1     -35.184   4.272   5.977  1.00 20.00     0.048 C 
HETATM    8  C8  UNL     1     -34.931   5.624   6.671  1.00 20.00     0.126 C 
HETATM    9  C9  UNL     1     -33.218   7.409   6.920  1.00 20.00     0.149 C 
HETATM   10  N10 UNL     1     -33.798   6.362   6.088  1.00 20.00    -0.384 N 
ENDROOT
TORSDOF 0
ENDMDL
MODEL 2
REMARK VINA RESULT:      -4.4      1.134      3.150
REMARK  0 active torsions:
REMARK  status: ('A' for Active; 'I' for Inactive)
ROOT
HETATM    1  C1  UNL     1     -34.561   5.761   6.805  1.00 20.00     0.003 A 
HETATM    2  C2  UNL     1     -35.168   5.013   5.870  1.00 20.00     0.013 A 
HETATM    3  C3  UNL     1     -33.510   6.558   6.191  1.00 20.00     0.030 A 
HETATM    4  C4  UNL     1     -34.792   4.886   3.393  1.00 20.00    -0.011 C 
HETATM    5  C5  UNL     1     -34.513   5.326   4.624  1.00 20.00    -0.013 A 
HETATM    6  C6  UNL     1     -33.457   6.298   4.872  1.00 20.00     0.039 A 
HETATM    7  C7  UNL     1     -34.012   5.388   2.209  1.00 20.00     0.048 C 
HETATM    8  C8  UNL     1     -32.646   6.006   2.563  1.00 20.00     0.126 C 
HETATM    9  C9  UNL     1     -31.584   7.701   4.040  1.00 20.00     0.149 C 
HETATM   10  N10 UNL     1     -32.664   6.744   3.837  1.00 20.00    -0.384 N 
ENDROOT
TORSDOF 0
ENDMDL
MODEL 3
REMARK VINA RESULT:      -4.3     12.320     13.868
REMARK  0 active torsions:
REMARK  status: ('A' for Active; 'I' for Inactive)
ROOT
HETATM    1  C1  UNL     1     -35.028  15.554  -7.801  1.00 20.00     0.003 A 
HETATM    2  C2  UNL     1     -35.191  14.313  -7.312  1.00 20.00     0.013 A 
HETATM    3  C3  UNL     1     -34.549  16.437  -6.748  1.00 20.00     0.030 A 
HETATM    4  C4  UNL     1     -34.741  13.396  -5.021  1.00 20.00    -0.011 C 
HETATM    5  C5  UNL     1     -34.809  14.380  -5.923  1.00 20.00    -0.013 A 
HETATM    6  C6  UNL     1     -34.424  15.747  -5.600  1.00 20.00     0.039 A 
HETATM    7  C7  UNL     1     -34.257  13.674  -3.625  1.00 20.00     0.048 C 
HETATM    8  C8  UNL     1     -34.331  15.155  -3.209  1.00 20.00     0.126 C 
HETATM    9  C9  UNL     1     -33.661  17.434  -3.945  1.00 20.00     0.149 C 
HETATM   10  N10 UNL     1     -34.037  16.076  -4.320  1.00 20.00    -0.384 N 
ENDROOT
TORSDOF 0
ENDMDL
MODEL 4
REMARK VINA RESULT:      -4.3      9.878     10.967
REMARK  0 active torsions:
REMARK  status: ('A' for Active; 'I' for Inactive)
ROOT
HETATM    1  C1  UNL     1     -43.274   7.436  -3.646  1.00 20.00     0.003 A 
HETATM    2  C2  UNL     1     -42.520   8.055  -2.723  1.00 20.00     0.013 A 
HETATM    3  C3  UNL     1     -43.159   5.995  -3.487  1.00 20.00     0.030 A 
HETATM    4  C4  UNL     1     -41.114   7.112  -0.872  1.00 20.00    -0.011 C 
HETATM    5  C5  UNL     1     -41.906   7.009  -1.944  1.00 20.00    -0.013 A 
HETATM    6  C6  UNL     1     -42.323   5.716  -2.470  1.00 20.00     0.039 A 
HETATM    7  C7  UNL     1     -40.623   5.879  -0.166  1.00 20.00     0.048 C 
HETATM    8  C8  UNL     1     -40.681   4.594  -1.014  1.00 20.00     0.126 C 
HETATM    9  C9  UNL     1     -42.226   3.235  -2.411  1.00 20.00     0.149 C 
HETATM   10  N10 UNL     1     -41.851   4.551  -1.907  1.00 20.00    -0.384 N 
ENDROOT
TORSDOF 0
ENDMDL
MODEL 5
REMARK VINA RESULT:      -4.3     12.612     14.399
REMARK  0 active torsions:
REMARK  status: ('A' for Active; 'I' for Inactive)
ROOT
HETATM    1  C1  UNL     1     -33.835  13.727  -3.756  1.00 20.00     0.003 A 
HETATM    2  C2  UNL     1     -34.474  13.218  -4.821  1.00 20.00     0.013 A 
HETATM    3  C3  UNL     1     -33.606  15.150  -3.954  1.00 20.00     0.030 A 
HETATM    4  C4  UNL     1     -35.316  14.339  -6.901  1.00 20.00    -0.011 C 
HETATM    5  C5  UNL     1     -34.675  14.321  -5.729  1.00 20.00    -0.013 A 
HETATM    6  C6  UNL     1     -34.095  15.525  -5.150  1.00 20.00     0.039 A 
HETATM    7  C7  UNL     1     -35.460  15.623  -7.671  1.00 20.00     0.048 C 
HETATM    8  C8  UNL     1     -34.450  16.717  -7.278  1.00 20.00     0.126 C 
HETATM    9  C9  UNL     1     -33.555  17.944  -5.308  1.00 20.00     0.149 C 
HETATM   10  N10 UNL     1     -34.137  16.717  -5.839  1.00 20.00    -0.384 N 
ENDROOT
TORSDOF 0
ENDMDL
MODEL 6
REMARK VINA RESULT:      -4.3     12.246     13.748
REMARK  0 active torsions:
REMARK  status: ('A' for Active; 'I' for Inactive)
ROOT
HETATM    1  C1  UNL     1     -34.777  13.721  -5.227  1.00 20.00     0.003 A 
HETATM    2  C2  UNL     1     -34.846  13.760  -3.887  1.00 20.00     0.013 A 
HETATM    3  C3  UNL     1     -34.384  15.026  -5.737  1.00 20.00     0.030 A 
HETATM    4  C4  UNL     1     -34.350  15.628  -2.287  1.00 20.00    -0.011 C 
HETATM    5  C5  UNL     1     -34.487  15.105  -3.509  1.00 20.00    -0.013 A 
HETATM    6  C6  UNL     1     -34.218  15.881  -4.712  1.00 20.00     0.039 A 
HETATM    7  C7  UNL     1     -33.907  17.055  -2.113  1.00 20.00     0.048 C 
HETATM    8  C8  UNL     1     -34.106  17.938  -3.360  1.00 20.00     0.126 C 
HETATM    9  C9  UNL     1     -33.613  18.033  -5.795  1.00 20.00     0.149 C 
HETATM   10  N10 UNL     1     -33.874  17.212  -4.619  1.00 20.00    -0.384 N 
ENDROOT
TORSDOF 0
ENDMDL
MODEL 7
REMARK VINA RESULT:      -4.2     12.104     12.911
REMARK  0 active torsions:
REMARK  status: ('A' for Active; 'I' for Inactive)
ROOT
HETATM    1  C1  UNL     1     -34.776  17.301  -1.749  1.00 20.00     0.003 A 
HETATM    2  C2  UNL     1     -33.670  16.642  -2.128  1.00 20.00     0.013 A 
HETATM    3  C3  UNL     1     -35.950  16.660  -2.322  1.00 20.00     0.030 A 
HETATM    4  C4  UNL     1     -33.406  14.576  -3.526  1.00 20.00    -0.011 C 
HETATM    5  C5  UNL     1     -34.121  15.551  -2.956  1.00 20.00    -0.013 A 
HETATM    6  C6  UNL     1     -35.572  15.607  -3.068  1.00 20.00     0.039 A 
HETATM    7  C7  UNL     1     -34.088  13.490  -4.312  1.00 20.00     0.048 C 
HETATM    8  C8  UNL     1     -35.506  13.851  -4.796  1.00 20.00     0.126 C 
HETATM    9  C9  UNL     1     -37.696  14.706  -3.988  1.00 20.00     0.149 C 
HETATM   10  N10 UNL     1     -36.247  14.679  -3.831  1.00 20.00    -0.384 N 
ENDROOT
TORSDOF 0
ENDMDL
MODEL 8
REMARK VINA RESULT:      -4.2     12.517     14.023
REMARK  0 active torsions:
REMARK  status: ('A' for Active; 'I' for Inactive)
ROOT
HETATM    1  C1  UNL     1     -34.473  17.874  -0.693  1.00 20.00     0.003 A 
HETATM    2  C2  UNL     1     -34.539  16.546  -0.879  1.00 20.00     0.013 A 
HETATM    3  C3  UNL     1     -34.155  18.530  -1.952  1.00 20.00     0.030 A 
HETATM    4  C4  UNL     1     -34.277  15.181  -2.967  1.00 20.00    -0.011 C 
HETATM    5  C5  UNL     1     -34.269  16.326  -2.278  1.00 20.00    -0.013 A 
HETATM    6  C6  UNL     1     -34.013  17.608  -2.920  1.00 20.00     0.039 A 
HETATM    7  C7  UNL     1     -34.020  15.181  -4.448  1.00 20.00     0.048 C 
HETATM    8  C8  UNL     1     -33.298  16.439  -4.969  1.00 20.00     0.126 C 
HETATM    9  C9  UNL     1     -33.423  18.922  -4.944  1.00 20.00     0.149 C 
HETATM   10  N10 UNL     1     -33.705  17.664  -4.262  1.00 20.00    -0.384 N 
ENDROOT
TORSDOF 0
ENDMDL
MODEL 9
REMARK VINA RESULT:      -4.2     12.324     14.072
REMARK  0 active torsions:
REMARK  status: ('A' for Active; 'I' for Inactive)
ROOT
HETATM    1  C1  UNL     1     -34.792  13.316  -4.139  1.00 20.00     0.003 A 
HETATM    2  C2  UNL     1     -34.760  13.563  -5.458  1.00 20.00     0.013 A 
HETATM    3  C3  UNL     1     -34.535  14.545  -3.404  1.00 20.00     0.030 A 
HETATM    4  C4  UNL     1     -34.414  15.712  -6.704  1.00 20.00    -0.011 C 
HETATM    5  C5  UNL     1     -34.485  14.972  -5.593  1.00 20.00    -0.013 A 
HETATM    6  C6  UNL     1     -34.332  15.556  -4.268  1.00 20.00     0.039 A 
HETATM    7  C7  UNL     1     -34.169  17.194  -6.617  1.00 20.00     0.048 C 
HETATM    8  C8  UNL     1     -33.549  17.659  -5.286  1.00 20.00     0.126 C 
HETATM    9  C9  UNL     1     -33.859  17.520  -2.823  1.00 20.00     0.149 C 
HETATM   10  N10 UNL     1     -34.040  16.895  -4.127  1.00 20.00    -0.384 N 
ENDROOT
TORSDOF 0
ENDMDL
