MODEL 1
REMARK VINA RESULT:      -4.3      0.000      0.000
REMARK  0 active torsions:
REMARK  status: ('A' for Active; 'I' for Inactive)
ROOT
HETATM    1  C1  UNL     1     -34.672  16.404  -1.339  1.00 20.00     0.017 C 
HETATM    2  C2  UNL     1     -34.381  15.831  -2.352  1.00 20.00    -0.050 C 
HETATM    3  C3  UNL     1     -35.161  14.146  -5.984  1.00 20.00     0.053 C 
HETATM    4  C4  UNL     1     -34.742  13.218  -4.856  1.00 20.00     0.174 C 
HETATM    5  C5  UNL     1     -34.307  15.401  -5.963  1.00 20.00     0.174 C 
HETATM    6  C6  UNL     1     -34.021  15.128  -3.599  1.00 20.00     0.227 C 
HETATM    7  C7  UNL     1     -32.513  14.844  -3.563  1.00 20.00     0.095 C 
HETATM    8  O8  UNL     1     -34.777  13.910  -3.610  1.00 20.00    -0.345 OA
HETATM    9  O9  UNL     1     -34.357  16.012  -4.676  1.00 20.00    -0.345 OA
ENDROOT
TORSDOF 0
ENDMDL
MODEL 2
REMARK VINA RESULT:      -4.3      1.520      1.948
REMARK  0 active torsions:
REMARK  status: ('A' for Active; 'I' for Inactive)
ROOT
HETATM    1  C1  UNL     1     -34.625  16.816  -0.531  1.00 20.00     0.017 C 
HETATM    2  C2  UNL     1     -34.709  16.342  -1.630  1.00 20.00    -0.050 C 
HETATM    3  C3  UNL     1     -35.195  13.294  -4.297  1.00 20.00     0.053 C 
HETATM    4  C4  UNL     1     -33.838  13.975  -4.250  1.00 20.00     0.174 C 
HETATM    5  C5  UNL     1     -36.297  14.335  -4.215  1.00 20.00     0.174 C 
HETATM    6  C6  UNL     1     -34.814  15.759  -2.982  1.00 20.00     0.227 C 
HETATM    7  C7  UNL     1     -34.661  16.898  -4.000  1.00 20.00     0.095 C 
HETATM    8  O8  UNL     1     -33.745  14.812  -3.100  1.00 20.00    -0.345 OA
HETATM    9  O9  UNL     1     -36.114  15.160  -3.067  1.00 20.00    -0.345 OA
ENDROOT
TORSDOF 0
ENDMDL
MODEL 3
REMARK VINA RESULT:      -4.1     11.618     13.270
REMARK  0 active torsions:
REMARK  status: ('A' for Active; 'I' for Inactive)
ROOT
HETATM    1  C1  UNL     1     -41.445   2.185  -3.546  1.00 20.00     0.017 C 
HETATM    2  C2  UNL     1     -41.668   3.105  -2.809  1.00 20.00    -0.050 C 
HETATM    3  C3  UNL     1     -41.105   6.870  -1.345  1.00 20.00     0.053 C 
HETATM    4  C4  UNL     1     -40.735   5.704  -0.443  1.00 20.00     0.174 C 
HETATM    5  C5  UNL     1     -42.420   6.581  -2.048  1.00 20.00     0.174 C 
HETATM    6  C6  UNL     1     -41.944   4.236  -1.902  1.00 20.00     0.227 C 
HETATM    7  C7  UNL     1     -43.070   3.813  -0.949  1.00 20.00     0.095 C 
HETATM    8  O8  UNL     1     -40.727   4.489  -1.187  1.00 20.00    -0.345 OA
HETATM    9  O9  UNL     1     -42.351   5.332  -2.731  1.00 20.00    -0.345 OA
ENDROOT
TORSDOF 0
ENDMDL
MODEL 4
REMARK VINA RESULT:      -4.0      1.664      1.976
REMARK  0 active torsions:
REMARK  status: ('A' for Active; 'I' for Inactive)
ROOT
HETATM    1  C1  UNL     1     -34.644  16.616  -0.724  1.00 20.00     0.017 C 
HETATM    2  C2  UNL     1     -34.578  16.295  -1.878  1.00 20.00    -0.050 C 
HETATM    3  C3  UNL     1     -34.582  16.985  -5.898  1.00 20.00     0.053 C 
HETATM    4  C4  UNL     1     -35.745  16.196  -5.321  1.00 20.00     0.174 C 
HETATM    5  C5  UNL     1     -33.281  16.520  -5.269  1.00 20.00     0.174 C 
HETATM    6  C6  UNL     1     -34.495  15.899  -3.297  1.00 20.00     0.227 C 
HETATM    7  C7  UNL     1     -34.295  14.378  -3.352  1.00 20.00     0.095 C 
HETATM    8  O8  UNL     1     -35.740  16.280  -3.898  1.00 20.00    -0.345 OA
HETATM    9  O9  UNL     1     -33.367  16.590  -3.847  1.00 20.00    -0.345 OA
ENDROOT
TORSDOF 0
ENDMDL
MODEL 5
REMARK VINA RESULT:      -3.9      1.730      2.369
REMARK  0 active torsions:
REMARK  status: ('A' for Active; 'I' for Inactive)
ROOT
HETATM    1  C1  UNL     1     -33.592  18.377  -4.634  1.00 20.00     0.017 C 
HETATM    2  C2  UNL     1     -33.898  17.299  -4.204  1.00 20.00    -0.050 C 
HETATM    3  C3  UNL     1     -34.799  13.333  -4.513  1.00 20.00     0.053 C 
HETATM    4  C4  UNL     1     -35.912  14.274  -4.084  1.00 20.00     0.174 C 
HETATM    5  C5  UNL     1     -33.508  13.705  -3.805  1.00 20.00     0.174 C 
HETATM    6  C6  UNL     1     -34.272  15.973  -3.675  1.00 20.00     0.227 C 
HETATM    7  C7  UNL     1     -34.421  16.098  -2.152  1.00 20.00     0.095 C 
HETATM    8  O8  UNL     1     -35.520  15.628  -4.290  1.00 20.00    -0.345 OA
HETATM    9  O9  UNL     1     -33.205  15.081  -4.020  1.00 20.00    -0.345 OA
ENDROOT
TORSDOF 0
ENDMDL
MODEL 6
REMARK VINA RESULT:      -3.8     12.619     14.162
REMARK  0 active torsions:
REMARK  status: ('A' for Active; 'I' for Inactive)
ROOT
HETATM    1  C1  UNL     1     -41.513   1.802  -3.789  1.00 20.00     0.017 C 
HETATM    2  C2  UNL     1     -41.789   2.715  -3.062  1.00 20.00    -0.050 C 
HETATM    3  C3  UNL     1     -41.999   4.620   0.539  1.00 20.00     0.053 C 
HETATM    4  C4  UNL     1     -43.307   4.208  -0.113  1.00 20.00     0.174 C 
HETATM    5  C5  UNL     1     -41.061   5.198  -0.506  1.00 20.00     0.174 C 
HETATM    6  C6  UNL     1     -42.128   3.839  -2.167  1.00 20.00     0.227 C 
HETATM    7  C7  UNL     1     -42.766   4.944  -3.020  1.00 20.00     0.095 C 
HETATM    8  O8  UNL     1     -43.058   3.326  -1.204  1.00 20.00    -0.345 OA
HETATM    9  O9  UNL     1     -40.896   4.281  -1.584  1.00 20.00    -0.345 OA
ENDROOT
TORSDOF 0
ENDMDL
MODEL 7
REMARK VINA RESULT:      -3.8      1.264      3.600
REMARK  0 active torsions:
REMARK  status: ('A' for Active; 'I' for Inactive)
ROOT
HETATM    1  C1  UNL     1     -34.794  14.892  -7.745  1.00 20.00     0.017 C 
HETATM    2  C2  UNL     1     -34.735  14.788  -6.551  1.00 20.00    -0.050 C 
HETATM    3  C3  UNL     1     -34.716  16.208  -2.728  1.00 20.00     0.053 C 
HETATM    4  C4  UNL     1     -33.429  15.598  -3.255  1.00 20.00     0.174 C 
HETATM    5  C5  UNL     1     -35.901  15.360  -3.154  1.00 20.00     0.174 C 
HETATM    6  C6  UNL     1     -34.663  14.658  -5.083  1.00 20.00     0.227 C 
HETATM    7  C7  UNL     1     -34.505  13.169  -4.748  1.00 20.00     0.095 C 
HETATM    8  O8  UNL     1     -33.515  15.408  -4.665  1.00 20.00    -0.345 OA
HETATM    9  O9  UNL     1     -35.895  15.177  -4.568  1.00 20.00    -0.345 OA
ENDROOT
TORSDOF 0
ENDMDL
MODEL 8
REMARK VINA RESULT:      -3.8      1.491      3.526
REMARK  0 active torsions:
REMARK  status: ('A' for Active; 'I' for Inactive)
ROOT
HETATM    1  C1  UNL     1     -35.647  14.445  -7.918  1.00 20.00     0.017 C 
HETATM    2  C2  UNL     1     -35.348  14.560  -6.761  1.00 20.00    -0.050 C 
HETATM    3  C3  UNL     1     -32.732  14.960  -3.657  1.00 20.00     0.053 C 
HETATM    4  C4  UNL     1     -33.521  13.665  -3.747  1.00 20.00     0.174 C 
HETATM    5  C5  UNL     1     -33.639  16.139  -3.965  1.00 20.00     0.174 C 
HETATM    6  C6  UNL     1     -34.981  14.704  -5.339  1.00 20.00     0.227 C 
HETATM    7  C7  UNL     1     -36.277  14.713  -4.516  1.00 20.00     0.095 C 
HETATM    8  O8  UNL     1     -34.168  13.569  -5.013  1.00 20.00    -0.345 OA
HETATM    9  O9  UNL     1     -34.284  15.951  -5.223  1.00 20.00    -0.345 OA
ENDROOT
TORSDOF 0
ENDMDL
MODEL 9
REMARK VINA RESULT:      -3.7      1.657      3.192
REMARK  0 active torsions:
REMARK  status: ('A' for Active; 'I' for Inactive)
ROOT
HETATM    1  C1  UNL     1     -37.975  14.763  -4.036  1.00 20.00     0.017 C 
HETATM    2  C2  UNL     1     -36.811  14.708  -4.320  1.00 20.00    -0.050 C 
HETATM    3  C3  UNL     1     -32.819  15.111  -3.585  1.00 20.00     0.053 C 
HETATM    4  C4  UNL     1     -33.443  16.051  -4.602  1.00 20.00     0.174 C 
HETATM    5  C5  UNL     1     -33.356  13.704  -3.786  1.00 20.00     0.174 C 
HETATM    6  C6  UNL     1     -35.379  14.639  -4.670  1.00 20.00     0.227 C 
HETATM    7  C7  UNL     1     -35.270  14.141  -6.118  1.00 20.00     0.095 C 
HETATM    8  O8  UNL     1     -34.864  15.971  -4.540  1.00 20.00    -0.345 OA
HETATM    9  O9  UNL     1     -34.781  13.710  -3.756  1.00 20.00    -0.345 OA
ENDROOT
TORSDOF 0
ENDMDL
