MODEL 1
REMARK VINA RESULT:      -4.1      0.000      0.000
REMARK  2 active torsions:
REMARK  status: ('A' for Active; 'I' for Inactive)
REMARK    1  A    between atoms: C2_2  and  C7_7 
REMARK    2  A    between atoms: C3_3  and  C6_6 
ROOT
HETATM    1  C4  UNL     1     -32.897  14.977  -3.786  1.00 20.00     0.014 C 
HETATM    2  C5  UNL     1     -34.247  14.656  -3.124  1.00 20.00     0.015 C 
HETATM    3  C6  UNL     1     -33.536  16.254  -4.391  1.00 20.00     0.067 C 
HETATM    4  C7  UNL     1     -34.641  16.155  -3.273  1.00 20.00    -0.011 C 
HETATM    5  C10 UNL     1     -36.088  16.370  -3.708  1.00 20.00     0.021 C 
ENDROOT
BRANCH   4   6
HETATM    6  C2  UNL     1     -34.330  16.977  -2.065  1.00 20.00    -0.084 C 
HETATM    7  C1  UNL     1     -34.626  16.557  -0.827  1.00 20.00     0.015 C 
HETATM    8  C8  UNL     1     -33.666  18.298  -2.317  1.00 20.00     0.043 C 
ENDBRANCH   4   6
BRANCH   3   9
HETATM    9  C3  UNL     1     -33.972  16.181  -5.863  1.00 20.00     0.128 C 
HETATM   10  C9  UNL     1     -34.123  17.491  -6.589  1.00 20.00     0.091 C 
HETATM   11  O11 UNL     1     -34.185  15.106  -6.420  1.00 20.00    -0.298 OA
ENDBRANCH   3   9
TORSDOF 2
ENDMDL
MODEL 2
REMARK VINA RESULT:      -4.1      1.985      3.855
REMARK  2 active torsions:
REMARK  status: ('A' for Active; 'I' for Inactive)
REMARK    1  A    between atoms: C2_2  and  C7_7 
REMARK    2  A    between atoms: C3_3  and  C6_6 
ROOT
HETATM    1  C4  UNL     1     -33.501  16.983  -4.461  1.00 20.00     0.014 C 
HETATM    2  C5  UNL     1     -34.777  16.390  -5.084  1.00 20.00     0.015 C 
HETATM    3  C6  UNL     1     -33.914  16.355  -3.104  1.00 20.00     0.067 C 
HETATM    4  C7  UNL     1     -34.836  15.366  -3.912  1.00 20.00    -0.011 C 
HETATM    5  C10 UNL     1     -36.242  15.132  -3.371  1.00 20.00     0.021 C 
ENDROOT
BRANCH   4   6
HETATM    6  C2  UNL     1     -34.171  14.065  -4.223  1.00 20.00    -0.084 C 
HETATM    7  C1  UNL     1     -33.057  13.669  -3.590  1.00 20.00     0.015 C 
HETATM    8  C8  UNL     1     -34.823  13.225  -5.281  1.00 20.00     0.043 C 
ENDBRANCH   4   6
BRANCH   3   9
HETATM    9  C3  UNL     1     -34.566  17.293  -2.076  1.00 20.00     0.128 C 
HETATM   10  C9  UNL     1     -34.583  16.822  -0.646  1.00 20.00     0.091 C 
HETATM   11  O11 UNL     1     -35.049  18.375  -2.405  1.00 20.00    -0.298 OA
ENDBRANCH   3   9
TORSDOF 2
ENDMDL
MODEL 3
REMARK VINA RESULT:      -4.1      1.290      2.040
REMARK  2 active torsions:
REMARK  status: ('A' for Active; 'I' for Inactive)
REMARK    1  A    between atoms: C2_2  and  C7_7 
REMARK    2  A    between atoms: C3_3  and  C6_6 
ROOT
HETATM    1  C4  UNL     1     -33.400  16.807  -5.060  1.00 20.00     0.014 C 
HETATM    2  C5  UNL     1     -33.065  15.676  -4.072  1.00 20.00     0.015 C 
HETATM    3  C6  UNL     1     -34.808  16.182  -5.244  1.00 20.00     0.067 C 
HETATM    4  C7  UNL     1     -34.592  15.443  -3.870  1.00 20.00    -0.011 C 
HETATM    5  C10 UNL     1     -34.986  13.971  -3.806  1.00 20.00     0.021 C 
ENDROOT
BRANCH   4   6
HETATM    6  C2  UNL     1     -35.161  16.188  -2.707  1.00 20.00    -0.084 C 
HETATM    7  C1  UNL     1     -34.513  16.275  -1.536  1.00 20.00     0.015 C 
HETATM    8  C8  UNL     1     -36.496  16.836  -2.925  1.00 20.00     0.043 C 
ENDBRANCH   4   6
BRANCH   3   9
HETATM    9  C3  UNL     1     -35.030  15.334  -6.507  1.00 20.00     0.128 C 
HETATM   10  C9  UNL     1     -36.458  15.086  -6.911  1.00 20.00     0.091 C 
HETATM   11  O11 UNL     1     -34.088  14.883  -7.155  1.00 20.00    -0.298 OA
ENDBRANCH   3   9
TORSDOF 2
ENDMDL
MODEL 4
REMARK VINA RESULT:      -4.1      2.053      3.125
REMARK  2 active torsions:
REMARK  status: ('A' for Active; 'I' for Inactive)
REMARK    1  A    between atoms: C2_2  and  C7_7 
REMARK    2  A    between atoms: C3_3  and  C6_6 
ROOT
HETATM    1  C4  UNL     1     -35.167  13.417  -4.972  1.00 20.00     0.014 C 
HETATM    2  C5  UNL     1     -34.577  13.443  -3.552  1.00 20.00     0.015 C 
HETATM    3  C6  UNL     1     -35.656  14.874  -4.759  1.00 20.00     0.067 C 
HETATM    4  C7  UNL     1     -34.584  15.000  -3.612  1.00 20.00    -0.011 C 
HETATM    5  C10 UNL     1     -35.033  15.663  -2.314  1.00 20.00     0.021 C 
ENDROOT
BRANCH   4   6
HETATM    6  C2  UNL     1     -33.291  15.584  -4.078  1.00 20.00    -0.084 C 
HETATM    7  C1  UNL     1     -32.108  15.050  -3.739  1.00 20.00     0.015 C 
HETATM    8  C8  UNL     1     -33.391  16.801  -4.950  1.00 20.00     0.043 C 
ENDBRANCH   4   6
BRANCH   3   9
HETATM    9  C3  UNL     1     -37.139  15.063  -4.401  1.00 20.00     0.128 C 
HETATM   10  C9  UNL     1     -37.776  16.359  -4.822  1.00 20.00     0.091 C 
HETATM   11  O11 UNL     1     -37.774  14.196  -3.804  1.00 20.00    -0.298 OA
ENDBRANCH   3   9
TORSDOF 2
ENDMDL
MODEL 5
REMARK VINA RESULT:      -4.1      2.350      3.826
REMARK  2 active torsions:
REMARK  status: ('A' for Active; 'I' for Inactive)
REMARK    1  A    between atoms: C2_2  and  C7_7 
REMARK    2  A    between atoms: C3_3  and  C6_6 
ROOT
HETATM    1  C4  UNL     1     -36.721  15.088  -4.351  1.00 20.00     0.014 C 
HETATM    2  C5  UNL     1     -36.740  15.111  -5.889  1.00 20.00     0.015 C 
HETATM    3  C6  UNL     1     -35.171  15.050  -4.406  1.00 20.00     0.067 C 
HETATM    4  C7  UNL     1     -35.270  15.626  -5.868  1.00 20.00    -0.011 C 
HETATM    5  C10 UNL     1     -34.379  14.983  -6.927  1.00 20.00     0.021 C 
ENDROOT
BRANCH   4   6
HETATM    6  C2  UNL     1     -35.157  17.114  -5.923  1.00 20.00    -0.084 C 
HETATM    7  C1  UNL     1     -36.067  17.871  -6.554  1.00 20.00     0.015 C 
HETATM    8  C8  UNL     1     -33.970  17.714  -5.229  1.00 20.00     0.043 C 
ENDBRANCH   4   6
BRANCH   3   9
HETATM    9  C3  UNL     1     -34.503  13.681  -4.199  1.00 20.00     0.128 C 
HETATM   10  C9  UNL     1     -33.104  13.688  -3.645  1.00 20.00     0.091 C 
HETATM   11  O11 UNL     1     -35.084  12.632  -4.470  1.00 20.00    -0.298 OA
ENDBRANCH   3   9
TORSDOF 2
ENDMDL
MODEL 6
REMARK VINA RESULT:      -4.1      1.557      2.609
REMARK  2 active torsions:
REMARK  status: ('A' for Active; 'I' for Inactive)
REMARK    1  A    between atoms: C2_2  and  C7_7 
REMARK    2  A    between atoms: C3_3  and  C6_6 
ROOT
HETATM    1  C4  UNL     1     -36.274  15.091  -3.388  1.00 20.00     0.014 C 
HETATM    2  C5  UNL     1     -35.821  16.324  -4.188  1.00 20.00     0.015 C 
HETATM    3  C6  UNL     1     -34.783  14.761  -3.117  1.00 20.00     0.067 C 
HETATM    4  C7  UNL     1     -34.455  16.267  -3.441  1.00 20.00    -0.011 C 
HETATM    5  C10 UNL     1     -33.252  16.536  -4.339  1.00 20.00     0.021 C 
ENDROOT
BRANCH   4   6
HETATM    6  C2  UNL     1     -34.404  17.132  -2.224  1.00 20.00    -0.084 C 
HETATM    7  C1  UNL     1     -34.517  16.623  -0.988  1.00 20.00     0.015 C 
HETATM    8  C8  UNL     1     -34.217  18.601  -2.463  1.00 20.00     0.043 C 
ENDBRANCH   4   6
BRANCH   3   9
HETATM    9  C3  UNL     1     -34.145  13.667  -3.989  1.00 20.00     0.128 C 
HETATM   10  C9  UNL     1     -34.868  13.307  -5.259  1.00 20.00     0.091 C 
HETATM   11  O11 UNL     1     -33.095  13.116  -3.665  1.00 20.00    -0.298 OA
ENDBRANCH   3   9
TORSDOF 2
ENDMDL
MODEL 7
REMARK VINA RESULT:      -4.0      2.083      3.736
REMARK  2 active torsions:
REMARK  status: ('A' for Active; 'I' for Inactive)
REMARK    1  A    between atoms: C2_2  and  C7_7 
REMARK    2  A    between atoms: C3_3  and  C6_6 
ROOT
HETATM    1  C4  UNL     1     -34.906  13.326  -4.294  1.00 20.00     0.014 C 
HETATM    2  C5  UNL     1     -35.013  13.982  -5.681  1.00 20.00     0.015 C 
HETATM    3  C6  UNL     1     -35.053  14.732  -3.657  1.00 20.00     0.067 C 
HETATM    4  C7  UNL     1     -35.694  15.213  -5.013  1.00 20.00    -0.011 C 
HETATM    5  C10 UNL     1     -35.220  16.553  -5.566  1.00 20.00     0.021 C 
ENDROOT
BRANCH   4   6
HETATM    6  C2  UNL     1     -37.186  15.144  -5.014  1.00 20.00    -0.084 C 
HETATM    7  C1  UNL     1     -37.886  14.915  -3.893  1.00 20.00     0.015 C 
HETATM    8  C8  UNL     1     -37.856  15.347  -6.341  1.00 20.00     0.043 C 
ENDBRANCH   4   6
BRANCH   3   9
HETATM    9  C3  UNL     1     -33.763  15.413  -3.173  1.00 20.00     0.128 C 
HETATM   10  C9  UNL     1     -33.912  16.469  -2.111  1.00 20.00     0.091 C 
HETATM   11  O11 UNL     1     -32.662  15.107  -3.628  1.00 20.00    -0.298 OA
ENDBRANCH   3   9
TORSDOF 2
ENDMDL
MODEL 8
REMARK VINA RESULT:      -4.0      1.602      2.252
REMARK  2 active torsions:
REMARK  status: ('A' for Active; 'I' for Inactive)
REMARK    1  A    between atoms: C2_2  and  C7_7 
REMARK    2  A    between atoms: C3_3  and  C6_6 
ROOT
HETATM    1  C4  UNL     1     -32.983  14.845  -3.532  1.00 20.00     0.014 C 
HETATM    2  C5  UNL     1     -34.075  15.523  -2.688  1.00 20.00     0.015 C 
HETATM    3  C6  UNL     1     -33.844  15.111  -4.795  1.00 20.00     0.067 C 
HETATM    4  C7  UNL     1     -34.589  16.231  -3.977  1.00 20.00    -0.011 C 
HETATM    5  C10 UNL     1     -36.109  16.275  -4.089  1.00 20.00     0.021 C 
ENDROOT
BRANCH   4   6
HETATM    6  C2  UNL     1     -34.009  17.592  -4.182  1.00 20.00    -0.084 C 
HETATM    7  C1  UNL     1     -33.844  18.453  -3.167  1.00 20.00     0.015 C 
HETATM    8  C8  UNL     1     -33.619  17.940  -5.588  1.00 20.00     0.043 C 
ENDBRANCH   4   6
BRANCH   3   9
HETATM    9  C3  UNL     1     -34.664  13.928  -5.336  1.00 20.00     0.128 C 
HETATM   10  C9  UNL     1     -35.244  14.083  -6.716  1.00 20.00     0.091 C 
HETATM   11  O11 UNL     1     -34.834  12.906  -4.676  1.00 20.00    -0.298 OA
ENDBRANCH   3   9
TORSDOF 2
ENDMDL
MODEL 9
REMARK VINA RESULT:      -4.0      1.223      2.714
REMARK  2 active torsions:
REMARK  status: ('A' for Active; 'I' for Inactive)
REMARK    1  A    between atoms: C2_2  and  C7_7 
REMARK    2  A    between atoms: C3_3  and  C6_6 
ROOT
HETATM    1  C4  UNL     1     -34.929  17.080  -5.406  1.00 20.00     0.014 C 
HETATM    2  C5  UNL     1     -33.437  17.207  -5.052  1.00 20.00     0.015 C 
HETATM    3  C6  UNL     1     -34.991  15.800  -4.531  1.00 20.00     0.067 C 
HETATM    4  C7  UNL     1     -33.687  16.306  -3.807  1.00 20.00    -0.011 C 
HETATM    5  C10 UNL     1     -32.587  15.277  -3.562  1.00 20.00     0.021 C 
ENDROOT
BRANCH   4   6
HETATM    6  C2  UNL     1     -33.970  17.077  -2.559  1.00 20.00    -0.084 C 
HETATM    7  C1  UNL     1     -33.649  18.373  -2.440  1.00 20.00     0.015 C 
HETATM    8  C8  UNL     1     -34.636  16.318  -1.450  1.00 20.00     0.043 C 
ENDBRANCH   4   6
BRANCH   3   9
HETATM    9  C3  UNL     1     -34.944  14.453  -5.271  1.00 20.00     0.128 C 
HETATM   10  C9  UNL     1     -35.256  13.225  -4.458  1.00 20.00     0.091 C 
HETATM   11  O11 UNL     1     -34.669  14.382  -6.467  1.00 20.00    -0.298 OA
ENDBRANCH   3   9
TORSDOF 2
ENDMDL
