MODEL 1
REMARK VINA RESULT:      -4.7      0.000      0.000
REMARK  3 active torsions:
REMARK  status: ('A' for Active; 'I' for Inactive)
REMARK    1  A    between atoms: C7_7  and  C8_8 
REMARK    2  A    between atoms: C8_8  and  C9_9 
REMARK    3  A    between atoms: C9_9  and  N10_10 
ROOT
HETATM    1  C1  UNL     1     -32.178   8.913   1.046  1.00 20.00     0.012 C 
HETATM    2  C3  UNL     1     -31.961   8.301   2.056  1.00 20.00    -0.117 C 
HETATM    3  C7  UNL     1     -31.690   7.555   3.294  1.00 20.00     0.096 C 
ENDROOT
BRANCH   3   4
HETATM    4  C8  UNL     1     -32.561   6.298   3.420  1.00 20.00     0.061 C 
BRANCH   4   5
HETATM    5  C9  UNL     1     -33.965   6.547   4.004  1.00 20.00     0.300 C 
HETATM    6  C4  UNL     1     -33.947   6.549   5.477  1.00 20.00    -0.081 C 
HETATM    7  C2  UNL     1     -33.933   6.557   6.678  1.00 20.00     0.014 C 
BRANCH   5   8
HETATM    8  N10 UNL     1     -34.867   5.495   3.531  1.00 20.00     0.095 N 
HETATM    9  C5  UNL     1     -35.088   4.504   4.582  1.00 20.00     0.310 C 
HETATM   10  C6  UNL     1     -34.323   4.859   2.333  1.00 20.00     0.310 C 
ENDBRANCH   5   8
ENDBRANCH   4   5
ENDBRANCH   3   4
TORSDOF 3
ENDMDL
MODEL 2
REMARK VINA RESULT:      -4.7      0.755      1.087
REMARK  3 active torsions:
REMARK  status: ('A' for Active; 'I' for Inactive)
REMARK    1  A    between atoms: C7_7  and  C8_8 
REMARK    2  A    between atoms: C8_8  and  C9_9 
REMARK    3  A    between atoms: C9_9  and  N10_10 
ROOT
HETATM    1  C1  UNL     1     -32.317   9.016   1.353  1.00 20.00     0.012 C 
HETATM    2  C3  UNL     1     -32.041   8.233   2.220  1.00 20.00    -0.117 C 
HETATM    3  C7  UNL     1     -31.698   7.278   3.284  1.00 20.00     0.096 C 
ENDROOT
BRANCH   3   4
HETATM    4  C8  UNL     1     -32.660   6.084   3.328  1.00 20.00     0.061 C 
BRANCH   4   5
HETATM    5  C9  UNL     1     -34.024   6.384   3.979  1.00 20.00     0.300 C 
HETATM    6  C4  UNL     1     -33.902   6.565   5.435  1.00 20.00    -0.081 C 
HETATM    7  C2  UNL     1     -33.803   6.718   6.622  1.00 20.00     0.014 C 
BRANCH   5   8
HETATM    8  N10 UNL     1     -34.935   5.270   3.703  1.00 20.00     0.095 N 
HETATM    9  C5  UNL     1     -36.276   5.770   3.408  1.00 20.00     0.310 C 
HETATM   10  C6  UNL     1     -34.968   4.347   4.836  1.00 20.00     0.310 C 
ENDBRANCH   5   8
ENDBRANCH   4   5
ENDBRANCH   3   4
TORSDOF 3
ENDMDL
MODEL 3
REMARK VINA RESULT:      -4.6     10.917     11.813
REMARK  3 active torsions:
REMARK  status: ('A' for Active; 'I' for Inactive)
REMARK    1  A    between atoms: C7_7  and  C8_8 
REMARK    2  A    between atoms: C8_8  and  C9_9 
REMARK    3  A    between atoms: C9_9  and  N10_10 
ROOT
HETATM    1  C1  UNL     1     -35.164  17.485   0.966  1.00 20.00     0.012 C 
HETATM    2  C3  UNL     1     -34.680  17.188  -0.092  1.00 20.00    -0.117 C 
HETATM    3  C7  UNL     1     -34.083  16.829  -1.386  1.00 20.00     0.096 C 
ENDROOT
BRANCH   3   4
HETATM    4  C8  UNL     1     -34.954  15.843  -2.177  1.00 20.00     0.061 C 
BRANCH   4   5
HETATM    5  C9  UNL     1     -34.189  15.009  -3.223  1.00 20.00     0.300 C 
HETATM    6  C4  UNL     1     -33.700  15.846  -4.332  1.00 20.00    -0.081 C 
HETATM    7  C2  UNL     1     -33.295  16.527  -5.234  1.00 20.00     0.014 C 
BRANCH   5   8
HETATM    8  N10 UNL     1     -35.085  13.977  -3.751  1.00 20.00     0.095 N 
HETATM    9  C5  UNL     1     -34.437  13.250  -4.841  1.00 20.00     0.310 C 
HETATM   10  C6  UNL     1     -36.337  14.577  -4.208  1.00 20.00     0.310 C 
ENDBRANCH   5   8
ENDBRANCH   4   5
ENDBRANCH   3   4
TORSDOF 3
ENDMDL
MODEL 4
REMARK VINA RESULT:      -4.6     10.511     11.915
REMARK  3 active torsions:
REMARK  status: ('A' for Active; 'I' for Inactive)
REMARK    1  A    between atoms: C7_7  and  C8_8 
REMARK    2  A    between atoms: C8_8  and  C9_9 
REMARK    3  A    between atoms: C9_9  and  N10_10 
ROOT
HETATM    1  C1  UNL     1     -34.428  15.125  -7.457  1.00 20.00     0.012 C 
HETATM    2  C3  UNL     1     -34.106  15.889  -6.588  1.00 20.00    -0.117 C 
HETATM    3  C7  UNL     1     -33.712  16.829  -5.530  1.00 20.00     0.096 C 
ENDROOT
BRANCH   3   4
HETATM    4  C8  UNL     1     -33.336  16.114  -4.225  1.00 20.00     0.061 C 
BRANCH   4   5
HETATM    5  C9  UNL     1     -34.536  15.595  -3.410  1.00 20.00     0.300 C 
HETATM    6  C4  UNL     1     -34.545  16.147  -2.045  1.00 20.00    -0.081 C 
HETATM    7  C2  UNL     1     -34.556  16.601  -0.933  1.00 20.00     0.014 C 
BRANCH   5   8
HETATM    8  N10 UNL     1     -34.465  14.133  -3.342  1.00 20.00     0.095 N 
HETATM    9  C5  UNL     1     -33.130  13.671  -3.718  1.00 20.00     0.310 C 
HETATM   10  C6  UNL     1     -35.478  13.533  -4.208  1.00 20.00     0.310 C 
ENDBRANCH   5   8
ENDBRANCH   4   5
ENDBRANCH   3   4
TORSDOF 3
ENDMDL
MODEL 5
REMARK VINA RESULT:      -4.4     11.099     11.897
REMARK  3 active torsions:
REMARK  status: ('A' for Active; 'I' for Inactive)
REMARK    1  A    between atoms: C7_7  and  C8_8 
REMARK    2  A    between atoms: C8_8  and  C9_9 
REMARK    3  A    between atoms: C9_9  and  N10_10 
ROOT
HETATM    1  C1  UNL     1     -34.751  17.041  -0.208  1.00 20.00     0.012 C 
HETATM    2  C3  UNL     1     -34.359  16.651  -1.273  1.00 20.00    -0.117 C 
HETATM    3  C7  UNL     1     -33.875  16.178  -2.578  1.00 20.00     0.096 C 
ENDROOT
BRANCH   3   4
HETATM    4  C8  UNL     1     -34.674  14.974  -3.095  1.00 20.00     0.061 C 
BRANCH   4   5
HETATM    5  C9  UNL     1     -35.598  15.284  -4.289  1.00 20.00     0.300 C 
HETATM    6  C4  UNL     1     -37.018  15.114  -3.934  1.00 20.00    -0.081 C 
HETATM    7  C2  UNL     1     -38.176  14.981  -3.645  1.00 20.00     0.014 C 
BRANCH   5   8
HETATM    8  N10 UNL     1     -35.262  14.382  -5.393  1.00 20.00     0.095 N 
HETATM    9  C5  UNL     1     -34.587  13.188  -4.888  1.00 20.00     0.310 C 
HETATM   10  C6  UNL     1     -34.424  15.069  -6.374  1.00 20.00     0.310 C 
ENDBRANCH   5   8
ENDBRANCH   4   5
ENDBRANCH   3   4
TORSDOF 3
ENDMDL
MODEL 6
REMARK VINA RESULT:      -4.4      1.343      2.309
REMARK  3 active torsions:
REMARK  status: ('A' for Active; 'I' for Inactive)
REMARK    1  A    between atoms: C7_7  and  C8_8 
REMARK    2  A    between atoms: C8_8  and  C9_9 
REMARK    3  A    between atoms: C9_9  and  N10_10 
ROOT
HETATM    1  C1  UNL     1     -32.143   9.098   1.520  1.00 20.00     0.012 C 
HETATM    2  C3  UNL     1     -32.109   8.039   2.085  1.00 20.00    -0.117 C 
HETATM    3  C7  UNL     1     -32.066   6.741   2.772  1.00 20.00     0.096 C 
ENDROOT
BRANCH   3   4
HETATM    4  C8  UNL     1     -32.871   6.744   4.078  1.00 20.00     0.061 C 
BRANCH   4   5
HETATM    5  C9  UNL     1     -33.771   5.509   4.280  1.00 20.00     0.300 C 
HETATM    6  C4  UNL     1     -35.114   5.718   3.712  1.00 20.00    -0.081 C 
HETATM    7  C2  UNL     1     -36.207   5.885   3.244  1.00 20.00     0.014 C 
BRANCH   5   8
HETATM    8  N10 UNL     1     -33.887   5.239   5.715  1.00 20.00     0.095 N 
HETATM    9  C5  UNL     1     -34.966   4.286   5.967  1.00 20.00     0.310 C 
HETATM   10  C6  UNL     1     -34.117   6.481   6.450  1.00 20.00     0.310 C 
ENDBRANCH   5   8
ENDBRANCH   4   5
ENDBRANCH   3   4
TORSDOF 3
ENDMDL
MODEL 7
REMARK VINA RESULT:      -4.4     11.282     12.547
REMARK  3 active torsions:
REMARK  status: ('A' for Active; 'I' for Inactive)
REMARK    1  A    between atoms: C7_7  and  C8_8 
REMARK    2  A    between atoms: C8_8  and  C9_9 
REMARK    3  A    between atoms: C9_9  and  N10_10 
ROOT
HETATM    1  C1  UNL     1     -34.251  17.416  -0.270  1.00 20.00     0.012 C 
HETATM    2  C3  UNL     1     -34.504  16.728  -1.222  1.00 20.00    -0.117 C 
HETATM    3  C7  UNL     1     -34.819  15.886  -2.384  1.00 20.00     0.096 C 
ENDROOT
BRANCH   3   4
HETATM    4  C8  UNL     1     -33.560  15.312  -3.047  1.00 20.00     0.061 C 
BRANCH   4   5
HETATM    5  C9  UNL     1     -33.436  15.611  -4.554  1.00 20.00     0.300 C 
HETATM    6  C4  UNL     1     -33.519  17.056  -4.828  1.00 20.00    -0.081 C 
HETATM    7  C2  UNL     1     -33.581  18.234  -5.053  1.00 20.00     0.014 C 
BRANCH   5   8
HETATM    8  N10 UNL     1     -34.514  14.919  -5.264  1.00 20.00     0.095 N 
HETATM    9  C5  UNL     1     -34.494  13.491  -4.953  1.00 20.00     0.310 C 
HETATM   10  C6  UNL     1     -34.394  15.132  -6.705  1.00 20.00     0.310 C 
ENDBRANCH   5   8
ENDBRANCH   4   5
ENDBRANCH   3   4
TORSDOF 3
ENDMDL
MODEL 8
REMARK VINA RESULT:      -4.3     10.650     11.802
REMARK  3 active torsions:
REMARK  status: ('A' for Active; 'I' for Inactive)
REMARK    1  A    between atoms: C7_7  and  C8_8 
REMARK    2  A    between atoms: C8_8  and  C9_9 
REMARK    3  A    between atoms: C9_9  and  N10_10 
ROOT
HETATM    1  C1  UNL     1     -35.071  17.333   0.589  1.00 20.00     0.012 C 
HETATM    2  C3  UNL     1     -34.689  16.954  -0.485  1.00 20.00    -0.117 C 
HETATM    3  C7  UNL     1     -34.215  16.490  -1.797  1.00 20.00     0.096 C 
ENDROOT
BRANCH   3   4
HETATM    4  C8  UNL     1     -35.357  16.342  -2.810  1.00 20.00     0.061 C 
BRANCH   4   5
HETATM    5  C9  UNL     1     -35.657  14.890  -3.232  1.00 20.00     0.300 C 
HETATM    6  C4  UNL     1     -34.424  14.159  -3.570  1.00 20.00    -0.081 C 
HETATM    7  C2  UNL     1     -33.419  13.560  -3.842  1.00 20.00     0.014 C 
BRANCH   5   8
HETATM    8  N10 UNL     1     -36.545  14.910  -4.396  1.00 20.00     0.095 N 
HETATM    9  C5  UNL     1     -36.244  16.059  -5.247  1.00 20.00     0.310 C 
HETATM   10  C6  UNL     1     -37.943  14.940  -3.969  1.00 20.00     0.310 C 
ENDBRANCH   5   8
ENDBRANCH   4   5
ENDBRANCH   3   4
TORSDOF 3
ENDMDL
MODEL 9
REMARK VINA RESULT:      -4.3     10.933     12.671
REMARK  3 active torsions:
REMARK  status: ('A' for Active; 'I' for Inactive)
REMARK    1  A    between atoms: C7_7  and  C8_8 
REMARK    2  A    between atoms: C8_8  and  C9_9 
REMARK    3  A    between atoms: C9_9  and  N10_10 
ROOT
HETATM    1  C1  UNL     1     -35.028  17.918   0.669  1.00 20.00     0.012 C 
HETATM    2  C3  UNL     1     -34.847  17.162  -0.247  1.00 20.00    -0.117 C 
HETATM    3  C7  UNL     1     -34.628  16.231  -1.363  1.00 20.00     0.096 C 
ENDROOT
BRANCH   3   4
HETATM    4  C8  UNL     1     -33.975  16.915  -2.572  1.00 20.00     0.061 C 
BRANCH   4   5
HETATM    5  C9  UNL     1     -34.211  16.200  -3.917  1.00 20.00     0.300 C 
HETATM    6  C4  UNL     1     -33.784  14.791  -3.865  1.00 20.00    -0.081 C 
HETATM    7  C2  UNL     1     -33.441  13.641  -3.822  1.00 20.00     0.014 C 
BRANCH   5   8
HETATM    8  N10 UNL     1     -33.458  16.898  -4.962  1.00 20.00     0.095 N 
HETATM    9  C5  UNL     1     -33.560  18.345  -4.783  1.00 20.00     0.310 C 
HETATM   10  C6  UNL     1     -33.943  16.509  -6.285  1.00 20.00     0.310 C 
ENDBRANCH   5   8
ENDBRANCH   4   5
ENDBRANCH   3   4
TORSDOF 3
ENDMDL
