MODEL 1
REMARK VINA RESULT:      -4.8      0.000      0.000
REMARK  2 active torsions:
REMARK  status: ('A' for Active; 'I' for Inactive)
REMARK    1  A    between atoms: C4_4  and  C6_6 
REMARK    2  A    between atoms: C7_7  and  C9_9 
ROOT
HETATM    1  C1  UNL     1     -35.245   4.412   5.919  1.00 20.00    -0.003 C 
HETATM    2  C2  UNL     1     -35.248   4.461   4.480  1.00 20.00     0.011 C 
HETATM    3  C3  UNL     1     -34.449   5.205   6.647  1.00 20.00    -0.021 C 
HETATM    4  C4  UNL     1     -34.564   5.404   3.817  1.00 20.00    -0.012 C 
HETATM    5  C8  UNL     1     -33.492   6.196   6.028  1.00 20.00     0.016 C 
HETATM    6  C9  UNL     1     -33.736   6.468   4.505  1.00 20.00     0.051 C 
HETATM    7  C10 UNL     1     -33.515   7.512   6.815  1.00 20.00     0.015 C 
ENDROOT
BRANCH   4   8
HETATM    8  C6  UNL     1     -34.720   5.412   2.357  1.00 20.00     0.266 C 
HETATM    9  O11 UNL     1     -34.067   4.683   1.621  1.00 20.00    -0.302 OA
ENDBRANCH   4   8
BRANCH   6  10
HETATM   10  C7  UNL     1     -32.407   6.677   3.832  1.00 20.00    -0.027 C 
HETATM   11  C5  UNL     1     -32.174   7.621   2.912  1.00 20.00     0.007 C 
ENDBRANCH   6  10
TORSDOF 2
ENDMDL
MODEL 2
REMARK VINA RESULT:      -4.8     11.705     13.865
REMARK  2 active torsions:
REMARK  status: ('A' for Active; 'I' for Inactive)
REMARK    1  A    between atoms: C4_4  and  C6_6 
REMARK    2  A    between atoms: C7_7  and  C9_9 
ROOT
HETATM    1  C1  UNL     1     -34.407  15.959  -7.015  1.00 20.00    -0.003 C 
HETATM    2  C2  UNL     1     -34.411  14.753  -6.229  1.00 20.00     0.011 C 
HETATM    3  C3  UNL     1     -34.441  17.170  -6.444  1.00 20.00    -0.021 C 
HETATM    4  C4  UNL     1     -34.296  14.795  -4.893  1.00 20.00    -0.012 C 
HETATM    5  C8  UNL     1     -34.495  17.369  -4.947  1.00 20.00     0.016 C 
HETATM    6  C9  UNL     1     -34.172  16.085  -4.111  1.00 20.00     0.051 C 
HETATM    7  C10 UNL     1     -33.569  18.521  -4.536  1.00 20.00     0.015 C 
ENDROOT
BRANCH   4   8
HETATM    8  C6  UNL     1     -34.215  13.499  -4.208  1.00 20.00     0.266 C 
HETATM    9  O11 UNL     1     -35.044  12.613  -4.373  1.00 20.00    -0.302 OA
ENDBRANCH   4   8
BRANCH   6  10
HETATM   10  C7  UNL     1     -35.029  16.084  -2.875  1.00 20.00    -0.027 C 
HETATM   11  C5  UNL     1     -34.557  16.272  -1.636  1.00 20.00     0.007 C 
ENDBRANCH   6  10
TORSDOF 2
ENDMDL
MODEL 3
REMARK VINA RESULT:      -4.6     11.946     13.780
REMARK  2 active torsions:
REMARK  status: ('A' for Active; 'I' for Inactive)
REMARK    1  A    between atoms: C4_4  and  C6_6 
REMARK    2  A    between atoms: C7_7  and  C9_9 
ROOT
HETATM    1  C1  UNL     1     -33.857  16.521  -2.768  1.00 20.00    -0.003 C 
HETATM    2  C2  UNL     1     -34.470  15.242  -3.015  1.00 20.00     0.011 C 
HETATM    3  C3  UNL     1     -33.538  17.352  -3.767  1.00 20.00    -0.021 C 
HETATM    4  C4  UNL     1     -34.883  14.897  -4.244  1.00 20.00    -0.012 C 
HETATM    5  C8  UNL     1     -33.782  17.018  -5.221  1.00 20.00     0.016 C 
HETATM    6  C9  UNL     1     -34.730  15.794  -5.454  1.00 20.00     0.051 C 
HETATM    7  C10 UNL     1     -34.311  18.252  -5.963  1.00 20.00     0.015 C 
ENDROOT
BRANCH   4   8
HETATM    8  C6  UNL     1     -35.580  13.610  -4.356  1.00 20.00     0.266 C 
HETATM    9  O11 UNL     1     -34.986  12.540  -4.393  1.00 20.00    -0.302 OA
ENDBRANCH   4   8
BRANCH   6  10
HETATM   10  C7  UNL     1     -34.256  15.038  -6.665  1.00 20.00    -0.027 C 
HETATM   11  C5  UNL     1     -34.991  14.854  -7.768  1.00 20.00     0.007 C 
ENDBRANCH   6  10
TORSDOF 2
ENDMDL
MODEL 4
REMARK VINA RESULT:      -4.6      1.509      3.046
REMARK  2 active torsions:
REMARK  status: ('A' for Active; 'I' for Inactive)
REMARK    1  A    between atoms: C4_4  and  C6_6 
REMARK    2  A    between atoms: C7_7  and  C9_9 
ROOT
HETATM    1  C1  UNL     1     -33.314   7.082   6.548  1.00 20.00    -0.003 C 
HETATM    2  C2  UNL     1     -32.722   7.364   5.266  1.00 20.00     0.011 C 
HETATM    3  C3  UNL     1     -34.271   6.157   6.692  1.00 20.00    -0.021 C 
HETATM    4  C4  UNL     1     -32.999   6.609   4.193  1.00 20.00    -0.012 C 
HETATM    5  C8  UNL     1     -34.811   5.350   5.534  1.00 20.00     0.016 C 
HETATM    6  C9  UNL     1     -33.948   5.430   4.230  1.00 20.00     0.051 C 
HETATM    7  C10 UNL     1     -35.005   3.888   5.956  1.00 20.00     0.015 C 
ENDROOT
BRANCH   4   8
HETATM    8  C6  UNL     1     -32.263   6.933   2.965  1.00 20.00     0.266 C 
HETATM    9  O11 UNL     1     -32.280   8.049   2.461  1.00 20.00    -0.302 OA
ENDBRANCH   4   8
BRANCH   6  10
HETATM   10  C7  UNL     1     -34.866   5.403   3.039  1.00 20.00    -0.027 C 
HETATM   11  C5  UNL     1     -36.088   5.948   3.023  1.00 20.00     0.007 C 
ENDBRANCH   6  10
TORSDOF 2
ENDMDL
MODEL 5
REMARK VINA RESULT:      -4.6     11.836     12.870
REMARK  2 active torsions:
REMARK  status: ('A' for Active; 'I' for Inactive)
REMARK    1  A    between atoms: C4_4  and  C6_6 
REMARK    2  A    between atoms: C7_7  and  C9_9 
ROOT
HETATM    1  C1  UNL     1     -33.886  13.931  -3.753  1.00 20.00    -0.003 C 
HETATM    2  C2  UNL     1     -35.260  13.872  -4.179  1.00 20.00     0.011 C 
HETATM    3  C3  UNL     1     -33.381  15.019  -3.159  1.00 20.00    -0.021 C 
HETATM    4  C4  UNL     1     -36.127  14.845  -3.862  1.00 20.00    -0.012 C 
HETATM    5  C8  UNL     1     -34.197  16.264  -2.897  1.00 20.00     0.016 C 
HETATM    6  C9  UNL     1     -35.742  16.071  -3.061  1.00 20.00     0.051 C 
HETATM    7  C10 UNL     1     -33.874  16.822  -1.506  1.00 20.00     0.015 C 
ENDROOT
BRANCH   4   8
HETATM    8  C6  UNL     1     -37.521  14.629  -4.267  1.00 20.00     0.266 C 
HETATM    9  O11 UNL     1     -38.402  14.336  -3.467  1.00 20.00    -0.302 OA
ENDBRANCH   4   8
BRANCH   6  10
HETATM   10  C7  UNL     1     -36.329  17.331  -3.636  1.00 20.00    -0.027 C 
HETATM   11  C5  UNL     1     -35.766  18.037  -4.624  1.00 20.00     0.007 C 
ENDBRANCH   6  10
TORSDOF 2
ENDMDL
MODEL 6
REMARK VINA RESULT:      -4.5     12.108     13.207
REMARK  2 active torsions:
REMARK  status: ('A' for Active; 'I' for Inactive)
REMARK    1  A    between atoms: C4_4  and  C6_6 
REMARK    2  A    between atoms: C7_7  and  C9_9 
ROOT
HETATM    1  C1  UNL     1     -34.812  15.834  -6.069  1.00 20.00    -0.003 C 
HETATM    2  C2  UNL     1     -36.053  15.712  -5.348  1.00 20.00     0.011 C 
HETATM    3  C3  UNL     1     -33.630  15.820  -5.440  1.00 20.00    -0.021 C 
HETATM    4  C4  UNL     1     -36.068  15.429  -4.037  1.00 20.00    -0.012 C 
HETATM    5  C8  UNL     1     -33.501  15.686  -3.940  1.00 20.00     0.016 C 
HETATM    6  C9  UNL     1     -34.813  15.233  -3.215  1.00 20.00     0.051 C 
HETATM    7  C10 UNL     1     -32.345  14.740  -3.593  1.00 20.00     0.015 C 
ENDROOT
BRANCH   4   8
HETATM    8  C6  UNL     1     -37.391  15.234  -3.432  1.00 20.00     0.266 C 
HETATM    9  O11 UNL     1     -38.097  14.267  -3.689  1.00 20.00    -0.302 OA
ENDBRANCH   4   8
BRANCH   6  10
HETATM   10  C7  UNL     1     -34.893  15.925  -1.882  1.00 20.00    -0.027 C 
HETATM   11  C5  UNL     1     -34.089  16.928  -1.509  1.00 20.00     0.007 C 
ENDBRANCH   6  10
TORSDOF 2
ENDMDL
MODEL 7
REMARK VINA RESULT:      -4.5     12.221     13.201
REMARK  2 active torsions:
REMARK  status: ('A' for Active; 'I' for Inactive)
REMARK    1  A    between atoms: C4_4  and  C6_6 
REMARK    2  A    between atoms: C7_7  and  C9_9 
ROOT
HETATM    1  C1  UNL     1     -33.297  16.944  -4.731  1.00 20.00    -0.003 C 
HETATM    2  C2  UNL     1     -33.738  15.729  -5.367  1.00 20.00     0.011 C 
HETATM    3  C3  UNL     1     -33.852  17.382  -3.595  1.00 20.00    -0.021 C 
HETATM    4  C4  UNL     1     -34.616  14.911  -4.768  1.00 20.00    -0.012 C 
HETATM    5  C8  UNL     1     -34.978  16.654  -2.898  1.00 20.00     0.016 C 
HETATM    6  C9  UNL     1     -35.220  15.194  -3.409  1.00 20.00     0.051 C 
HETATM    7  C10 UNL     1     -34.748  16.657  -1.381  1.00 20.00     0.015 C 
ENDROOT
BRANCH   4   8
HETATM    8  C6  UNL     1     -34.916  13.657  -5.469  1.00 20.00     0.266 C 
HETATM    9  O11 UNL     1     -34.772  12.559  -4.945  1.00 20.00    -0.302 OA
ENDBRANCH   4   8
BRANCH   6  10
HETATM   10  C7  UNL     1     -36.696  14.907  -3.373  1.00 20.00    -0.027 C 
HETATM   11  C5  UNL     1     -37.631  15.728  -3.866  1.00 20.00     0.007 C 
ENDBRANCH   6  10
TORSDOF 2
ENDMDL
MODEL 8
REMARK VINA RESULT:      -4.5      8.719     10.490
REMARK  2 active torsions:
REMARK  status: ('A' for Active; 'I' for Inactive)
REMARK    1  A    between atoms: C4_4  and  C6_6 
REMARK    2  A    between atoms: C7_7  and  C9_9 
ROOT
HETATM    1  C1  UNL     1     -40.467   5.678  -0.270  1.00 20.00    -0.003 C 
HETATM    2  C2  UNL     1     -40.841   4.626  -1.180  1.00 20.00     0.011 C 
HETATM    3  C3  UNL     1     -41.059   6.878  -0.302  1.00 20.00    -0.021 C 
HETATM    4  C4  UNL     1     -41.899   4.757  -1.993  1.00 20.00    -0.012 C 
HETATM    5  C8  UNL     1     -42.148   7.229  -1.289  1.00 20.00     0.016 C 
HETATM    6  C9  UNL     1     -42.763   5.999  -2.039  1.00 20.00     0.051 C 
HETATM    7  C10 UNL     1     -43.251   8.035  -0.592  1.00 20.00     0.015 C 
ENDROOT
BRANCH   4   8
HETATM    8  C6  UNL     1     -42.242   3.583  -2.806  1.00 20.00     0.266 C 
HETATM    9  O11 UNL     1     -41.441   2.687  -3.039  1.00 20.00    -0.302 OA
ENDBRANCH   4   8
BRANCH   6  10
HETATM   10  C7  UNL     1     -43.097   6.408  -3.447  1.00 20.00    -0.027 C 
HETATM   11  C5  UNL     1     -42.739   7.577  -3.992  1.00 20.00     0.007 C 
ENDBRANCH   6  10
TORSDOF 2
ENDMDL
MODEL 9
REMARK VINA RESULT:      -4.5     11.513     12.939
REMARK  2 active torsions:
REMARK  status: ('A' for Active; 'I' for Inactive)
REMARK    1  A    between atoms: C4_4  and  C6_6 
REMARK    2  A    between atoms: C7_7  and  C9_9 
ROOT
HETATM    1  C1  UNL     1     -37.765  15.426  -4.140  1.00 20.00    -0.003 C 
HETATM    2  C2  UNL     1     -36.718  14.442  -4.046  1.00 20.00     0.011 C 
HETATM    3  C3  UNL     1     -37.589  16.683  -3.716  1.00 20.00    -0.021 C 
HETATM    4  C4  UNL     1     -35.477  14.785  -3.670  1.00 20.00    -0.012 C 
HETATM    5  C8  UNL     1     -36.296  17.167  -3.102  1.00 20.00     0.016 C 
HETATM    6  C9  UNL     1     -35.081  16.199  -3.303  1.00 20.00     0.051 C 
HETATM    7  C10 UNL     1     -35.955  18.567  -3.627  1.00 20.00     0.015 C 
ENDROOT
BRANCH   4   8
HETATM    8  C6  UNL     1     -34.471  13.716  -3.704  1.00 20.00     0.266 C 
HETATM    9  O11 UNL     1     -34.564  12.747  -4.447  1.00 20.00    -0.302 OA
ENDBRANCH   4   8
BRANCH   6  10
HETATM   10  C7  UNL     1     -34.216  16.246  -2.074  1.00 20.00    -0.027 C 
HETATM   11  C5  UNL     1     -34.662  16.578  -0.856  1.00 20.00     0.007 C 
ENDBRANCH   6  10
TORSDOF 2
ENDMDL
