MODEL 1
REMARK VINA RESULT:      -4.7      0.000      0.000
REMARK  2 active torsions:
REMARK  status: ('A' for Active; 'I' for Inactive)
REMARK    1  A    between atoms: C3_3  and  C4_4 
REMARK    2  A    between atoms: C3_3  and  O10_10 
ROOT
HETATM    1  C1  UNL     1     -33.036   6.556   3.808  1.00 20.00    -0.065 A 
HETATM    2  C2  UNL     1     -32.016   7.303   3.445  1.00 20.00    -0.027 C 
HETATM    3  C4  UNL     1     -33.554   5.663   4.772  1.00 20.00     0.122 A 
HETATM    4  C5  UNL     1     -34.336   6.117   3.485  1.00 20.00     0.029 A 
HETATM    5  C6  UNL     1     -31.970   8.147   2.201  1.00 20.00     0.036 C 
HETATM    6  C7  UNL     1     -34.574   5.155   2.377  1.00 20.00     0.016 C 
ENDROOT
BRANCH   3   7
HETATM    7  C3  UNL     1     -33.905   6.256   6.062  1.00 20.00     0.267 C 
HETATM    8  O9  UNL     1     -33.336   7.223   6.550  1.00 20.00    -0.265 OA
BRANCH   7   9
HETATM    9  O10 UNL     1     -34.945   5.567   6.614  1.00 20.00    -0.326 OA
HETATM   10  C8  UNL     1     -35.107   4.223   6.149  1.00 20.00     0.213 C 
ENDBRANCH   7   9
ENDBRANCH   3   7
TORSDOF 2
ENDMDL
MODEL 2
REMARK VINA RESULT:      -4.5     11.577     12.538
REMARK  2 active torsions:
REMARK  status: ('A' for Active; 'I' for Inactive)
REMARK    1  A    between atoms: C3_3  and  C4_4 
REMARK    2  A    between atoms: C3_3  and  O10_10 
ROOT
HETATM    1  C1  UNL     1     -34.971  15.725  -2.844  1.00 20.00    -0.065 A 
HETATM    2  C2  UNL     1     -34.171  16.239  -1.935  1.00 20.00    -0.027 C 
HETATM    3  C4  UNL     1     -35.069  15.136  -4.125  1.00 20.00     0.122 A 
HETATM    4  C5  UNL     1     -36.300  15.402  -3.183  1.00 20.00     0.029 A 
HETATM    5  C6  UNL     1     -34.621  16.776  -0.603  1.00 20.00     0.036 C 
HETATM    6  C7  UNL     1     -37.289  16.457  -3.525  1.00 20.00     0.016 C 
ENDROOT
BRANCH   3   7
HETATM    7  C3  UNL     1     -34.542  13.777  -4.240  1.00 20.00     0.267 C 
HETATM    8  O9  UNL     1     -33.877  13.223  -3.375  1.00 20.00    -0.265 OA
BRANCH   7   9
HETATM    9  O10 UNL     1     -34.909  13.246  -5.442  1.00 20.00    -0.326 OA
HETATM   10  C8  UNL     1     -35.095  14.191  -6.500  1.00 20.00     0.213 C 
ENDBRANCH   7   9
ENDBRANCH   3   7
TORSDOF 2
ENDMDL
MODEL 3
REMARK VINA RESULT:      -4.5      2.023      4.058
REMARK  2 active torsions:
REMARK  status: ('A' for Active; 'I' for Inactive)
REMARK    1  A    between atoms: C3_3  and  C4_4 
REMARK    2  A    between atoms: C3_3  and  O10_10 
ROOT
HETATM    1  C1  UNL     1     -34.227   5.950   4.730  1.00 20.00    -0.065 A 
HETATM    2  C2  UNL     1     -34.181   5.656   6.011  1.00 20.00    -0.027 C 
HETATM    3  C4  UNL     1     -33.755   6.796   3.701  1.00 20.00     0.122 A 
HETATM    4  C5  UNL     1     -34.786   5.629   3.476  1.00 20.00     0.029 A 
HETATM    5  C6  UNL     1     -34.958   4.545   6.664  1.00 20.00     0.036 C 
HETATM    6  C7  UNL     1     -36.206   5.937   3.161  1.00 20.00     0.016 C 
ENDROOT
BRANCH   3   7
HETATM    7  C3  UNL     1     -32.361   6.598   3.307  1.00 20.00     0.267 C 
HETATM    8  O9  UNL     1     -31.826   5.502   3.204  1.00 20.00    -0.265 OA
BRANCH   7   9
HETATM    9  O10 UNL     1     -31.775   7.809   3.080  1.00 20.00    -0.326 OA
HETATM   10  C8  UNL     1     -32.094   8.421   1.827  1.00 20.00     0.213 C 
ENDBRANCH   7   9
ENDBRANCH   3   7
TORSDOF 2
ENDMDL
MODEL 4
REMARK VINA RESULT:      -4.4     11.480     12.651
REMARK  2 active torsions:
REMARK  status: ('A' for Active; 'I' for Inactive)
REMARK    1  A    between atoms: C3_3  and  C4_4 
REMARK    2  A    between atoms: C3_3  and  O10_10 
ROOT
HETATM    1  C1  UNL     1     -34.082  16.864  -3.056  1.00 20.00    -0.065 A 
HETATM    2  C2  UNL     1     -34.031  17.829  -3.947  1.00 20.00    -0.027 C 
HETATM    3  C4  UNL     1     -34.381  15.505  -2.811  1.00 20.00     0.122 A 
HETATM    4  C5  UNL     1     -33.875  16.505  -1.708  1.00 20.00     0.029 A 
HETATM    5  C6  UNL     1     -33.598  19.240  -3.660  1.00 20.00     0.036 C 
HETATM    6  C7  UNL     1     -34.798  16.964  -0.636  1.00 20.00     0.016 C 
ENDROOT
BRANCH   3   7
HETATM    7  C3  UNL     1     -33.441  14.537  -3.377  1.00 20.00     0.267 C 
HETATM    8  O9  UNL     1     -32.274  14.789  -3.643  1.00 20.00    -0.265 OA
BRANCH   7   9
HETATM    9  O10 UNL     1     -34.070  13.339  -3.552  1.00 20.00    -0.326 OA
HETATM   10  C8  UNL     1     -35.294  13.390  -4.291  1.00 20.00     0.213 C 
ENDBRANCH   7   9
ENDBRANCH   3   7
TORSDOF 2
ENDMDL
MODEL 5
REMARK VINA RESULT:      -4.3     11.855     12.528
REMARK  2 active torsions:
REMARK  status: ('A' for Active; 'I' for Inactive)
REMARK    1  A    between atoms: C3_3  and  C4_4 
REMARK    2  A    between atoms: C3_3  and  O10_10 
ROOT
HETATM    1  C1  UNL     1     -34.595  15.518  -2.692  1.00 20.00    -0.065 A 
HETATM    2  C2  UNL     1     -34.771  16.237  -1.605  1.00 20.00    -0.027 C 
HETATM    3  C4  UNL     1     -35.100  14.483  -3.510  1.00 20.00     0.122 A 
HETATM    4  C5  UNL     1     -33.772  15.269  -3.808  1.00 20.00     0.029 A 
HETATM    5  C6  UNL     1     -33.843  17.325  -1.137  1.00 20.00     0.036 C 
HETATM    6  C7  UNL     1     -32.455  14.595  -3.663  1.00 20.00     0.016 C 
ENDROOT
BRANCH   3   7
HETATM    7  C3  UNL     1     -36.305  14.808  -4.272  1.00 20.00     0.267 C 
HETATM    8  O9  UNL     1     -36.321  15.544  -5.249  1.00 20.00    -0.265 OA
BRANCH   7   9
HETATM    9  O10 UNL     1     -37.378  14.169  -3.724  1.00 20.00    -0.326 OA
HETATM   10  C8  UNL     1     -38.655  14.740  -4.026  1.00 20.00     0.213 C 
ENDBRANCH   7   9
ENDBRANCH   3   7
TORSDOF 2
ENDMDL
MODEL 6
REMARK VINA RESULT:      -4.2     11.581     13.239
REMARK  2 active torsions:
REMARK  status: ('A' for Active; 'I' for Inactive)
REMARK    1  A    between atoms: C3_3  and  C4_4 
REMARK    2  A    between atoms: C3_3  and  O10_10 
ROOT
HETATM    1  C1  UNL     1     -35.854  14.985  -5.473  1.00 20.00    -0.065 A 
HETATM    2  C2  UNL     1     -37.127  15.179  -5.202  1.00 20.00    -0.027 C 
HETATM    3  C4  UNL     1     -34.562  14.763  -4.947  1.00 20.00     0.122 A 
HETATM    4  C5  UNL     1     -34.879  14.869  -6.484  1.00 20.00     0.029 A 
HETATM    5  C6  UNL     1     -38.201  15.383  -6.235  1.00 20.00     0.036 C 
HETATM    6  C7  UNL     1     -34.425  16.053  -7.261  1.00 20.00     0.016 C 
ENDROOT
BRANCH   3   7
HETATM    7  C3  UNL     1     -34.336  13.443  -4.358  1.00 20.00     0.267 C 
HETATM    8  O9  UNL     1     -35.132  12.516  -4.425  1.00 20.00    -0.265 OA
BRANCH   7   9
HETATM    9  O10 UNL     1     -33.121  13.423  -3.738  1.00 20.00    -0.326 OA
HETATM   10  C8  UNL     1     -32.474  14.693  -3.612  1.00 20.00     0.213 C 
ENDBRANCH   7   9
ENDBRANCH   3   7
TORSDOF 2
ENDMDL
MODEL 7
REMARK VINA RESULT:      -4.2     11.826     12.595
REMARK  2 active torsions:
REMARK  status: ('A' for Active; 'I' for Inactive)
REMARK    1  A    between atoms: C3_3  and  C4_4 
REMARK    2  A    between atoms: C3_3  and  O10_10 
ROOT
HETATM    1  C1  UNL     1     -34.714  16.086  -2.534  1.00 20.00    -0.065 A 
HETATM    2  C2  UNL     1     -34.660  16.293  -1.236  1.00 20.00    -0.027 C 
HETATM    3  C4  UNL     1     -34.745  15.125  -3.570  1.00 20.00     0.122 A 
HETATM    4  C5  UNL     1     -34.773  16.679  -3.811  1.00 20.00     0.029 A 
HETATM    5  C6  UNL     1     -34.652  17.649  -0.585  1.00 20.00     0.036 C 
HETATM    6  C7  UNL     1     -33.594  17.365  -4.400  1.00 20.00     0.016 C 
ENDROOT
BRANCH   3   7
HETATM    7  C3  UNL     1     -35.989  14.365  -3.691  1.00 20.00     0.267 C 
HETATM    8  O9  UNL     1     -37.082  14.774  -3.325  1.00 20.00    -0.265 OA
BRANCH   7   9
HETATM    9  O10 UNL     1     -35.729  13.155  -4.266  1.00 20.00    -0.326 OA
HETATM   10  C8  UNL     1     -34.566  13.107  -5.099  1.00 20.00     0.213 C 
ENDBRANCH   7   9
ENDBRANCH   3   7
TORSDOF 2
ENDMDL
MODEL 8
REMARK VINA RESULT:      -4.2     11.797     12.677
REMARK  2 active torsions:
REMARK  status: ('A' for Active; 'I' for Inactive)
REMARK    1  A    between atoms: C3_3  and  C4_4 
REMARK    2  A    between atoms: C3_3  and  O10_10 
ROOT
HETATM    1  C1  UNL     1     -34.512  15.534  -2.568  1.00 20.00    -0.065 A 
HETATM    2  C2  UNL     1     -34.691  16.247  -1.477  1.00 20.00    -0.027 C 
HETATM    3  C4  UNL     1     -34.945  14.427  -3.332  1.00 20.00     0.122 A 
HETATM    4  C5  UNL     1     -33.756  15.369  -3.745  1.00 20.00     0.029 A 
HETATM    5  C6  UNL     1     -33.875  17.452  -1.097  1.00 20.00     0.036 C 
HETATM    6  C7  UNL     1     -32.356  14.870  -3.702  1.00 20.00     0.016 C 
ENDROOT
BRANCH   3   7
HETATM    7  C3  UNL     1     -36.238  14.581  -3.996  1.00 20.00     0.267 C 
HETATM    8  O9  UNL     1     -37.296  14.755  -3.406  1.00 20.00    -0.265 OA
BRANCH   7   9
HETATM    9  O10 UNL     1     -36.070  14.501  -5.347  1.00 20.00    -0.326 OA
HETATM   10  C8  UNL     1     -36.714  15.526  -6.110  1.00 20.00     0.213 C 
ENDBRANCH   7   9
ENDBRANCH   3   7
TORSDOF 2
ENDMDL
MODEL 9
REMARK VINA RESULT:      -4.1     11.392     12.688
REMARK  2 active torsions:
REMARK  status: ('A' for Active; 'I' for Inactive)
REMARK    1  A    between atoms: C3_3  and  C4_4 
REMARK    2  A    between atoms: C3_3  and  O10_10 
ROOT
HETATM    1  C1  UNL     1     -33.923  15.762  -4.327  1.00 20.00    -0.065 A 
HETATM    2  C2  UNL     1     -33.538  16.362  -5.433  1.00 20.00    -0.027 C 
HETATM    3  C4  UNL     1     -33.681  15.572  -2.948  1.00 20.00     0.122 A 
HETATM    4  C5  UNL     1     -34.850  14.878  -3.740  1.00 20.00     0.029 A 
HETATM    5  C6  UNL     1     -34.210  16.209  -6.770  1.00 20.00     0.036 C 
HETATM    6  C7  UNL     1     -34.804  13.417  -4.011  1.00 20.00     0.016 C 
ENDROOT
BRANCH   3   7
HETATM    7  C3  UNL     1     -33.987  16.715  -2.088  1.00 20.00     0.267 C 
HETATM    8  O9  UNL     1     -33.705  17.874  -2.360  1.00 20.00    -0.265 OA
BRANCH   7   9
HETATM    9  O10 UNL     1     -34.621  16.280  -0.961  1.00 20.00    -0.326 OA
HETATM   10  C8  UNL     1     -34.813  17.267   0.057  1.00 20.00     0.213 C 
ENDBRANCH   7   9
ENDBRANCH   3   7
TORSDOF 2
ENDMDL
