MODEL 1
REMARK VINA RESULT:      -4.5      0.000      0.000
REMARK  1 active torsions:
REMARK  status: ('A' for Active; 'I' for Inactive)
REMARK    1  A    between atoms: C6_6  and  C9_9 
ROOT
HETATM    1  C1  UNL     1     -34.455  15.093  -6.236  1.00 20.00     0.119 C 
HETATM    2  C2  UNL     1     -33.295  15.892  -4.232  1.00 20.00     0.043 A 
HETATM    3  C3  UNL     1     -33.374  16.248  -2.890  1.00 20.00     0.012 A 
HETATM    4  C4  UNL     1     -35.699  15.750  -2.949  1.00 20.00     0.125 A 
HETATM    5  C5  UNL     1     -34.456  15.476  -4.862  1.00 20.00     0.136 A 
HETATM    6  C6  UNL     1     -34.595  16.178  -2.229  1.00 20.00    -0.036 A 
HETATM    7  N10 UNL     1     -34.454  14.783  -7.354  1.00 20.00    -0.190 NA
HETATM    8  N11 UNL     1     -35.661  15.396  -4.254  1.00 20.00    -0.249 NA
ENDROOT
BRANCH   6   9
HETATM    9  C9  UNL     1     -34.713  16.553  -0.796  1.00 20.00     0.020 A 
HETATM   10  C7  UNL     1     -35.366  17.863  -0.429  1.00 20.00     0.010 A 
HETATM   11  C8  UNL     1     -33.887  17.698  -0.262  1.00 20.00     0.010 A 
ENDBRANCH   6   9
TORSDOF 1
ENDMDL
MODEL 2
REMARK VINA RESULT:      -4.5      1.765      4.891
REMARK  1 active torsions:
REMARK  status: ('A' for Active; 'I' for Inactive)
REMARK    1  A    between atoms: C6_6  and  C9_9 
ROOT
HETATM    1  C1  UNL     1     -34.729  16.595  -0.987  1.00 20.00     0.119 C 
HETATM    2  C2  UNL     1     -33.467  15.756  -2.911  1.00 20.00     0.043 A 
HETATM    3  C3  UNL     1     -33.497  15.171  -4.172  1.00 20.00     0.012 A 
HETATM    4  C4  UNL     1     -35.871  15.132  -4.041  1.00 20.00     0.125 A 
HETATM    5  C5  UNL     1     -34.677  15.998  -2.280  1.00 20.00     0.136 A 
HETATM    6  C6  UNL     1     -34.718  14.850  -4.755  1.00 20.00    -0.036 A 
HETATM    7  N10 UNL     1     -34.770  17.082   0.067  1.00 20.00    -0.190 NA
HETATM    8  N11 UNL     1     -35.883  15.700  -2.814  1.00 20.00    -0.249 NA
ENDROOT
BRANCH   6   9
HETATM    9  C9  UNL     1     -34.782  14.223  -6.101  1.00 20.00     0.020 A 
HETATM   10  C7  UNL     1     -34.453  15.054  -7.317  1.00 20.00     0.010 A 
HETATM   11  C8  UNL     1     -35.870  14.641  -7.059  1.00 20.00     0.010 A 
ENDBRANCH   6   9
TORSDOF 1
ENDMDL
MODEL 3
REMARK VINA RESULT:      -4.5      0.859      1.413
REMARK  1 active torsions:
REMARK  status: ('A' for Active; 'I' for Inactive)
REMARK    1  A    between atoms: C6_6  and  C9_9 
ROOT
HETATM    1  C1  UNL     1     -34.470  15.164  -6.406  1.00 20.00     0.119 C 
HETATM    2  C2  UNL     1     -35.485  14.870  -4.196  1.00 20.00     0.043 A 
HETATM    3  C3  UNL     1     -35.496  15.221  -2.851  1.00 20.00     0.012 A 
HETATM    4  C4  UNL     1     -33.676  16.693  -3.274  1.00 20.00     0.125 A 
HETATM    5  C5  UNL     1     -34.543  15.472  -5.016  1.00 20.00     0.136 A 
HETATM    6  C6  UNL     1     -34.578  16.149  -2.373  1.00 20.00    -0.036 A 
HETATM    7  N10 UNL     1     -34.410  14.914  -7.538  1.00 20.00    -0.190 NA
HETATM    8  N11 UNL     1     -33.635  16.377  -4.588  1.00 20.00    -0.249 NA
ENDROOT
BRANCH   6   9
HETATM    9  C9  UNL     1     -34.563  16.544  -0.940  1.00 20.00     0.020 A 
HETATM   10  C7  UNL     1     -35.238  17.827  -0.523  1.00 20.00     0.010 A 
HETATM   11  C8  UNL     1     -33.743  17.735  -0.510  1.00 20.00     0.010 A 
ENDBRANCH   6   9
TORSDOF 1
ENDMDL
MODEL 4
REMARK VINA RESULT:      -4.5     13.442     14.247
REMARK  1 active torsions:
REMARK  status: ('A' for Active; 'I' for Inactive)
REMARK    1  A    between atoms: C6_6  and  C9_9 
ROOT
HETATM    1  C1  UNL     1     -42.817   2.017  -4.801  1.00 20.00     0.119 C 
HETATM    2  C2  UNL     1     -41.547   2.801  -2.859  1.00 20.00     0.043 A 
HETATM    3  C3  UNL     1     -41.374   3.777  -1.883  1.00 20.00     0.012 A 
HETATM    4  C4  UNL     1     -43.217   4.958  -2.810  1.00 20.00     0.125 A 
HETATM    5  C5  UNL     1     -42.575   2.973  -3.772  1.00 20.00     0.136 A 
HETATM    6  C6  UNL     1     -42.220   4.879  -1.851  1.00 20.00    -0.036 A 
HETATM    7  N10 UNL     1     -43.013   1.238  -5.639  1.00 20.00    -0.190 NA
HETATM    8  N11 UNL     1     -43.417   4.031  -3.773  1.00 20.00    -0.249 NA
ENDROOT
BRANCH   6   9
HETATM    9  C9  UNL     1     -42.059   5.939  -0.822  1.00 20.00     0.020 A 
HETATM   10  C7  UNL     1     -41.227   7.156  -1.142  1.00 20.00     0.010 A 
HETATM   11  C8  UNL     1     -40.713   6.138  -0.172  1.00 20.00     0.010 A 
ENDBRANCH   6   9
TORSDOF 1
ENDMDL
MODEL 5
REMARK VINA RESULT:      -4.4      1.818      5.143
REMARK  1 active torsions:
REMARK  status: ('A' for Active; 'I' for Inactive)
REMARK    1  A    between atoms: C6_6  and  C9_9 
ROOT
HETATM    1  C1  UNL     1     -34.646  16.420  -1.409  1.00 20.00     0.119 C 
HETATM    2  C2  UNL     1     -35.619  15.307  -3.362  1.00 20.00     0.043 A 
HETATM    3  C3  UNL     1     -35.505  14.986  -4.710  1.00 20.00     0.012 A 
HETATM    4  C4  UNL     1     -33.434  16.152  -4.761  1.00 20.00     0.125 A 
HETATM    5  C5  UNL     1     -34.602  16.052  -2.785  1.00 20.00     0.136 A 
HETATM    6  C6  UNL     1     -34.395  15.412  -5.430  1.00 20.00    -0.036 A 
HETATM    7  N10 UNL     1     -34.682  16.720  -0.288  1.00 20.00    -0.190 NA
HETATM    8  N11 UNL     1     -33.509  16.485  -3.452  1.00 20.00    -0.249 NA
ENDROOT
BRANCH   6   9
HETATM    9  C9  UNL     1     -34.246  15.086  -6.872  1.00 20.00     0.020 A 
HETATM   10  C7  UNL     1     -34.955  15.936  -7.897  1.00 20.00     0.010 A 
HETATM   11  C8  UNL     1     -35.429  14.541  -7.632  1.00 20.00     0.010 A 
ENDBRANCH   6   9
TORSDOF 1
ENDMDL
MODEL 6
REMARK VINA RESULT:      -4.3      1.436      2.069
REMARK  1 active torsions:
REMARK  status: ('A' for Active; 'I' for Inactive)
REMARK    1  A    between atoms: C6_6  and  C9_9 
ROOT
HETATM    1  C1  UNL     1     -34.390  15.098  -5.002  1.00 20.00     0.119 C 
HETATM    2  C2  UNL     1     -34.569  15.533  -2.598  1.00 20.00     0.043 A 
HETATM    3  C3  UNL     1     -34.424  16.439  -1.553  1.00 20.00     0.012 A 
HETATM    4  C4  UNL     1     -33.711  18.068  -3.132  1.00 20.00     0.125 A 
HETATM    5  C5  UNL     1     -34.266  15.967  -3.878  1.00 20.00     0.136 A 
HETATM    6  C6  UNL     1     -33.988  17.733  -1.817  1.00 20.00    -0.036 A 
HETATM    7  N10 UNL     1     -34.491  14.389  -5.916  1.00 20.00    -0.190 NA
HETATM    8  N11 UNL     1     -33.839  17.216  -4.174  1.00 20.00    -0.249 NA
ENDROOT
BRANCH   6   9
HETATM    9  C9  UNL     1     -33.823  18.723  -0.721  1.00 20.00     0.020 A 
HETATM   10  C7  UNL     1     -32.535  18.744   0.064  1.00 20.00     0.010 A 
HETATM   11  C8  UNL     1     -33.790  18.244   0.709  1.00 20.00     0.010 A 
ENDBRANCH   6   9
TORSDOF 1
ENDMDL
MODEL 7
REMARK VINA RESULT:      -4.3      1.521      1.665
REMARK  1 active torsions:
REMARK  status: ('A' for Active; 'I' for Inactive)
REMARK    1  A    between atoms: C6_6  and  C9_9 
ROOT
HETATM    1  C1  UNL     1     -34.690  13.498  -4.420  1.00 20.00     0.119 C 
HETATM    2  C2  UNL     1     -33.430  15.231  -3.233  1.00 20.00     0.043 A 
HETATM    3  C3  UNL     1     -33.460  16.346  -2.403  1.00 20.00     0.012 A 
HETATM    4  C4  UNL     1     -35.831  16.176  -2.345  1.00 20.00     0.125 A 
HETATM    5  C5  UNL     1     -34.639  14.644  -3.574  1.00 20.00     0.136 A 
HETATM    6  C6  UNL     1     -34.679  16.833  -1.946  1.00 20.00    -0.036 A 
HETATM    7  N10 UNL     1     -34.732  12.565  -5.109  1.00 20.00    -0.190 NA
HETATM    8  N11 UNL     1     -35.843  15.089  -3.150  1.00 20.00    -0.249 NA
ENDROOT
BRANCH   6   9
HETATM    9  C9  UNL     1     -34.743  18.024  -1.058  1.00 20.00     0.020 A 
HETATM   10  C7  UNL     1     -34.639  17.835   0.435  1.00 20.00     0.010 A 
HETATM   11  C8  UNL     1     -35.950  18.223  -0.175  1.00 20.00     0.010 A 
ENDBRANCH   6   9
TORSDOF 1
ENDMDL
MODEL 8
REMARK VINA RESULT:      -4.3      4.981      7.507
REMARK  1 active torsions:
REMARK  status: ('A' for Active; 'I' for Inactive)
REMARK    1  A    between atoms: C6_6  and  C9_9 
ROOT
HETATM    1  C1  UNL     1     -31.981  18.971   4.646  1.00 20.00     0.119 C 
HETATM    2  C2  UNL     1     -31.806  18.931   2.203  1.00 20.00     0.043 A 
HETATM    3  C3  UNL     1     -32.433  18.706   0.983  1.00 20.00     0.012 A 
HETATM    4  C4  UNL     1     -34.428  18.177   2.164  1.00 20.00     0.125 A 
HETATM    5  C5  UNL     1     -32.553  18.759   3.358  1.00 20.00     0.136 A 
HETATM    6  C6  UNL     1     -33.769  18.322   0.954  1.00 20.00    -0.036 A 
HETATM    7  N10 UNL     1     -31.515  19.143   5.695  1.00 20.00    -0.190 NA
HETATM    8  N11 UNL     1     -33.853  18.386   3.370  1.00 20.00    -0.249 NA
ENDROOT
BRANCH   6   9
HETATM    9  C9  UNL     1     -34.467  18.073  -0.334  1.00 20.00     0.020 A 
HETATM   10  C7  UNL     1     -34.659  16.653  -0.806  1.00 20.00     0.010 A 
HETATM   11  C8  UNL     1     -33.682  17.544  -1.509  1.00 20.00     0.010 A 
ENDBRANCH   6   9
TORSDOF 1
ENDMDL
MODEL 9
REMARK VINA RESULT:      -4.1      2.321      4.774
REMARK  1 active torsions:
REMARK  status: ('A' for Active; 'I' for Inactive)
REMARK    1  A    between atoms: C6_6  and  C9_9 
ROOT
HETATM    1  C1  UNL     1     -36.068  18.467  -0.542  1.00 20.00     0.119 C 
HETATM    2  C2  UNL     1     -34.434  16.790  -1.263  1.00 20.00     0.043 A 
HETATM    3  C3  UNL     1     -34.055  15.853  -2.217  1.00 20.00     0.012 A 
HETATM    4  C4  UNL     1     -36.012  16.395  -3.454  1.00 20.00     0.125 A 
HETATM    5  C5  UNL     1     -35.612  17.489  -1.474  1.00 20.00     0.136 A 
HETATM    6  C6  UNL     1     -34.853  15.646  -3.336  1.00 20.00    -0.036 A 
HETATM    7  N10 UNL     1     -36.439  19.263   0.218  1.00 20.00    -0.190 NA
HETATM    8  N11 UNL     1     -36.414  17.315  -2.548  1.00 20.00    -0.249 NA
ENDROOT
BRANCH   6   9
HETATM    9  C9  UNL     1     -34.474  14.650  -4.373  1.00 20.00     0.020 A 
HETATM   10  C7  UNL     1     -35.061  13.262  -4.310  1.00 20.00     0.010 A 
HETATM   11  C8  UNL     1     -33.614  13.472  -3.986  1.00 20.00     0.010 A 
ENDBRANCH   6   9
TORSDOF 1
ENDMDL
