MODEL 1
REMARK VINA RESULT:      -5.1      0.000      0.000
REMARK  2 active torsions:
REMARK  status: ('A' for Active; 'I' for Inactive)
REMARK    1  A    between atoms: C3_3  and  C6_6 
REMARK    2  A    between atoms: C3_3  and  O10_10 
ROOT
HETATM    1  C1  UNL     1     -33.934   6.389   5.212  1.00 20.00    -0.010 C 
HETATM    2  C2  UNL     1     -34.591   5.247   5.446  1.00 20.00    -0.087 C 
HETATM    3  C4  UNL     1     -35.075   4.617   4.179  1.00 20.00     0.034 C 
HETATM    4  C5  UNL     1     -34.867   5.722   3.139  1.00 20.00     0.023 C 
HETATM    5  C6  UNL     1     -33.873   6.708   3.755  1.00 20.00     0.108 C 
HETATM    6  C7  UNL     1     -34.827   4.606   6.765  1.00 20.00     0.043 C 
ENDROOT
BRANCH   5   7
HETATM    7  C3  UNL     1     -32.473   6.469   3.286  1.00 20.00     0.266 C 
HETATM    8  O9  UNL     1     -32.006   5.361   3.058  1.00 20.00    -0.265 OA
BRANCH   7   9
HETATM    9  O10 UNL     1     -31.825   7.662   3.160  1.00 20.00    -0.326 OA
HETATM   10  C8  UNL     1     -32.059   8.363   1.934  1.00 20.00     0.213 C 
ENDBRANCH   7   9
ENDBRANCH   5   7
TORSDOF 2
ENDMDL
MODEL 2
REMARK VINA RESULT:      -4.3     11.256     12.487
REMARK  2 active torsions:
REMARK  status: ('A' for Active; 'I' for Inactive)
REMARK    1  A    between atoms: C3_3  and  C6_6 
REMARK    2  A    between atoms: C3_3  and  O10_10 
ROOT
HETATM    1  C1  UNL     1     -34.030  15.553  -5.089  1.00 20.00    -0.010 C 
HETATM    2  C2  UNL     1     -34.540  14.508  -5.750  1.00 20.00    -0.087 C 
HETATM    3  C4  UNL     1     -34.506  13.261  -4.926  1.00 20.00     0.034 C 
HETATM    4  C5  UNL     1     -33.607  13.647  -3.747  1.00 20.00     0.023 C 
HETATM    5  C6  UNL     1     -33.570  15.176  -3.720  1.00 20.00     0.108 C 
HETATM    6  C7  UNL     1     -35.114  14.511  -7.120  1.00 20.00     0.043 C 
ENDROOT
BRANCH   5   7
HETATM    7  C3  UNL     1     -34.537  15.748  -2.732  1.00 20.00     0.266 C 
HETATM    8  O9  UNL     1     -35.748  15.582  -2.783  1.00 20.00    -0.265 OA
BRANCH   7   9
HETATM    9  O10 UNL     1     -33.858  16.468  -1.794  1.00 20.00    -0.326 OA
HETATM   10  C8  UNL     1     -34.602  16.805  -0.619  1.00 20.00     0.213 C 
ENDBRANCH   7   9
ENDBRANCH   5   7
TORSDOF 2
ENDMDL
MODEL 3
REMARK VINA RESULT:      -4.3     11.210     12.430
REMARK  2 active torsions:
REMARK  status: ('A' for Active; 'I' for Inactive)
REMARK    1  A    between atoms: C3_3  and  C6_6 
REMARK    2  A    between atoms: C3_3  and  O10_10 
ROOT
HETATM    1  C1  UNL     1     -33.880  14.742  -2.788  1.00 20.00    -0.010 C 
HETATM    2  C2  UNL     1     -34.238  16.010  -2.555  1.00 20.00    -0.087 C 
HETATM    3  C4  UNL     1     -34.014  16.878  -3.751  1.00 20.00     0.034 C 
HETATM    4  C5  UNL     1     -33.169  15.991  -4.672  1.00 20.00     0.023 C 
HETATM    5  C6  UNL     1     -33.356  14.557  -4.173  1.00 20.00     0.108 C 
HETATM    6  C7  UNL     1     -34.821  16.558  -1.303  1.00 20.00     0.043 C 
ENDROOT
BRANCH   5   7
HETATM    7  C3  UNL     1     -34.386  13.814  -4.963  1.00 20.00     0.266 C 
HETATM    8  O9  UNL     1     -34.974  12.819  -4.560  1.00 20.00    -0.265 OA
BRANCH   7   9
HETATM    9  O10 UNL     1     -34.552  14.416  -6.176  1.00 20.00    -0.326 OA
HETATM   10  C8  UNL     1     -35.909  14.662  -6.560  1.00 20.00     0.213 C 
ENDBRANCH   7   9
ENDBRANCH   5   7
TORSDOF 2
ENDMDL
MODEL 4
REMARK VINA RESULT:      -4.3     11.794     12.577
REMARK  2 active torsions:
REMARK  status: ('A' for Active; 'I' for Inactive)
REMARK    1  A    between atoms: C3_3  and  C6_6 
REMARK    2  A    between atoms: C3_3  and  O10_10 
ROOT
HETATM    1  C1  UNL     1     -35.497  15.092  -3.119  1.00 20.00    -0.010 C 
HETATM    2  C2  UNL     1     -34.303  15.577  -2.761  1.00 20.00    -0.087 C 
HETATM    3  C4  UNL     1     -33.189  14.907  -3.502  1.00 20.00     0.034 C 
HETATM    4  C5  UNL     1     -33.881  13.709  -4.162  1.00 20.00     0.023 C 
HETATM    5  C6  UNL     1     -35.379  14.021  -4.151  1.00 20.00     0.108 C 
HETATM    6  C7  UNL     1     -34.034  16.661  -1.783  1.00 20.00     0.043 C 
ENDROOT
BRANCH   5   7
HETATM    7  C3  UNL     1     -35.849  14.581  -5.456  1.00 20.00     0.266 C 
HETATM    8  O9  UNL     1     -36.726  15.427  -5.563  1.00 20.00    -0.265 OA
BRANCH   7   9
HETATM    9  O10 UNL     1     -35.154  14.002  -6.477  1.00 20.00    -0.326 OA
HETATM   10  C8  UNL     1     -34.848  14.863  -7.578  1.00 20.00     0.213 C 
ENDBRANCH   7   9
ENDBRANCH   5   7
TORSDOF 2
ENDMDL
MODEL 5
REMARK VINA RESULT:      -4.1     11.580     12.517
REMARK  2 active torsions:
REMARK  status: ('A' for Active; 'I' for Inactive)
REMARK    1  A    between atoms: C3_3  and  C6_6 
REMARK    2  A    between atoms: C3_3  and  O10_10 
ROOT
HETATM    1  C1  UNL     1     -35.015  15.154  -2.465  1.00 20.00    -0.010 C 
HETATM    2  C2  UNL     1     -34.098  16.122  -2.578  1.00 20.00    -0.087 C 
HETATM    3  C4  UNL     1     -33.362  16.038  -3.878  1.00 20.00     0.034 C 
HETATM    4  C5  UNL     1     -33.773  14.667  -4.423  1.00 20.00     0.023 C 
HETATM    5  C6  UNL     1     -35.040  14.267  -3.665  1.00 20.00     0.108 C 
HETATM    6  C7  UNL     1     -33.807  17.197  -1.596  1.00 20.00     0.043 C 
ENDROOT
BRANCH   5   7
HETATM    7  C3  UNL     1     -36.283  14.571  -4.441  1.00 20.00     0.266 C 
HETATM    8  O9  UNL     1     -36.293  15.135  -5.527  1.00 20.00    -0.265 OA
BRANCH   7   9
HETATM    9  O10 UNL     1     -37.371  14.127  -3.749  1.00 20.00    -0.326 OA
HETATM   10  C8  UNL     1     -38.575  14.875  -3.950  1.00 20.00     0.213 C 
ENDBRANCH   7   9
ENDBRANCH   5   7
TORSDOF 2
ENDMDL
MODEL 6
REMARK VINA RESULT:      -4.1     11.452     12.567
REMARK  2 active torsions:
REMARK  status: ('A' for Active; 'I' for Inactive)
REMARK    1  A    between atoms: C3_3  and  C6_6 
REMARK    2  A    between atoms: C3_3  and  O10_10 
ROOT
HETATM    1  C1  UNL     1     -34.588  13.784  -5.348  1.00 20.00    -0.010 C 
HETATM    2  C2  UNL     1     -35.438  14.413  -6.167  1.00 20.00    -0.087 C 
HETATM    3  C4  UNL     1     -36.538  15.087  -5.411  1.00 20.00     0.034 C 
HETATM    4  C5  UNL     1     -36.393  14.512  -3.998  1.00 20.00     0.023 C 
HETATM    5  C6  UNL     1     -34.981  13.930  -3.916  1.00 20.00     0.108 C 
HETATM    6  C7  UNL     1     -35.352  14.503  -7.647  1.00 20.00     0.043 C 
ENDROOT
BRANCH   5   7
HETATM    7  C3  UNL     1     -34.018  14.873  -3.265  1.00 20.00     0.266 C 
HETATM    8  O9  UNL     1     -32.841  14.979  -3.582  1.00 20.00    -0.265 OA
BRANCH   7   9
HETATM    9  O10 UNL     1     -34.659  15.574  -2.287  1.00 20.00    -0.326 OA
HETATM   10  C8  UNL     1     -33.955  16.715  -1.786  1.00 20.00     0.213 C 
ENDBRANCH   7   9
ENDBRANCH   5   7
TORSDOF 2
ENDMDL
MODEL 7
REMARK VINA RESULT:      -4.1     11.360     12.615
REMARK  2 active torsions:
REMARK  status: ('A' for Active; 'I' for Inactive)
REMARK    1  A    between atoms: C3_3  and  C6_6 
REMARK    2  A    between atoms: C3_3  and  O10_10 
ROOT
HETATM    1  C1  UNL     1     -35.076  15.397  -2.917  1.00 20.00    -0.010 C 
HETATM    2  C2  UNL     1     -34.893  16.669  -3.289  1.00 20.00    -0.087 C 
HETATM    3  C4  UNL     1     -33.655  16.833  -4.110  1.00 20.00     0.034 C 
HETATM    4  C5  UNL     1     -32.936  15.493  -3.929  1.00 20.00     0.023 C 
HETATM    5  C6  UNL     1     -33.991  14.506  -3.424  1.00 20.00     0.108 C 
HETATM    6  C7  UNL     1     -35.778  17.823  -2.990  1.00 20.00     0.043 C 
ENDROOT
BRANCH   5   7
HETATM    7  C3  UNL     1     -34.556  13.670  -4.528  1.00 20.00     0.266 C 
HETATM    8  O9  UNL     1     -35.191  12.638  -4.351  1.00 20.00    -0.265 OA
BRANCH   7   9
HETATM    9  O10 UNL     1     -34.251  14.236  -5.731  1.00 20.00    -0.326 OA
HETATM   10  C8  UNL     1     -35.341  14.351  -6.651  1.00 20.00     0.213 C 
ENDBRANCH   7   9
ENDBRANCH   5   7
TORSDOF 2
ENDMDL
MODEL 8
REMARK VINA RESULT:      -4.0     11.376     12.897
REMARK  2 active torsions:
REMARK  status: ('A' for Active; 'I' for Inactive)
REMARK    1  A    between atoms: C3_3  and  C6_6 
REMARK    2  A    between atoms: C3_3  and  O10_10 
ROOT
HETATM    1  C1  UNL     1     -35.925  15.218  -4.921  1.00 20.00    -0.010 C 
HETATM    2  C2  UNL     1     -36.698  15.178  -6.011  1.00 20.00    -0.087 C 
HETATM    3  C4  UNL     1     -35.935  14.722  -7.214  1.00 20.00     0.034 C 
HETATM    4  C5  UNL     1     -34.478  14.778  -6.744  1.00 20.00     0.023 C 
HETATM    5  C6  UNL     1     -34.522  14.801  -5.215  1.00 20.00     0.108 C 
HETATM    6  C7  UNL     1     -38.146  15.500  -6.094  1.00 20.00     0.043 C 
ENDROOT
BRANCH   5   7
HETATM    7  C3  UNL     1     -34.308  13.445  -4.622  1.00 20.00     0.266 C 
HETATM    8  O9  UNL     1     -34.818  12.419  -5.053  1.00 20.00    -0.265 OA
BRANCH   7   9
HETATM    9  O10 UNL     1     -33.471  13.544  -3.550  1.00 20.00    -0.326 OA
HETATM   10  C8  UNL     1     -32.525  14.616  -3.605  1.00 20.00     0.213 C 
ENDBRANCH   7   9
ENDBRANCH   5   7
TORSDOF 2
ENDMDL
MODEL 9
REMARK VINA RESULT:      -3.9     11.127     12.414
REMARK  2 active torsions:
REMARK  status: ('A' for Active; 'I' for Inactive)
REMARK    1  A    between atoms: C3_3  and  C6_6 
REMARK    2  A    between atoms: C3_3  and  O10_10 
ROOT
HETATM    1  C1  UNL     1     -35.009  15.611  -2.427  1.00 20.00    -0.010 C 
HETATM    2  C2  UNL     1     -34.184  15.020  -3.299  1.00 20.00    -0.087 C 
HETATM    3  C4  UNL     1     -33.225  15.996  -3.903  1.00 20.00     0.034 C 
HETATM    4  C5  UNL     1     -33.797  17.353  -3.480  1.00 20.00     0.023 C 
HETATM    5  C6  UNL     1     -34.739  17.074  -2.308  1.00 20.00     0.108 C 
HETATM    6  C7  UNL     1     -34.143  13.579  -3.655  1.00 20.00     0.043 C 
ENDROOT
BRANCH   5   7
HETATM    7  C3  UNL     1     -34.084  17.318  -0.985  1.00 20.00     0.266 C 
HETATM    8  O9  UNL     1     -33.041  17.941  -0.841  1.00 20.00    -0.265 OA
BRANCH   7   9
HETATM    9  O10 UNL     1     -34.826  16.743   0.004  1.00 20.00    -0.326 OA
HETATM   10  C8  UNL     1     -35.253  17.627   1.046  1.00 20.00     0.213 C 
ENDBRANCH   7   9
ENDBRANCH   5   7
TORSDOF 2
ENDMDL
