MODEL 1
REMARK VINA RESULT:      -4.8      0.000      0.000
REMARK  0 active torsions:
REMARK  status: ('A' for Active; 'I' for Inactive)
ROOT
HETATM    1  C1  UNL     1     -35.319  14.481  -7.106  1.00 20.00     0.027 C 
HETATM    2  C2  UNL     1     -35.221  15.836  -7.590  1.00 20.00     0.027 C 
HETATM    3  C3  UNL     1     -34.593  14.393  -5.927  1.00 20.00     0.012 C 
HETATM    4  C4  UNL     1     -34.439  16.507  -6.688  1.00 20.00     0.012 C 
HETATM    5  C5  UNL     1     -34.463  13.385  -4.838  1.00 20.00     0.057 C 
HETATM    6  C6  UNL     1     -33.968  17.852  -6.293  1.00 20.00     0.059 C 
HETATM    7  C7  UNL     1     -33.486  13.840  -3.726  1.00 20.00     0.008 C 
HETATM    8  C8  UNL     1     -33.583  17.614  -4.793  1.00 20.00     0.032 C 
HETATM    9  C9  UNL     1     -33.541  15.358  -3.439  1.00 20.00     0.026 C 
HETATM   10  C10 UNL     1     -33.191  16.125  -4.712  1.00 20.00     0.090 C 
HETATM   11  N11 UNL     1     -33.974  15.585  -5.812  1.00 20.00    -0.349 N 
ENDROOT
TORSDOF 0
ENDMDL
MODEL 2
REMARK VINA RESULT:      -4.8      0.944      3.013
REMARK  0 active torsions:
REMARK  status: ('A' for Active; 'I' for Inactive)
ROOT
HETATM    1  C1  UNL     1     -34.168  16.399  -6.853  1.00 20.00     0.027 C 
HETATM    2  C2  UNL     1     -34.460  14.995  -7.010  1.00 20.00     0.027 C 
HETATM    3  C3  UNL     1     -34.146  16.685  -5.496  1.00 20.00     0.012 C 
HETATM    4  C4  UNL     1     -34.605  14.493  -5.743  1.00 20.00     0.012 C 
HETATM    5  C5  UNL     1     -33.706  17.840  -4.665  1.00 20.00     0.057 C 
HETATM    6  C6  UNL     1     -34.736  13.239  -4.970  1.00 20.00     0.059 C 
HETATM    7  C7  UNL     1     -33.911  17.590  -3.151  1.00 20.00     0.008 C 
HETATM    8  C8  UNL     1     -34.260  13.702  -3.552  1.00 20.00     0.032 C 
HETATM    9  C9  UNL     1     -33.651  16.126  -2.726  1.00 20.00     0.026 C 
HETATM   10  C10 UNL     1     -34.603  15.205  -3.485  1.00 20.00     0.090 C 
HETATM   11  N11 UNL     1     -34.559  15.549  -4.897  1.00 20.00    -0.349 N 
ENDROOT
TORSDOF 0
ENDMDL
MODEL 3
REMARK VINA RESULT:      -4.8      1.001      3.099
REMARK  0 active torsions:
REMARK  status: ('A' for Active; 'I' for Inactive)
ROOT
HETATM    1  C1  UNL     1     -34.470  13.400  -4.964  1.00 20.00     0.027 C 
HETATM    2  C2  UNL     1     -34.369  13.638  -3.546  1.00 20.00     0.027 C 
HETATM    3  C3  UNL     1     -34.519  14.630  -5.605  1.00 20.00     0.012 C 
HETATM    4  C4  UNL     1     -34.365  15.000  -3.388  1.00 20.00     0.012 C 
HETATM    5  C5  UNL     1     -34.406  15.093  -7.016  1.00 20.00     0.057 C 
HETATM    6  C6  UNL     1     -34.145  16.081  -2.403  1.00 20.00     0.059 C 
HETATM    7  C7  UNL     1     -34.526  16.631  -7.144  1.00 20.00     0.008 C 
HETATM    8  C8  UNL     1     -33.805  17.287  -3.343  1.00 20.00     0.032 C 
HETATM    9  C9  UNL     1     -33.875  17.400  -5.971  1.00 20.00     0.026 C 
HETATM   10  C10 UNL     1     -34.544  16.987  -4.663  1.00 20.00     0.090 C 
HETATM   11  N11 UNL     1     -34.604  15.535  -4.608  1.00 20.00    -0.349 N 
ENDROOT
TORSDOF 0
ENDMDL
MODEL 4
REMARK VINA RESULT:      -4.8      1.052      2.730
REMARK  0 active torsions:
REMARK  status: ('A' for Active; 'I' for Inactive)
ROOT
HETATM    1  C1  UNL     1     -34.703  13.607  -3.751  1.00 20.00     0.027 C 
HETATM    2  C2  UNL     1     -34.763  13.332  -5.166  1.00 20.00     0.027 C 
HETATM    3  C3  UNL     1     -34.329  14.933  -3.586  1.00 20.00     0.012 C 
HETATM    4  C4  UNL     1     -34.418  14.499  -5.795  1.00 20.00     0.012 C 
HETATM    5  C5  UNL     1     -34.295  15.888  -2.445  1.00 20.00     0.057 C 
HETATM    6  C6  UNL     1     -34.369  15.168  -7.113  1.00 20.00     0.059 C 
HETATM    7  C7  UNL     1     -33.780  17.288  -2.861  1.00 20.00     0.008 C 
HETATM    8  C8  UNL     1     -34.371  16.677  -6.692  1.00 20.00     0.032 C 
HETATM    9  C9  UNL     1     -34.231  17.715  -4.277  1.00 20.00     0.026 C 
HETATM   10  C10 UNL     1     -33.713  16.704  -5.297  1.00 20.00     0.090 C 
HETATM   11  N11 UNL     1     -34.030  15.364  -4.829  1.00 20.00    -0.349 N 
ENDROOT
TORSDOF 0
ENDMDL
MODEL 5
REMARK VINA RESULT:      -4.7      1.204      2.662
REMARK  0 active torsions:
REMARK  status: ('A' for Active; 'I' for Inactive)
ROOT
HETATM    1  C1  UNL     1     -33.919  17.099  -6.187  1.00 20.00     0.027 C 
HETATM    2  C2  UNL     1     -33.725  17.989  -5.069  1.00 20.00     0.027 C 
HETATM    3  C3  UNL     1     -34.139  15.823  -5.689  1.00 20.00     0.012 C 
HETATM    4  C4  UNL     1     -33.831  17.214  -3.944  1.00 20.00     0.012 C 
HETATM    5  C5  UNL     1     -34.609  14.531  -6.261  1.00 20.00     0.057 C 
HETATM    6  C6  UNL     1     -33.934  17.268  -2.469  1.00 20.00     0.059 C 
HETATM    7  C7  UNL     1     -34.676  13.405  -5.200  1.00 20.00     0.008 C 
HETATM    8  C8  UNL     1     -34.596  15.882  -2.157  1.00 20.00     0.032 C 
HETATM    9  C9  UNL     1     -35.125  13.899  -3.804  1.00 20.00     0.026 C 
HETATM   10  C10 UNL     1     -34.143  14.955  -3.304  1.00 20.00     0.090 C 
HETATM   11  N11 UNL     1     -33.926  15.929  -4.361  1.00 20.00    -0.349 N 
ENDROOT
TORSDOF 0
ENDMDL
MODEL 6
REMARK VINA RESULT:      -4.6      0.488      2.691
REMARK  0 active torsions:
REMARK  status: ('A' for Active; 'I' for Inactive)
ROOT
HETATM    1  C1  UNL     1     -33.434  17.372  -4.952  1.00 20.00     0.027 C 
HETATM    2  C2  UNL     1     -33.951  17.640  -6.271  1.00 20.00     0.027 C 
HETATM    3  C3  UNL     1     -33.843  16.100  -4.580  1.00 20.00     0.012 C 
HETATM    4  C4  UNL     1     -34.653  16.522  -6.639  1.00 20.00     0.012 C 
HETATM    5  C5  UNL     1     -33.492  15.153  -3.485  1.00 20.00     0.057 C 
HETATM    6  C6  UNL     1     -35.329  15.866  -7.778  1.00 20.00     0.059 C 
HETATM    7  C7  UNL     1     -34.282  13.825  -3.576  1.00 20.00     0.008 C 
HETATM    8  C8  UNL     1     -35.311  14.367  -7.324  1.00 20.00     0.032 C 
HETATM    9  C9  UNL     1     -34.524  13.350  -5.028  1.00 20.00     0.026 C 
HETATM   10  C10 UNL     1     -35.314  14.416  -5.782  1.00 20.00     0.090 C 
HETATM   11  N11 UNL     1     -34.686  15.708  -5.558  1.00 20.00    -0.349 N 
ENDROOT
TORSDOF 0
ENDMDL
MODEL 7
REMARK VINA RESULT:      -4.5     11.972     13.402
REMARK  0 active torsions:
REMARK  status: ('A' for Active; 'I' for Inactive)
ROOT
HETATM    1  C1  UNL     1     -42.640   7.724  -2.761  1.00 20.00     0.027 C 
HETATM    2  C2  UNL     1     -43.346   6.808  -3.621  1.00 20.00     0.027 C 
HETATM    3  C3  UNL     1     -41.988   6.983  -1.786  1.00 20.00     0.012 C 
HETATM    4  C4  UNL     1     -43.095   5.554  -3.129  1.00 20.00     0.012 C 
HETATM    5  C5  UNL     1     -40.948   7.269  -0.759  1.00 20.00     0.057 C 
HETATM    6  C6  UNL     1     -43.241   4.112  -3.422  1.00 20.00     0.059 C 
HETATM    7  C7  UNL     1     -40.577   6.016   0.071  1.00 20.00     0.008 C 
HETATM    8  C8  UNL     1     -42.120   3.500  -2.515  1.00 20.00     0.032 C 
HETATM    9  C9  UNL     1     -40.583   4.707  -0.752  1.00 20.00     0.026 C 
HETATM   10  C10 UNL     1     -41.975   4.485  -1.337  1.00 20.00     0.090 C 
HETATM   11  N11 UNL     1     -42.418   5.718  -1.968  1.00 20.00    -0.349 N 
ENDROOT
TORSDOF 0
ENDMDL
MODEL 8
REMARK VINA RESULT:      -4.4      0.740      3.922
REMARK  0 active torsions:
REMARK  status: ('A' for Active; 'I' for Inactive)
ROOT
HETATM    1  C1  UNL     1     -33.765  17.332  -4.026  1.00 20.00     0.027 C 
HETATM    2  C2  UNL     1     -33.669  16.282  -3.042  1.00 20.00     0.027 C 
HETATM    3  C3  UNL     1     -34.116  16.755  -5.238  1.00 20.00     0.012 C 
HETATM    4  C4  UNL     1     -33.962  15.116  -3.700  1.00 20.00     0.012 C 
HETATM    5  C5  UNL     1     -34.578  17.265  -6.559  1.00 20.00     0.057 C 
HETATM    6  C6  UNL     1     -34.251  13.680  -3.499  1.00 20.00     0.059 C 
HETATM    7  C7  UNL     1     -34.843  16.125  -7.573  1.00 20.00     0.008 C 
HETATM    8  C8  UNL     1     -35.022  13.336  -4.819  1.00 20.00     0.032 C 
HETATM    9  C9  UNL     1     -35.441  14.853  -6.928  1.00 20.00     0.026 C 
HETATM   10  C10 UNL     1     -34.476  14.323  -5.871  1.00 20.00     0.090 C 
HETATM   11  N11 UNL     1     -34.071  15.425  -5.013  1.00 20.00    -0.349 N 
ENDROOT
TORSDOF 0
ENDMDL
MODEL 9
REMARK VINA RESULT:      -4.4      0.966      2.922
REMARK  0 active torsions:
REMARK  status: ('A' for Active; 'I' for Inactive)
ROOT
HETATM    1  C1  UNL     1     -34.152  14.785  -3.080  1.00 20.00     0.027 C 
HETATM    2  C2  UNL     1     -33.764  16.123  -2.707  1.00 20.00     0.027 C 
HETATM    3  C3  UNL     1     -34.522  14.801  -4.417  1.00 20.00     0.012 C 
HETATM    4  C4  UNL     1     -33.920  16.892  -3.831  1.00 20.00     0.012 C 
HETATM    5  C5  UNL     1     -34.803  13.766  -5.450  1.00 20.00     0.057 C 
HETATM    6  C6  UNL     1     -33.639  18.224  -4.407  1.00 20.00     0.059 C 
HETATM    7  C7  UNL     1     -35.169  14.383  -6.821  1.00 20.00     0.008 C 
HETATM    8  C8  UNL     1     -33.700  17.914  -5.941  1.00 20.00     0.032 C 
HETATM    9  C9  UNL     1     -34.385  15.676  -7.145  1.00 20.00     0.026 C 
HETATM   10  C10 UNL     1     -34.670  16.721  -6.071  1.00 20.00     0.090 C 
HETATM   11  N11 UNL     1     -34.506  16.105  -4.764  1.00 20.00    -0.349 N 
ENDROOT
TORSDOF 0
ENDMDL
