MODEL 1
REMARK VINA RESULT:      -4.3      0.000      0.000
REMARK  3 active torsions:
REMARK  status: ('A' for Active; 'I' for Inactive)
REMARK    1  A    between atoms: C1_1  and  C4_4 
REMARK    2  A    between atoms: C3_3  and  C7_7 
REMARK    3  A    between atoms: C7_7  and  O9_9 
ROOT
HETATM    1  C1  UNL     1     -34.224  16.307  -2.697  1.00 20.00    -0.066 C 
HETATM    2  C2  UNL     1     -34.466  16.618  -1.563  1.00 20.00    -0.108 C 
HETATM    3  C5  UNL     1     -34.760  16.997  -0.182  1.00 20.00     0.112 C 
ENDROOT
BRANCH   1   4
HETATM    4  C4  UNL     1     -33.935  15.936  -4.051  1.00 20.00     0.148 A 
HETATM    5  C3  UNL     1     -34.636  14.754  -4.691  1.00 20.00     0.194 A 
HETATM    6  O8  UNL     1     -33.310  14.646  -4.158  1.00 20.00    -0.354 OA
HETATM    7  C6  UNL     1     -33.311  16.975  -4.927  1.00 20.00     0.063 C 
BRANCH   5   8
HETATM    8  C7  UNL     1     -35.652  13.925  -3.987  1.00 20.00     0.200 C 
BRANCH   8   9
HETATM    9  O9  UNL     1     -35.363  12.539  -4.171  1.00 20.00    -0.398 OA
HETATM   10  H19 UNL     1     -34.445  12.489  -4.477  1.00 20.00     0.209 HD
ENDBRANCH   8   9
ENDBRANCH   5   8
ENDBRANCH   1   4
TORSDOF 3
ENDMDL
MODEL 2
REMARK VINA RESULT:      -4.1      1.485      1.573
REMARK  3 active torsions:
REMARK  status: ('A' for Active; 'I' for Inactive)
REMARK    1  A    between atoms: C1_1  and  C4_4 
REMARK    2  A    between atoms: C3_3  and  C7_7 
REMARK    3  A    between atoms: C7_7  and  O9_9 
ROOT
HETATM    1  C1  UNL     1     -34.545  16.051  -2.067  1.00 20.00    -0.066 C 
HETATM    2  C2  UNL     1     -34.682  16.595  -1.005  1.00 20.00    -0.108 C 
HETATM    3  C5  UNL     1     -34.851  17.257   0.287  1.00 20.00     0.112 C 
ENDROOT
BRANCH   1   4
HETATM    4  C4  UNL     1     -34.380  15.403  -3.335  1.00 20.00     0.148 A 
HETATM    5  C3  UNL     1     -35.587  15.038  -4.174  1.00 20.00     0.194 A 
HETATM    6  O8  UNL     1     -34.918  14.070  -3.358  1.00 20.00    -0.354 OA
HETATM    7  C6  UNL     1     -33.042  15.517  -3.993  1.00 20.00     0.063 C 
BRANCH   5   8
HETATM    8  C7  UNL     1     -36.988  15.326  -3.764  1.00 20.00     0.200 C 
BRANCH   8   9
HETATM    9  O9  UNL     1     -37.756  14.122  -3.767  1.00 20.00    -0.398 OA
HETATM   10  H19 UNL     1     -37.784  13.813  -2.850  1.00 20.00     0.209 HD
ENDBRANCH   8   9
ENDBRANCH   5   8
ENDBRANCH   1   4
TORSDOF 3
ENDMDL
MODEL 3
REMARK VINA RESULT:      -4.0      1.747      2.408
REMARK  3 active torsions:
REMARK  status: ('A' for Active; 'I' for Inactive)
REMARK    1  A    between atoms: C1_1  and  C4_4 
REMARK    2  A    between atoms: C3_3  and  C7_7 
REMARK    3  A    between atoms: C7_7  and  O9_9 
ROOT
HETATM    1  C1  UNL     1     -34.957  15.824  -2.281  1.00 20.00    -0.066 C 
HETATM    2  C2  UNL     1     -34.764  16.478  -1.292  1.00 20.00    -0.108 C 
HETATM    3  C5  UNL     1     -34.529  17.274  -0.089  1.00 20.00     0.112 C 
ENDROOT
BRANCH   1   4
HETATM    4  C4  UNL     1     -35.186  15.043  -3.461  1.00 20.00     0.148 A 
HETATM    5  C3  UNL     1     -34.072  14.207  -4.058  1.00 20.00     0.194 A 
HETATM    6  O8  UNL     1     -34.417  15.492  -4.589  1.00 20.00    -0.354 OA
HETATM    7  C6  UNL     1     -36.605  14.716  -3.800  1.00 20.00     0.063 C 
BRANCH   5   8
HETATM    8  C7  UNL     1     -32.705  14.128  -3.476  1.00 20.00     0.200 C 
BRANCH   8   9
HETATM    9  O9  UNL     1     -31.857  15.102  -4.086  1.00 20.00    -0.398 OA
HETATM   10  H19 UNL     1     -31.432  15.586  -3.362  1.00 20.00     0.209 HD
ENDBRANCH   8   9
ENDBRANCH   5   8
ENDBRANCH   1   4
TORSDOF 3
ENDMDL
MODEL 4
REMARK VINA RESULT:      -3.8      1.628      2.803
REMARK  3 active torsions:
REMARK  status: ('A' for Active; 'I' for Inactive)
REMARK    1  A    between atoms: C1_1  and  C4_4 
REMARK    2  A    between atoms: C3_3  and  C7_7 
REMARK    3  A    between atoms: C7_7  and  O9_9 
ROOT
HETATM    1  C1  UNL     1     -34.333  15.741  -2.620  1.00 20.00    -0.066 C 
HETATM    2  C2  UNL     1     -34.502  16.300  -1.570  1.00 20.00    -0.108 C 
HETATM    3  C5  UNL     1     -34.709  16.981  -0.293  1.00 20.00     0.112 C 
ENDROOT
BRANCH   1   4
HETATM    4  C4  UNL     1     -34.129  15.073  -3.872  1.00 20.00     0.148 A 
HETATM    5  C3  UNL     1     -34.110  15.858  -5.167  1.00 20.00     0.194 A 
HETATM    6  O8  UNL     1     -35.274  15.142  -4.738  1.00 20.00    -0.354 OA
HETATM    7  C6  UNL     1     -33.493  13.720  -3.830  1.00 20.00     0.063 C 
BRANCH   5   8
HETATM    8  C7  UNL     1     -34.286  17.335  -5.233  1.00 20.00     0.200 C 
BRANCH   8   9
HETATM    9  O9  UNL     1     -33.014  17.973  -5.348  1.00 20.00    -0.398 OA
HETATM   10  H19 UNL     1     -32.418  17.325  -5.753  1.00 20.00     0.209 HD
ENDBRANCH   8   9
ENDBRANCH   5   8
ENDBRANCH   1   4
TORSDOF 3
ENDMDL
MODEL 5
REMARK VINA RESULT:      -3.8     11.661     13.149
REMARK  3 active torsions:
REMARK  status: ('A' for Active; 'I' for Inactive)
REMARK    1  A    between atoms: C1_1  and  C4_4 
REMARK    2  A    between atoms: C3_3  and  C7_7 
REMARK    3  A    between atoms: C7_7  and  O9_9 
ROOT
HETATM    1  C1  UNL     1     -41.665   4.206  -2.007  1.00 20.00    -0.066 C 
HETATM    2  C2  UNL     1     -41.624   3.237  -2.715  1.00 20.00    -0.108 C 
HETATM    3  C5  UNL     1     -41.576   2.058  -3.578  1.00 20.00     0.112 C 
ENDROOT
BRANCH   1   4
HETATM    4  C4  UNL     1     -41.713   5.362  -1.160  1.00 20.00     0.148 A 
HETATM    5  C3  UNL     1     -42.136   6.706  -1.717  1.00 20.00     0.194 A 
HETATM    6  O8  UNL     1     -40.757   6.369  -1.530  1.00 20.00    -0.354 OA
HETATM    7  C6  UNL     1     -41.790   5.127   0.315  1.00 20.00     0.063 C 
BRANCH   5   8
HETATM    8  C7  UNL     1     -42.532   6.917  -3.136  1.00 20.00     0.200 C 
BRANCH   8   9
HETATM    9  O9  UNL     1     -41.874   8.072  -3.660  1.00 20.00    -0.398 OA
HETATM   10  H19 UNL     1     -42.266   8.836  -3.212  1.00 20.00     0.209 HD
ENDBRANCH   8   9
ENDBRANCH   5   8
ENDBRANCH   1   4
TORSDOF 3
ENDMDL
MODEL 6
REMARK VINA RESULT:      -3.7      1.824      2.490
REMARK  3 active torsions:
REMARK  status: ('A' for Active; 'I' for Inactive)
REMARK    1  A    between atoms: C1_1  and  C4_4 
REMARK    2  A    between atoms: C3_3  and  C7_7 
REMARK    3  A    between atoms: C7_7  and  O9_9 
ROOT
HETATM    1  C1  UNL     1     -34.663  15.566  -2.494  1.00 20.00    -0.066 C 
HETATM    2  C2  UNL     1     -34.656  16.261  -1.514  1.00 20.00    -0.108 C 
HETATM    3  C5  UNL     1     -34.647  17.106  -0.321  1.00 20.00     0.112 C 
ENDROOT
BRANCH   1   4
HETATM    4  C4  UNL     1     -34.673  14.737  -3.663  1.00 20.00     0.148 A 
HETATM    5  C3  UNL     1     -35.494  15.127  -4.875  1.00 20.00     0.194 A 
HETATM    6  O8  UNL     1     -35.961  14.158  -3.930  1.00 20.00    -0.354 OA
HETATM    7  C6  UNL     1     -33.541  13.775  -3.829  1.00 20.00     0.063 C 
BRANCH   5   8
HETATM    8  C7  UNL     1     -36.317  16.366  -4.943  1.00 20.00     0.200 C 
BRANCH   8   9
HETATM    9  O9  UNL     1     -35.697  17.316  -5.811  1.00 20.00    -0.398 OA
HETATM   10  H19 UNL     1     -34.811  17.475  -5.454  1.00 20.00     0.209 HD
ENDBRANCH   8   9
ENDBRANCH   5   8
ENDBRANCH   1   4
TORSDOF 3
ENDMDL
MODEL 7
REMARK VINA RESULT:      -3.6      1.509      3.151
REMARK  3 active torsions:
REMARK  status: ('A' for Active; 'I' for Inactive)
REMARK    1  A    between atoms: C1_1  and  C4_4 
REMARK    2  A    between atoms: C3_3  and  C7_7 
REMARK    3  A    between atoms: C7_7  and  O9_9 
ROOT
HETATM    1  C1  UNL     1     -34.313  16.520  -4.711  1.00 20.00    -0.066 C 
HETATM    2  C2  UNL     1     -34.348  17.026  -5.800  1.00 20.00    -0.108 C 
HETATM    3  C5  UNL     1     -34.390  17.642  -7.125  1.00 20.00     0.112 C 
ENDROOT
BRANCH   1   4
HETATM    4  C4  UNL     1     -34.271  15.917  -3.411  1.00 20.00     0.148 A 
HETATM    5  C3  UNL     1     -34.273  14.409  -3.263  1.00 20.00     0.194 A 
HETATM    6  O8  UNL     1     -35.465  15.184  -3.093  1.00 20.00    -0.354 OA
HETATM    7  C6  UNL     1     -33.771  16.760  -2.282  1.00 20.00     0.063 C 
BRANCH   5   8
HETATM    8  C7  UNL     1     -34.306  13.472  -4.419  1.00 20.00     0.200 C 
BRANCH   8   9
HETATM    9  O9  UNL     1     -35.372  12.535  -4.257  1.00 20.00    -0.398 OA
HETATM   10  H19 UNL     1     -35.005  11.786  -3.765  1.00 20.00     0.209 HD
ENDBRANCH   8   9
ENDBRANCH   5   8
ENDBRANCH   1   4
TORSDOF 3
ENDMDL
MODEL 8
REMARK VINA RESULT:      -3.6     11.791     12.821
REMARK  3 active torsions:
REMARK  status: ('A' for Active; 'I' for Inactive)
REMARK    1  A    between atoms: C1_1  and  C4_4 
REMARK    2  A    between atoms: C3_3  and  C7_7 
REMARK    3  A    between atoms: C7_7  and  O9_9 
ROOT
HETATM    1  C1  UNL     1     -34.220   6.064   5.741  1.00 20.00    -0.066 C 
HETATM    2  C2  UNL     1     -33.865   6.872   6.556  1.00 20.00    -0.108 C 
HETATM    3  C5  UNL     1     -33.433   7.855   7.548  1.00 20.00     0.112 C 
ENDROOT
BRANCH   1   4
HETATM    4  C4  UNL     1     -34.644   5.100   4.768  1.00 20.00     0.148 A 
HETATM    5  C3  UNL     1     -34.210   5.228   3.322  1.00 20.00     0.194 A 
HETATM    6  O8  UNL     1     -35.503   5.660   3.761  1.00 20.00    -0.354 OA
HETATM    7  C6  UNL     1     -35.107   3.773   5.276  1.00 20.00     0.063 C 
BRANCH   5   8
HETATM    8  C7  UNL     1     -33.332   6.320   2.823  1.00 20.00     0.200 C 
BRANCH   8   9
HETATM    9  O9  UNL     1     -31.962   5.992   3.059  1.00 20.00    -0.398 OA
HETATM   10  H19 UNL     1     -31.568   5.822   2.191  1.00 20.00     0.209 HD
ENDBRANCH   8   9
ENDBRANCH   5   8
ENDBRANCH   1   4
TORSDOF 3
ENDMDL
MODEL 9
REMARK VINA RESULT:      -3.5      1.946      3.351
REMARK  3 active torsions:
REMARK  status: ('A' for Active; 'I' for Inactive)
REMARK    1  A    between atoms: C1_1  and  C4_4 
REMARK    2  A    between atoms: C3_3  and  C7_7 
REMARK    3  A    between atoms: C7_7  and  O9_9 
ROOT
HETATM    1  C1  UNL     1     -36.488  14.967  -3.585  1.00 20.00    -0.066 C 
HETATM    2  C2  UNL     1     -37.672  14.884  -3.772  1.00 20.00    -0.108 C 
HETATM    3  C5  UNL     1     -39.113  14.782  -4.000  1.00 20.00     0.112 C 
ENDROOT
BRANCH   1   4
HETATM    4  C4  UNL     1     -35.076  15.066  -3.363  1.00 20.00     0.148 A 
HETATM    5  C3  UNL     1     -34.099  14.767  -4.482  1.00 20.00     0.194 A 
HETATM    6  O8  UNL     1     -34.401  13.801  -3.469  1.00 20.00    -0.354 OA
HETATM    7  C6  UNL     1     -34.623  15.888  -2.199  1.00 20.00     0.063 C 
BRANCH   5   8
HETATM    8  C7  UNL     1     -34.520  14.373  -5.854  1.00 20.00     0.200 C 
BRANCH   8   9
HETATM    9  O9  UNL     1     -33.788  15.123  -6.824  1.00 20.00    -0.398 OA
HETATM   10  H19 UNL     1     -34.425  15.719  -7.246  1.00 20.00     0.209 HD
ENDBRANCH   8   9
ENDBRANCH   5   8
ENDBRANCH   1   4
TORSDOF 3
ENDMDL
