MODEL 1
REMARK VINA RESULT:      -5.4      0.000      0.000
REMARK  1 active torsions:
REMARK  status: ('A' for Active; 'I' for Inactive)
REMARK    1  A    between atoms: C1_1  and  C8_8 
ROOT
HETATM    1  C2  UNL     1     -34.812   4.527   6.187  1.00 20.00     0.001 C 
HETATM    2  C3  UNL     1     -34.555   5.961   6.616  1.00 20.00     0.001 C 
HETATM    3  C4  UNL     1     -34.966   4.645   4.674  1.00 20.00     0.010 C 
HETATM    4  C5  UNL     1     -33.557   6.462   5.575  1.00 20.00     0.010 C 
HETATM    5  C6  UNL     1     -34.427   6.657   3.108  1.00 20.00     0.023 C 
HETATM    6  C7  UNL     1     -32.789   5.306   3.365  1.00 20.00     0.023 C 
HETATM    7  C8  UNL     1     -32.985   6.607   2.549  1.00 20.00     0.073 C 
HETATM    8  C9  UNL     1     -33.971   5.742   4.280  1.00 20.00    -0.039 C 
ENDROOT
BRANCH   7   9
HETATM    9  C1  UNL     1     -32.055   7.789   2.859  1.00 20.00     0.223 C 
HETATM   10  O10 UNL     1     -31.187   7.717   3.723  1.00 20.00    -0.279 OA
HETATM   11 CL11 UNL     1     -32.397   9.169   1.860  1.00 20.00    -0.043 Cl
ENDBRANCH   7   9
TORSDOF 1
ENDMDL
MODEL 2
REMARK VINA RESULT:      -4.9     11.490     12.360
REMARK  1 active torsions:
REMARK  status: ('A' for Active; 'I' for Inactive)
REMARK    1  A    between atoms: C1_1  and  C8_8 
ROOT
HETATM    1  C2  UNL     1     -34.225  18.269  -1.241  1.00 20.00     0.001 C 
HETATM    2  C3  UNL     1     -34.484  16.943  -0.546  1.00 20.00     0.001 C 
HETATM    3  C4  UNL     1     -33.537  17.847  -2.536  1.00 20.00     0.010 C 
HETATM    4  C5  UNL     1     -34.999  16.053  -1.673  1.00 20.00     0.010 C 
HETATM    5  C6  UNL     1     -33.300  15.474  -3.587  1.00 20.00     0.023 C 
HETATM    6  C7  UNL     1     -35.042  16.533  -4.239  1.00 20.00     0.023 C 
HETATM    7  C8  UNL     1     -34.451  15.139  -4.566  1.00 20.00     0.073 C 
HETATM    8  C9  UNL     1     -34.224  16.530  -2.913  1.00 20.00    -0.039 C 
ENDROOT
BRANCH   7   9
HETATM    9  C1  UNL     1     -35.316  13.909  -4.261  1.00 20.00     0.223 C 
HETATM   10  O10 UNL     1     -34.831  12.784  -4.180  1.00 20.00    -0.279 OA
HETATM   11 CL11 UNL     1     -36.992  14.321  -4.058  1.00 20.00    -0.043 Cl
ENDBRANCH   7   9
TORSDOF 1
ENDMDL
MODEL 3
REMARK VINA RESULT:      -4.8     11.220     12.366
REMARK  1 active torsions:
REMARK  status: ('A' for Active; 'I' for Inactive)
REMARK    1  A    between atoms: C1_1  and  C8_8 
ROOT
HETATM    1  C2  UNL     1     -35.675  18.084  -1.687  1.00 20.00     0.001 C 
HETATM    2  C3  UNL     1     -34.784  17.074  -0.983  1.00 20.00     0.001 C 
HETATM    3  C4  UNL     1     -35.231  17.975  -3.142  1.00 20.00     0.010 C 
HETATM    4  C5  UNL     1     -34.817  15.870  -1.919  1.00 20.00     0.010 C 
HETATM    5  C6  UNL     1     -33.719  16.184  -4.281  1.00 20.00     0.023 C 
HETATM    6  C7  UNL     1     -35.803  15.705  -4.330  1.00 20.00     0.023 C 
HETATM    7  C8  UNL     1     -34.531  15.002  -4.864  1.00 20.00     0.073 C 
HETATM    8  C9  UNL     1     -34.908  16.488  -3.325  1.00 20.00    -0.039 C 
ENDROOT
BRANCH   7   9
HETATM    9  C1  UNL     1     -34.222  13.593  -4.340  1.00 20.00     0.223 C 
HETATM   10  O10 UNL     1     -34.995  12.656  -4.517  1.00 20.00    -0.279 OA
HETATM   11 CL11 UNL     1     -32.700  13.525  -3.504  1.00 20.00    -0.043 Cl
ENDBRANCH   7   9
TORSDOF 1
ENDMDL
MODEL 4
REMARK VINA RESULT:      -4.6     11.196     13.298
REMARK  1 active torsions:
REMARK  status: ('A' for Active; 'I' for Inactive)
REMARK    1  A    between atoms: C1_1  and  C8_8 
ROOT
HETATM    1  C2  UNL     1     -33.744  19.036  -4.729  1.00 20.00     0.001 C 
HETATM    2  C3  UNL     1     -33.675  18.110  -5.931  1.00 20.00     0.001 C 
HETATM    3  C4  UNL     1     -34.670  18.290  -3.774  1.00 20.00     0.010 C 
HETATM    4  C5  UNL     1     -33.509  16.731  -5.298  1.00 20.00     0.010 C 
HETATM    5  C6  UNL     1     -35.529  15.832  -3.887  1.00 20.00     0.023 C 
HETATM    6  C7  UNL     1     -33.709  16.056  -2.785  1.00 20.00     0.023 C 
HETATM    7  C8  UNL     1     -34.613  14.846  -3.123  1.00 20.00     0.073 C 
HETATM    8  C9  UNL     1     -34.327  16.813  -3.998  1.00 20.00    -0.039 C 
ENDROOT
BRANCH   7   9
HETATM    9  C1  UNL     1     -33.988  13.689  -3.916  1.00 20.00     0.223 C 
HETATM   10  O10 UNL     1     -32.948  13.148  -3.553  1.00 20.00    -0.279 OA
HETATM   11 CL11 UNL     1     -34.921  13.282  -5.325  1.00 20.00    -0.043 Cl
ENDBRANCH   7   9
TORSDOF 1
ENDMDL
MODEL 5
REMARK VINA RESULT:      -4.6     11.946     12.518
REMARK  1 active torsions:
REMARK  status: ('A' for Active; 'I' for Inactive)
REMARK    1  A    between atoms: C1_1  and  C8_8 
ROOT
HETATM    1  C2  UNL     1     -34.837  16.911  -1.160  1.00 20.00     0.001 C 
HETATM    2  C3  UNL     1     -33.559  16.671  -1.946  1.00 20.00     0.001 C 
HETATM    3  C4  UNL     1     -35.899  16.999  -2.251  1.00 20.00     0.010 C 
HETATM    4  C5  UNL     1     -33.978  15.628  -2.978  1.00 20.00     0.010 C 
HETATM    5  C6  UNL     1     -35.727  16.389  -4.779  1.00 20.00     0.023 C 
HETATM    6  C7  UNL     1     -36.375  14.765  -3.546  1.00 20.00     0.023 C 
HETATM    7  C8  UNL     1     -36.133  14.924  -5.067  1.00 20.00     0.073 C 
HETATM    8  C9  UNL     1     -35.438  15.986  -3.305  1.00 20.00    -0.039 C 
ENDROOT
BRANCH   7   9
HETATM    9  C1  UNL     1     -35.090  14.007  -5.722  1.00 20.00     0.223 C 
HETATM   10  O10 UNL     1     -34.826  12.900  -5.263  1.00 20.00    -0.279 OA
HETATM   11 CL11 UNL     1     -34.378  14.730  -7.133  1.00 20.00    -0.043 Cl
ENDBRANCH   7   9
TORSDOF 1
ENDMDL
MODEL 6
REMARK VINA RESULT:      -4.6     11.611     12.614
REMARK  1 active torsions:
REMARK  status: ('A' for Active; 'I' for Inactive)
REMARK    1  A    between atoms: C1_1  and  C8_8 
ROOT
HETATM    1  C2  UNL     1     -33.637  17.413  -1.381  1.00 20.00     0.001 C 
HETATM    2  C3  UNL     1     -34.001  18.155  -2.656  1.00 20.00     0.001 C 
HETATM    3  C4  UNL     1     -34.640  16.264  -1.356  1.00 20.00     0.010 C 
HETATM    4  C5  UNL     1     -34.212  17.030  -3.664  1.00 20.00     0.010 C 
HETATM    5  C6  UNL     1     -36.243  15.427  -3.233  1.00 20.00     0.023 C 
HETATM    6  C7  UNL     1     -34.336  14.458  -3.237  1.00 20.00     0.023 C 
HETATM    7  C8  UNL     1     -35.609  14.318  -4.106  1.00 20.00     0.073 C 
HETATM    8  C9  UNL     1     -34.811  15.885  -2.832  1.00 20.00    -0.039 C 
ENDROOT
BRANCH   7   9
HETATM    9  C1  UNL     1     -35.476  14.581  -5.613  1.00 20.00     0.223 C 
HETATM   10  O10 UNL     1     -34.434  14.348  -6.218  1.00 20.00    -0.279 OA
HETATM   11 CL11 UNL     1     -36.940  15.221  -6.297  1.00 20.00    -0.043 Cl
ENDBRANCH   7   9
TORSDOF 1
ENDMDL
MODEL 7
REMARK VINA RESULT:      -4.6     11.484     12.491
REMARK  1 active torsions:
REMARK  status: ('A' for Active; 'I' for Inactive)
REMARK    1  A    between atoms: C1_1  and  C8_8 
ROOT
HETATM    1  C2  UNL     1     -34.384  13.513  -4.505  1.00 20.00     0.001 C 
HETATM    2  C3  UNL     1     -33.101  13.802  -3.745  1.00 20.00     0.001 C 
HETATM    3  C4  UNL     1     -35.425  14.324  -3.740  1.00 20.00     0.010 C 
HETATM    4  C5  UNL     1     -33.172  15.307  -3.503  1.00 20.00     0.010 C 
HETATM    5  C6  UNL     1     -35.082  16.158  -1.919  1.00 20.00     0.023 C 
HETATM    6  C7  UNL     1     -35.174  16.932  -3.912  1.00 20.00     0.023 C 
HETATM    7  C8  UNL     1     -35.003  17.583  -2.517  1.00 20.00     0.073 C 
HETATM    8  C9  UNL     1     -34.672  15.587  -3.307  1.00 20.00    -0.039 C 
ENDROOT
BRANCH   7   9
HETATM    9  C1  UNL     1     -33.727  18.397  -2.262  1.00 20.00     0.223 C 
HETATM   10  O10 UNL     1     -33.309  19.213  -3.078  1.00 20.00    -0.279 OA
HETATM   11 CL11 UNL     1     -33.002  18.013  -0.730  1.00 20.00    -0.043 Cl
ENDBRANCH   7   9
TORSDOF 1
ENDMDL
MODEL 8
REMARK VINA RESULT:      -4.5     11.689     13.125
REMARK  1 active torsions:
REMARK  status: ('A' for Active; 'I' for Inactive)
REMARK    1  A    between atoms: C1_1  and  C8_8 
ROOT
HETATM    1  C2  UNL     1     -36.014  14.826  -6.669  1.00 20.00     0.001 C 
HETATM    2  C3  UNL     1     -36.154  16.321  -6.440  1.00 20.00     0.001 C 
HETATM    3  C4  UNL     1     -34.656  14.511  -6.051  1.00 20.00     0.010 C 
HETATM    4  C5  UNL     1     -35.678  16.499  -5.002  1.00 20.00     0.010 C 
HETATM    5  C6  UNL     1     -33.148  15.993  -4.527  1.00 20.00     0.023 C 
HETATM    6  C7  UNL     1     -34.517  14.758  -3.441  1.00 20.00     0.023 C 
HETATM    7  C8  UNL     1     -33.429  15.776  -3.020  1.00 20.00     0.073 C 
HETATM    8  C9  UNL     1     -34.570  15.444  -4.838  1.00 20.00    -0.039 C 
ENDROOT
BRANCH   7   9
HETATM    9  C1  UNL     1     -33.871  16.990  -2.192  1.00 20.00     0.223 C 
HETATM   10  O10 UNL     1     -33.647  18.139  -2.563  1.00 20.00    -0.279 OA
HETATM   11 CL11 UNL     1     -34.690  16.524  -0.732  1.00 20.00    -0.043 Cl
ENDBRANCH   7   9
TORSDOF 1
ENDMDL
MODEL 9
REMARK VINA RESULT:      -4.4     11.714     13.740
REMARK  1 active torsions:
REMARK  status: ('A' for Active; 'I' for Inactive)
REMARK    1  A    between atoms: C1_1  and  C8_8 
ROOT
HETATM    1  C2  UNL     1     -34.836  17.976  -7.131  1.00 20.00     0.001 C 
HETATM    2  C3  UNL     1     -34.713  16.609  -7.783  1.00 20.00     0.001 C 
HETATM    3  C4  UNL     1     -35.651  17.685  -5.875  1.00 20.00     0.010 C 
HETATM    4  C5  UNL     1     -34.389  15.692  -6.607  1.00 20.00     0.010 C 
HETATM    5  C6  UNL     1     -36.261  15.393  -4.794  1.00 20.00     0.023 C 
HETATM    6  C7  UNL     1     -34.438  16.234  -4.054  1.00 20.00     0.023 C 
HETATM    7  C8  UNL     1     -35.226  14.939  -3.737  1.00 20.00     0.073 C 
HETATM    8  C9  UNL     1     -35.168  16.300  -5.428  1.00 20.00    -0.039 C 
ENDROOT
BRANCH   7   9
HETATM    9  C1  UNL     1     -34.514  13.598  -3.962  1.00 20.00     0.223 C 
HETATM   10  O10 UNL     1     -35.109  12.619  -4.403  1.00 20.00    -0.279 OA
HETATM   11 CL11 UNL     1     -32.834  13.668  -3.523  1.00 20.00    -0.043 Cl
ENDBRANCH   7   9
TORSDOF 1
ENDMDL
