MODEL 1
REMARK VINA RESULT:      -4.9      0.000      0.000
REMARK  1 active torsions:
REMARK  status: ('A' for Active; 'I' for Inactive)
REMARK    1  A    between atoms: C2_2  and  C8_8 
ROOT
HETATM    1  C1  UNL     1     -33.595  16.733  -3.858  1.00 20.00     0.136 C 
HETATM    2  C3  UNL     1     -33.744  18.232  -3.710  1.00 20.00     0.079 C 
HETATM    3  C4  UNL     1     -34.512  18.632  -2.454  1.00 20.00     0.007 C 
HETATM    4  C5  UNL     1     -34.077  17.780  -1.267  1.00 20.00     0.002 C 
HETATM    5  C6  UNL     1     -34.452  16.311  -1.468  1.00 20.00     0.018 C 
HETATM    6  C7  UNL     1     -35.759  15.432  -3.532  1.00 20.00     0.030 A 
HETATM    7  C8  UNL     1     -34.699  14.424  -3.206  1.00 20.00     0.064 A 
HETATM    8  C9  UNL     1     -34.440  15.902  -2.935  1.00 20.00     0.031 A 
HETATM    9  O10 UNL     1     -32.847  16.234  -4.691  1.00 20.00    -0.297 OA
ENDROOT
BRANCH   7  10
HETATM   10  C2  UNL     1     -34.035  13.699  -4.295  1.00 20.00     0.236 C 
HETATM   11  O11 UNL     1     -34.480  12.671  -4.795  1.00 20.00    -0.306 OA
ENDBRANCH   7  10
TORSDOF 1
ENDMDL
MODEL 2
REMARK VINA RESULT:      -4.8      1.459      2.298
REMARK  1 active torsions:
REMARK  status: ('A' for Active; 'I' for Inactive)
REMARK    1  A    between atoms: C2_2  and  C8_8 
ROOT
HETATM    1  C1  UNL     1     -35.155  15.694  -2.743  1.00 20.00     0.136 C 
HETATM    2  C3  UNL     1     -34.932  16.474  -1.464  1.00 20.00     0.079 C 
HETATM    3  C4  UNL     1     -33.757  17.443  -1.556  1.00 20.00     0.007 C 
HETATM    4  C5  UNL     1     -33.754  18.155  -2.904  1.00 20.00     0.002 C 
HETATM    5  C6  UNL     1     -33.507  17.175  -4.052  1.00 20.00     0.018 C 
HETATM    6  C7  UNL     1     -33.045  14.645  -3.705  1.00 20.00     0.030 A 
HETATM    7  C8  UNL     1     -33.938  14.780  -4.901  1.00 20.00     0.064 A 
HETATM    8  C9  UNL     1     -34.053  15.784  -3.759  1.00 20.00     0.031 A 
HETATM    9  O10 UNL     1     -36.162  15.019  -2.924  1.00 20.00    -0.297 OA
ENDROOT
BRANCH   7  10
HETATM   10  C2  UNL     1     -34.964  13.762  -5.155  1.00 20.00     0.236 C 
HETATM   11  O11 UNL     1     -34.851  12.589  -4.818  1.00 20.00    -0.306 OA
ENDBRANCH   7  10
TORSDOF 1
ENDMDL
MODEL 3
REMARK VINA RESULT:      -4.7      2.172      4.150
REMARK  1 active torsions:
REMARK  status: ('A' for Active; 'I' for Inactive)
REMARK    1  A    between atoms: C2_2  and  C8_8 
ROOT
HETATM    1  C1  UNL     1     -35.867  15.413  -3.853  1.00 20.00     0.136 C 
HETATM    2  C3  UNL     1     -36.218  14.894  -5.231  1.00 20.00     0.079 C 
HETATM    3  C4  UNL     1     -35.091  14.085  -5.866  1.00 20.00     0.007 C 
HETATM    4  C5  UNL     1     -34.448  13.162  -4.837  1.00 20.00     0.002 C 
HETATM    5  C6  UNL     1     -33.746  13.959  -3.736  1.00 20.00     0.018 C 
HETATM    6  C7  UNL     1     -33.594  16.550  -3.714  1.00 20.00     0.030 A 
HETATM    7  C8  UNL     1     -33.840  16.102  -2.305  1.00 20.00     0.064 A 
HETATM    8  C9  UNL     1     -34.420  15.298  -3.464  1.00 20.00     0.031 A 
HETATM    9  O10 UNL     1     -36.707  15.912  -3.113  1.00 20.00    -0.297 OA
ENDROOT
BRANCH   7  10
HETATM   10  C2  UNL     1     -34.678  16.921  -1.423  1.00 20.00     0.236 C 
HETATM   11  O11 UNL     1     -34.792  16.720  -0.219  1.00 20.00    -0.306 OA
ENDBRANCH   7  10
TORSDOF 1
ENDMDL
MODEL 4
REMARK VINA RESULT:      -4.7     11.216     12.748
REMARK  1 active torsions:
REMARK  status: ('A' for Active; 'I' for Inactive)
REMARK    1  A    between atoms: C2_2  and  C8_8 
ROOT
HETATM    1  C1  UNL     1     -34.584   5.591   3.661  1.00 20.00     0.136 C 
HETATM    2  C3  UNL     1     -35.172   4.421   4.420  1.00 20.00     0.079 C 
HETATM    3  C4  UNL     1     -34.646   4.314   5.849  1.00 20.00     0.007 C 
HETATM    4  C5  UNL     1     -34.571   5.692   6.496  1.00 20.00     0.002 C 
HETATM    5  C6  UNL     1     -33.541   6.580   5.796  1.00 20.00     0.018 C 
HETATM    6  C7  UNL     1     -32.051   5.776   3.829  1.00 20.00     0.030 A 
HETATM    7  C8  UNL     1     -32.478   7.180   3.526  1.00 20.00     0.064 A 
HETATM    8  C9  UNL     1     -33.409   6.263   4.312  1.00 20.00     0.031 A 
HETATM    9  O10 UNL     1     -35.028   5.951   2.577  1.00 20.00    -0.297 OA
ENDROOT
BRANCH   7  10
HETATM   10  C2  UNL     1     -32.751   7.567   2.137  1.00 20.00     0.236 C 
HETATM   11  O11 UNL     1     -32.106   8.418   1.533  1.00 20.00    -0.306 OA
ENDBRANCH   7  10
TORSDOF 1
ENDMDL
MODEL 5
REMARK VINA RESULT:      -4.5      2.326      3.883
REMARK  1 active torsions:
REMARK  status: ('A' for Active; 'I' for Inactive)
REMARK    1  A    between atoms: C2_2  and  C8_8 
ROOT
HETATM    1  C1  UNL     1     -34.625  16.604  -5.041  1.00 20.00     0.136 C 
HETATM    2  C3  UNL     1     -34.412  16.578  -6.539  1.00 20.00     0.079 C 
HETATM    3  C4  UNL     1     -34.296  15.163  -7.099  1.00 20.00     0.007 C 
HETATM    4  C5  UNL     1     -35.325  14.245  -6.451  1.00 20.00     0.002 C 
HETATM    5  C6  UNL     1     -35.051  14.067  -4.958  1.00 20.00     0.018 C 
HETATM    6  C7  UNL     1     -33.019  15.121  -3.734  1.00 20.00     0.030 A 
HETATM    7  C8  UNL     1     -34.203  15.234  -2.822  1.00 20.00     0.064 A 
HETATM    8  C9  UNL     1     -34.408  15.297  -4.331  1.00 20.00     0.031 A 
HETATM    9  O10 UNL     1     -34.934  17.630  -4.446  1.00 20.00    -0.297 OA
ENDROOT
BRANCH   7  10
HETATM   10  C2  UNL     1     -34.341  16.415  -1.963  1.00 20.00     0.236 C 
HETATM   11  O11 UNL     1     -34.700  16.362  -0.791  1.00 20.00    -0.306 OA
ENDBRANCH   7  10
TORSDOF 1
ENDMDL
MODEL 6
REMARK VINA RESULT:      -4.4      2.062      2.598
REMARK  1 active torsions:
REMARK  status: ('A' for Active; 'I' for Inactive)
REMARK    1  A    between atoms: C2_2  and  C8_8 
ROOT
HETATM    1  C1  UNL     1     -35.748  16.076  -4.199  1.00 20.00     0.136 C 
HETATM    2  C3  UNL     1     -36.054  16.640  -2.828  1.00 20.00     0.079 C 
HETATM    3  C4  UNL     1     -34.994  16.283  -1.789  1.00 20.00     0.007 C 
HETATM    4  C5  UNL     1     -33.596  16.415  -2.382  1.00 20.00     0.002 C 
HETATM    5  C6  UNL     1     -33.367  15.396  -3.499  1.00 20.00     0.018 C 
HETATM    6  C7  UNL     1     -35.116  13.610  -4.196  1.00 20.00     0.030 A 
HETATM    7  C8  UNL     1     -34.477  14.127  -5.449  1.00 20.00     0.064 A 
HETATM    8  C9  UNL     1     -34.646  15.056  -4.252  1.00 20.00     0.031 A 
HETATM    9  O10 UNL     1     -36.375  16.417  -5.196  1.00 20.00    -0.297 OA
ENDROOT
BRANCH   7  10
HETATM   10  C2  UNL     1     -35.283  14.264  -6.666  1.00 20.00     0.236 C 
HETATM   11  O11 UNL     1     -34.829  14.645  -7.740  1.00 20.00    -0.306 OA
ENDBRANCH   7  10
TORSDOF 1
ENDMDL
MODEL 7
REMARK VINA RESULT:      -4.3     11.761     13.364
REMARK  1 active torsions:
REMARK  status: ('A' for Active; 'I' for Inactive)
REMARK    1  A    between atoms: C2_2  and  C8_8 
ROOT
HETATM    1  C1  UNL     1     -42.837   6.031  -2.593  1.00 20.00     0.136 C 
HETATM    2  C3  UNL     1     -43.417   7.342  -2.105  1.00 20.00     0.079 C 
HETATM    3  C4  UNL     1     -42.741   7.857  -0.838  1.00 20.00     0.007 C 
HETATM    4  C5  UNL     1     -41.231   7.666  -0.922  1.00 20.00     0.002 C 
HETATM    5  C6  UNL     1     -40.857   6.184  -0.956  1.00 20.00     0.018 C 
HETATM    6  C7  UNL     1     -42.592   4.261  -0.781  1.00 20.00     0.030 A 
HETATM    7  C8  UNL     1     -41.570   3.854  -1.799  1.00 20.00     0.064 A 
HETATM    8  C9  UNL     1     -41.921   5.329  -1.632  1.00 20.00     0.031 A 
HETATM    9  O10 UNL     1     -43.115   5.568  -3.693  1.00 20.00    -0.297 OA
ENDROOT
BRANCH   7  10
HETATM   10  C2  UNL     1     -41.988   3.078  -2.970  1.00 20.00     0.236 C 
HETATM   11  O11 UNL     1     -41.285   2.227  -3.505  1.00 20.00    -0.306 OA
ENDBRANCH   7  10
TORSDOF 1
ENDMDL
MODEL 8
REMARK VINA RESULT:      -4.3      2.016      3.370
REMARK  1 active torsions:
REMARK  status: ('A' for Active; 'I' for Inactive)
REMARK    1  A    between atoms: C2_2  and  C8_8 
ROOT
HETATM    1  C1  UNL     1     -35.159  14.102  -4.061  1.00 20.00     0.136 C 
HETATM    2  C3  UNL     1     -33.647  14.029  -4.069  1.00 20.00     0.079 C 
HETATM    3  C4  UNL     1     -32.986  15.336  -3.639  1.00 20.00     0.007 C 
HETATM    4  C5  UNL     1     -33.721  15.941  -2.448  1.00 20.00     0.002 C 
HETATM    5  C6  UNL     1     -35.143  16.361  -2.826  1.00 20.00     0.018 C 
HETATM    6  C7  UNL     1     -36.111  16.156  -5.226  1.00 20.00     0.030 A 
HETATM    7  C8  UNL     1     -37.197  15.770  -4.267  1.00 20.00     0.064 A 
HETATM    8  C9  UNL     1     -35.742  15.479  -3.914  1.00 20.00     0.031 A 
HETATM    9  O10 UNL     1     -35.858  13.103  -4.185  1.00 20.00    -0.297 OA
ENDROOT
BRANCH   7  10
HETATM   10  C2  UNL     1     -38.140  14.709  -4.636  1.00 20.00     0.236 C 
HETATM   11  O11 UNL     1     -38.948  14.221  -3.853  1.00 20.00    -0.306 OA
ENDBRANCH   7  10
TORSDOF 1
ENDMDL
MODEL 9
REMARK VINA RESULT:      -4.2      2.777      4.267
REMARK  1 active torsions:
REMARK  status: ('A' for Active; 'I' for Inactive)
REMARK    1  A    between atoms: C2_2  and  C8_8 
ROOT
HETATM    1  C1  UNL     1     -35.542  14.682  -4.914  1.00 20.00     0.136 C 
HETATM    2  C3  UNL     1     -34.949  13.602  -4.033  1.00 20.00     0.079 C 
HETATM    3  C4  UNL     1     -33.442  13.746  -3.849  1.00 20.00     0.007 C 
HETATM    4  C5  UNL     1     -33.066  15.208  -3.634  1.00 20.00     0.002 C 
HETATM    5  C6  UNL     1     -33.360  16.048  -4.878  1.00 20.00     0.018 C 
HETATM    6  C7  UNL     1     -34.282  15.058  -7.093  1.00 20.00     0.030 A 
HETATM    7  C8  UNL     1     -34.971  16.369  -6.865  1.00 20.00     0.064 A 
HETATM    8  C9  UNL     1     -34.551  15.521  -5.669  1.00 20.00     0.031 A 
HETATM    9  O10 UNL     1     -36.752  14.845  -5.016  1.00 20.00    -0.297 OA
ENDROOT
BRANCH   7  10
HETATM   10  C2  UNL     1     -36.375  16.524  -7.259  1.00 20.00     0.236 C 
HETATM   11  O11 UNL     1     -37.009  17.564  -7.112  1.00 20.00    -0.306 OA
ENDBRANCH   7  10
TORSDOF 1
ENDMDL
