MODEL 1
REMARK VINA RESULT:      -5.0      0.000      0.000
REMARK  4 active torsions:
REMARK  status: ('A' for Active; 'I' for Inactive)
REMARK    1  A    between atoms: C1_1  and  C2_2 
REMARK    2  A    between atoms: C1_1  and  C3_3 
REMARK    3  A    between atoms: C2_2  and  C8_8 
REMARK    4  A    between atoms: C3_3  and  C6_6 
ROOT
HETATM    1  C1  UNL     1     -33.187   6.317   3.471  1.00 20.00     0.125 C 
HETATM    2 CL11 UNL     1     -33.903   5.301   2.262  1.00 20.00    -0.076 Cl
ENDROOT
BRANCH   1   3
HETATM    3  C2  UNL     1     -32.196   7.208   3.220  1.00 20.00     0.174 C 
HETATM    4  O9  UNL     1     -31.258   7.625   3.961  1.00 20.00    -0.291 OA
BRANCH   3   5
HETATM    5  C8  UNL     1     -32.078   7.848   1.827  1.00 20.00     0.080 C 
HETATM    6  C7  UNL     1     -32.460   9.326   1.819  1.00 20.00     0.013 C 
ENDBRANCH   3   5
ENDBRANCH   1   3
BRANCH   1   7
HETATM    7  C3  UNL     1     -33.782   6.206   4.841  1.00 20.00     0.178 C 
HETATM    8  O10 UNL     1     -33.387   6.862   5.797  1.00 20.00    -0.291 OA
BRANCH   7   9
HETATM    9  C6  UNL     1     -34.927   5.265   5.013  1.00 20.00     0.061 A 
HETATM   10  C4  UNL     1     -34.635   3.841   5.347  1.00 20.00     0.013 A 
HETATM   11  C5  UNL     1     -35.226   4.751   6.381  1.00 20.00     0.013 A 
ENDBRANCH   7   9
ENDBRANCH   1   7
TORSDOF 4
ENDMDL
MODEL 2
REMARK VINA RESULT:      -4.9     11.482     12.100
REMARK  4 active torsions:
REMARK  status: ('A' for Active; 'I' for Inactive)
REMARK    1  A    between atoms: C1_1  and  C2_2 
REMARK    2  A    between atoms: C1_1  and  C3_3 
REMARK    3  A    between atoms: C2_2  and  C8_8 
REMARK    4  A    between atoms: C3_3  and  C6_6 
ROOT
HETATM    1  C1  UNL     1     -34.001  14.589  -3.848  1.00 20.00     0.125 C 
HETATM    2 CL11 UNL     1     -32.290  14.653  -3.577  1.00 20.00    -0.076 Cl
ENDROOT
BRANCH   1   3
HETATM    3  C2  UNL     1     -34.593  13.768  -4.752  1.00 20.00     0.174 C 
HETATM    4  O9  UNL     1     -34.945  12.556  -4.653  1.00 20.00    -0.291 OA
BRANCH   3   5
HETATM    5  C8  UNL     1     -34.975  14.307  -6.140  1.00 20.00     0.080 C 
HETATM    6  C7  UNL     1     -34.166  15.540  -6.539  1.00 20.00     0.013 C 
ENDBRANCH   3   5
ENDBRANCH   1   3
BRANCH   1   7
HETATM    7  C3  UNL     1     -34.829  15.465  -2.959  1.00 20.00     0.178 C 
HETATM    8  O10 UNL     1     -36.052  15.426  -2.933  1.00 20.00    -0.291 OA
BRANCH   7   9
HETATM    9  C6  UNL     1     -34.099  16.399  -2.053  1.00 20.00     0.061 A 
HETATM   10  C4  UNL     1     -34.714  17.725  -1.751  1.00 20.00     0.013 A 
HETATM   11  C5  UNL     1     -34.664  16.661  -0.697  1.00 20.00     0.013 A 
ENDBRANCH   7   9
ENDBRANCH   1   7
TORSDOF 4
ENDMDL
MODEL 3
REMARK VINA RESULT:      -4.9     11.360     12.324
REMARK  4 active torsions:
REMARK  status: ('A' for Active; 'I' for Inactive)
REMARK    1  A    between atoms: C1_1  and  C2_2 
REMARK    2  A    between atoms: C1_1  and  C3_3 
REMARK    3  A    between atoms: C2_2  and  C8_8 
REMARK    4  A    between atoms: C3_3  and  C6_6 
ROOT
HETATM    1  C1  UNL     1     -34.066  14.566  -3.629  1.00 20.00     0.125 C 
HETATM    2 CL11 UNL     1     -32.338  14.437  -3.569  1.00 20.00    -0.076 Cl
ENDROOT
BRANCH   1   3
HETATM    3  C2  UNL     1     -34.782  15.465  -2.908  1.00 20.00     0.174 C 
HETATM    4  O9  UNL     1     -36.034  15.604  -2.780  1.00 20.00    -0.291 OA
BRANCH   3   5
HETATM    5  C8  UNL     1     -34.054  16.505  -2.042  1.00 20.00     0.080 C 
HETATM    6  C7  UNL     1     -34.701  16.692  -0.672  1.00 20.00     0.013 C 
ENDBRANCH   3   5
ENDBRANCH   1   3
BRANCH   1   7
HETATM    7  C3  UNL     1     -34.748  13.650  -4.598  1.00 20.00     0.178 C 
HETATM    8  O10 UNL     1     -35.286  12.602  -4.263  1.00 20.00    -0.291 OA
BRANCH   7   9
HETATM    9  C6  UNL     1     -34.781  14.073  -6.028  1.00 20.00     0.061 A 
HETATM   10  C4  UNL     1     -35.777  15.105  -6.443  1.00 20.00     0.013 A 
HETATM   11  C5  UNL     1     -34.320  15.450  -6.373  1.00 20.00     0.013 A 
ENDBRANCH   7   9
ENDBRANCH   1   7
TORSDOF 4
ENDMDL
MODEL 4
REMARK VINA RESULT:      -4.8     11.532     12.284
REMARK  4 active torsions:
REMARK  status: ('A' for Active; 'I' for Inactive)
REMARK    1  A    between atoms: C1_1  and  C2_2 
REMARK    2  A    between atoms: C1_1  and  C3_3 
REMARK    3  A    between atoms: C2_2  and  C8_8 
REMARK    4  A    between atoms: C3_3  and  C6_6 
ROOT
HETATM    1  C1  UNL     1     -36.172  14.786  -3.861  1.00 20.00     0.125 C 
HETATM    2 CL11 UNL     1     -37.895  14.607  -3.805  1.00 20.00    -0.076 Cl
ENDROOT
BRANCH   1   3
HETATM    3  C2  UNL     1     -35.341  13.915  -4.487  1.00 20.00     0.174 C 
HETATM    4  O9  UNL     1     -35.108  12.692  -4.257  1.00 20.00    -0.291 OA
BRANCH   3   5
HETATM    5  C8  UNL     1     -34.534  14.375  -5.712  1.00 20.00     0.080 C 
HETATM    6  C7  UNL     1     -35.365  14.401  -6.993  1.00 20.00     0.013 C 
ENDBRANCH   3   5
ENDBRANCH   1   3
BRANCH   1   7
HETATM    7  C3  UNL     1     -35.630  16.026  -3.219  1.00 20.00     0.178 C 
HETATM    8  O10 UNL     1     -36.031  17.150  -3.493  1.00 20.00    -0.291 OA
BRANCH   7   9
HETATM    9  C6  UNL     1     -34.573  15.851  -2.180  1.00 20.00     0.061 A 
HETATM   10  C4  UNL     1     -33.694  17.012  -1.855  1.00 20.00     0.013 A 
HETATM   11  C5  UNL     1     -34.734  16.557  -0.876  1.00 20.00     0.013 A 
ENDBRANCH   7   9
ENDBRANCH   1   7
TORSDOF 4
ENDMDL
MODEL 5
REMARK VINA RESULT:      -4.8      0.544      4.635
REMARK  4 active torsions:
REMARK  status: ('A' for Active; 'I' for Inactive)
REMARK    1  A    between atoms: C1_1  and  C2_2 
REMARK    2  A    between atoms: C1_1  and  C3_3 
REMARK    3  A    between atoms: C2_2  and  C8_8 
REMARK    4  A    between atoms: C3_3  and  C6_6 
ROOT
HETATM    1  C1  UNL     1     -33.410   6.219   3.382  1.00 20.00     0.125 C 
HETATM    2 CL11 UNL     1     -33.740   5.091   2.107  1.00 20.00    -0.076 Cl
ENDROOT
BRANCH   1   3
HETATM    3  C2  UNL     1     -33.920   6.114   4.635  1.00 20.00     0.174 C 
HETATM    4  O9  UNL     1     -33.584   6.693   5.709  1.00 20.00    -0.291 OA
BRANCH   3   5
HETATM    5  C8  UNL     1     -35.127   5.198   4.895  1.00 20.00     0.080 C 
HETATM    6  C7  UNL     1     -34.851   4.144   5.964  1.00 20.00     0.013 C 
ENDBRANCH   3   5
ENDBRANCH   1   3
BRANCH   1   7
HETATM    7  C3  UNL     1     -32.448   7.315   3.040  1.00 20.00     0.178 C 
HETATM    8  O10 UNL     1     -31.431   7.537   3.685  1.00 20.00    -0.291 OA
BRANCH   7   9
HETATM    9  C6  UNL     1     -32.756   8.142   1.837  1.00 20.00     0.061 A 
HETATM   10  C4  UNL     1     -32.443   9.600   1.875  1.00 20.00     0.013 A 
HETATM   11  C5  UNL     1     -31.619   8.675   1.031  1.00 20.00     0.013 A 
ENDBRANCH   7   9
ENDBRANCH   1   7
TORSDOF 4
ENDMDL
MODEL 6
REMARK VINA RESULT:      -4.7      1.919      2.075
REMARK  4 active torsions:
REMARK  status: ('A' for Active; 'I' for Inactive)
REMARK    1  A    between atoms: C1_1  and  C2_2 
REMARK    2  A    between atoms: C1_1  and  C3_3 
REMARK    3  A    between atoms: C2_2  and  C8_8 
REMARK    4  A    between atoms: C3_3  and  C6_6 
ROOT
HETATM    1  C1  UNL     1     -33.668   6.261   4.446  1.00 20.00     0.125 C 
HETATM    2 CL11 UNL     1     -33.643   7.007   6.011  1.00 20.00    -0.076 Cl
ENDROOT
BRANCH   1   3
HETATM    3  C2  UNL     1     -32.631   6.302   3.572  1.00 20.00     0.174 C 
HETATM    4  O9  UNL     1     -32.171   5.410   2.800  1.00 20.00    -0.291 OA
BRANCH   3   5
HETATM    5  C8  UNL     1     -31.841   7.608   3.384  1.00 20.00     0.080 C 
HETATM    6  C7  UNL     1     -32.060   8.239   2.011  1.00 20.00     0.013 C 
ENDBRANCH   3   5
ENDBRANCH   1   3
BRANCH   1   7
HETATM    7  C3  UNL     1     -34.906   5.483   4.122  1.00 20.00     0.178 C 
HETATM    8  O10 UNL     1     -35.668   5.788   3.214  1.00 20.00    -0.291 OA
BRANCH   7   9
HETATM    9  C6  UNL     1     -35.183   4.269   4.943  1.00 20.00     0.061 A 
HETATM   10  C4  UNL     1     -34.090   3.722   5.799  1.00 20.00     0.013 A 
HETATM   11  C5  UNL     1     -35.261   4.416   6.426  1.00 20.00     0.013 A 
ENDBRANCH   7   9
ENDBRANCH   1   7
TORSDOF 4
ENDMDL
MODEL 7
REMARK VINA RESULT:      -4.6     11.056     12.478
REMARK  4 active torsions:
REMARK  status: ('A' for Active; 'I' for Inactive)
REMARK    1  A    between atoms: C1_1  and  C2_2 
REMARK    2  A    between atoms: C1_1  and  C3_3 
REMARK    3  A    between atoms: C2_2  and  C8_8 
REMARK    4  A    between atoms: C3_3  and  C6_6 
ROOT
HETATM    1  C1  UNL     1     -33.876  16.157  -3.055  1.00 20.00     0.125 C 
HETATM    2 CL11 UNL     1     -34.617  16.253  -1.491  1.00 20.00    -0.076 Cl
ENDROOT
BRANCH   1   3
HETATM    3  C2  UNL     1     -33.714  17.220  -3.882  1.00 20.00     0.174 C 
HETATM    4  O9  UNL     1     -33.679  18.460  -3.628  1.00 20.00    -0.291 OA
BRANCH   3   5
HETATM    5  C8  UNL     1     -33.491  16.992  -5.386  1.00 20.00     0.080 C 
HETATM    6  C7  UNL     1     -34.783  17.070  -6.195  1.00 20.00     0.013 C 
ENDBRANCH   3   5
ENDBRANCH   1   3
BRANCH   1   7
HETATM    7  C3  UNL     1     -33.344  14.809  -3.435  1.00 20.00     0.178 C 
HETATM    8  O10 UNL     1     -32.150  14.575  -3.569  1.00 20.00    -0.291 OA
BRANCH   7   9
HETATM    9  C6  UNL     1     -34.338  13.712  -3.624  1.00 20.00     0.061 A 
HETATM   10  C4  UNL     1     -35.687  14.058  -4.161  1.00 20.00     0.013 A 
HETATM   11  C5  UNL     1     -34.703  13.316  -5.015  1.00 20.00     0.013 A 
ENDBRANCH   7   9
ENDBRANCH   1   7
TORSDOF 4
ENDMDL
MODEL 8
REMARK VINA RESULT:      -4.6     11.580     12.956
REMARK  4 active torsions:
REMARK  status: ('A' for Active; 'I' for Inactive)
REMARK    1  A    between atoms: C1_1  and  C2_2 
REMARK    2  A    between atoms: C1_1  and  C3_3 
REMARK    3  A    between atoms: C2_2  and  C8_8 
REMARK    4  A    between atoms: C3_3  and  C6_6 
ROOT
HETATM    1  C1  UNL     1     -35.802  14.776  -3.632  1.00 20.00     0.125 C 
HETATM    2 CL11 UNL     1     -34.768  15.646  -2.546  1.00 20.00    -0.076 Cl
ENDROOT
BRANCH   1   3
HETATM    3  C2  UNL     1     -37.139  14.983  -3.732  1.00 20.00     0.174 C 
HETATM    4  O9  UNL     1     -38.101  14.160  -3.717  1.00 20.00    -0.291 OA
BRANCH   3   5
HETATM    5  C8  UNL     1     -37.684  16.416  -3.849  1.00 20.00     0.080 C 
HETATM    6  C7  UNL     1     -38.219  16.734  -5.244  1.00 20.00     0.013 C 
ENDBRANCH   3   5
ENDBRANCH   1   3
BRANCH   1   7
HETATM    7  C3  UNL     1     -35.113  13.798  -4.533  1.00 20.00     0.178 C 
HETATM    8  O10 UNL     1     -35.109  12.590  -4.331  1.00 20.00    -0.291 OA
BRANCH   7   9
HETATM    9  C6  UNL     1     -34.432  14.347  -5.742  1.00 20.00     0.061 A 
HETATM   10  C4  UNL     1     -35.245  14.593  -6.968  1.00 20.00     0.013 A 
HETATM   11  C5  UNL     1     -34.739  15.747  -6.156  1.00 20.00     0.013 A 
ENDBRANCH   7   9
ENDBRANCH   1   7
TORSDOF 4
ENDMDL
MODEL 9
REMARK VINA RESULT:      -4.6     11.492     12.415
REMARK  4 active torsions:
REMARK  status: ('A' for Active; 'I' for Inactive)
REMARK    1  A    between atoms: C1_1  and  C2_2 
REMARK    2  A    between atoms: C1_1  and  C3_3 
REMARK    3  A    between atoms: C2_2  and  C8_8 
REMARK    4  A    between atoms: C3_3  and  C6_6 
ROOT
HETATM    1  C1  UNL     1     -33.685  16.559  -3.895  1.00 20.00     0.125 C 
HETATM    2 CL11 UNL     1     -33.421  17.124  -5.512  1.00 20.00    -0.076 Cl
ENDROOT
BRANCH   1   3
HETATM    3  C2  UNL     1     -34.225  17.317  -2.908  1.00 20.00     0.174 C 
HETATM    4  O9  UNL     1     -35.195  18.130  -2.934  1.00 20.00    -0.291 OA
BRANCH   3   5
HETATM    5  C8  UNL     1     -33.668  17.221  -1.478  1.00 20.00     0.080 C 
HETATM    6  C7  UNL     1     -34.730  16.827  -0.454  1.00 20.00     0.013 C 
ENDBRANCH   3   5
ENDBRANCH   1   3
BRANCH   1   7
HETATM    7  C3  UNL     1     -33.339  15.122  -3.649  1.00 20.00     0.178 C 
HETATM    8  O10 UNL     1     -32.187  14.716  -3.576  1.00 20.00    -0.291 OA
BRANCH   7   9
HETATM    9  C6  UNL     1     -34.473  14.171  -3.459  1.00 20.00     0.061 A 
HETATM   10  C4  UNL     1     -35.714  14.373  -4.262  1.00 20.00     0.013 A 
HETATM   11  C5  UNL     1     -34.799  13.225  -4.566  1.00 20.00     0.013 A 
ENDBRANCH   7   9
ENDBRANCH   1   7
TORSDOF 4
ENDMDL
