MODEL 1
REMARK VINA RESULT:      -5.3      0.000      0.000
REMARK  5 active torsions:
REMARK  status: ('A' for Active; 'I' for Inactive)
REMARK    1  A    between atoms: C1_1  and  C5_5 
REMARK    2  A    between atoms: C2_2  and  C7_7 
REMARK    3  A    between atoms: C5_5  and  O10_10 
REMARK    4  A    between atoms: C7_7  and  C9_9 
REMARK    5  A    between atoms: C8_8  and  C9_9 
ROOT
HETATM    1  C1  UNL     1     -33.773   5.836   4.206  1.00 20.00    -0.068 C 
HETATM    2  C2  UNL     1     -32.884   6.402   3.632  1.00 20.00    -0.103 C 
ENDROOT
BRANCH   1   3
HETATM    3  C5  UNL     1     -34.857   5.147   4.905  1.00 20.00     0.121 A 
HETATM    4  C3  UNL     1     -34.526   3.969   5.749  1.00 20.00     0.055 A 
HETATM    5  C4  UNL     1     -34.939   5.264   6.385  1.00 20.00     0.055 A 
BRANCH   3   6
HETATM    6  O10 UNL     1     -36.063   5.134   4.149  1.00 20.00    -0.378 OA
HETATM    7  H24 UNL     1     -36.386   6.048   4.124  1.00 20.00     0.211 HD
ENDBRANCH   3   6
ENDBRANCH   1   3
BRANCH   2   8
HETATM    8  C7  UNL     1     -31.794   7.092   2.929  1.00 20.00     0.094 C 
BRANCH   8   9
HETATM    9  C9  UNL     1     -32.272   8.419   2.339  1.00 20.00     0.012 C 
BRANCH   9  10
HETATM   10  C8  UNL     1     -31.664   8.667   0.959  1.00 20.00    -0.004 C 
HETATM   11  C6  UNL     1     -32.715   9.132  -0.037  1.00 20.00     0.005 C 
ENDBRANCH   9  10
ENDBRANCH   8   9
ENDBRANCH   2   8
TORSDOF 5
ENDMDL
MODEL 2
REMARK VINA RESULT:      -4.7      2.044      5.434
REMARK  5 active torsions:
REMARK  status: ('A' for Active; 'I' for Inactive)
REMARK    1  A    between atoms: C1_1  and  C5_5 
REMARK    2  A    between atoms: C2_2  and  C7_7 
REMARK    3  A    between atoms: C5_5  and  O10_10 
REMARK    4  A    between atoms: C7_7  and  C9_9 
REMARK    5  A    between atoms: C8_8  and  C9_9 
ROOT
HETATM    1  C1  UNL     1     -33.196   6.929   3.067  1.00 20.00    -0.068 C 
HETATM    2  C2  UNL     1     -34.083   6.178   3.365  1.00 20.00    -0.103 C 
ENDROOT
BRANCH   1   3
HETATM    3  C5  UNL     1     -32.114   7.843   2.704  1.00 20.00     0.121 A 
HETATM    4  C3  UNL     1     -31.794   8.032   1.265  1.00 20.00     0.055 A 
HETATM    5  C4  UNL     1     -32.459   9.130   2.044  1.00 20.00     0.055 A 
BRANCH   3   6
HETATM    6  O10 UNL     1     -31.049   7.818   3.648  1.00 20.00    -0.378 OA
HETATM    7  H24 UNL     1     -31.231   8.520   4.292  1.00 20.00     0.211 HD
ENDBRANCH   3   6
ENDBRANCH   1   3
BRANCH   2   8
HETATM    8  C7  UNL     1     -35.172   5.260   3.731  1.00 20.00     0.094 C 
BRANCH   8   9
HETATM    9  C9  UNL     1     -34.723   4.277   4.811  1.00 20.00     0.012 C 
BRANCH   9  10
HETATM   10  C8  UNL     1     -35.082   4.783   6.208  1.00 20.00    -0.004 C 
HETATM   11  C6  UNL     1     -34.297   6.036   6.565  1.00 20.00     0.005 C 
ENDBRANCH   9  10
ENDBRANCH   8   9
ENDBRANCH   2   8
TORSDOF 5
ENDMDL
MODEL 3
REMARK VINA RESULT:      -4.6      2.201      5.781
REMARK  5 active torsions:
REMARK  status: ('A' for Active; 'I' for Inactive)
REMARK    1  A    between atoms: C1_1  and  C5_5 
REMARK    2  A    between atoms: C2_2  and  C7_7 
REMARK    3  A    between atoms: C5_5  and  O10_10 
REMARK    4  A    between atoms: C7_7  and  C9_9 
REMARK    5  A    between atoms: C8_8  and  C9_9 
ROOT
HETATM    1  C1  UNL     1     -32.613   7.901   2.301  1.00 20.00    -0.068 C 
HETATM    2  C2  UNL     1     -32.867   6.991   3.041  1.00 20.00    -0.103 C 
ENDROOT
BRANCH   1   3
HETATM    3  C5  UNL     1     -32.302   9.010   1.400  1.00 20.00     0.121 A 
HETATM    4  C3  UNL     1     -31.175   8.856   0.443  1.00 20.00     0.055 A 
HETATM    5  C4  UNL     1     -32.594   8.854  -0.049  1.00 20.00     0.055 A 
BRANCH   3   6
HETATM    6  O10 UNL     1     -32.516  10.277   2.013  1.00 20.00    -0.378 OA
HETATM    7  H24 UNL     1     -32.231  10.192   2.936  1.00 20.00     0.211 HD
ENDBRANCH   3   6
ENDBRANCH   1   3
BRANCH   2   8
HETATM    8  C7  UNL     1     -33.180   5.876   3.946  1.00 20.00     0.094 C 
BRANCH   8   9
HETATM    9  C9  UNL     1     -34.643   5.453   3.812  1.00 20.00     0.012 C 
BRANCH   9  10
HETATM   10  C8  UNL     1     -35.120   4.700   5.054  1.00 20.00    -0.004 C 
HETATM   11  C6  UNL     1     -34.614   5.353   6.331  1.00 20.00     0.005 C 
ENDBRANCH   9  10
ENDBRANCH   8   9
ENDBRANCH   2   8
TORSDOF 5
ENDMDL
MODEL 4
REMARK VINA RESULT:      -4.5     10.904     11.720
REMARK  5 active torsions:
REMARK  status: ('A' for Active; 'I' for Inactive)
REMARK    1  A    between atoms: C1_1  and  C5_5 
REMARK    2  A    between atoms: C2_2  and  C7_7 
REMARK    3  A    between atoms: C5_5  and  O10_10 
REMARK    4  A    between atoms: C7_7  and  C9_9 
REMARK    5  A    between atoms: C8_8  and  C9_9 
ROOT
HETATM    1  C1  UNL     1     -33.957  15.117  -3.168  1.00 20.00    -0.068 C 
HETATM    2  C2  UNL     1     -33.924  16.053  -2.418  1.00 20.00    -0.103 C 
ENDROOT
BRANCH   1   3
HETATM    3  C5  UNL     1     -33.999  13.975  -4.081  1.00 20.00     0.121 A 
HETATM    4  C3  UNL     1     -35.320  13.385  -4.424  1.00 20.00     0.055 A 
HETATM    5  C4  UNL     1     -34.554  14.173  -5.446  1.00 20.00     0.055 A 
BRANCH   3   6
HETATM    6  O10 UNL     1     -32.883  13.109  -3.911  1.00 20.00    -0.378 OA
HETATM    7  H24 UNL     1     -33.048  12.596  -3.105  1.00 20.00     0.211 HD
ENDBRANCH   3   6
ENDBRANCH   1   3
BRANCH   2   8
HETATM    8  C7  UNL     1     -33.880  17.201  -1.502  1.00 20.00     0.094 C 
BRANCH   8   9
HETATM    9  C9  UNL     1     -34.777  16.969  -0.286  1.00 20.00     0.012 C 
BRANCH   9  10
HETATM   10  C8  UNL     1     -34.479  17.976   0.826  1.00 20.00    -0.004 C 
HETATM   11  C6  UNL     1     -35.323  17.707   2.062  1.00 20.00     0.005 C 
ENDBRANCH   9  10
ENDBRANCH   8   9
ENDBRANCH   2   8
TORSDOF 5
ENDMDL
MODEL 5
REMARK VINA RESULT:      -4.5     10.953     11.788
REMARK  5 active torsions:
REMARK  status: ('A' for Active; 'I' for Inactive)
REMARK    1  A    between atoms: C1_1  and  C5_5 
REMARK    2  A    between atoms: C2_2  and  C7_7 
REMARK    3  A    between atoms: C5_5  and  O10_10 
REMARK    4  A    between atoms: C7_7  and  C9_9 
REMARK    5  A    between atoms: C8_8  and  C9_9 
ROOT
HETATM    1  C1  UNL     1     -34.250  14.998  -2.957  1.00 20.00    -0.068 C 
HETATM    2  C2  UNL     1     -34.411  15.818  -2.096  1.00 20.00    -0.103 C 
ENDROOT
BRANCH   1   3
HETATM    3  C5  UNL     1     -34.053  13.999  -4.006  1.00 20.00     0.121 A 
HETATM    4  C3  UNL     1     -35.243  13.298  -4.556  1.00 20.00     0.055 A 
HETATM    5  C4  UNL     1     -34.511  14.313  -5.385  1.00 20.00     0.055 A 
BRANCH   3   6
HETATM    6  O10 UNL     1     -32.844  13.268  -3.833  1.00 20.00    -0.378 OA
HETATM    7  H24 UNL     1     -32.989  12.663  -3.089  1.00 20.00     0.211 HD
ENDBRANCH   3   6
ENDBRANCH   1   3
BRANCH   2   8
HETATM    8  C7  UNL     1     -34.611  16.822  -1.042  1.00 20.00     0.094 C 
BRANCH   8   9
HETATM    9  C9  UNL     1     -33.473  17.842  -1.029  1.00 20.00     0.012 C 
BRANCH   9  10
HETATM   10  C8  UNL     1     -33.305  18.473   0.354  1.00 20.00    -0.004 C 
HETATM   11  C6  UNL     1     -31.888  18.984   0.564  1.00 20.00     0.005 C 
ENDBRANCH   9  10
ENDBRANCH   8   9
ENDBRANCH   2   8
TORSDOF 5
ENDMDL
MODEL 6
REMARK VINA RESULT:      -4.5     10.972     12.144
REMARK  5 active torsions:
REMARK  status: ('A' for Active; 'I' for Inactive)
REMARK    1  A    between atoms: C1_1  and  C5_5 
REMARK    2  A    between atoms: C2_2  and  C7_7 
REMARK    3  A    between atoms: C5_5  and  O10_10 
REMARK    4  A    between atoms: C7_7  and  C9_9 
REMARK    5  A    between atoms: C8_8  and  C9_9 
ROOT
HETATM    1  C1  UNL     1     -33.994  15.781  -2.654  1.00 20.00    -0.068 C 
HETATM    2  C2  UNL     1     -34.347  16.324  -1.644  1.00 20.00    -0.103 C 
ENDROOT
BRANCH   1   3
HETATM    3  C5  UNL     1     -33.563  15.119  -3.884  1.00 20.00     0.121 A 
HETATM    4  C3  UNL     1     -33.445  13.637  -3.893  1.00 20.00     0.055 A 
HETATM    5  C4  UNL     1     -34.553  14.313  -4.647  1.00 20.00     0.055 A 
BRANCH   3   6
HETATM    6  O10 UNL     1     -32.604  15.889  -4.602  1.00 20.00    -0.378 OA
HETATM    7  H24 UNL     1     -32.868  16.818  -4.510  1.00 20.00     0.211 HD
ENDBRANCH   3   6
ENDBRANCH   1   3
BRANCH   2   8
HETATM    8  C7  UNL     1     -34.783  16.989  -0.408  1.00 20.00     0.094 C 
BRANCH   8   9
HETATM    9  C9  UNL     1     -34.227  18.410  -0.322  1.00 20.00     0.012 C 
BRANCH   9  10
HETATM   10  C8  UNL     1     -33.272  18.564   0.862  1.00 20.00    -0.004 C 
HETATM   11  C6  UNL     1     -31.871  18.937   0.403  1.00 20.00     0.005 C 
ENDBRANCH   9  10
ENDBRANCH   8   9
ENDBRANCH   2   8
TORSDOF 5
ENDMDL
MODEL 7
REMARK VINA RESULT:      -4.4     11.527     12.534
REMARK  5 active torsions:
REMARK  status: ('A' for Active; 'I' for Inactive)
REMARK    1  A    between atoms: C1_1  and  C5_5 
REMARK    2  A    between atoms: C2_2  and  C7_7 
REMARK    3  A    between atoms: C5_5  and  O10_10 
REMARK    4  A    between atoms: C7_7  and  C9_9 
REMARK    5  A    between atoms: C8_8  and  C9_9 
ROOT
HETATM    1  C1  UNL     1     -33.724  16.056  -2.711  1.00 20.00    -0.068 C 
HETATM    2  C2  UNL     1     -34.173  16.444  -1.668  1.00 20.00    -0.103 C 
ENDROOT
BRANCH   1   3
HETATM    3  C5  UNL     1     -33.176  15.581  -3.981  1.00 20.00     0.121 A 
HETATM    4  C3  UNL     1     -34.117  15.249  -5.083  1.00 20.00     0.055 A 
HETATM    5  C4  UNL     1     -33.252  16.473  -5.168  1.00 20.00     0.055 A 
BRANCH   3   6
HETATM    6  O10 UNL     1     -32.017  14.774  -3.799  1.00 20.00    -0.378 OA
HETATM    7  H24 UNL     1     -31.544  15.136  -3.034  1.00 20.00     0.211 HD
ENDBRANCH   3   6
ENDBRANCH   1   3
BRANCH   2   8
HETATM    8  C7  UNL     1     -34.724  16.922  -0.392  1.00 20.00     0.094 C 
BRANCH   8   9
HETATM    9  C9  UNL     1     -33.980  18.164   0.098  1.00 20.00     0.012 C 
BRANCH   9  10
HETATM   10  C8  UNL     1     -34.182  18.377   1.599  1.00 20.00    -0.004 C 
HETATM   11  C6  UNL     1     -32.880  18.761   2.286  1.00 20.00     0.005 C 
ENDBRANCH   9  10
ENDBRANCH   8   9
ENDBRANCH   2   8
TORSDOF 5
ENDMDL
MODEL 8
REMARK VINA RESULT:      -4.1     11.041     11.917
REMARK  5 active torsions:
REMARK  status: ('A' for Active; 'I' for Inactive)
REMARK    1  A    between atoms: C1_1  and  C5_5 
REMARK    2  A    between atoms: C2_2  and  C7_7 
REMARK    3  A    between atoms: C5_5  and  O10_10 
REMARK    4  A    between atoms: C7_7  and  C9_9 
REMARK    5  A    between atoms: C8_8  and  C9_9 
ROOT
HETATM    1  C1  UNL     1     -34.344  15.945  -2.413  1.00 20.00    -0.068 C 
HETATM    2  C2  UNL     1     -34.086  14.965  -3.056  1.00 20.00    -0.103 C 
ENDROOT
BRANCH   1   3
HETATM    3  C5  UNL     1     -34.660  17.139  -1.631  1.00 20.00     0.121 A 
HETATM    4  C3  UNL     1     -34.776  17.012  -0.154  1.00 20.00     0.055 A 
HETATM    5  C4  UNL     1     -33.603  17.724  -0.764  1.00 20.00     0.055 A 
BRANCH   3   6
HETATM    6  O10 UNL     1     -35.549  18.013  -2.318  1.00 20.00    -0.378 OA
HETATM    7  H24 UNL     1     -35.588  17.704  -3.236  1.00 20.00     0.211 HD
ENDBRANCH   3   6
ENDBRANCH   1   3
BRANCH   2   8
HETATM    8  C7  UNL     1     -33.767  13.765  -3.842  1.00 20.00     0.094 C 
BRANCH   8   9
HETATM    9  C9  UNL     1     -34.952  13.343  -4.710  1.00 20.00     0.012 C 
BRANCH   9  10
HETATM   10  C8  UNL     1     -35.459  14.505  -5.565  1.00 20.00    -0.004 C 
HETATM   11  C6  UNL     1     -34.574  14.728  -6.782  1.00 20.00     0.005 C 
ENDBRANCH   9  10
ENDBRANCH   8   9
ENDBRANCH   2   8
TORSDOF 5
ENDMDL
MODEL 9
REMARK VINA RESULT:      -4.0     10.839     11.554
REMARK  5 active torsions:
REMARK  status: ('A' for Active; 'I' for Inactive)
REMARK    1  A    between atoms: C1_1  and  C5_5 
REMARK    2  A    between atoms: C2_2  and  C7_7 
REMARK    3  A    between atoms: C5_5  and  O10_10 
REMARK    4  A    between atoms: C7_7  and  C9_9 
REMARK    5  A    between atoms: C8_8  and  C9_9 
ROOT
HETATM    1  C1  UNL     1     -35.013  17.218  -0.321  1.00 20.00    -0.068 C 
HETATM    2  C2  UNL     1     -34.471  16.700  -1.258  1.00 20.00    -0.103 C 
ENDROOT
BRANCH   1   3
HETATM    3  C5  UNL     1     -35.673  17.850   0.820  1.00 20.00     0.121 A 
HETATM    4  C3  UNL     1     -35.224  17.491   2.191  1.00 20.00     0.055 A 
HETATM    5  C4  UNL     1     -34.912  18.845   1.622  1.00 20.00     0.055 A 
BRANCH   3   6
HETATM    6  O10 UNL     1     -37.059  18.071   0.587  1.00 20.00    -0.378 OA
HETATM    7  H24 UNL     1     -37.177  19.029   0.492  1.00 20.00     0.211 HD
ENDBRANCH   3   6
ENDBRANCH   1   3
BRANCH   2   8
HETATM    8  C7  UNL     1     -33.809  16.064  -2.406  1.00 20.00     0.094 C 
BRANCH   8   9
HETATM    9  C9  UNL     1     -34.700  14.991  -3.031  1.00 20.00     0.012 C 
BRANCH   9  10
HETATM   10  C8  UNL     1     -33.869  13.875  -3.663  1.00 20.00    -0.004 C 
HETATM   11  C6  UNL     1     -34.584  13.254  -4.853  1.00 20.00     0.005 C 
ENDBRANCH   9  10
ENDBRANCH   8   9
ENDBRANCH   2   8
TORSDOF 5
ENDMDL
