MODEL 1
REMARK VINA RESULT:      -4.6      0.000      0.000
REMARK  2 active torsions:
REMARK  status: ('A' for Active; 'I' for Inactive)
REMARK    1  A    between atoms: C2_2  and  C5_5 
REMARK    2  A    between atoms: C4_4  and  C8_8 
ROOT
HETATM    1  C1  UNL     1     -33.149   5.473   2.518  1.00 20.00    -0.015 C 
HETATM    2  C2  UNL     1     -33.103   6.568   3.283  1.00 20.00    -0.009 C 
HETATM    3  C6  UNL     1     -34.346   4.643   2.847  1.00 20.00     0.028 C 
HETATM    4  C7  UNL     1     -35.203   5.600   3.683  1.00 20.00     0.017 C 
HETATM    5  C8  UNL     1     -34.246   6.666   4.240  1.00 20.00     0.044 C 
ENDROOT
BRANCH   2   6
HETATM    6  C5  UNL     1     -32.046   7.559   3.167  1.00 20.00     0.152 C 
HETATM    7  C9  UNL     1     -32.012   8.435   1.934  1.00 20.00     0.096 C 
HETATM    8  O10 UNL     1     -31.187   7.685   4.051  1.00 20.00    -0.293 OA
ENDBRANCH   2   6
BRANCH   5   9
HETATM    9  C4  UNL     1     -33.842   6.380   5.652  1.00 20.00    -0.027 C 
HETATM   10  C3  UNL     1     -34.457   5.492   6.441  1.00 20.00     0.007 C 
ENDBRANCH   5   9
TORSDOF 2
ENDMDL
MODEL 2
REMARK VINA RESULT:      -4.5     10.815     12.047
REMARK  2 active torsions:
REMARK  status: ('A' for Active; 'I' for Inactive)
REMARK    1  A    between atoms: C2_2  and  C5_5 
REMARK    2  A    between atoms: C4_4  and  C8_8 
ROOT
HETATM    1  C1  UNL     1     -34.530  16.149  -4.915  1.00 20.00    -0.015 C 
HETATM    2  C2  UNL     1     -34.099  15.424  -3.878  1.00 20.00    -0.009 C 
HETATM    3  C6  UNL     1     -34.519  17.606  -4.588  1.00 20.00     0.028 C 
HETATM    4  C7  UNL     1     -33.670  17.662  -3.313  1.00 20.00     0.017 C 
HETATM    5  C8  UNL     1     -33.724  16.255  -2.694  1.00 20.00     0.044 C 
ENDROOT
BRANCH   2   6
HETATM    6  C5  UNL     1     -33.997  13.975  -3.925  1.00 20.00     0.152 C 
HETATM    7  C9  UNL     1     -35.199  13.184  -4.395  1.00 20.00     0.096 C 
HETATM    8  O10 UNL     1     -32.957  13.395  -3.584  1.00 20.00    -0.293 OA
ENDBRANCH   2   6
BRANCH   5   9
HETATM    9  C4  UNL     1     -34.723  16.164  -1.585  1.00 20.00    -0.027 C 
HETATM   10  C3  UNL     1     -34.675  16.903  -0.472  1.00 20.00     0.007 C 
ENDBRANCH   5   9
TORSDOF 2
ENDMDL
MODEL 3
REMARK VINA RESULT:      -4.5      1.315      3.533
REMARK  2 active torsions:
REMARK  status: ('A' for Active; 'I' for Inactive)
REMARK    1  A    between atoms: C2_2  and  C5_5 
REMARK    2  A    between atoms: C4_4  and  C8_8 
ROOT
HETATM    1  C1  UNL     1     -35.095   5.481   3.683  1.00 20.00    -0.015 C 
HETATM    2  C2  UNL     1     -34.047   5.776   4.458  1.00 20.00    -0.009 C 
HETATM    3  C6  UNL     1     -34.690   5.395   2.249  1.00 20.00     0.028 C 
HETATM    4  C7  UNL     1     -33.161   5.331   2.330  1.00 20.00     0.017 C 
HETATM    5  C8  UNL     1     -32.774   5.932   3.692  1.00 20.00     0.044 C 
ENDROOT
BRANCH   2   6
HETATM    6  C5  UNL     1     -34.154   5.911   5.902  1.00 20.00     0.152 C 
HETATM    7  C9  UNL     1     -34.860   4.819   6.676  1.00 20.00     0.096 C 
HETATM    8  O10 UNL     1     -33.686   6.896   6.488  1.00 20.00    -0.293 OA
ENDBRANCH   2   6
BRANCH   5   9
HETATM    9  C4  UNL     1     -32.341   7.359   3.576  1.00 20.00    -0.027 C 
HETATM   10  C3  UNL     1     -32.065   7.966   2.417  1.00 20.00     0.007 C 
ENDBRANCH   5   9
TORSDOF 2
ENDMDL
MODEL 4
REMARK VINA RESULT:      -4.4     10.776     11.729
REMARK  2 active torsions:
REMARK  status: ('A' for Active; 'I' for Inactive)
REMARK    1  A    between atoms: C2_2  and  C5_5 
REMARK    2  A    between atoms: C4_4  and  C8_8 
ROOT
HETATM    1  C1  UNL     1     -36.890  14.696  -3.880  1.00 20.00    -0.015 C 
HETATM    2  C2  UNL     1     -35.574  14.790  -3.667  1.00 20.00    -0.009 C 
HETATM    3  C6  UNL     1     -37.578  15.976  -3.541  1.00 20.00     0.028 C 
HETATM    4  C7  UNL     1     -36.416  16.969  -3.433  1.00 20.00     0.017 C 
HETATM    5  C8  UNL     1     -35.154  16.132  -3.161  1.00 20.00     0.044 C 
ENDROOT
BRANCH   2   6
HETATM    6  C5  UNL     1     -34.658  13.691  -3.924  1.00 20.00     0.152 C 
HETATM    7  C9  UNL     1     -33.179  13.919  -3.702  1.00 20.00     0.096 C 
HETATM    8  O10 UNL     1     -35.072  12.593  -4.322  1.00 20.00    -0.293 OA
ENDBRANCH   2   6
BRANCH   5   9
HETATM    9  C4  UNL     1     -34.792  16.114  -1.710  1.00 20.00    -0.027 C 
HETATM   10  C3  UNL     1     -34.019  17.032  -1.120  1.00 20.00     0.007 C 
ENDBRANCH   5   9
TORSDOF 2
ENDMDL
MODEL 5
REMARK VINA RESULT:      -4.4     11.020     12.041
REMARK  2 active torsions:
REMARK  status: ('A' for Active; 'I' for Inactive)
REMARK    1  A    between atoms: C2_2  and  C5_5 
REMARK    2  A    between atoms: C4_4  and  C8_8 
ROOT
HETATM    1  C1  UNL     1     -35.879  14.512  -3.636  1.00 20.00    -0.015 C 
HETATM    2  C2  UNL     1     -34.979  15.332  -3.084  1.00 20.00    -0.009 C 
HETATM    3  C6  UNL     1     -35.208  13.460  -4.457  1.00 20.00     0.028 C 
HETATM    4  C7  UNL     1     -33.744  13.566  -4.015  1.00 20.00     0.017 C 
HETATM    5  C8  UNL     1     -33.569  14.976  -3.428  1.00 20.00     0.044 C 
ENDROOT
BRANCH   2   6
HETATM    6  C5  UNL     1     -35.356  16.443  -2.225  1.00 20.00     0.152 C 
HETATM    7  C9  UNL     1     -34.588  16.650  -0.938  1.00 20.00     0.096 C 
HETATM    8  O10 UNL     1     -36.286  17.201  -2.532  1.00 20.00    -0.293 OA
ENDBRANCH   2   6
BRANCH   5   9
HETATM    9  C4  UNL     1     -32.958  15.924  -4.410  1.00 20.00    -0.027 C 
HETATM   10  C3  UNL     1     -33.652  16.591  -5.338  1.00 20.00     0.007 C 
ENDBRANCH   5   9
TORSDOF 2
ENDMDL
MODEL 6
REMARK VINA RESULT:      -4.4      1.338      2.725
REMARK  2 active torsions:
REMARK  status: ('A' for Active; 'I' for Inactive)
REMARK    1  A    between atoms: C2_2  and  C5_5 
REMARK    2  A    between atoms: C4_4  and  C8_8 
ROOT
HETATM    1  C1  UNL     1     -33.295   7.098   5.511  1.00 20.00    -0.015 C 
HETATM    2  C2  UNL     1     -33.316   6.164   4.555  1.00 20.00    -0.009 C 
HETATM    3  C6  UNL     1     -34.144   6.693   6.670  1.00 20.00     0.028 C 
HETATM    4  C7  UNL     1     -34.388   5.203   6.408  1.00 20.00     0.017 C 
HETATM    5  C8  UNL     1     -34.164   4.985   4.903  1.00 20.00     0.044 C 
ENDROOT
BRANCH   2   6
HETATM    6  C5  UNL     1     -32.566   6.296   3.316  1.00 20.00     0.152 C 
HETATM    7  C9  UNL     1     -32.279   7.687   2.793  1.00 20.00     0.096 C 
HETATM    8  O10 UNL     1     -32.175   5.298   2.697  1.00 20.00    -0.293 OA
ENDBRANCH   2   6
BRANCH   5   9
HETATM    9  C4  UNL     1     -35.449   4.953   4.139  1.00 20.00    -0.027 C 
HETATM   10  C3  UNL     1     -35.880   5.949   3.358  1.00 20.00     0.007 C 
ENDBRANCH   5   9
TORSDOF 2
ENDMDL
MODEL 7
REMARK VINA RESULT:      -4.4     11.342     12.028
REMARK  2 active torsions:
REMARK  status: ('A' for Active; 'I' for Inactive)
REMARK    1  A    between atoms: C2_2  and  C5_5 
REMARK    2  A    between atoms: C4_4  and  C8_8 
ROOT
HETATM    1  C1  UNL     1     -33.526  15.685  -4.035  1.00 20.00    -0.015 C 
HETATM    2  C2  UNL     1     -34.577  14.860  -4.077  1.00 20.00    -0.009 C 
HETATM    3  C6  UNL     1     -33.635  16.630  -2.885  1.00 20.00     0.028 C 
HETATM    4  C7  UNL     1     -34.743  16.002  -2.033  1.00 20.00     0.017 C 
HETATM    5  C8  UNL     1     -35.557  15.100  -2.975  1.00 20.00     0.044 C 
ENDROOT
BRANCH   2   6
HETATM    6  C5  UNL     1     -34.723  13.829  -5.091  1.00 20.00     0.152 C 
HETATM    7  C9  UNL     1     -34.960  14.256  -6.523  1.00 20.00     0.096 C 
HETATM    8  O10 UNL     1     -34.662  12.628  -4.795  1.00 20.00    -0.293 OA
ENDBRANCH   2   6
BRANCH   5   9
HETATM    9  C4  UNL     1     -36.809  15.767  -3.452  1.00 20.00    -0.027 C 
HETATM   10  C3  UNL     1     -37.950  15.119  -3.709  1.00 20.00     0.007 C 
ENDBRANCH   5   9
TORSDOF 2
ENDMDL
MODEL 8
REMARK VINA RESULT:      -4.3     11.283     12.140
REMARK  2 active torsions:
REMARK  status: ('A' for Active; 'I' for Inactive)
REMARK    1  A    between atoms: C2_2  and  C5_5 
REMARK    2  A    between atoms: C4_4  and  C8_8 
ROOT
HETATM    1  C1  UNL     1     -35.884  14.732  -5.542  1.00 20.00    -0.015 C 
HETATM    2  C2  UNL     1     -36.152  14.847  -4.238  1.00 20.00    -0.009 C 
HETATM    3  C6  UNL     1     -34.457  14.354  -5.762  1.00 20.00     0.028 C 
HETATM    4  C7  UNL     1     -34.004  13.909  -4.366  1.00 20.00     0.017 C 
HETATM    5  C8  UNL     1     -34.971  14.566  -3.367  1.00 20.00     0.044 C 
ENDROOT
BRANCH   2   6
HETATM    6  C5  UNL     1     -37.472  15.196  -3.738  1.00 20.00     0.152 C 
HETATM    7  C9  UNL     1     -37.799  16.659  -3.528  1.00 20.00     0.096 C 
HETATM    8  O10 UNL     1     -38.311  14.322  -3.484  1.00 20.00    -0.293 OA
ENDBRANCH   2   6
BRANCH   5   9
HETATM    9  C4  UNL     1     -34.397  15.804  -2.757  1.00 20.00    -0.027 C 
HETATM   10  C3  UNL     1     -34.687  16.235  -1.525  1.00 20.00     0.007 C 
ENDBRANCH   5   9
TORSDOF 2
ENDMDL
MODEL 9
REMARK VINA RESULT:      -4.3     11.435     12.383
REMARK  2 active torsions:
REMARK  status: ('A' for Active; 'I' for Inactive)
REMARK    1  A    between atoms: C2_2  and  C5_5 
REMARK    2  A    between atoms: C4_4  and  C8_8 
ROOT
HETATM    1  C1  UNL     1     -34.628  15.830  -5.301  1.00 20.00    -0.015 C 
HETATM    2  C2  UNL     1     -35.396  15.328  -4.329  1.00 20.00    -0.009 C 
HETATM    3  C6  UNL     1     -33.272  16.177  -4.784  1.00 20.00     0.028 C 
HETATM    4  C7  UNL     1     -33.234  15.467  -3.426  1.00 20.00     0.017 C 
HETATM    5  C8  UNL     1     -34.698  15.246  -3.011  1.00 20.00     0.044 C 
ENDROOT
BRANCH   2   6
HETATM    6  C5  UNL     1     -36.765  14.896  -4.558  1.00 20.00     0.152 C 
HETATM    7  C9  UNL     1     -37.500  15.440  -5.764  1.00 20.00     0.096 C 
HETATM    8  O10 UNL     1     -37.323  14.105  -3.785  1.00 20.00    -0.293 OA
ENDBRANCH   2   6
BRANCH   5   9
HETATM    9  C4  UNL     1     -35.172  16.283  -2.042  1.00 20.00    -0.027 C 
HETATM   10  C3  UNL     1     -34.504  16.637  -0.939  1.00 20.00     0.007 C 
ENDBRANCH   5   9
TORSDOF 2
ENDMDL
