MODEL 1
REMARK VINA RESULT:      -4.5      0.000      0.000
REMARK  1 active torsions:
REMARK  status: ('A' for Active; 'I' for Inactive)
REMARK    1  A    between atoms: C1_1  and  C5_5 
ROOT
HETATM    1  C1  UNL     1     -34.728  15.636  -2.555  1.00 20.00    -0.068 C 
HETATM    2  C2  UNL     1     -34.690  16.267  -1.534  1.00 20.00    -0.108 C 
HETATM    3  C6  UNL     1     -34.645  17.036  -0.291  1.00 20.00     0.112 C 
ENDROOT
BRANCH   1   4
HETATM    4  C5  UNL     1     -34.774  14.875  -3.788  1.00 20.00     0.126 C 
HETATM    5  C3  UNL     1     -35.048  15.728  -5.062  1.00 20.00     0.057 C 
HETATM    6  C4  UNL     1     -36.218  14.746  -5.278  1.00 20.00     0.127 C 
HETATM    7  C7  UNL     1     -34.013  15.799  -6.167  1.00 20.00     0.016 C 
HETATM    8  C8  UNL     1     -37.589  15.352  -5.498  1.00 20.00     0.040 C 
HETATM    9  O10 UNL     1     -36.081  14.244  -3.921  1.00 20.00    -0.362 OA
HETATM   10  C9  UNL     1     -33.680  13.815  -3.838  1.00 20.00     0.061 C 
ENDBRANCH   1   4
TORSDOF 1
ENDMDL
MODEL 2
REMARK VINA RESULT:      -4.1      1.659      2.929
REMARK  1 active torsions:
REMARK  status: ('A' for Active; 'I' for Inactive)
REMARK    1  A    between atoms: C1_1  and  C5_5 
ROOT
HETATM    1  C1  UNL     1     -34.809  16.722  -1.618  1.00 20.00    -0.068 C 
HETATM    2  C2  UNL     1     -34.825  17.060  -0.466  1.00 20.00    -0.108 C 
HETATM    3  C6  UNL     1     -34.845  17.473   0.937  1.00 20.00     0.112 C 
ENDROOT
BRANCH   1   4
HETATM    4  C5  UNL     1     -34.789  16.314  -3.009  1.00 20.00     0.126 C 
HETATM    5  C3  UNL     1     -35.230  14.841  -3.255  1.00 20.00     0.057 C 
HETATM    6  C4  UNL     1     -33.866  14.714  -3.965  1.00 20.00     0.127 C 
HETATM    7  C7  UNL     1     -36.458  14.545  -4.093  1.00 20.00     0.016 C 
HETATM    8  C8  UNL     1     -32.969  13.576  -3.526  1.00 20.00     0.040 C 
HETATM    9  O10 UNL     1     -33.424  15.977  -3.395  1.00 20.00    -0.362 OA
HETATM   10  C9  UNL     1     -35.331  17.404  -3.925  1.00 20.00     0.061 C 
ENDBRANCH   1   4
TORSDOF 1
ENDMDL
MODEL 3
REMARK VINA RESULT:      -4.1      1.527      2.203
REMARK  1 active torsions:
REMARK  status: ('A' for Active; 'I' for Inactive)
REMARK    1  A    between atoms: C1_1  and  C5_5 
ROOT
HETATM    1  C1  UNL     1     -34.395  16.575  -2.606  1.00 20.00    -0.068 C 
HETATM    2  C2  UNL     1     -34.558  16.799  -1.437  1.00 20.00    -0.108 C 
HETATM    3  C6  UNL     1     -34.757  17.072  -0.015  1.00 20.00     0.112 C 
ENDROOT
BRANCH   1   4
HETATM    4  C5  UNL     1     -34.197  16.304  -4.016  1.00 20.00     0.126 C 
HETATM    5  C3  UNL     1     -35.403  15.609  -4.714  1.00 20.00     0.057 C 
HETATM    6  C4  UNL     1     -34.358  14.549  -5.120  1.00 20.00     0.127 C 
HETATM    7  C7  UNL     1     -36.132  16.307  -5.846  1.00 20.00     0.016 C 
HETATM    8  C8  UNL     1     -34.685  13.106  -4.798  1.00 20.00     0.040 C 
HETATM    9  O10 UNL     1     -33.401  15.092  -4.170  1.00 20.00    -0.362 OA
HETATM   10  C9  UNL     1     -33.511  17.466  -4.724  1.00 20.00     0.061 C 
ENDBRANCH   1   4
TORSDOF 1
ENDMDL
MODEL 4
REMARK VINA RESULT:      -4.1      1.307      2.239
REMARK  1 active torsions:
REMARK  status: ('A' for Active; 'I' for Inactive)
REMARK    1  A    between atoms: C1_1  and  C5_5 
ROOT
HETATM    1  C1  UNL     1     -35.186  16.067  -2.421  1.00 20.00    -0.068 C 
HETATM    2  C2  UNL     1     -34.868  16.566  -1.375  1.00 20.00    -0.108 C 
HETATM    3  C6  UNL     1     -34.480  17.173  -0.103  1.00 20.00     0.112 C 
ENDROOT
BRANCH   1   4
HETATM    4  C5  UNL     1     -35.570  15.465  -3.682  1.00 20.00     0.126 C 
HETATM    5  C3  UNL     1     -34.416  14.727  -4.422  1.00 20.00     0.057 C 
HETATM    6  C4  UNL     1     -34.785  15.655  -5.598  1.00 20.00     0.127 C 
HETATM    7  C7  UNL     1     -34.510  13.237  -4.682  1.00 20.00     0.016 C 
HETATM    8  C8  UNL     1     -33.658  16.453  -6.220  1.00 20.00     0.040 C 
HETATM    9  O10 UNL     1     -35.591  16.488  -4.720  1.00 20.00    -0.362 OA
HETATM   10  C9  UNL     1     -36.933  14.790  -3.593  1.00 20.00     0.061 C 
ENDBRANCH   1   4
TORSDOF 1
ENDMDL
MODEL 5
REMARK VINA RESULT:      -4.1     11.558     12.755
REMARK  1 active torsions:
REMARK  status: ('A' for Active; 'I' for Inactive)
REMARK    1  A    between atoms: C1_1  and  C5_5 
ROOT
HETATM    1  C1  UNL     1     -41.588   4.232  -2.085  1.00 20.00    -0.068 C 
HETATM    2  C2  UNL     1     -41.636   3.198  -2.694  1.00 20.00    -0.108 C 
HETATM    3  C6  UNL     1     -41.695   1.939  -3.437  1.00 20.00     0.112 C 
ENDROOT
BRANCH   1   4
HETATM    4  C5  UNL     1     -41.530   5.480  -1.350  1.00 20.00     0.126 C 
HETATM    5  C3  UNL     1     -42.915   6.144  -1.098  1.00 20.00     0.057 C 
HETATM    6  C4  UNL     1     -42.277   7.372  -1.780  1.00 20.00     0.127 C 
HETATM    7  C7  UNL     1     -43.417   6.343   0.319  1.00 20.00     0.016 C 
HETATM    8  C8  UNL     1     -43.039   7.985  -2.936  1.00 20.00     0.040 C 
HETATM    9  O10 UNL     1     -41.168   6.561  -2.258  1.00 20.00    -0.362 OA
HETATM   10  C9  UNL     1     -40.530   5.412  -0.202  1.00 20.00     0.061 C 
ENDBRANCH   1   4
TORSDOF 1
ENDMDL
MODEL 6
REMARK VINA RESULT:      -3.9      1.363      3.773
REMARK  1 active torsions:
REMARK  status: ('A' for Active; 'I' for Inactive)
REMARK    1  A    between atoms: C1_1  and  C5_5 
ROOT
HETATM    1  C1  UNL     1     -36.591  15.104  -4.427  1.00 20.00    -0.068 C 
HETATM    2  C2  UNL     1     -37.772  14.892  -4.362  1.00 20.00    -0.108 C 
HETATM    3  C6  UNL     1     -39.209  14.635  -4.284  1.00 20.00     0.112 C 
ENDROOT
BRANCH   1   4
HETATM    4  C5  UNL     1     -35.166  15.359  -4.505  1.00 20.00     0.126 C 
HETATM    5  C3  UNL     1     -34.333  14.717  -3.357  1.00 20.00     0.057 C 
HETATM    6  C4  UNL     1     -33.830  16.157  -3.126  1.00 20.00     0.127 C 
HETATM    7  C7  UNL     1     -33.278  13.675  -3.673  1.00 20.00     0.016 C 
HETATM    8  C8  UNL     1     -33.942  16.704  -1.718  1.00 20.00     0.040 C 
HETATM    9  O10 UNL     1     -34.883  16.688  -3.977  1.00 20.00    -0.362 OA
HETATM   10  C9  UNL     1     -34.650  15.249  -5.934  1.00 20.00     0.061 C 
ENDBRANCH   1   4
TORSDOF 1
ENDMDL
MODEL 7
REMARK VINA RESULT:      -3.8      2.647      5.226
REMARK  1 active torsions:
REMARK  status: ('A' for Active; 'I' for Inactive)
REMARK    1  A    between atoms: C1_1  and  C5_5 
ROOT
HETATM    1  C1  UNL     1     -34.018  16.594  -2.350  1.00 20.00    -0.068 C 
HETATM    2  C2  UNL     1     -33.955  15.539  -2.920  1.00 20.00    -0.108 C 
HETATM    3  C6  UNL     1     -33.877  14.254  -3.614  1.00 20.00     0.112 C 
ENDROOT
BRANCH   1   4
HETATM    4  C5  UNL     1     -34.095  17.868  -1.662  1.00 20.00     0.126 C 
HETATM    5  C3  UNL     1     -33.399  17.891  -0.269  1.00 20.00     0.057 C 
HETATM    6  C4  UNL     1     -34.774  18.373   0.237  1.00 20.00     0.127 C 
HETATM    7  C7  UNL     1     -32.225  18.818  -0.021  1.00 20.00     0.016 C 
HETATM    8  C8  UNL     1     -35.383  17.610   1.395  1.00 20.00     0.040 C 
HETATM    9  O10 UNL     1     -35.398  17.995  -1.021  1.00 20.00    -0.362 OA
HETATM   10  C9  UNL     1     -33.869  19.037  -2.613  1.00 20.00     0.061 C 
ENDBRANCH   1   4
TORSDOF 1
ENDMDL
MODEL 8
REMARK VINA RESULT:      -3.8     10.439     11.899
REMARK  1 active torsions:
REMARK  status: ('A' for Active; 'I' for Inactive)
REMARK    1  A    between atoms: C1_1  and  C5_5 
ROOT
HETATM    1  C1  UNL     1     -32.637   7.670   2.581  1.00 20.00    -0.068 C 
HETATM    2  C2  UNL     1     -32.447   8.654   1.918  1.00 20.00    -0.108 C 
HETATM    3  C6  UNL     1     -32.216   9.852   1.113  1.00 20.00     0.112 C 
ENDROOT
BRANCH   1   4
HETATM    4  C5  UNL     1     -32.866   6.482   3.379  1.00 20.00     0.126 C 
HETATM    5  C3  UNL     1     -34.270   6.417   4.049  1.00 20.00     0.057 C 
HETATM    6  C4  UNL     1     -33.468   6.242   5.355  1.00 20.00     0.127 C 
HETATM    7  C7  UNL     1     -35.232   5.301   3.692  1.00 20.00     0.016 C 
HETATM    8  C8  UNL     1     -33.802   7.181   6.495  1.00 20.00     0.040 C 
HETATM    9  O10 UNL     1     -32.243   6.648   4.686  1.00 20.00    -0.362 OA
HETATM   10  C9  UNL     1     -32.320   5.232   2.701  1.00 20.00     0.061 C 
ENDBRANCH   1   4
TORSDOF 1
ENDMDL
MODEL 9
REMARK VINA RESULT:      -3.7      1.538      3.464
REMARK  1 active torsions:
REMARK  status: ('A' for Active; 'I' for Inactive)
REMARK    1  A    between atoms: C1_1  and  C5_5 
ROOT
HETATM    1  C1  UNL     1     -36.369  14.911  -4.129  1.00 20.00    -0.068 C 
HETATM    2  C2  UNL     1     -37.563  14.798  -4.198  1.00 20.00    -0.108 C 
HETATM    3  C6  UNL     1     -39.017  14.662  -4.282  1.00 20.00     0.112 C 
ENDROOT
BRANCH   1   4
HETATM    4  C5  UNL     1     -34.929  15.046  -4.044  1.00 20.00     0.126 C 
HETATM    5  C3  UNL     1     -34.441  16.426  -3.513  1.00 20.00     0.057 C 
HETATM    6  C4  UNL     1     -33.628  16.468  -4.823  1.00 20.00     0.127 C 
HETATM    7  C7  UNL     1     -33.649  16.508  -2.223  1.00 20.00     0.016 C 
HETATM    8  C8  UNL     1     -33.782  17.704  -5.686  1.00 20.00     0.040 C 
HETATM    9  O10 UNL     1     -34.393  15.356  -5.364  1.00 20.00    -0.362 OA
HETATM   10  C9  UNL     1     -34.274  13.780  -3.504  1.00 20.00     0.061 C 
ENDBRANCH   1   4
TORSDOF 1
ENDMDL
