MODEL 1
REMARK VINA RESULT:      -5.7      0.000      0.000
REMARK  1 active torsions:
REMARK  status: ('A' for Active; 'I' for Inactive)
REMARK    1  A    between atoms: C5_5  and  C8_8 
ROOT
HETATM    1  C1  UNL     1     -34.924   4.786   6.226  1.00 20.00    -0.004 C 
HETATM    2  C2  UNL     1     -34.111   5.962   6.533  1.00 20.00    -0.004 C 
HETATM    3  C3  UNL     1     -35.167   4.184   5.041  1.00 20.00    -0.026 C 
HETATM    4  C4  UNL     1     -33.769   6.934   5.662  1.00 20.00    -0.021 C 
HETATM    5  C6  UNL     1     -34.663   4.554   3.652  1.00 20.00     0.033 C 
HETATM    6  C7  UNL     1     -34.169   6.895   4.259  1.00 20.00     0.026 A 
HETATM    7  C8  UNL     1     -33.421   6.910   2.970  1.00 20.00     0.085 A 
HETATM    8  C9  UNL     1     -33.601   5.598   3.675  1.00 20.00     0.011 A 
ENDROOT
BRANCH   7   9
HETATM    9  C5  UNL     1     -32.093   7.534   2.915  1.00 20.00     0.224 C 
HETATM   10  O10 UNL     1     -31.274   7.389   3.818  1.00 20.00    -0.279 OA
HETATM   11 CL11 UNL     1     -31.864   8.457   1.461  1.00 20.00    -0.043 Cl
ENDBRANCH   7   9
TORSDOF 1
ENDMDL
MODEL 2
REMARK VINA RESULT:      -5.3      1.309      2.321
REMARK  1 active torsions:
REMARK  status: ('A' for Active; 'I' for Inactive)
REMARK    1  A    between atoms: C5_5  and  C8_8 
ROOT
HETATM    1  C1  UNL     1     -35.077   5.114   5.009  1.00 20.00    -0.004 C 
HETATM    2  C2  UNL     1     -35.021   5.160   3.549  1.00 20.00    -0.004 C 
HETATM    3  C3  UNL     1     -34.357   5.796   5.927  1.00 20.00    -0.026 C 
HETATM    4  C4  UNL     1     -33.971   5.577   2.812  1.00 20.00    -0.021 C 
HETATM    5  C6  UNL     1     -33.257   6.828   5.715  1.00 20.00     0.033 C 
HETATM    6  C7  UNL     1     -32.741   6.072   3.423  1.00 20.00     0.026 A 
HETATM    7  C8  UNL     1     -31.985   7.354   3.336  1.00 20.00     0.085 A 
HETATM    8  C9  UNL     1     -33.133   7.266   4.297  1.00 20.00     0.011 A 
ENDROOT
BRANCH   7   9
HETATM    9  C5  UNL     1     -32.105   8.179   2.127  1.00 20.00     0.224 C 
HETATM   10  O10 UNL     1     -31.692   7.791   1.038  1.00 20.00    -0.279 OA
HETATM   11 CL11 UNL     1     -32.876   9.702   2.449  1.00 20.00    -0.043 Cl
ENDBRANCH   7   9
TORSDOF 1
ENDMDL
MODEL 3
REMARK VINA RESULT:      -5.1     10.366     11.394
REMARK  1 active torsions:
REMARK  status: ('A' for Active; 'I' for Inactive)
REMARK    1  A    between atoms: C5_5  and  C8_8 
ROOT
HETATM    1  C1  UNL     1     -41.242   7.131  -1.216  1.00 20.00    -0.004 C 
HETATM    2  C2  UNL     1     -41.953   7.021  -2.489  1.00 20.00    -0.004 C 
HETATM    3  C3  UNL     1     -40.811   6.163  -0.377  1.00 20.00    -0.026 C 
HETATM    4  C4  UNL     1     -42.690   5.966  -2.893  1.00 20.00    -0.021 C 
HETATM    5  C6  UNL     1     -40.939   4.651  -0.504  1.00 20.00     0.033 C 
HETATM    6  C7  UNL     1     -42.837   4.764  -2.078  1.00 20.00     0.026 A 
HETATM    7  C8  UNL     1     -42.538   3.320  -2.301  1.00 20.00     0.085 A 
HETATM    8  C9  UNL     1     -41.426   4.217  -1.843  1.00 20.00     0.011 A 
ENDROOT
BRANCH   7   9
HETATM    9  C5  UNL     1     -42.533   2.789  -3.670  1.00 20.00     0.224 C 
HETATM   10  O10 UNL     1     -43.417   3.069  -4.473  1.00 20.00    -0.279 OA
HETATM   11 CL11 UNL     1     -41.163   1.764  -3.968  1.00 20.00    -0.043 Cl
ENDBRANCH   7   9
TORSDOF 1
ENDMDL
MODEL 4
REMARK VINA RESULT:      -5.0     11.613     12.910
REMARK  1 active torsions:
REMARK  status: ('A' for Active; 'I' for Inactive)
REMARK    1  A    between atoms: C5_5  and  C8_8 
ROOT
HETATM    1  C1  UNL     1     -34.037  18.414  -2.222  1.00 20.00    -0.004 C 
HETATM    2  C2  UNL     1     -34.567  17.255  -1.504  1.00 20.00    -0.004 C 
HETATM    3  C3  UNL     1     -33.700  18.549  -3.523  1.00 20.00    -0.026 C 
HETATM    4  C4  UNL     1     -34.444  15.967  -1.885  1.00 20.00    -0.021 C 
HETATM    5  C6  UNL     1     -33.768  17.523  -4.647  1.00 20.00     0.033 C 
HETATM    6  C7  UNL     1     -33.765  15.584  -3.119  1.00 20.00     0.026 A 
HETATM    7  C8  UNL     1     -34.177  14.823  -4.333  1.00 20.00     0.085 A 
HETATM    8  C9  UNL     1     -34.503  16.285  -4.263  1.00 20.00     0.011 A 
ENDROOT
BRANCH   7   9
HETATM    9  C5  UNL     1     -35.253  13.828  -4.229  1.00 20.00     0.224 C 
HETATM   10  O10 UNL     1     -35.025  12.624  -4.292  1.00 20.00    -0.279 OA
HETATM   11 CL11 UNL     1     -36.809  14.569  -4.013  1.00 20.00    -0.043 Cl
ENDBRANCH   7   9
TORSDOF 1
ENDMDL
MODEL 5
REMARK VINA RESULT:      -5.0     11.461     12.836
REMARK  1 active torsions:
REMARK  status: ('A' for Active; 'I' for Inactive)
REMARK    1  A    between atoms: C5_5  and  C8_8 
ROOT
HETATM    1  C1  UNL     1     -34.793  14.393  -6.303  1.00 20.00    -0.004 C 
HETATM    2  C2  UNL     1     -34.535  15.829  -6.210  1.00 20.00    -0.004 C 
HETATM    3  C3  UNL     1     -34.803  13.449  -5.336  1.00 20.00    -0.026 C 
HETATM    4  C4  UNL     1     -33.852  16.446  -5.225  1.00 20.00    -0.021 C 
HETATM    5  C6  UNL     1     -34.544  13.598  -3.842  1.00 20.00     0.033 C 
HETATM    6  C7  UNL     1     -33.301  15.716  -4.087  1.00 20.00     0.026 A 
HETATM    7  C8  UNL     1     -33.482  15.814  -2.610  1.00 20.00     0.085 A 
HETATM    8  C9  UNL     1     -34.479  15.019  -3.400  1.00 20.00     0.011 A 
ENDROOT
BRANCH   7   9
HETATM    9  C5  UNL     1     -33.876  17.097  -2.016  1.00 20.00     0.224 C 
HETATM   10  O10 UNL     1     -33.590  18.167  -2.545  1.00 20.00    -0.279 OA
HETATM   11 CL11 UNL     1     -34.759  16.888  -0.535  1.00 20.00    -0.043 Cl
ENDBRANCH   7   9
TORSDOF 1
ENDMDL
MODEL 6
REMARK VINA RESULT:      -4.9     11.232     12.794
REMARK  1 active torsions:
REMARK  status: ('A' for Active; 'I' for Inactive)
REMARK    1  A    between atoms: C5_5  and  C8_8 
ROOT
HETATM    1  C1  UNL     1     -33.710  18.657  -2.780  1.00 20.00    -0.004 C 
HETATM    2  C2  UNL     1     -33.607  18.008  -4.086  1.00 20.00    -0.004 C 
HETATM    3  C3  UNL     1     -34.106  18.154  -1.590  1.00 20.00    -0.026 C 
HETATM    4  C4  UNL     1     -34.270  16.898  -4.470  1.00 20.00    -0.021 C 
HETATM    5  C6  UNL     1     -34.572  16.745  -1.247  1.00 20.00     0.033 C 
HETATM    6  C7  UNL     1     -35.175  16.184  -3.574  1.00 20.00     0.026 A 
HETATM    7  C8  UNL     1     -35.232  14.787  -3.059  1.00 20.00     0.085 A 
HETATM    8  C9  UNL     1     -34.349  15.772  -2.352  1.00 20.00     0.011 A 
ENDROOT
BRANCH   7   9
HETATM    9  C5  UNL     1     -34.633  13.704  -3.849  1.00 20.00     0.224 C 
HETATM   10  O10 UNL     1     -35.316  12.961  -4.548  1.00 20.00    -0.279 OA
HETATM   11 CL11 UNL     1     -32.907  13.633  -3.660  1.00 20.00    -0.043 Cl
ENDBRANCH   7   9
TORSDOF 1
ENDMDL
MODEL 7
REMARK VINA RESULT:      -4.7     11.502     12.597
REMARK  1 active torsions:
REMARK  status: ('A' for Active; 'I' for Inactive)
REMARK    1  A    between atoms: C5_5  and  C8_8 
ROOT
HETATM    1  C1  UNL     1     -35.894  17.993  -2.217  1.00 20.00    -0.004 C 
HETATM    2  C2  UNL     1     -36.718  17.217  -3.142  1.00 20.00    -0.004 C 
HETATM    3  C3  UNL     1     -34.636  17.769  -1.778  1.00 20.00    -0.026 C 
HETATM    4  C4  UNL     1     -36.562  15.908  -3.430  1.00 20.00    -0.021 C 
HETATM    5  C6  UNL     1     -33.688  16.626  -2.115  1.00 20.00     0.033 C 
HETATM    6  C7  UNL     1     -35.491  15.107  -2.845  1.00 20.00     0.026 A 
HETATM    7  C8  UNL     1     -34.373  14.302  -3.414  1.00 20.00     0.085 A 
HETATM    8  C9  UNL     1     -34.173  15.778  -3.240  1.00 20.00     0.011 A 
ENDROOT
BRANCH   7   9
HETATM    9  C5  UNL     1     -34.506  13.735  -4.762  1.00 20.00     0.224 C 
HETATM   10  O10 UNL     1     -34.772  12.550  -4.940  1.00 20.00    -0.279 OA
HETATM   11 CL11 UNL     1     -34.247  14.926  -6.000  1.00 20.00    -0.043 Cl
ENDBRANCH   7   9
TORSDOF 1
ENDMDL
MODEL 8
REMARK VINA RESULT:      -4.7     12.300     14.256
REMARK  1 active torsions:
REMARK  status: ('A' for Active; 'I' for Inactive)
REMARK    1  A    between atoms: C5_5  and  C8_8 
ROOT
HETATM    1  C1  UNL     1     -33.786  18.400  -6.166  1.00 20.00    -0.004 C 
HETATM    2  C2  UNL     1     -33.526  17.747  -4.884  1.00 20.00    -0.004 C 
HETATM    3  C3  UNL     1     -34.437  17.941  -7.257  1.00 20.00    -0.026 C 
HETATM    4  C4  UNL     1     -33.513  16.416  -4.664  1.00 20.00    -0.021 C 
HETATM    5  C6  UNL     1     -35.100  16.589  -7.485  1.00 20.00     0.033 C 
HETATM    6  C7  UNL     1     -33.799  15.452  -5.722  1.00 20.00     0.026 A 
HETATM    7  C8  UNL     1     -34.809  14.369  -5.890  1.00 20.00     0.085 A 
HETATM    8  C9  UNL     1     -35.203  15.773  -6.243  1.00 20.00     0.011 A 
ENDROOT
BRANCH   7   9
HETATM    9  C5  UNL     1     -35.381  13.727  -4.699  1.00 20.00     0.224 C 
HETATM   10  O10 UNL     1     -34.971  12.644  -4.291  1.00 20.00    -0.279 OA
HETATM   11 CL11 UNL     1     -36.652  14.676  -3.992  1.00 20.00    -0.043 Cl
ENDBRANCH   7   9
TORSDOF 1
ENDMDL
MODEL 9
REMARK VINA RESULT:      -4.6     11.807     13.630
REMARK  1 active torsions:
REMARK  status: ('A' for Active; 'I' for Inactive)
REMARK    1  A    between atoms: C5_5  and  C8_8 
ROOT
HETATM    1  C1  UNL     1     -36.124  16.817  -7.353  1.00 20.00    -0.004 C 
HETATM    2  C2  UNL     1     -34.683  16.653  -7.172  1.00 20.00    -0.004 C 
HETATM    3  C3  UNL     1     -37.153  16.227  -6.706  1.00 20.00    -0.026 C 
HETATM    4  C4  UNL     1     -34.074  15.587  -6.614  1.00 20.00    -0.021 C 
HETATM    5  C6  UNL     1     -37.121  15.200  -5.581  1.00 20.00     0.033 C 
HETATM    6  C7  UNL     1     -34.825  14.451  -6.088  1.00 20.00     0.026 A 
HETATM    7  C8  UNL     1     -34.908  13.796  -4.752  1.00 20.00     0.085 A 
HETATM    8  C9  UNL     1     -35.760  15.004  -5.009  1.00 20.00     0.011 A 
ENDROOT
BRANCH   7   9
HETATM    9  C5  UNL     1     -33.767  13.888  -3.832  1.00 20.00     0.224 C 
HETATM   10  O10 UNL     1     -32.932  12.993  -3.749  1.00 20.00    -0.279 OA
HETATM   11 CL11 UNL     1     -33.774  15.372  -2.928  1.00 20.00    -0.043 Cl
ENDBRANCH   7   9
TORSDOF 1
ENDMDL
