MODEL 1
REMARK VINA RESULT:      -4.4      0.000      0.000
REMARK  2 active torsions:
REMARK  status: ('A' for Active; 'I' for Inactive)
REMARK    1  A    between atoms: C4_4  and  C6_6 
REMARK    2  A    between atoms: C7_7  and  O10_10 
ROOT
HETATM    1  C1  UNL     1     -34.030  17.087  -1.026  1.00 20.00     0.218 C 
HETATM    2  C4  UNL     1     -34.733  16.211  -1.681  1.00 20.00     0.043 C 
HETATM    3  O9  UNL     1     -33.394  17.879  -0.434  1.00 20.00    -0.284 OA
ENDROOT
BRANCH   2   4
HETATM    4  C6  UNL     1     -34.595  15.922  -3.142  1.00 20.00     0.064 C 
HETATM    5  C3  UNL     1     -35.326  14.673  -3.536  1.00 20.00    -0.020 C 
HETATM    6  C2  UNL     1     -34.495  13.672  -3.838  1.00 20.00    -0.027 C 
HETATM    7  C5  UNL     1     -33.064  14.069  -3.688  1.00 20.00     0.059 C 
HETATM    8  C7  UNL     1     -33.146  15.594  -3.552  1.00 20.00     0.135 C 
BRANCH   8   9
HETATM    9  O10 UNL     1     -32.868  16.180  -4.826  1.00 20.00    -0.389 OA
HETATM   10  C8  UNL     1     -33.463  17.462  -4.942  1.00 20.00     0.202 C 
ENDBRANCH   8   9
ENDBRANCH   2   4
TORSDOF 2
ENDMDL
MODEL 2
REMARK VINA RESULT:      -4.4     11.740     12.710
REMARK  2 active torsions:
REMARK  status: ('A' for Active; 'I' for Inactive)
REMARK    1  A    between atoms: C4_4  and  C6_6 
REMARK    2  A    between atoms: C7_7  and  O10_10 
ROOT
HETATM    1  C1  UNL     1     -32.216   7.193   2.909  1.00 20.00     0.218 C 
HETATM    2  C4  UNL     1     -32.664   6.287   3.727  1.00 20.00     0.043 C 
HETATM    3  O9  UNL     1     -31.810   8.011   2.169  1.00 20.00    -0.284 OA
ENDROOT
BRANCH   2   4
HETATM    4  C6  UNL     1     -34.027   6.291   4.344  1.00 20.00     0.064 C 
HETATM    5  C3  UNL     1     -33.977   6.629   5.805  1.00 20.00    -0.020 C 
HETATM    6  C2  UNL     1     -34.250   5.576   6.579  1.00 20.00    -0.027 C 
HETATM    7  C5  UNL     1     -34.517   4.346   5.777  1.00 20.00     0.059 C 
HETATM    8  C7  UNL     1     -34.682   4.896   4.356  1.00 20.00     0.135 C 
BRANCH   8   9
HETATM    9  O10 UNL     1     -36.078   5.025   4.076  1.00 20.00    -0.389 OA
HETATM   10  C8  UNL     1     -36.321   6.058   3.136  1.00 20.00     0.202 C 
ENDBRANCH   8   9
ENDBRANCH   2   4
TORSDOF 2
ENDMDL
MODEL 3
REMARK VINA RESULT:      -4.3      2.153      3.007
REMARK  2 active torsions:
REMARK  status: ('A' for Active; 'I' for Inactive)
REMARK    1  A    between atoms: C4_4  and  C6_6 
REMARK    2  A    between atoms: C7_7  and  O10_10 
ROOT
HETATM    1  C1  UNL     1     -34.462  16.382  -1.401  1.00 20.00     0.218 C 
HETATM    2  C4  UNL     1     -34.392  15.881  -2.599  1.00 20.00     0.043 C 
HETATM    3  O9  UNL     1     -34.526  16.836  -0.318  1.00 20.00    -0.284 OA
ENDROOT
BRANCH   2   4
HETATM    4  C6  UNL     1     -35.112  14.652  -3.056  1.00 20.00     0.064 C 
HETATM    5  C3  UNL     1     -34.220  13.746  -3.852  1.00 20.00    -0.020 C 
HETATM    6  C2  UNL     1     -34.541  13.728  -5.148  1.00 20.00    -0.027 C 
HETATM    7  C5  UNL     1     -35.694  14.626  -5.451  1.00 20.00     0.059 C 
HETATM    8  C7  UNL     1     -36.241  14.958  -4.058  1.00 20.00     0.135 C 
BRANCH   8   9
HETATM    9  O10 UNL     1     -37.357  14.106  -3.792  1.00 20.00    -0.389 OA
HETATM   10  C8  UNL     1     -38.584  14.778  -4.023  1.00 20.00     0.202 C 
ENDBRANCH   8   9
ENDBRANCH   2   4
TORSDOF 2
ENDMDL
MODEL 4
REMARK VINA RESULT:      -4.2      2.159      2.929
REMARK  2 active torsions:
REMARK  status: ('A' for Active; 'I' for Inactive)
REMARK    1  A    between atoms: C4_4  and  C6_6 
REMARK    2  A    between atoms: C7_7  and  O10_10 
ROOT
HETATM    1  C1  UNL     1     -37.272  14.879  -3.746  1.00 20.00     0.218 C 
HETATM    2  C4  UNL     1     -36.219  15.642  -3.769  1.00 20.00     0.043 C 
HETATM    3  O9  UNL     1     -38.224  14.190  -3.725  1.00 20.00    -0.284 OA
ENDROOT
BRANCH   2   4
HETATM    4  C6  UNL     1     -35.017  15.415  -4.629  1.00 20.00     0.064 C 
HETATM    5  C3  UNL     1     -34.663  13.960  -4.721  1.00 20.00    -0.020 C 
HETATM    6  C2  UNL     1     -33.541  13.668  -4.058  1.00 20.00    -0.027 C 
HETATM    7  C5  UNL     1     -32.954  14.870  -3.397  1.00 20.00     0.059 C 
HETATM    8  C7  UNL     1     -33.733  16.025  -4.036  1.00 20.00     0.135 C 
BRANCH   8   9
HETATM    9  O10 UNL     1     -32.941  16.581  -5.088  1.00 20.00    -0.389 OA
HETATM   10  C8  UNL     1     -33.599  17.678  -5.700  1.00 20.00     0.202 C 
ENDBRANCH   8   9
ENDBRANCH   2   4
TORSDOF 2
ENDMDL
MODEL 5
REMARK VINA RESULT:      -4.2      1.944      3.613
REMARK  2 active torsions:
REMARK  status: ('A' for Active; 'I' for Inactive)
REMARK    1  A    between atoms: C4_4  and  C6_6 
REMARK    2  A    between atoms: C7_7  and  O10_10 
ROOT
HETATM    1  C1  UNL     1     -34.129  13.357  -4.342  1.00 20.00     0.218 C 
HETATM    2  C4  UNL     1     -33.392  14.252  -3.752  1.00 20.00     0.043 C 
HETATM    3  O9  UNL     1     -34.794  12.547  -4.874  1.00 20.00    -0.284 OA
ENDROOT
BRANCH   2   4
HETATM    4  C6  UNL     1     -33.704  15.714  -3.697  1.00 20.00     0.064 C 
HETATM    5  C3  UNL     1     -33.747  16.223  -2.286  1.00 20.00    -0.020 C 
HETATM    6  C2  UNL     1     -34.987  16.522  -1.892  1.00 20.00    -0.027 C 
HETATM    7  C5  UNL     1     -35.993  16.255  -2.961  1.00 20.00     0.059 C 
HETATM    8  C7  UNL     1     -35.121  16.044  -4.204  1.00 20.00     0.135 C 
BRANCH   8   9
HETATM    9  O10 UNL     1     -35.088  17.262  -4.950  1.00 20.00    -0.389 OA
HETATM   10  C8  UNL     1     -34.050  17.245  -5.916  1.00 20.00     0.202 C 
ENDBRANCH   8   9
ENDBRANCH   2   4
TORSDOF 2
ENDMDL
MODEL 6
REMARK VINA RESULT:      -4.1      1.740      3.652
REMARK  2 active torsions:
REMARK  status: ('A' for Active; 'I' for Inactive)
REMARK    1  A    between atoms: C4_4  and  C6_6 
REMARK    2  A    between atoms: C7_7  and  O10_10 
ROOT
HETATM    1  C1  UNL     1     -35.416  13.485  -4.300  1.00 20.00     0.218 C 
HETATM    2  C4  UNL     1     -36.038  14.537  -3.855  1.00 20.00     0.043 C 
HETATM    3  O9  UNL     1     -34.854  12.534  -4.702  1.00 20.00    -0.284 OA
ENDROOT
BRANCH   2   4
HETATM    4  C6  UNL     1     -35.386  15.844  -3.534  1.00 20.00     0.064 C 
HETATM    5  C3  UNL     1     -35.263  16.719  -4.747  1.00 20.00    -0.020 C 
HETATM    6  C2  UNL     1     -33.999  16.836  -5.162  1.00 20.00    -0.027 C 
HETATM    7  C5  UNL     1     -33.056  16.054  -4.310  1.00 20.00     0.059 C 
HETATM    8  C7  UNL     1     -33.917  15.689  -3.096  1.00 20.00     0.135 C 
BRANCH   8   9
HETATM    9  O10 UNL     1     -33.635  16.613  -2.043  1.00 20.00    -0.389 OA
HETATM   10  C8  UNL     1     -34.619  16.546  -1.023  1.00 20.00     0.202 C 
ENDBRANCH   8   9
ENDBRANCH   2   4
TORSDOF 2
ENDMDL
MODEL 7
REMARK VINA RESULT:      -4.1     11.074     12.189
REMARK  2 active torsions:
REMARK  status: ('A' for Active; 'I' for Inactive)
REMARK    1  A    between atoms: C4_4  and  C6_6 
REMARK    2  A    between atoms: C7_7  and  O10_10 
ROOT
HETATM    1  C1  UNL     1     -32.020   8.062   2.244  1.00 20.00     0.218 C 
HETATM    2  C4  UNL     1     -32.271   7.616   3.439  1.00 20.00     0.043 C 
HETATM    3  O9  UNL     1     -31.794   8.466   1.163  1.00 20.00    -0.284 OA
ENDROOT
BRANCH   2   4
HETATM    4  C6  UNL     1     -32.684   6.215   3.759  1.00 20.00     0.064 C 
HETATM    5  C3  UNL     1     -33.151   5.478   2.539  1.00 20.00    -0.020 C 
HETATM    6  C2  UNL     1     -34.470   5.266   2.547  1.00 20.00    -0.027 C 
HETATM    7  C5  UNL     1     -35.119   5.833   3.766  1.00 20.00     0.059 C 
HETATM    8  C7  UNL     1     -33.924   6.150   4.672  1.00 20.00     0.135 C 
BRANCH   8   9
HETATM    9  O10 UNL     1     -33.769   5.084   5.611  1.00 20.00    -0.389 OA
HETATM   10  C8  UNL     1     -35.025   4.547   5.991  1.00 20.00     0.202 C 
ENDBRANCH   8   9
ENDBRANCH   2   4
TORSDOF 2
ENDMDL
MODEL 8
REMARK VINA RESULT:      -4.1      2.840      3.558
REMARK  2 active torsions:
REMARK  status: ('A' for Active; 'I' for Inactive)
REMARK    1  A    between atoms: C4_4  and  C6_6 
REMARK    2  A    between atoms: C7_7  and  O10_10 
ROOT
HETATM    1  C1  UNL     1     -37.462  14.661  -3.794  1.00 20.00     0.218 C 
HETATM    2  C4  UNL     1     -36.253  15.138  -3.741  1.00 20.00     0.043 C 
HETATM    3  O9  UNL     1     -38.555  14.230  -3.841  1.00 20.00    -0.284 OA
ENDROOT
BRANCH   2   4
HETATM    4  C6  UNL     1     -35.102  14.644  -4.557  1.00 20.00     0.064 C 
HETATM    5  C3  UNL     1     -33.984  14.137  -3.696  1.00 20.00    -0.020 C 
HETATM    6  C2  UNL     1     -32.919  14.943  -3.719  1.00 20.00    -0.027 C 
HETATM    7  C5  UNL     1     -33.141  16.136  -4.587  1.00 20.00     0.059 C 
HETATM    8  C7  UNL     1     -34.412  15.764  -5.359  1.00 20.00     0.135 C 
BRANCH   8   9
HETATM    9  O10 UNL     1     -34.035  15.266  -6.644  1.00 20.00    -0.389 OA
HETATM   10  C8  UNL     1     -35.110  14.580  -7.265  1.00 20.00     0.202 C 
ENDBRANCH   8   9
ENDBRANCH   2   4
TORSDOF 2
ENDMDL
MODEL 9
REMARK VINA RESULT:      -4.1      2.034      3.374
REMARK  2 active torsions:
REMARK  status: ('A' for Active; 'I' for Inactive)
REMARK    1  A    between atoms: C4_4  and  C6_6 
REMARK    2  A    between atoms: C7_7  and  O10_10 
ROOT
HETATM    1  C1  UNL     1     -33.423  16.668  -4.208  1.00 20.00     0.218 C 
HETATM    2  C4  UNL     1     -33.840  16.085  -3.123  1.00 20.00     0.043 C 
HETATM    3  O9  UNL     1     -33.046  17.195  -5.189  1.00 20.00    -0.284 OA
ENDROOT
BRANCH   2   4
HETATM    4  C6  UNL     1     -34.768  14.914  -3.084  1.00 20.00     0.064 C 
HETATM    5  C3  UNL     1     -34.127  13.674  -3.634  1.00 20.00    -0.020 C 
HETATM    6  C2  UNL     1     -34.638  13.319  -4.816  1.00 20.00    -0.027 C 
HETATM    7  C5  UNL     1     -35.701  14.262  -5.271  1.00 20.00     0.059 C 
HETATM    8  C7  UNL     1     -35.988  15.085  -4.010  1.00 20.00     0.135 C 
BRANCH   8   9
HETATM    9  O10 UNL     1     -37.149  14.550  -3.372  1.00 20.00    -0.389 OA
HETATM   10  C8  UNL     1     -38.315  14.785  -4.144  1.00 20.00     0.202 C 
ENDBRANCH   8   9
ENDBRANCH   2   4
TORSDOF 2
ENDMDL
