MODEL 1
REMARK VINA RESULT:      -5.0      0.000      0.000
REMARK  4 active torsions:
REMARK  status: ('A' for Active; 'I' for Inactive)
REMARK    1  A    between atoms: C1_1  and  C3_3 
REMARK    2  A    between atoms: C1_1  and  O10_10 
REMARK    3  A    between atoms: C4_4  and  C7_7 
REMARK    4  A    between atoms: C7_7  and  C8_8 
ROOT
HETATM    1  C2  UNL     1     -34.035   5.671   2.546  1.00 20.00     0.020 A 
HETATM    2  C3  UNL     1     -32.792   5.939   3.354  1.00 20.00     0.090 A 
HETATM    3  C4  UNL     1     -34.158   6.005   4.009  1.00 20.00    -0.000 A 
ENDROOT
BRANCH   2   4
HETATM    4  C1  UNL     1     -32.047   7.183   3.135  1.00 20.00     0.263 C 
HETATM    5  O9  UNL     1     -31.350   7.723   3.983  1.00 20.00    -0.265 OA
BRANCH   4   6
HETATM    6  O10 UNL     1     -32.258   7.623   1.861  1.00 20.00    -0.326 OA
HETATM    7  C6  UNL     1     -32.251   9.044   1.692  1.00 20.00     0.213 C 
ENDBRANCH   4   6
ENDBRANCH   2   4
BRANCH   3   8
HETATM    8  C7  UNL     1     -34.569   4.958   4.986  1.00 20.00     0.005 C 
BRANCH   8   9
HETATM    9  C8  UNL     1     -34.635   5.490   6.428  1.00 20.00    -0.004 C 
HETATM   10  C5  UNL     1     -33.875   6.795   6.604  1.00 20.00     0.005 C 
ENDBRANCH   8   9
ENDBRANCH   3   8
TORSDOF 4
ENDMDL
MODEL 2
REMARK VINA RESULT:      -4.8      2.379      4.385
REMARK  4 active torsions:
REMARK  status: ('A' for Active; 'I' for Inactive)
REMARK    1  A    between atoms: C1_1  and  C3_3 
REMARK    2  A    between atoms: C1_1  and  O10_10 
REMARK    3  A    between atoms: C4_4  and  C7_7 
REMARK    4  A    between atoms: C7_7  and  C8_8 
ROOT
HETATM    1  C2  UNL     1     -34.164   5.612   2.745  1.00 20.00     0.020 A 
HETATM    2  C3  UNL     1     -34.359   5.950   4.199  1.00 20.00     0.090 A 
HETATM    3  C4  UNL     1     -32.964   5.895   3.609  1.00 20.00    -0.000 A 
ENDROOT
BRANCH   2   4
HETATM    4  C1  UNL     1     -34.779   4.897   5.131  1.00 20.00     0.263 C 
HETATM    5  O9  UNL     1     -35.089   3.763   4.791  1.00 20.00    -0.265 OA
BRANCH   4   6
HETATM    6  O10 UNL     1     -34.766   5.384   6.405  1.00 20.00    -0.326 OA
HETATM    7  C6  UNL     1     -34.050   6.611   6.586  1.00 20.00     0.213 C 
ENDBRANCH   4   6
ENDBRANCH   2   4
BRANCH   3   8
HETATM    8  C7  UNL     1     -32.183   7.150   3.421  1.00 20.00     0.005 C 
BRANCH   8   9
HETATM    9  C8  UNL     1     -32.067   7.556   1.941  1.00 20.00    -0.004 C 
HETATM   10  C5  UNL     1     -32.246   9.051   1.731  1.00 20.00     0.005 C 
ENDBRANCH   8   9
ENDBRANCH   3   8
TORSDOF 4
ENDMDL
MODEL 3
REMARK VINA RESULT:      -4.6      2.178      4.471
REMARK  4 active torsions:
REMARK  status: ('A' for Active; 'I' for Inactive)
REMARK    1  A    between atoms: C1_1  and  C3_3 
REMARK    2  A    between atoms: C1_1  and  O10_10 
REMARK    3  A    between atoms: C4_4  and  C7_7 
REMARK    4  A    between atoms: C7_7  and  C8_8 
ROOT
HETATM    1  C2  UNL     1     -33.475   5.979   2.883  1.00 20.00     0.020 A 
HETATM    2  C3  UNL     1     -33.842   6.793   4.096  1.00 20.00     0.090 A 
HETATM    3  C4  UNL     1     -32.391   6.649   3.683  1.00 20.00    -0.000 A 
ENDROOT
BRANCH   2   4
HETATM    4  C1  UNL     1     -34.309   6.109   5.307  1.00 20.00     0.263 C 
HETATM    5  O9  UNL     1     -33.986   6.428   6.443  1.00 20.00    -0.265 OA
BRANCH   4   6
HETATM    6  O10 UNL     1     -35.140   5.084   4.960  1.00 20.00    -0.326 OA
HETATM    7  C6  UNL     1     -34.915   3.850   5.649  1.00 20.00     0.213 C 
ENDBRANCH   4   6
ENDBRANCH   2   4
BRANCH   3   8
HETATM    8  C7  UNL     1     -31.655   7.816   3.120  1.00 20.00     0.005 C 
BRANCH   8   9
HETATM    9  C8  UNL     1     -31.999   8.072   1.642  1.00 20.00    -0.004 C 
HETATM   10  C5  UNL     1     -32.389   9.517   1.376  1.00 20.00     0.005 C 
ENDBRANCH   8   9
ENDBRANCH   3   8
TORSDOF 4
ENDMDL
MODEL 4
REMARK VINA RESULT:      -4.5     10.953     11.569
REMARK  4 active torsions:
REMARK  status: ('A' for Active; 'I' for Inactive)
REMARK    1  A    between atoms: C1_1  and  C3_3 
REMARK    2  A    between atoms: C1_1  and  O10_10 
REMARK    3  A    between atoms: C4_4  and  C7_7 
REMARK    4  A    between atoms: C7_7  and  C8_8 
ROOT
HETATM    1  C2  UNL     1     -33.294  14.905  -3.814  1.00 20.00     0.020 A 
HETATM    2  C3  UNL     1     -34.790  14.961  -3.980  1.00 20.00     0.090 A 
HETATM    3  C4  UNL     1     -34.158  15.266  -2.636  1.00 20.00    -0.000 A 
ENDROOT
BRANCH   2   4
HETATM    4  C1  UNL     1     -35.542  13.712  -4.146  1.00 20.00     0.263 C 
HETATM    5  O9  UNL     1     -35.038  12.646  -4.469  1.00 20.00    -0.265 OA
BRANCH   4   6
HETATM    6  O10 UNL     1     -36.862  13.938  -3.886  1.00 20.00    -0.326 OA
HETATM    7  C6  UNL     1     -37.431  15.077  -4.539  1.00 20.00     0.213 C 
ENDBRANCH   4   6
ENDBRANCH   2   4
BRANCH   3   8
HETATM    8  C7  UNL     1     -34.162  16.659  -2.107  1.00 20.00     0.005 C 
BRANCH   8   9
HETATM    9  C8  UNL     1     -34.645  16.734  -0.648  1.00 20.00    -0.004 C 
HETATM   10  C5  UNL     1     -34.049  17.913   0.104  1.00 20.00     0.005 C 
ENDBRANCH   8   9
ENDBRANCH   3   8
TORSDOF 4
ENDMDL
MODEL 5
REMARK VINA RESULT:      -4.4      1.761      4.599
REMARK  4 active torsions:
REMARK  status: ('A' for Active; 'I' for Inactive)
REMARK    1  A    between atoms: C1_1  and  C3_3 
REMARK    2  A    between atoms: C1_1  and  O10_10 
REMARK    3  A    between atoms: C4_4  and  C7_7 
REMARK    4  A    between atoms: C7_7  and  C8_8 
ROOT
HETATM    1  C2  UNL     1     -31.645   7.225   3.826  1.00 20.00     0.020 A 
HETATM    2  C3  UNL     1     -32.638   6.295   3.180  1.00 20.00     0.090 A 
HETATM    3  C4  UNL     1     -32.485   7.717   2.678  1.00 20.00    -0.000 A 
ENDROOT
BRANCH   2   4
HETATM    4  C1  UNL     1     -33.856   5.924   3.908  1.00 20.00     0.263 C 
HETATM    5  O9  UNL     1     -34.821   5.374   3.396  1.00 20.00    -0.265 OA
BRANCH   4   6
HETATM    6  O10 UNL     1     -33.733   6.289   5.217  1.00 20.00    -0.326 OA
HETATM    7  C6  UNL     1     -34.528   5.539   6.141  1.00 20.00     0.213 C 
ENDBRANCH   4   6
ENDBRANCH   2   4
BRANCH   3   8
HETATM    8  C7  UNL     1     -31.861   7.979   1.351  1.00 20.00     0.005 C 
BRANCH   8   9
HETATM    9  C8  UNL     1     -32.190   9.381   0.810  1.00 20.00    -0.004 C 
HETATM   10  C5  UNL     1     -32.759  10.300   1.880  1.00 20.00     0.005 C 
ENDBRANCH   8   9
ENDBRANCH   3   8
TORSDOF 4
ENDMDL
MODEL 6
REMARK VINA RESULT:      -4.4     10.896     11.758
REMARK  4 active torsions:
REMARK  status: ('A' for Active; 'I' for Inactive)
REMARK    1  A    between atoms: C1_1  and  C3_3 
REMARK    2  A    between atoms: C1_1  and  O10_10 
REMARK    3  A    between atoms: C4_4  and  C7_7 
REMARK    4  A    between atoms: C7_7  and  C8_8 
ROOT
HETATM    1  C2  UNL     1     -32.940  14.229  -3.556  1.00 20.00     0.020 A 
HETATM    2  C3  UNL     1     -33.972  14.645  -4.570  1.00 20.00     0.090 A 
HETATM    3  C4  UNL     1     -34.188  14.935  -3.098  1.00 20.00    -0.000 A 
ENDROOT
BRANCH   2   4
HETATM    4  C1  UNL     1     -34.795  13.620  -5.222  1.00 20.00     0.263 C 
HETATM    5  O9  UNL     1     -35.031  12.521  -4.739  1.00 20.00    -0.265 OA
BRANCH   4   6
HETATM    6  O10 UNL     1     -35.237  14.087  -6.424  1.00 20.00    -0.326 OA
HETATM    7  C6  UNL     1     -34.493  15.182  -6.970  1.00 20.00     0.213 C 
ENDBRANCH   4   6
ENDBRANCH   2   4
BRANCH   3   8
HETATM    8  C7  UNL     1     -34.116  16.335  -2.593  1.00 20.00     0.005 C 
BRANCH   8   9
HETATM    9  C8  UNL     1     -34.679  16.478  -1.168  1.00 20.00    -0.004 C 
HETATM   10  C5  UNL     1     -34.048  17.631  -0.405  1.00 20.00     0.005 C 
ENDBRANCH   8   9
ENDBRANCH   3   8
TORSDOF 4
ENDMDL
MODEL 7
REMARK VINA RESULT:      -4.1     10.763     11.523
REMARK  4 active torsions:
REMARK  status: ('A' for Active; 'I' for Inactive)
REMARK    1  A    between atoms: C1_1  and  C3_3 
REMARK    2  A    between atoms: C1_1  and  O10_10 
REMARK    3  A    between atoms: C4_4  and  C7_7 
REMARK    4  A    between atoms: C7_7  and  C8_8 
ROOT
HETATM    1  C2  UNL     1     -34.059  16.988  -3.323  1.00 20.00     0.020 A 
HETATM    2  C3  UNL     1     -34.349  15.554  -2.969  1.00 20.00     0.090 A 
HETATM    3  C4  UNL     1     -33.917  16.533  -1.895  1.00 20.00    -0.000 A 
ENDROOT
BRANCH   2   4
HETATM    4  C1  UNL     1     -33.415  14.505  -3.393  1.00 20.00     0.263 C 
HETATM    5  O9  UNL     1     -32.233  14.699  -3.641  1.00 20.00    -0.265 OA
BRANCH   4   6
HETATM    6  O10 UNL     1     -34.072  13.312  -3.463  1.00 20.00    -0.326 OA
HETATM    7  C6  UNL     1     -35.158  13.261  -4.394  1.00 20.00     0.213 C 
ENDBRANCH   4   6
ENDBRANCH   2   4
BRANCH   3   8
HETATM    8  C7  UNL     1     -34.890  16.987  -0.863  1.00 20.00     0.005 C 
BRANCH   8   9
HETATM    9  C8  UNL     1     -34.220  17.789   0.267  1.00 20.00    -0.004 C 
HETATM   10  C5  UNL     1     -32.938  18.471  -0.183  1.00 20.00     0.005 C 
ENDBRANCH   8   9
ENDBRANCH   3   8
TORSDOF 4
ENDMDL
MODEL 8
REMARK VINA RESULT:      -4.1      1.421      1.967
REMARK  4 active torsions:
REMARK  status: ('A' for Active; 'I' for Inactive)
REMARK    1  A    between atoms: C1_1  and  C3_3 
REMARK    2  A    between atoms: C1_1  and  O10_10 
REMARK    3  A    between atoms: C4_4  and  C7_7 
REMARK    4  A    between atoms: C7_7  and  C8_8 
ROOT
HETATM    1  C2  UNL     1     -32.188   6.102   2.646  1.00 20.00     0.020 A 
HETATM    2  C3  UNL     1     -32.180   7.536   3.106  1.00 20.00     0.090 A 
HETATM    3  C4  UNL     1     -33.412   6.676   3.307  1.00 20.00    -0.000 A 
ENDROOT
BRANCH   2   4
HETATM    4  C1  UNL     1     -32.218   8.611   2.108  1.00 20.00     0.263 C 
HETATM    5  O9  UNL     1     -32.740   9.701   2.294  1.00 20.00    -0.265 OA
BRANCH   4   6
HETATM    6  O10 UNL     1     -31.591   8.198   0.970  1.00 20.00    -0.326 OA
HETATM    7  C6  UNL     1     -32.200   8.618  -0.255  1.00 20.00     0.213 C 
ENDBRANCH   4   6
ENDBRANCH   2   4
BRANCH   3   8
HETATM    8  C7  UNL     1     -33.801   6.237   4.677  1.00 20.00     0.005 C 
BRANCH   8   9
HETATM    9  C8  UNL     1     -34.883   5.143   4.661  1.00 20.00    -0.004 C 
HETATM   10  C5  UNL     1     -34.904   4.324   5.941  1.00 20.00     0.005 C 
ENDBRANCH   8   9
ENDBRANCH   3   8
TORSDOF 4
ENDMDL
MODEL 9
REMARK VINA RESULT:      -3.9     11.402     12.053
REMARK  4 active torsions:
REMARK  status: ('A' for Active; 'I' for Inactive)
REMARK    1  A    between atoms: C1_1  and  C3_3 
REMARK    2  A    between atoms: C1_1  and  O10_10 
REMARK    3  A    between atoms: C4_4  and  C7_7 
REMARK    4  A    between atoms: C7_7  and  C8_8 
ROOT
HETATM    1  C2  UNL     1     -34.939  15.510  -2.461  1.00 20.00     0.020 A 
HETATM    2  C3  UNL     1     -33.580  15.726  -3.074  1.00 20.00     0.090 A 
HETATM    3  C4  UNL     1     -34.284  16.861  -2.356  1.00 20.00    -0.000 A 
ENDROOT
BRANCH   2   4
HETATM    4  C1  UNL     1     -33.451  15.781  -4.534  1.00 20.00     0.263 C 
HETATM    5  O9  UNL     1     -32.823  16.642  -5.136  1.00 20.00    -0.265 OA
BRANCH   4   6
HETATM    6  O10 UNL     1     -34.130  14.737  -5.091  1.00 20.00    -0.326 OA
HETATM    7  C6  UNL     1     -34.501  14.907  -6.463  1.00 20.00     0.213 C 
ENDBRANCH   4   6
ENDBRANCH   2   4
BRANCH   3   8
HETATM    8  C7  UNL     1     -33.771  17.346  -1.043  1.00 20.00     0.005 C 
BRANCH   8   9
HETATM    9  C8  UNL     1     -34.820  17.232   0.078  1.00 20.00    -0.004 C 
HETATM   10  C5  UNL     1     -34.504  18.128   1.265  1.00 20.00     0.005 C 
ENDBRANCH   8   9
ENDBRANCH   3   8
TORSDOF 4
ENDMDL
