MODEL 1
REMARK VINA RESULT:      -4.5      0.000      0.000
REMARK  2 active torsions:
REMARK  status: ('A' for Active; 'I' for Inactive)
REMARK    1  A    between atoms: C5_5  and  C7_7 
REMARK    2  A    between atoms: C5_5  and  O11_11 
ROOT
HETATM    1  C1  UNL     1     -33.933  16.227  -6.199  1.00 20.00     0.003 A 
HETATM    2  C2  UNL     1     -33.414  16.339  -4.973  1.00 20.00    -0.007 A 
HETATM    3  C3  UNL     1     -34.594  14.962  -6.363  1.00 20.00    -0.066 A 
HETATM    4  C4  UNL     1     -35.265  14.567  -7.450  1.00 20.00     0.019 C 
HETATM    5  C6  UNL     1     -34.400  14.159  -5.102  1.00 20.00     0.061 A 
HETATM    6  C7  UNL     1     -33.693  15.129  -4.128  1.00 20.00     0.066 A 
HETATM    7  C8  UNL     1     -32.427  14.530  -3.525  1.00 20.00     0.031 C 
ENDROOT
BRANCH   6   8
HETATM    8  C5  UNL     1     -34.623  15.580  -3.035  1.00 20.00     0.271 C 
HETATM    9  O10 UNL     1     -35.817  15.309  -2.997  1.00 20.00    -0.264 OA
BRANCH   8  10
HETATM   10  O11 UNL     1     -33.931  16.318  -2.122  1.00 20.00    -0.326 OA
HETATM   11  C9  UNL     1     -34.627  16.599  -0.903  1.00 20.00     0.213 C 
ENDBRANCH   8  10
ENDBRANCH   6   8
TORSDOF 2
ENDMDL
MODEL 2
REMARK VINA RESULT:      -4.4      1.680      4.163
REMARK  2 active torsions:
REMARK  status: ('A' for Active; 'I' for Inactive)
REMARK    1  A    between atoms: C5_5  and  C7_7 
REMARK    2  A    between atoms: C5_5  and  O11_11 
ROOT
HETATM    1  C1  UNL     1     -35.960  15.846  -2.541  1.00 20.00     0.003 A 
HETATM    2  C2  UNL     1     -35.654  15.153  -3.642  1.00 20.00    -0.007 A 
HETATM    3  C3  UNL     1     -34.772  16.271  -1.854  1.00 20.00    -0.066 A 
HETATM    4  C4  UNL     1     -34.736  17.032  -0.756  1.00 20.00     0.019 C 
HETATM    5  C6  UNL     1     -33.578  15.711  -2.585  1.00 20.00     0.061 A 
HETATM    6  C7  UNL     1     -34.171  15.045  -3.847  1.00 20.00     0.066 A 
HETATM    7  C8  UNL     1     -33.705  13.603  -4.018  1.00 20.00     0.031 C 
ENDROOT
BRANCH   6   8
HETATM    8  C5  UNL     1     -33.854  15.842  -5.084  1.00 20.00     0.271 C 
HETATM    9  O10 UNL     1     -32.857  16.541  -5.212  1.00 20.00    -0.264 OA
BRANCH   8  10
HETATM   10  O11 UNL     1     -34.837  15.657  -6.010  1.00 20.00    -0.326 OA
HETATM   11  C9  UNL     1     -34.410  15.105  -7.260  1.00 20.00     0.213 C 
ENDBRANCH   8  10
ENDBRANCH   6   8
TORSDOF 2
ENDMDL
MODEL 3
REMARK VINA RESULT:      -4.4      1.862      3.762
REMARK  2 active torsions:
REMARK  status: ('A' for Active; 'I' for Inactive)
REMARK    1  A    between atoms: C5_5  and  C7_7 
REMARK    2  A    between atoms: C5_5  and  O11_11 
ROOT
HETATM    1  C1  UNL     1     -35.974  15.906  -2.930  1.00 20.00     0.003 A 
HETATM    2  C2  UNL     1     -35.897  15.226  -4.078  1.00 20.00    -0.007 A 
HETATM    3  C3  UNL     1     -34.690  15.978  -2.289  1.00 20.00    -0.066 A 
HETATM    4  C4  UNL     1     -34.418  16.638  -1.159  1.00 20.00     0.019 C 
HETATM    5  C6  UNL     1     -33.707  15.182  -3.109  1.00 20.00     0.061 A 
HETATM    6  C7  UNL     1     -34.499  14.763  -4.368  1.00 20.00     0.066 A 
HETATM    7  C8  UNL     1     -34.421  13.263  -4.634  1.00 20.00     0.031 C 
ENDROOT
BRANCH   6   8
HETATM    8  C5  UNL     1     -34.041  15.527  -5.580  1.00 20.00     0.271 C 
HETATM    9  O10 UNL     1     -34.364  15.249  -6.728  1.00 20.00    -0.264 OA
BRANCH   8  10
HETATM   10  O11 UNL     1     -33.229  16.552  -5.194  1.00 20.00    -0.326 OA
HETATM   11  C9  UNL     1     -33.667  17.861  -5.574  1.00 20.00     0.213 C 
ENDBRANCH   8  10
ENDBRANCH   6   8
TORSDOF 2
ENDMDL
MODEL 4
REMARK VINA RESULT:      -4.3      1.274      1.875
REMARK  2 active torsions:
REMARK  status: ('A' for Active; 'I' for Inactive)
REMARK    1  A    between atoms: C5_5  and  C7_7 
REMARK    2  A    between atoms: C5_5  and  O11_11 
ROOT
HETATM    1  C1  UNL     1     -33.951  16.056  -6.092  1.00 20.00     0.003 A 
HETATM    2  C2  UNL     1     -33.715  15.859  -4.792  1.00 20.00    -0.007 A 
HETATM    3  C3  UNL     1     -34.669  14.947  -6.657  1.00 20.00    -0.066 A 
HETATM    4  C4  UNL     1     -35.110  14.863  -7.916  1.00 20.00     0.019 C 
HETATM    5  C6  UNL     1     -34.838  13.898  -5.587  1.00 20.00     0.061 A 
HETATM    6  C7  UNL     1     -34.285  14.559  -4.304  1.00 20.00     0.066 A 
HETATM    7  C8  UNL     1     -33.248  13.689  -3.601  1.00 20.00     0.031 C 
ENDROOT
BRANCH   6   8
HETATM    8  C5  UNL     1     -35.395  14.912  -3.351  1.00 20.00     0.271 C 
HETATM    9  O10 UNL     1     -35.267  15.677  -2.404  1.00 20.00    -0.264 OA
BRANCH   8  10
HETATM   10  O11 UNL     1     -36.533  14.254  -3.712  1.00 20.00    -0.326 OA
HETATM   11  C9  UNL     1     -37.732  15.035  -3.677  1.00 20.00     0.213 C 
ENDBRANCH   8  10
ENDBRANCH   6   8
TORSDOF 2
ENDMDL
MODEL 5
REMARK VINA RESULT:      -4.3      1.943      3.466
REMARK  2 active torsions:
REMARK  status: ('A' for Active; 'I' for Inactive)
REMARK    1  A    between atoms: C5_5  and  C7_7 
REMARK    2  A    between atoms: C5_5  and  O11_11 
ROOT
HETATM    1  C1  UNL     1     -34.671  16.548  -3.063  1.00 20.00     0.003 A 
HETATM    2  C2  UNL     1     -34.563  15.222  -2.945  1.00 20.00    -0.007 A 
HETATM    3  C3  UNL     1     -33.830  17.041  -4.119  1.00 20.00    -0.066 A 
HETATM    4  C4  UNL     1     -33.755  18.311  -4.529  1.00 20.00     0.019 C 
HETATM    5  C6  UNL     1     -33.049  15.880  -4.681  1.00 20.00     0.061 A 
HETATM    6  C7  UNL     1     -33.621  14.640  -3.958  1.00 20.00     0.066 A 
HETATM    7  C8  UNL     1     -32.532  13.782  -3.323  1.00 20.00     0.031 C 
ENDROOT
BRANCH   6   8
HETATM    8  C5  UNL     1     -34.460  13.805  -4.888  1.00 20.00     0.271 C 
HETATM    9  O10 UNL     1     -35.008  12.760  -4.564  1.00 20.00    -0.264 OA
BRANCH   8  10
HETATM   10  O11 UNL     1     -34.503  14.394  -6.117  1.00 20.00    -0.326 OA
HETATM   11  C9  UNL     1     -35.814  14.634  -6.639  1.00 20.00     0.213 C 
ENDBRANCH   8  10
ENDBRANCH   6   8
TORSDOF 2
ENDMDL
MODEL 6
REMARK VINA RESULT:      -4.2      2.101      2.969
REMARK  2 active torsions:
REMARK  status: ('A' for Active; 'I' for Inactive)
REMARK    1  A    between atoms: C5_5  and  C7_7 
REMARK    2  A    between atoms: C5_5  and  O11_11 
ROOT
HETATM    1  C1  UNL     1     -33.320  14.710  -3.679  1.00 20.00     0.003 A 
HETATM    2  C2  UNL     1     -33.218  15.845  -2.983  1.00 20.00    -0.007 A 
HETATM    3  C3  UNL     1     -34.687  14.275  -3.758  1.00 20.00    -0.066 A 
HETATM    4  C4  UNL     1     -35.131  13.211  -4.434  1.00 20.00     0.019 C 
HETATM    5  C6  UNL     1     -35.532  15.225  -2.947  1.00 20.00     0.061 A 
HETATM    6  C7  UNL     1     -34.555  16.341  -2.512  1.00 20.00     0.066 A 
HETATM    7  C8  UNL     1     -34.591  16.593  -1.008  1.00 20.00     0.031 C 
ENDROOT
BRANCH   6   8
HETATM    8  C5  UNL     1     -34.821  17.620  -3.257  1.00 20.00     0.271 C 
HETATM    9  O10 UNL     1     -35.922  17.955  -3.673  1.00 20.00    -0.264 OA
BRANCH   8  10
HETATM   10  O11 UNL     1     -33.659  18.323  -3.387  1.00 20.00    -0.326 OA
HETATM   11  C9  UNL     1     -33.599  19.210  -4.508  1.00 20.00     0.213 C 
ENDBRANCH   8  10
ENDBRANCH   6   8
TORSDOF 2
ENDMDL
MODEL 7
REMARK VINA RESULT:      -4.2      1.355      2.260
REMARK  2 active torsions:
REMARK  status: ('A' for Active; 'I' for Inactive)
REMARK    1  A    between atoms: C5_5  and  C7_7 
REMARK    2  A    between atoms: C5_5  and  O11_11 
ROOT
HETATM    1  C1  UNL     1     -34.801  13.435  -5.447  1.00 20.00     0.003 A 
HETATM    2  C2  UNL     1     -35.150  13.615  -4.170  1.00 20.00    -0.007 A 
HETATM    3  C3  UNL     1     -34.814  14.681  -6.163  1.00 20.00    -0.066 A 
HETATM    4  C4  UNL     1     -34.455  14.851  -7.440  1.00 20.00     0.019 C 
HETATM    5  C6  UNL     1     -35.300  15.759  -5.228  1.00 20.00     0.061 A 
HETATM    6  C7  UNL     1     -35.427  15.057  -3.857  1.00 20.00     0.066 A 
HETATM    7  C8  UNL     1     -36.797  15.267  -3.220  1.00 20.00     0.031 C 
ENDROOT
BRANCH   6   8
HETATM    8  C5  UNL     1     -34.344  15.503  -2.913  1.00 20.00     0.271 C 
HETATM    9  O10 UNL     1     -33.156  15.547  -3.205  1.00 20.00    -0.264 OA
BRANCH   8  10
HETATM   10  O11 UNL     1     -34.894  15.840  -1.713  1.00 20.00    -0.326 OA
HETATM   11  C9  UNL     1     -34.249  16.912  -1.018  1.00 20.00     0.213 C 
ENDBRANCH   8  10
ENDBRANCH   6   8
TORSDOF 2
ENDMDL
MODEL 8
REMARK VINA RESULT:      -4.2      1.920      4.214
REMARK  2 active torsions:
REMARK  status: ('A' for Active; 'I' for Inactive)
REMARK    1  A    between atoms: C5_5  and  C7_7 
REMARK    2  A    between atoms: C5_5  and  O11_11 
ROOT
HETATM    1  C1  UNL     1     -33.736  17.841  -2.150  1.00 20.00     0.003 A 
HETATM    2  C2  UNL     1     -33.724  17.507  -3.443  1.00 20.00    -0.007 A 
HETATM    3  C3  UNL     1     -34.592  16.964  -1.400  1.00 20.00    -0.066 A 
HETATM    4  C4  UNL     1     -34.773  16.994  -0.076  1.00 20.00     0.019 C 
HETATM    5  C6  UNL     1     -35.250  16.009  -2.363  1.00 20.00     0.061 A 
HETATM    6  C7  UNL     1     -34.585  16.309  -3.725  1.00 20.00     0.066 A 
HETATM    7  C8  UNL     1     -35.606  16.567  -4.828  1.00 20.00     0.031 C 
ENDROOT
BRANCH   6   8
HETATM    8  C5  UNL     1     -33.652  15.202  -4.132  1.00 20.00     0.271 C 
HETATM    9  O10 UNL     1     -32.562  14.998  -3.613  1.00 20.00    -0.264 OA
BRANCH   8  10
HETATM   10  O11 UNL     1     -34.210  14.485  -5.149  1.00 20.00    -0.326 OA
HETATM   11  C9  UNL     1     -34.567  13.136  -4.827  1.00 20.00     0.213 C 
ENDBRANCH   8  10
ENDBRANCH   6   8
TORSDOF 2
ENDMDL
MODEL 9
REMARK VINA RESULT:      -4.2      1.997      3.141
REMARK  2 active torsions:
REMARK  status: ('A' for Active; 'I' for Inactive)
REMARK    1  A    between atoms: C5_5  and  C7_7 
REMARK    2  A    between atoms: C5_5  and  O11_11 
ROOT
HETATM    1  C1  UNL     1     -33.343  14.729  -3.701  1.00 20.00     0.003 A 
HETATM    2  C2  UNL     1     -33.248  15.859  -2.995  1.00 20.00    -0.007 A 
HETATM    3  C3  UNL     1     -34.705  14.274  -3.763  1.00 20.00    -0.066 A 
HETATM    4  C4  UNL     1     -35.143  13.210  -4.443  1.00 20.00     0.019 C 
HETATM    5  C6  UNL     1     -35.551  15.203  -2.929  1.00 20.00     0.061 A 
HETATM    6  C7  UNL     1     -34.585  16.328  -2.497  1.00 20.00     0.066 A 
HETATM    7  C8  UNL     1     -34.601  16.564  -0.990  1.00 20.00     0.031 C 
ENDROOT
BRANCH   6   8
HETATM    8  C5  UNL     1     -34.882  17.611  -3.224  1.00 20.00     0.271 C 
HETATM    9  O10 UNL     1     -34.325  18.676  -2.991  1.00 20.00    -0.264 OA
BRANCH   8  10
HETATM   10  O11 UNL     1     -35.848  17.392  -4.161  1.00 20.00    -0.326 OA
HETATM   11  C9  UNL     1     -35.514  17.788  -5.495  1.00 20.00     0.213 C 
ENDBRANCH   8  10
ENDBRANCH   6   8
TORSDOF 2
ENDMDL
