MODEL 1
REMARK VINA RESULT:      -3.8      0.000      0.000
REMARK  1 active torsions:
REMARK  status: ('A' for Active; 'I' for Inactive)
REMARK    1  A    between atoms: C1_1  and  C3_3 
ROOT
HETATM    1  C2  UNL     1     -33.485  16.784  -5.322  1.00 20.00     0.090 C 
HETATM    2  C3  UNL     1     -35.095  15.005  -4.099  1.00 20.00     0.195 C 
HETATM    3  C4  UNL     1     -34.810  16.871  -6.065  1.00 20.00     0.054 C 
HETATM    4  C5  UNL     1     -34.607  17.088  -7.558  1.00 20.00     0.022 C 
HETATM    5  S7  UNL     1     -33.846  16.225  -3.637  1.00 20.00    -0.143 SA
HETATM    6  S8  UNL     1     -35.708  15.311  -5.774  1.00 20.00    -0.139 SA
ENDROOT
BRANCH   2   7
HETATM    7  C1  UNL     1     -34.470  13.653  -4.067  1.00 20.00     0.242 C 
HETATM    8  O6  UNL     1     -35.094  12.647  -4.392  1.00 20.00    -0.278 OA
HETATM    9 CL9  UNL     1     -32.819  13.708  -3.528  1.00 20.00    -0.042 Cl
ENDBRANCH   2   7
TORSDOF 1
ENDMDL
MODEL 2
REMARK VINA RESULT:      -3.8      1.818      2.595
REMARK  1 active torsions:
REMARK  status: ('A' for Active; 'I' for Inactive)
REMARK    1  A    between atoms: C1_1  and  C3_3 
ROOT
HETATM    1  C2  UNL     1     -35.530  16.255  -2.596  1.00 20.00     0.090 C 
HETATM    2  C3  UNL     1     -34.931  14.869  -4.827  1.00 20.00     0.195 C 
HETATM    3  C4  UNL     1     -34.657  17.188  -3.422  1.00 20.00     0.054 C 
HETATM    4  C5  UNL     1     -33.724  18.012  -2.545  1.00 20.00     0.022 C 
HETATM    5  S7  UNL     1     -36.357  15.129  -3.750  1.00 20.00    -0.143 SA
HETATM    6  S8  UNL     1     -33.688  16.160  -4.576  1.00 20.00    -0.139 SA
ENDROOT
BRANCH   2   7
HETATM    7  C1  UNL     1     -34.317  13.554  -4.490  1.00 20.00     0.242 C 
HETATM    8  O6  UNL     1     -34.821  12.496  -4.853  1.00 20.00    -0.278 OA
HETATM    9 CL9  UNL     1     -32.862  13.732  -3.556  1.00 20.00    -0.042 Cl
ENDBRANCH   2   7
TORSDOF 1
ENDMDL
MODEL 3
REMARK VINA RESULT:      -3.7      1.477      2.338
REMARK  1 active torsions:
REMARK  status: ('A' for Active; 'I' for Inactive)
REMARK    1  A    between atoms: C1_1  and  C3_3 
ROOT
HETATM    1  C2  UNL     1     -34.859  16.702  -6.225  1.00 20.00     0.090 C 
HETATM    2  C3  UNL     1     -34.037  14.403  -5.089  1.00 20.00     0.195 C 
HETATM    3  C4  UNL     1     -33.586  17.062  -5.473  1.00 20.00     0.054 C 
HETATM    4  C5  UNL     1     -33.675  18.446  -4.844  1.00 20.00     0.022 C 
HETATM    5  S7  UNL     1     -34.752  14.946  -6.656  1.00 20.00    -0.143 SA
HETATM    6  S8  UNL     1     -33.332  15.800  -4.181  1.00 20.00    -0.139 SA
ENDROOT
BRANCH   2   7
HETATM    7  C1  UNL     1     -35.117  13.800  -4.259  1.00 20.00     0.242 C 
HETATM    8  O6  UNL     1     -35.351  12.595  -4.280  1.00 20.00    -0.278 OA
HETATM    9 CL9  UNL     1     -35.954  14.991  -3.309  1.00 20.00    -0.042 Cl
ENDBRANCH   2   7
TORSDOF 1
ENDMDL
MODEL 4
REMARK VINA RESULT:      -3.7      2.444      2.773
REMARK  1 active torsions:
REMARK  status: ('A' for Active; 'I' for Inactive)
REMARK    1  A    between atoms: C1_1  and  C3_3 
ROOT
HETATM    1  C2  UNL     1     -34.821  13.507  -5.330  1.00 20.00     0.090 C 
HETATM    2  C3  UNL     1     -34.232  15.593  -3.732  1.00 20.00     0.195 C 
HETATM    3  C4  UNL     1     -34.541  14.666  -6.276  1.00 20.00     0.054 C 
HETATM    4  C5  UNL     1     -35.459  14.639  -7.490  1.00 20.00     0.022 C 
HETATM    5  S7  UNL     1     -33.897  13.820  -3.805  1.00 20.00    -0.143 SA
HETATM    6  S8  UNL     1     -34.785  16.212  -5.340  1.00 20.00    -0.139 SA
ENDROOT
BRANCH   2   7
HETATM    7  C1  UNL     1     -35.318  15.829  -2.740  1.00 20.00     0.242 C 
HETATM    8  O6  UNL     1     -36.500  15.666  -3.026  1.00 20.00    -0.278 OA
HETATM    9 CL9  UNL     1     -34.697  16.344  -1.201  1.00 20.00    -0.042 Cl
ENDBRANCH   2   7
TORSDOF 1
ENDMDL
MODEL 5
REMARK VINA RESULT:      -3.6      1.707      1.707
REMARK  1 active torsions:
REMARK  status: ('A' for Active; 'I' for Inactive)
REMARK    1  A    between atoms: C1_1  and  C3_3 
ROOT
HETATM    1  C2  UNL     1     -33.293  16.753  -4.975  1.00 20.00     0.090 C 
HETATM    2  C3  UNL     1     -35.043  14.918  -4.069  1.00 20.00     0.195 C 
HETATM    3  C4  UNL     1     -34.617  17.493  -4.854  1.00 20.00     0.054 C 
HETATM    4  C5  UNL     1     -34.806  18.501  -5.979  1.00 20.00     0.022 C 
HETATM    5  S7  UNL     1     -33.324  15.391  -3.782  1.00 20.00    -0.143 SA
HETATM    6  S8  UNL     1     -35.949  16.248  -4.897  1.00 20.00    -0.139 SA
ENDROOT
BRANCH   2   7
HETATM    7  C1  UNL     1     -35.062  13.717  -4.951  1.00 20.00     0.242 C 
HETATM    8  O6  UNL     1     -34.941  12.583  -4.498  1.00 20.00    -0.278 OA
HETATM    9 CL9  UNL     1     -35.266  14.137  -6.624  1.00 20.00    -0.042 Cl
ENDBRANCH   2   7
TORSDOF 1
ENDMDL
MODEL 6
REMARK VINA RESULT:      -3.6      2.333      3.298
REMARK  1 active torsions:
REMARK  status: ('A' for Active; 'I' for Inactive)
REMARK    1  A    between atoms: C1_1  and  C3_3 
ROOT
HETATM    1  C2  UNL     1     -35.507  16.827  -3.716  1.00 20.00     0.090 C 
HETATM    2  C3  UNL     1     -34.029  15.173  -5.244  1.00 20.00     0.195 C 
HETATM    3  C4  UNL     1     -34.283  16.494  -2.874  1.00 20.00     0.054 C 
HETATM    4  C5  UNL     1     -34.634  16.353  -1.400  1.00 20.00     0.022 C 
HETATM    5  S7  UNL     1     -35.025  16.665  -5.455  1.00 20.00    -0.143 SA
HETATM    6  S8  UNL     1     -33.588  14.931  -3.506  1.00 20.00    -0.139 SA
ENDROOT
BRANCH   2   7
HETATM    7  C1  UNL     1     -34.831  14.001  -5.693  1.00 20.00     0.242 C 
HETATM    8  O6  UNL     1     -34.944  12.993  -5.001  1.00 20.00    -0.278 OA
HETATM    9 CL9  UNL     1     -35.544  14.256  -7.257  1.00 20.00    -0.042 Cl
ENDBRANCH   2   7
TORSDOF 1
ENDMDL
MODEL 7
REMARK VINA RESULT:      -3.6      2.199      3.201
REMARK  1 active torsions:
REMARK  status: ('A' for Active; 'I' for Inactive)
REMARK    1  A    between atoms: C1_1  and  C3_3 
ROOT
HETATM    1  C2  UNL     1     -35.560  16.992  -3.533  1.00 20.00     0.090 C 
HETATM    2  C3  UNL     1     -34.111  15.500  -5.244  1.00 20.00     0.195 C 
HETATM    3  C4  UNL     1     -34.237  16.745  -2.824  1.00 20.00     0.054 C 
HETATM    4  C5  UNL     1     -34.428  16.544  -1.327  1.00 20.00     0.022 C 
HETATM    5  S7  UNL     1     -35.241  16.907  -5.314  1.00 20.00    -0.143 SA
HETATM    6  S8  UNL     1     -33.483  15.259  -3.565  1.00 20.00    -0.139 SA
ENDROOT
BRANCH   2   7
HETATM    7  C1  UNL     1     -34.856  14.274  -5.647  1.00 20.00     0.242 C 
HETATM    8  O6  UNL     1     -35.227  14.096  -6.804  1.00 20.00    -0.278 OA
HETATM    9 CL9  UNL     1     -35.112  13.194  -4.310  1.00 20.00    -0.042 Cl
ENDBRANCH   2   7
TORSDOF 1
ENDMDL
MODEL 8
REMARK VINA RESULT:      -3.6      1.882      2.150
REMARK  1 active torsions:
REMARK  status: ('A' for Active; 'I' for Inactive)
REMARK    1  A    between atoms: C1_1  and  C3_3 
ROOT
HETATM    1  C2  UNL     1     -35.972  15.987  -6.168  1.00 20.00     0.090 C 
HETATM    2  C3  UNL     1     -35.223  14.960  -3.793  1.00 20.00     0.195 C 
HETATM    3  C4  UNL     1     -37.249  15.918  -5.344  1.00 20.00     0.054 C 
HETATM    4  C5  UNL     1     -38.452  15.540  -6.197  1.00 20.00     0.022 C 
HETATM    5  S7  UNL     1     -34.589  16.137  -5.008  1.00 20.00    -0.143 SA
HETATM    6  S8  UNL     1     -36.994  14.675  -4.034  1.00 20.00    -0.139 SA
ENDROOT
BRANCH   2   7
HETATM    7  C1  UNL     1     -34.510  13.664  -3.972  1.00 20.00     0.242 C 
HETATM    8  O6  UNL     1     -35.087  12.662  -4.385  1.00 20.00    -0.278 OA
HETATM    9 CL9  UNL     1     -32.833  13.774  -3.532  1.00 20.00    -0.042 Cl
ENDBRANCH   2   7
TORSDOF 1
ENDMDL
MODEL 9
REMARK VINA RESULT:      -3.5      2.564      3.452
REMARK  1 active torsions:
REMARK  status: ('A' for Active; 'I' for Inactive)
REMARK    1  A    between atoms: C1_1  and  C3_3 
ROOT
HETATM    1  C2  UNL     1     -33.840  14.264  -3.534  1.00 20.00     0.090 C 
HETATM    2  C3  UNL     1     -35.767  14.619  -5.382  1.00 20.00     0.195 C 
HETATM    3  C4  UNL     1     -34.734  15.360  -2.972  1.00 20.00     0.054 C 
HETATM    4  C5  UNL     1     -33.929  16.421  -2.234  1.00 20.00     0.022 C 
HETATM    5  S7  UNL     1     -34.860  13.248  -4.633  1.00 20.00    -0.143 SA
HETATM    6  S8  UNL     1     -35.629  16.113  -4.371  1.00 20.00    -0.139 SA
ENDROOT
BRANCH   2   7
HETATM    7  C1  UNL     1     -35.178  14.901  -6.721  1.00 20.00     0.242 C 
HETATM    8  O6  UNL     1     -35.467  14.230  -7.707  1.00 20.00    -0.278 OA
HETATM    9 CL9  UNL     1     -34.079  16.247  -6.681  1.00 20.00    -0.042 Cl
ENDBRANCH   2   7
TORSDOF 1
ENDMDL
