MODEL 1
REMARK VINA RESULT:      -4.6      0.000      0.000
REMARK  1 active torsions:
REMARK  status: ('A' for Active; 'I' for Inactive)
REMARK    1  A    between atoms: C4_4  and  C10_10 
ROOT
HETATM    1  C1  UNL     1     -34.665  18.257  -3.131  1.00 20.00     0.174 C 
HETATM    2  C2  UNL     1     -35.223  17.732  -1.856  1.00 20.00     0.025 A 
HETATM    3  C3  UNL     1     -34.624  16.393  -1.647  1.00 20.00     0.030 A 
HETATM    4  C4  UNL     1     -33.709  16.143  -2.803  1.00 20.00     0.130 C 
HETATM    5  C5  UNL     1     -34.397  17.479  -0.608  1.00 20.00    -0.035 A 
HETATM    6  C6  UNL     1     -33.039  18.112  -0.451  1.00 20.00     0.016 C 
HETATM    7  C7  UNL     1     -35.147  17.349   0.694  1.00 20.00     0.016 C 
HETATM    8  O11 UNL     1     -33.581  17.392  -3.517  1.00 20.00    -0.385 OA
ENDROOT
BRANCH   4   9
HETATM    9  C10 UNL     1     -34.257  15.097  -3.762  1.00 20.00     0.007 C 
HETATM   10  C8  UNL     1     -33.399  13.832  -3.733  1.00 20.00     0.012 C 
HETATM   11  C9  UNL     1     -35.710  14.762  -3.426  1.00 20.00     0.012 C 
ENDBRANCH   4   9
TORSDOF 1
ENDMDL
MODEL 2
REMARK VINA RESULT:      -4.6      1.245      4.058
REMARK  1 active torsions:
REMARK  status: ('A' for Active; 'I' for Inactive)
REMARK    1  A    between atoms: C4_4  and  C10_10 
ROOT
HETATM    1  C1  UNL     1     -33.282  16.733  -4.546  1.00 20.00     0.174 C 
HETATM    2  C2  UNL     1     -33.587  15.319  -4.199  1.00 20.00     0.025 A 
HETATM    3  C3  UNL     1     -34.446  15.351  -2.991  1.00 20.00     0.030 A 
HETATM    4  C4  UNL     1     -34.644  16.792  -2.641  1.00 20.00     0.130 C 
HETATM    5  C5  UNL     1     -34.976  14.711  -4.263  1.00 20.00    -0.035 A 
HETATM    6  C6  UNL     1     -36.067  15.380  -5.058  1.00 20.00     0.016 C 
HETATM    7  C7  UNL     1     -35.062  13.204  -4.285  1.00 20.00     0.016 C 
HETATM    8  O11 UNL     1     -34.141  17.569  -3.749  1.00 20.00    -0.385 OA
ENDROOT
BRANCH   4   9
HETATM    9  C10 UNL     1     -33.882  17.195  -1.387  1.00 20.00     0.007 C 
HETATM   10  C8  UNL     1     -33.392  18.640  -1.490  1.00 20.00     0.012 C 
HETATM   11  C9  UNL     1     -34.752  17.015  -0.143  1.00 20.00     0.012 C 
ENDBRANCH   4   9
TORSDOF 1
ENDMDL
MODEL 3
REMARK VINA RESULT:      -4.6      0.512      1.068
REMARK  1 active torsions:
REMARK  status: ('A' for Active; 'I' for Inactive)
REMARK    1  A    between atoms: C4_4  and  C10_10 
ROOT
HETATM    1  C1  UNL     1     -34.817  18.161  -3.243  1.00 20.00     0.174 C 
HETATM    2  C2  UNL     1     -35.275  17.606  -1.941  1.00 20.00     0.025 A 
HETATM    3  C3  UNL     1     -34.559  16.323  -1.748  1.00 20.00     0.030 A 
HETATM    4  C4  UNL     1     -33.677  16.137  -2.942  1.00 20.00     0.130 C 
HETATM    5  C5  UNL     1     -34.377  17.436  -0.729  1.00 20.00    -0.035 A 
HETATM    6  C6  UNL     1     -33.070  18.179  -0.636  1.00 20.00     0.016 C 
HETATM    7  C7  UNL     1     -35.058  17.259   0.606  1.00 20.00     0.016 C 
HETATM    8  O11 UNL     1     -33.683  17.383  -3.669  1.00 20.00    -0.385 OA
ENDROOT
BRANCH   4   9
HETATM    9  C10 UNL     1     -34.178  15.038  -3.867  1.00 20.00     0.007 C 
HETATM   10  C8  UNL     1     -34.110  15.486  -5.328  1.00 20.00     0.012 C 
HETATM   11  C9  UNL     1     -33.377  13.752  -3.667  1.00 20.00     0.012 C 
ENDBRANCH   4   9
TORSDOF 1
ENDMDL
MODEL 4
REMARK VINA RESULT:      -4.5      1.266      3.972
REMARK  1 active torsions:
REMARK  status: ('A' for Active; 'I' for Inactive)
REMARK    1  A    between atoms: C4_4  and  C10_10 
ROOT
HETATM    1  C1  UNL     1     -33.391  14.881  -3.751  1.00 20.00     0.174 C 
HETATM    2  C2  UNL     1     -34.813  14.614  -3.407  1.00 20.00     0.025 A 
HETATM    3  C3  UNL     1     -35.361  15.871  -2.846  1.00 20.00     0.030 A 
HETATM    4  C4  UNL     1     -34.251  16.875  -2.871  1.00 20.00     0.130 C 
HETATM    5  C5  UNL     1     -35.991  15.278  -4.095  1.00 20.00    -0.035 A 
HETATM    6  C6  UNL     1     -35.815  15.950  -5.432  1.00 20.00     0.016 C 
HETATM    7  C7  UNL     1     -37.338  14.618  -3.934  1.00 20.00     0.016 C 
HETATM    8  O11 UNL     1     -33.182  16.302  -3.655  1.00 20.00    -0.385 OA
ENDROOT
BRANCH   4   9
HETATM    9  C10 UNL     1     -33.715  17.182  -1.481  1.00 20.00     0.007 C 
HETATM   10  C8  UNL     1     -33.304  18.650  -1.369  1.00 20.00     0.012 C 
HETATM   11  C9  UNL     1     -34.751  16.836  -0.411  1.00 20.00     0.012 C 
ENDBRANCH   4   9
TORSDOF 1
ENDMDL
MODEL 5
REMARK VINA RESULT:      -4.5      1.142      4.011
REMARK  1 active torsions:
REMARK  status: ('A' for Active; 'I' for Inactive)
REMARK    1  A    between atoms: C4_4  and  C10_10 
ROOT
HETATM    1  C1  UNL     1     -35.366  17.507  -3.532  1.00 20.00     0.174 C 
HETATM    2  C2  UNL     1     -34.024  16.867  -3.540  1.00 20.00     0.025 A 
HETATM    3  C3  UNL     1     -33.773  16.382  -2.162  1.00 20.00     0.030 A 
HETATM    4  C4  UNL     1     -34.980  16.739  -1.353  1.00 20.00     0.130 C 
HETATM    5  C5  UNL     1     -33.790  15.385  -3.308  1.00 20.00    -0.035 A 
HETATM    6  C6  UNL     1     -34.923  14.402  -3.449  1.00 20.00     0.016 C 
HETATM    7  C7  UNL     1     -32.459  14.827  -3.748  1.00 20.00     0.016 C 
HETATM    8  O11 UNL     1     -35.996  17.176  -2.281  1.00 20.00    -0.385 OA
ENDROOT
BRANCH   4   9
HETATM    9  C10 UNL     1     -34.708  17.869  -0.372  1.00 20.00     0.007 C 
HETATM   10  C8  UNL     1     -35.234  17.518   1.020  1.00 20.00     0.012 C 
HETATM   11  C9  UNL     1     -33.214  18.188  -0.312  1.00 20.00     0.012 C 
ENDBRANCH   4   9
TORSDOF 1
ENDMDL
MODEL 6
REMARK VINA RESULT:      -4.4      1.800      4.509
REMARK  1 active torsions:
REMARK  status: ('A' for Active; 'I' for Inactive)
REMARK    1  A    between atoms: C4_4  and  C10_10 
ROOT
HETATM    1  C1  UNL     1     -36.375  15.412  -3.620  1.00 20.00     0.174 C 
HETATM    2  C2  UNL     1     -35.625  15.735  -4.863  1.00 20.00     0.025 A 
HETATM    3  C3  UNL     1     -34.188  15.762  -4.500  1.00 20.00     0.030 A 
HETATM    4  C4  UNL     1     -34.105  15.446  -3.040  1.00 20.00     0.130 C 
HETATM    5  C5  UNL     1     -34.671  14.777  -5.552  1.00 20.00    -0.035 A 
HETATM    6  C6  UNL     1     -34.720  13.302  -5.249  1.00 20.00     0.016 C 
HETATM    7  C7  UNL     1     -34.316  15.079  -6.987  1.00 20.00     0.016 C 
HETATM    8  O11 UNL     1     -35.414  14.997  -2.631  1.00 20.00    -0.385 OA
ENDROOT
BRANCH   4   9
HETATM    9  C10 UNL     1     -33.732  16.661  -2.204  1.00 20.00     0.007 C 
HETATM   10  C8  UNL     1     -33.893  17.948  -3.014  1.00 20.00     0.012 C 
HETATM   11  C9  UNL     1     -34.576  16.724  -0.932  1.00 20.00     0.012 C 
ENDBRANCH   4   9
TORSDOF 1
ENDMDL
MODEL 7
REMARK VINA RESULT:      -4.3      1.727      2.102
REMARK  1 active torsions:
REMARK  status: ('A' for Active; 'I' for Inactive)
REMARK    1  A    between atoms: C4_4  and  C10_10 
ROOT
HETATM    1  C1  UNL     1     -35.939  16.928  -4.503  1.00 20.00     0.174 C 
HETATM    2  C2  UNL     1     -35.714  16.455  -3.110  1.00 20.00     0.025 A 
HETATM    3  C3  UNL     1     -34.511  15.590  -3.142  1.00 20.00     0.030 A 
HETATM    4  C4  UNL     1     -34.033  15.567  -4.560  1.00 20.00     0.130 C 
HETATM    5  C5  UNL     1     -34.508  16.835  -2.270  1.00 20.00    -0.035 A 
HETATM    6  C6  UNL     1     -33.663  18.025  -2.642  1.00 20.00     0.016 C 
HETATM    7  C7  UNL     1     -34.621  16.627  -0.780  1.00 20.00     0.016 C 
HETATM    8  O11 UNL     1     -34.771  16.584  -5.270  1.00 20.00    -0.385 OA
ENDROOT
BRANCH   4   9
HETATM    9  C10 UNL     1     -34.289  14.228  -5.236  1.00 20.00     0.007 C 
HETATM   10  C8  UNL     1     -35.104  13.308  -4.327  1.00 20.00     0.012 C 
HETATM   11  C9  UNL     1     -35.002  14.424  -6.573  1.00 20.00     0.012 C 
ENDBRANCH   4   9
TORSDOF 1
ENDMDL
MODEL 8
REMARK VINA RESULT:      -4.3      2.382      3.546
REMARK  1 active torsions:
REMARK  status: ('A' for Active; 'I' for Inactive)
REMARK    1  A    between atoms: C4_4  and  C10_10 
ROOT
HETATM    1  C1  UNL     1     -33.387  14.082  -3.899  1.00 20.00     0.174 C 
HETATM    2  C2  UNL     1     -33.103  15.493  -3.524  1.00 20.00     0.025 A 
HETATM    3  C3  UNL     1     -33.982  16.342  -4.362  1.00 20.00     0.030 A 
HETATM    4  C4  UNL     1     -34.784  15.417  -5.223  1.00 20.00     0.130 C 
HETATM    5  C5  UNL     1     -34.108  16.409  -2.849  1.00 20.00    -0.035 A 
HETATM    6  C6  UNL     1     -35.318  15.838  -2.158  1.00 20.00     0.016 C 
HETATM    7  C7  UNL     1     -33.560  17.642  -2.172  1.00 20.00     0.016 C 
HETATM    8  O11 UNL     1     -34.569  14.081  -4.720  1.00 20.00    -0.385 OA
ENDROOT
BRANCH   4   9
HETATM    9  C10 UNL     1     -34.349  15.457  -6.680  1.00 20.00     0.007 C 
HETATM   10  C8  UNL     1     -35.191  14.500  -7.524  1.00 20.00     0.012 C 
HETATM   11  C9  UNL     1     -34.440  16.878  -7.235  1.00 20.00     0.012 C 
ENDBRANCH   4   9
TORSDOF 1
ENDMDL
MODEL 9
REMARK VINA RESULT:      -4.2      2.697      4.409
REMARK  1 active torsions:
REMARK  status: ('A' for Active; 'I' for Inactive)
REMARK    1  A    between atoms: C4_4  and  C10_10 
ROOT
HETATM    1  C1  UNL     1     -36.809  14.663  -4.081  1.00 20.00     0.174 C 
HETATM    2  C2  UNL     1     -35.519  13.932  -4.202  1.00 20.00     0.025 A 
HETATM    3  C3  UNL     1     -34.706  14.664  -5.202  1.00 20.00     0.030 A 
HETATM    4  C4  UNL     1     -35.528  15.828  -5.658  1.00 20.00     0.130 C 
HETATM    5  C5  UNL     1     -34.177  14.507  -3.786  1.00 20.00    -0.035 A 
HETATM    6  C6  UNL     1     -34.108  15.694  -2.861  1.00 20.00     0.016 C 
HETATM    7  C7  UNL     1     -33.048  13.527  -3.583  1.00 20.00     0.016 C 
HETATM    8  O11 UNL     1     -36.661  15.918  -4.770  1.00 20.00    -0.385 OA
ENDROOT
BRANCH   4   9
HETATM    9  C10 UNL     1     -36.044  15.652  -7.079  1.00 20.00     0.007 C 
HETATM   10  C8  UNL     1     -35.774  16.905  -7.913  1.00 20.00     0.012 C 
HETATM   11  C9  UNL     1     -35.412  14.427  -7.738  1.00 20.00     0.012 C 
ENDBRANCH   4   9
TORSDOF 1
ENDMDL
