MODEL 1
REMARK VINA RESULT:      -4.9      0.000      0.000
REMARK  0 active torsions:
REMARK  status: ('A' for Active; 'I' for Inactive)
ROOT
HETATM    1  C1  UNL     1     -34.475  13.797  -3.824  1.00 20.00     0.066 C 
HETATM    2  C2  UNL     1     -33.573  17.429  -1.473  1.00 20.00     0.031 C 
HETATM    3  C3  UNL     1     -34.727  16.473  -1.162  1.00 20.00     0.009 C 
HETATM    4  C4  UNL     1     -33.755  18.135  -2.823  1.00 20.00     0.272 C 
HETATM    5  C5  UNL     1     -33.477  16.061  -4.094  1.00 20.00     0.292 C 
HETATM    6  C6  UNL     1     -35.605  16.749  -3.474  1.00 20.00     0.278 C 
HETATM    7  C7  UNL     1     -34.023  15.006  -3.114  1.00 20.00     0.127 C 
HETATM    8  C8  UNL     1     -35.198  15.722  -2.422  1.00 20.00     0.033 C 
HETATM    9  N9  UNL     1     -34.830  12.845  -4.385  1.00 20.00    -0.197 NA
HETATM   10  N10 UNL     1     -34.297  17.280  -3.900  1.00 20.00     0.090 N 
ENDROOT
TORSDOF 0
ENDMDL
MODEL 2
REMARK VINA RESULT:      -4.6      1.497      3.623
REMARK  0 active torsions:
REMARK  status: ('A' for Active; 'I' for Inactive)
ROOT
HETATM    1  C1  UNL     1     -34.366  16.497  -1.544  1.00 20.00     0.066 C 
HETATM    2  C2  UNL     1     -34.640  13.471  -4.755  1.00 20.00     0.031 C 
HETATM    3  C3  UNL     1     -33.412  13.662  -3.861  1.00 20.00     0.009 C 
HETATM    4  C4  UNL     1     -34.903  14.695  -5.643  1.00 20.00     0.272 C 
HETATM    5  C5  UNL     1     -35.479  16.120  -3.738  1.00 20.00     0.292 C 
HETATM    6  C6  UNL     1     -33.290  16.062  -4.505  1.00 20.00     0.278 C 
HETATM    7  C7  UNL     1     -34.623  15.514  -2.610  1.00 20.00     0.127 C 
HETATM    8  C8  UNL     1     -33.320  15.102  -3.321  1.00 20.00     0.033 C 
HETATM    9  N9  UNL     1     -34.164  17.273  -0.705  1.00 20.00    -0.197 NA
HETATM   10  N10 UNL     1     -34.684  15.998  -4.982  1.00 20.00     0.090 N 
ENDROOT
TORSDOF 0
ENDMDL
MODEL 3
REMARK VINA RESULT:      -4.4      2.044      3.395
REMARK  0 active torsions:
REMARK  status: ('A' for Active; 'I' for Inactive)
ROOT
HETATM    1  C1  UNL     1     -37.411  14.757  -4.009  1.00 20.00     0.066 C 
HETATM    2  C2  UNL     1     -33.395  16.199  -5.166  1.00 20.00     0.031 C 
HETATM    3  C3  UNL     1     -34.308  15.380  -6.083  1.00 20.00     0.009 C 
HETATM    4  C4  UNL     1     -32.947  15.401  -3.934  1.00 20.00     0.272 C 
HETATM    5  C5  UNL     1     -35.208  15.324  -2.998  1.00 20.00     0.292 C 
HETATM    6  C6  UNL     1     -34.471  13.594  -4.358  1.00 20.00     0.278 C 
HETATM    7  C7  UNL     1     -36.084  15.343  -4.265  1.00 20.00     0.127 C 
HETATM    8  C8  UNL     1     -35.283  14.501  -5.276  1.00 20.00     0.033 C 
HETATM    9  N9  UNL     1     -38.455  14.295  -3.806  1.00 20.00    -0.197 NA
HETATM   10  N10 UNL     1     -33.994  14.545  -3.337  1.00 20.00     0.090 N 
ENDROOT
TORSDOF 0
ENDMDL
MODEL 4
REMARK VINA RESULT:      -4.2      1.958      2.407
REMARK  0 active torsions:
REMARK  status: ('A' for Active; 'I' for Inactive)
ROOT
HETATM    1  C1  UNL     1     -37.359  14.553  -3.871  1.00 20.00     0.066 C 
HETATM    2  C2  UNL     1     -33.053  15.497  -3.552  1.00 20.00     0.031 C 
HETATM    3  C3  UNL     1     -34.085  15.832  -2.471  1.00 20.00     0.009 C 
HETATM    4  C4  UNL     1     -33.306  16.270  -4.853  1.00 20.00     0.272 C 
HETATM    5  C5  UNL     1     -35.397  15.080  -5.308  1.00 20.00     0.292 C 
HETATM    6  C6  UNL     1     -35.449  17.082  -4.135  1.00 20.00     0.278 C 
HETATM    7  C7  UNL     1     -35.901  14.757  -3.889  1.00 20.00     0.127 C 
HETATM    8  C8  UNL     1     -35.497  15.995  -3.066  1.00 20.00     0.033 C 
HETATM    9  N9  UNL     1     -38.508  14.392  -3.858  1.00 20.00    -0.197 NA
HETATM   10  N10 UNL     1     -34.730  16.401  -5.228  1.00 20.00     0.090 N 
ENDROOT
TORSDOF 0
ENDMDL
MODEL 5
REMARK VINA RESULT:      -4.2      1.816      3.769
REMARK  0 active torsions:
REMARK  status: ('A' for Active; 'I' for Inactive)
ROOT
HETATM    1  C1  UNL     1     -34.518  16.129  -1.891  1.00 20.00     0.066 C 
HETATM    2  C2  UNL     1     -34.449  14.987  -6.161  1.00 20.00     0.031 C 
HETATM    3  C3  UNL     1     -35.286  16.138  -5.596  1.00 20.00     0.009 C 
HETATM    4  C4  UNL     1     -34.902  13.624  -5.622  1.00 20.00     0.272 C 
HETATM    5  C5  UNL     1     -34.174  14.136  -3.341  1.00 20.00     0.292 C 
HETATM    6  C6  UNL     1     -36.360  14.586  -3.974  1.00 20.00     0.278 C 
HETATM    7  C7  UNL     1     -34.354  15.664  -3.279  1.00 20.00     0.127 C 
HETATM    8  C8  UNL     1     -35.627  15.916  -4.110  1.00 20.00     0.033 C 
HETATM    9  N9  UNL     1     -34.647  16.495  -0.798  1.00 20.00    -0.197 NA
HETATM   10  N10 UNL     1     -35.271  13.616  -4.191  1.00 20.00     0.090 N 
ENDROOT
TORSDOF 0
ENDMDL
MODEL 6
REMARK VINA RESULT:      -4.2      1.432      3.684
REMARK  0 active torsions:
REMARK  status: ('A' for Active; 'I' for Inactive)
ROOT
HETATM    1  C1  UNL     1     -33.704  17.220  -1.671  1.00 20.00     0.066 C 
HETATM    2  C2  UNL     1     -34.754  13.486  -3.790  1.00 20.00     0.031 C 
HETATM    3  C3  UNL     1     -33.348  14.094  -3.772  1.00 20.00     0.009 C 
HETATM    4  C4  UNL     1     -35.764  14.387  -4.512  1.00 20.00     0.272 C 
HETATM    5  C5  UNL     1     -35.637  16.128  -2.795  1.00 20.00     0.292 C 
HETATM    6  C6  UNL     1     -34.246  16.243  -4.649  1.00 20.00     0.278 C 
HETATM    7  C7  UNL     1     -34.193  15.973  -2.283  1.00 20.00     0.127 C 
HETATM    8  C8  UNL     1     -33.392  15.618  -3.551  1.00 20.00     0.033 C 
HETATM    9  N9  UNL     1     -33.319  18.203  -1.189  1.00 20.00    -0.197 NA
HETATM   10  N10 UNL     1     -35.604  15.832  -4.246  1.00 20.00     0.090 N 
ENDROOT
TORSDOF 0
ENDMDL
MODEL 7
REMARK VINA RESULT:      -4.1     11.856     13.377
REMARK  0 active torsions:
REMARK  status: ('A' for Active; 'I' for Inactive)
ROOT
HETATM    1  C1  UNL     1     -41.832   3.257  -2.692  1.00 20.00     0.066 C 
HETATM    2  C2  UNL     1     -41.151   7.223  -0.863  1.00 20.00     0.031 C 
HETATM    3  C3  UNL     1     -40.747   5.899  -0.210  1.00 20.00     0.009 C 
HETATM    4  C4  UNL     1     -42.673   7.356  -1.008  1.00 20.00     0.272 C 
HETATM    5  C5  UNL     1     -42.806   5.547  -2.653  1.00 20.00     0.292 C 
HETATM    6  C6  UNL     1     -43.086   5.070  -0.399  1.00 20.00     0.278 C 
HETATM    7  C7  UNL     1     -41.631   4.643  -2.235  1.00 20.00     0.127 C 
HETATM    8  C8  UNL     1     -41.629   4.733  -0.697  1.00 20.00     0.033 C 
HETATM    9  N9  UNL     1     -41.991   2.165  -3.051  1.00 20.00    -0.197 NA
HETATM   10  N10 UNL     1     -43.368   6.112  -1.404  1.00 20.00     0.090 N 
ENDROOT
TORSDOF 0
ENDMDL
MODEL 8
REMARK VINA RESULT:      -4.1      2.139      3.004
REMARK  0 active torsions:
REMARK  status: ('A' for Active; 'I' for Inactive)
ROOT
HETATM    1  C1  UNL     1     -35.383  14.596  -7.016  1.00 20.00     0.066 C 
HETATM    2  C2  UNL     1     -32.840  14.941  -3.417  1.00 20.00     0.031 C 
HETATM    3  C3  UNL     1     -33.371  13.614  -3.966  1.00 20.00     0.009 C 
HETATM    4  C4  UNL     1     -33.970  15.855  -2.922  1.00 20.00     0.272 C 
HETATM    5  C5  UNL     1     -34.864  16.190  -5.176  1.00 20.00     0.292 C 
HETATM    6  C6  UNL     1     -35.702  14.477  -3.854  1.00 20.00     0.278 C 
HETATM    7  C7  UNL     1     -34.497  14.865  -5.871  1.00 20.00     0.127 C 
HETATM    8  C8  UNL     1     -34.675  13.810  -4.763  1.00 20.00     0.033 C 
HETATM    9  N9  UNL     1     -36.082  14.384  -7.918  1.00 20.00    -0.197 NA
HETATM   10  N10 UNL     1     -35.181  15.854  -3.769  1.00 20.00     0.090 N 
ENDROOT
TORSDOF 0
ENDMDL
MODEL 9
REMARK VINA RESULT:      -4.0      3.016      4.359
REMARK  0 active torsions:
REMARK  status: ('A' for Active; 'I' for Inactive)
ROOT
HETATM    1  C1  UNL     1     -34.076  13.578  -4.486  1.00 20.00     0.066 C 
HETATM    2  C2  UNL     1     -36.725  14.926  -7.757  1.00 20.00     0.031 C 
HETATM    3  C3  UNL     1     -35.222  14.683  -7.918  1.00 20.00     0.009 C 
HETATM    4  C4  UNL     1     -37.023  16.087  -6.799  1.00 20.00     0.272 C 
HETATM    5  C5  UNL     1     -36.168  14.875  -4.852  1.00 20.00     0.292 C 
HETATM    6  C6  UNL     1     -34.747  16.262  -6.054  1.00 20.00     0.278 C 
HETATM    7  C7  UNL     1     -35.086  13.976  -5.480  1.00 20.00     0.127 C 
HETATM    8  C8  UNL     1     -34.472  14.858  -6.583  1.00 20.00     0.033 C 
HETATM    9  N9  UNL     1     -33.280  13.265  -3.702  1.00 20.00    -0.197 NA
HETATM   10  N10 UNL     1     -36.149  16.148  -5.610  1.00 20.00     0.090 N 
ENDROOT
TORSDOF 0
ENDMDL
