MODEL 1
REMARK VINA RESULT:      -5.0      0.000      0.000
REMARK  3 active torsions:
REMARK  status: ('A' for Active; 'I' for Inactive)
REMARK    1  A    between atoms: C1_1  and  C7_7 
REMARK    2  A    between atoms: C2_2  and  C8_8 
REMARK    3  A    between atoms: C4_4  and  C9_9 
ROOT
HETATM    1  C8  UNL     1     -34.568   5.046   3.361  1.00 20.00     0.233 A 
HETATM    2  C9  UNL     1     -34.887   4.716   4.783  1.00 20.00     0.186 A 
HETATM    3  O10 UNL     1     -35.732   5.566   3.993  1.00 20.00    -0.358 OA
ENDROOT
BRANCH   1   4
HETATM    4  C2  UNL     1     -33.621   6.110   3.032  1.00 20.00    -0.071 C 
HETATM    5  C1  UNL     1     -32.843   6.984   2.760  1.00 20.00    -0.099 C 
BRANCH   5   6
HETATM    6  C7  UNL     1     -31.896   8.048   2.429  1.00 20.00     0.065 A 
HETATM    7  C5  UNL     1     -32.448   9.352   1.962  1.00 20.00     0.018 A 
HETATM    8  C6  UNL     1     -31.756   8.436   0.997  1.00 20.00     0.018 A 
ENDBRANCH   5   6
ENDBRANCH   1   4
BRANCH   2   9
HETATM    9  C4  UNL     1     -34.075   5.220   5.881  1.00 20.00    -0.002 C 
HETATM   10  C3  UNL     1     -34.311   6.370   6.520  1.00 20.00     0.009 C 
ENDBRANCH   2   9
TORSDOF 3
ENDMDL
MODEL 2
REMARK VINA RESULT:      -4.7     10.865     12.027
REMARK  3 active torsions:
REMARK  status: ('A' for Active; 'I' for Inactive)
REMARK    1  A    between atoms: C1_1  and  C7_7 
REMARK    2  A    between atoms: C2_2  and  C8_8 
REMARK    3  A    between atoms: C4_4  and  C9_9 
ROOT
HETATM    1  C8  UNL     1     -35.474  13.653  -4.160  1.00 20.00     0.233 A 
HETATM    2  C9  UNL     1     -35.093  13.582  -5.603  1.00 20.00     0.186 A 
HETATM    3  O10 UNL     1     -34.431  12.793  -4.603  1.00 20.00    -0.358 OA
ENDROOT
BRANCH   1   4
HETATM    4  C2  UNL     1     -34.958  14.716  -3.298  1.00 20.00    -0.071 C 
HETATM    5  C1  UNL     1     -34.534  15.589  -2.592  1.00 20.00    -0.099 C 
BRANCH   5   6
HETATM    6  C7  UNL     1     -34.018  16.653  -1.731  1.00 20.00     0.065 A 
HETATM    7  C5  UNL     1     -34.690  16.876  -0.419  1.00 20.00     0.018 A 
HETATM    8  C6  UNL     1     -34.866  17.864  -1.533  1.00 20.00     0.018 A 
ENDBRANCH   5   6
ENDBRANCH   1   4
BRANCH   2   9
HETATM    9  C4  UNL     1     -34.446  14.699  -6.275  1.00 20.00    -0.002 C 
HETATM   10  C3  UNL     1     -34.687  15.052  -7.542  1.00 20.00     0.009 C 
ENDBRANCH   2   9
TORSDOF 3
ENDMDL
MODEL 3
REMARK VINA RESULT:      -4.6      1.899      5.054
REMARK  3 active torsions:
REMARK  status: ('A' for Active; 'I' for Inactive)
REMARK    1  A    between atoms: C1_1  and  C7_7 
REMARK    2  A    between atoms: C2_2  and  C8_8 
REMARK    3  A    between atoms: C4_4  and  C9_9 
ROOT
HETATM    1  C8  UNL     1     -31.710   6.626   2.914  1.00 20.00     0.233 A 
HETATM    2  C9  UNL     1     -31.653   7.986   2.297  1.00 20.00     0.186 A 
HETATM    3  O10 UNL     1     -31.117   7.721   3.602  1.00 20.00    -0.358 OA
ENDROOT
BRANCH   1   4
HETATM    4  C2  UNL     1     -32.917   6.160   3.596  1.00 20.00    -0.071 C 
HETATM    5  C1  UNL     1     -33.907   5.778   4.157  1.00 20.00    -0.099 C 
BRANCH   5   6
HETATM    6  C7  UNL     1     -35.113   5.312   4.840  1.00 20.00     0.065 A 
HETATM    7  C5  UNL     1     -35.053   5.139   6.320  1.00 20.00     0.018 A 
HETATM    8  C6  UNL     1     -35.099   3.939   5.422  1.00 20.00     0.018 A 
ENDBRANCH   5   6
ENDBRANCH   1   4
BRANCH   2   9
HETATM    9  C4  UNL     1     -32.857   8.778   2.091  1.00 20.00    -0.002 C 
HETATM   10  C3  UNL     1     -32.855  10.051   1.683  1.00 20.00     0.009 C 
ENDBRANCH   2   9
TORSDOF 3
ENDMDL
MODEL 4
REMARK VINA RESULT:      -4.3     10.752     11.874
REMARK  3 active torsions:
REMARK  status: ('A' for Active; 'I' for Inactive)
REMARK    1  A    between atoms: C1_1  and  C7_7 
REMARK    2  A    between atoms: C2_2  and  C8_8 
REMARK    3  A    between atoms: C4_4  and  C9_9 
ROOT
HETATM    1  C8  UNL     1     -34.915  17.019  -0.158  1.00 20.00     0.233 A 
HETATM    2  C9  UNL     1     -34.127  18.202   0.301  1.00 20.00     0.186 A 
HETATM    3  O10 UNL     1     -35.387  18.344  -0.372  1.00 20.00    -0.358 OA
ENDROOT
BRANCH   1   4
HETATM    4  C2  UNL     1     -34.605  16.354  -1.423  1.00 20.00    -0.071 C 
HETATM    5  C1  UNL     1     -34.350  15.807  -2.461  1.00 20.00    -0.099 C 
BRANCH   5   6
HETATM    6  C7  UNL     1     -34.039  15.141  -3.726  1.00 20.00     0.065 A 
HETATM    7  C5  UNL     1     -34.882  13.978  -4.126  1.00 20.00     0.018 A 
HETATM    8  C6  UNL     1     -33.470  13.764  -3.667  1.00 20.00     0.018 A 
ENDBRANCH   5   6
ENDBRANCH   1   4
BRANCH   2   9
HETATM    9  C4  UNL     1     -32.861  18.561  -0.323  1.00 20.00    -0.002 C 
HETATM   10  C3  UNL     1     -31.849  19.150   0.322  1.00 20.00     0.009 C 
ENDBRANCH   2   9
TORSDOF 3
ENDMDL
MODEL 5
REMARK VINA RESULT:      -4.1     10.945     12.113
REMARK  3 active torsions:
REMARK  status: ('A' for Active; 'I' for Inactive)
REMARK    1  A    between atoms: C1_1  and  C7_7 
REMARK    2  A    between atoms: C2_2  and  C8_8 
REMARK    3  A    between atoms: C4_4  and  C9_9 
ROOT
HETATM    1  C8  UNL     1     -33.520  16.624  -3.868  1.00 20.00     0.233 A 
HETATM    2  C9  UNL     1     -33.663  15.332  -4.604  1.00 20.00     0.186 A 
HETATM    3  O10 UNL     1     -34.615  16.397  -4.746  1.00 20.00    -0.358 OA
ENDROOT
BRANCH   1   4
HETATM    4  C2  UNL     1     -33.966  16.751  -2.481  1.00 20.00    -0.071 C 
HETATM    5  C1  UNL     1     -34.332  16.857  -1.342  1.00 20.00    -0.099 C 
BRANCH   5   6
HETATM    6  C7  UNL     1     -34.777  16.986   0.045  1.00 20.00     0.065 A 
HETATM    7  C5  UNL     1     -35.730  18.085   0.371  1.00 20.00     0.018 A 
HETATM    8  C6  UNL     1     -34.303  18.166   0.823  1.00 20.00     0.018 A 
ENDBRANCH   5   6
ENDBRANCH   1   4
BRANCH   2   9
HETATM    9  C4  UNL     1     -33.974  14.091  -3.910  1.00 20.00    -0.002 C 
HETATM   10  C3  UNL     1     -35.059  13.349  -4.151  1.00 20.00     0.009 C 
ENDBRANCH   2   9
TORSDOF 3
ENDMDL
MODEL 6
REMARK VINA RESULT:      -4.1      9.235     10.821
REMARK  3 active torsions:
REMARK  status: ('A' for Active; 'I' for Inactive)
REMARK    1  A    between atoms: C1_1  and  C7_7 
REMARK    2  A    between atoms: C2_2  and  C8_8 
REMARK    3  A    between atoms: C4_4  and  C9_9 
ROOT
HETATM    1  C8  UNL     1     -40.691   5.161  -0.650  1.00 20.00     0.233 A 
HETATM    2  C9  UNL     1     -41.052   6.611  -0.621  1.00 20.00     0.186 A 
HETATM    3  O10 UNL     1     -41.698   5.650   0.227  1.00 20.00    -0.358 OA
ENDROOT
BRANCH   1   4
HETATM    4  C2  UNL     1     -41.254   4.267  -1.662  1.00 20.00    -0.071 C 
HETATM    5  C1  UNL     1     -41.717   3.533  -2.491  1.00 20.00    -0.099 C 
BRANCH   5   6
HETATM    6  C7  UNL     1     -42.279   2.638  -3.502  1.00 20.00     0.065 A 
HETATM    7  C5  UNL     1     -42.484   1.208  -3.130  1.00 20.00     0.018 A 
HETATM    8  C6  UNL     1     -41.388   1.591  -4.080  1.00 20.00     0.018 A 
ENDBRANCH   5   6
ENDBRANCH   1   4
BRANCH   2   9
HETATM    9  C4  UNL     1     -41.730   7.249  -1.740  1.00 20.00    -0.002 C 
HETATM   10  C3  UNL     1     -42.941   7.810  -1.661  1.00 20.00     0.009 C 
ENDBRANCH   2   9
TORSDOF 3
ENDMDL
MODEL 7
REMARK VINA RESULT:      -4.1     10.949     11.855
REMARK  3 active torsions:
REMARK  status: ('A' for Active; 'I' for Inactive)
REMARK    1  A    between atoms: C1_1  and  C7_7 
REMARK    2  A    between atoms: C2_2  and  C8_8 
REMARK    3  A    between atoms: C4_4  and  C9_9 
ROOT
HETATM    1  C8  UNL     1     -36.924  15.561  -3.901  1.00 20.00     0.233 A 
HETATM    2  C9  UNL     1     -36.517  14.615  -4.984  1.00 20.00     0.186 A 
HETATM    3  O10 UNL     1     -37.222  14.173  -3.814  1.00 20.00    -0.358 OA
ENDROOT
BRANCH   1   4
HETATM    4  C2  UNL     1     -35.978  15.969  -2.864  1.00 20.00    -0.071 C 
HETATM    5  C1  UNL     1     -35.200  16.304  -2.013  1.00 20.00    -0.099 C 
BRANCH   5   6
HETATM    6  C7  UNL     1     -34.254  16.711  -0.975  1.00 20.00     0.065 A 
HETATM    7  C5  UNL     1     -34.790  17.441   0.210  1.00 20.00     0.018 A 
HETATM    8  C6  UNL     1     -33.975  18.167  -0.818  1.00 20.00     0.018 A 
ENDBRANCH   5   6
ENDBRANCH   1   4
BRANCH   2   9
HETATM    9  C4  UNL     1     -35.118  14.292  -5.224  1.00 20.00    -0.002 C 
HETATM   10  C3  UNL     1     -34.530  13.161  -4.818  1.00 20.00     0.009 C 
ENDBRANCH   2   9
TORSDOF 3
ENDMDL
MODEL 8
REMARK VINA RESULT:      -4.0     11.105     12.468
REMARK  3 active torsions:
REMARK  status: ('A' for Active; 'I' for Inactive)
REMARK    1  A    between atoms: C1_1  and  C7_7 
REMARK    2  A    between atoms: C2_2  and  C8_8 
REMARK    3  A    between atoms: C4_4  and  C9_9 
ROOT
HETATM    1  C8  UNL     1     -34.396  14.972  -3.274  1.00 20.00     0.233 A 
HETATM    2  C9  UNL     1     -33.877  15.355  -4.622  1.00 20.00     0.186 A 
HETATM    3  O10 UNL     1     -33.095  14.582  -3.699  1.00 20.00    -0.358 OA
ENDROOT
BRANCH   1   4
HETATM    4  C2  UNL     1     -34.331  15.907  -2.151  1.00 20.00    -0.071 C 
HETATM    5  C1  UNL     1     -34.278  16.674  -1.229  1.00 20.00    -0.099 C 
BRANCH   5   6
HETATM    6  C7  UNL     1     -34.214  17.607  -0.105  1.00 20.00     0.065 A 
HETATM    7  C5  UNL     1     -35.281  17.522   0.933  1.00 20.00     0.018 A 
HETATM    8  C6  UNL     1     -35.251  18.675  -0.025  1.00 20.00     0.018 A 
ENDBRANCH   5   6
ENDBRANCH   1   4
BRANCH   2   9
HETATM    9  C4  UNL     1     -33.560  16.737  -4.951  1.00 20.00    -0.002 C 
HETATM   10  C3  UNL     1     -33.944  17.345  -6.078  1.00 20.00     0.009 C 
ENDBRANCH   2   9
TORSDOF 3
ENDMDL
MODEL 9
REMARK VINA RESULT:      -4.0      9.590     11.012
REMARK  3 active torsions:
REMARK  status: ('A' for Active; 'I' for Inactive)
REMARK    1  A    between atoms: C1_1  and  C7_7 
REMARK    2  A    between atoms: C2_2  and  C8_8 
REMARK    3  A    between atoms: C4_4  and  C9_9 
ROOT
HETATM    1  C8  UNL     1     -42.176   6.128  -2.168  1.00 20.00     0.233 A 
HETATM    2  C9  UNL     1     -41.960   6.546  -0.750  1.00 20.00     0.186 A 
HETATM    3  O10 UNL     1     -40.888   6.512  -1.703  1.00 20.00    -0.358 OA
ENDROOT
BRANCH   1   4
HETATM    4  C2  UNL     1     -42.209   4.713  -2.538  1.00 20.00    -0.071 C 
HETATM    5  C1  UNL     1     -42.237   3.552  -2.841  1.00 20.00    -0.099 C 
BRANCH   5   6
HETATM    6  C7  UNL     1     -42.271   2.138  -3.211  1.00 20.00     0.065 A 
HETATM    7  C5  UNL     1     -41.159   1.611  -4.053  1.00 20.00     0.018 A 
HETATM    8  C6  UNL     1     -42.527   1.796  -4.640  1.00 20.00     0.018 A 
ENDBRANCH   5   6
ENDBRANCH   1   4
BRANCH   2   9
HETATM    9  C4  UNL     1     -42.063   5.595   0.347  1.00 20.00    -0.002 C 
HETATM   10  C3  UNL     1     -43.150   5.449   1.112  1.00 20.00     0.009 C 
ENDBRANCH   2   9
TORSDOF 3
ENDMDL
