MODEL 1
REMARK VINA RESULT:      -5.5      0.000      0.000
REMARK  5 active torsions:
REMARK  status: ('A' for Active; 'I' for Inactive)
REMARK    1  A    between atoms: C1_1  and  C7_7 
REMARK    2  A    between atoms: C2_2  and  C9_9 
REMARK    3  A    between atoms: C4_4  and  C8_8 
REMARK    4  A    between atoms: C8_8  and  C9_9 
REMARK    5  A    between atoms: C9_9  and  O10_10 
ROOT
HETATM    1  C9  UNL     1     -33.727   5.759   3.979  1.00 20.00     0.200 C 
ENDROOT
BRANCH   1   2
HETATM    2  C2  UNL     1     -33.005   6.754   3.172  1.00 20.00    -0.074 C 
HETATM    3  C1  UNL     1     -32.415   7.569   2.515  1.00 20.00    -0.099 C 
BRANCH   3   4
HETATM    4  C7  UNL     1     -31.708   8.545   1.726  1.00 20.00     0.065 A 
HETATM    5  C5  UNL     1     -32.386   9.848   1.419  1.00 20.00     0.018 A 
HETATM    6  C6  UNL     1     -32.195   8.831   0.334  1.00 20.00     0.018 A 
ENDBRANCH   3   4
ENDBRANCH   1   2
BRANCH   1   7
HETATM    7  C8  UNL     1     -33.973   6.290   5.396  1.00 20.00     0.071 C 
BRANCH   7   8
HETATM    8  C4  UNL     1     -34.718   5.295   6.241  1.00 20.00    -0.033 C 
HETATM    9  C3  UNL     1     -34.757   3.980   5.995  1.00 20.00     0.007 C 
ENDBRANCH   7   8
ENDBRANCH   1   7
BRANCH   1  10
HETATM   10  O10 UNL     1     -34.986   5.481   3.371  1.00 20.00    -0.383 OA
HETATM   11  H22 UNL     1     -34.794   5.144   2.482  1.00 20.00     0.211 HD
ENDBRANCH   1  10
TORSDOF 5
ENDMDL
MODEL 2
REMARK VINA RESULT:      -5.4      1.639      5.567
REMARK  5 active torsions:
REMARK  status: ('A' for Active; 'I' for Inactive)
REMARK    1  A    between atoms: C1_1  and  C7_7 
REMARK    2  A    between atoms: C2_2  and  C9_9 
REMARK    3  A    between atoms: C4_4  and  C8_8 
REMARK    4  A    between atoms: C8_8  and  C9_9 
REMARK    5  A    between atoms: C9_9  and  O10_10 
ROOT
HETATM    1  C9  UNL     1     -31.970   7.259   3.008  1.00 20.00     0.200 C 
ENDROOT
BRANCH   1   2
HETATM    2  C2  UNL     1     -33.078   6.510   3.619  1.00 20.00    -0.074 C 
HETATM    3  C1  UNL     1     -33.985   5.901   4.121  1.00 20.00    -0.099 C 
BRANCH   3   4
HETATM    4  C7  UNL     1     -35.071   5.170   4.721  1.00 20.00     0.065 A 
HETATM    5  C5  UNL     1     -35.072   4.980   6.210  1.00 20.00     0.018 A 
HETATM    6  C6  UNL     1     -34.788   3.817   5.307  1.00 20.00     0.018 A 
ENDBRANCH   3   4
ENDBRANCH   1   2
BRANCH   1   7
HETATM    7  C8  UNL     1     -32.489   8.524   2.317  1.00 20.00     0.071 C 
BRANCH   7   8
HETATM    8  C4  UNL     1     -31.866   8.714   0.962  1.00 20.00    -0.033 C 
HETATM    9  C3  UNL     1     -32.545   9.079  -0.132  1.00 20.00     0.007 C 
ENDBRANCH   7   8
ENDBRANCH   1   7
BRANCH   1  10
HETATM   10  O10 UNL     1     -31.042   7.640   4.022  1.00 20.00    -0.383 OA
HETATM   11  H22 UNL     1     -30.876   8.587   3.901  1.00 20.00     0.211 HD
ENDBRANCH   1  10
TORSDOF 5
ENDMDL
MODEL 3
REMARK VINA RESULT:      -5.3      0.877      1.326
REMARK  5 active torsions:
REMARK  status: ('A' for Active; 'I' for Inactive)
REMARK    1  A    between atoms: C1_1  and  C7_7 
REMARK    2  A    between atoms: C2_2  and  C9_9 
REMARK    3  A    between atoms: C4_4  and  C8_8 
REMARK    4  A    between atoms: C8_8  and  C9_9 
REMARK    5  A    between atoms: C9_9  and  O10_10 
ROOT
HETATM    1  C9  UNL     1     -34.542   5.110   3.767  1.00 20.00     0.200 C 
ENDROOT
BRANCH   1   2
HETATM    2  C2  UNL     1     -33.604   6.147   3.311  1.00 20.00    -0.074 C 
HETATM    3  C1  UNL     1     -32.836   6.993   2.937  1.00 20.00    -0.099 C 
BRANCH   3   4
HETATM    4  C7  UNL     1     -31.916   8.007   2.490  1.00 20.00     0.065 A 
HETATM    5  C5  UNL     1     -32.472   9.284   1.932  1.00 20.00     0.018 A 
HETATM    6  C6  UNL     1     -31.820   8.290   1.019  1.00 20.00     0.018 A 
ENDBRANCH   3   4
ENDBRANCH   1   2
BRANCH   1   7
HETATM    7  C8  UNL     1     -34.222   4.686   5.204  1.00 20.00     0.071 C 
BRANCH   7   8
HETATM    8  C4  UNL     1     -34.639   5.733   6.200  1.00 20.00    -0.033 C 
HETATM    9  C3  UNL     1     -33.858   6.746   6.595  1.00 20.00     0.007 C 
ENDBRANCH   7   8
ENDBRANCH   1   7
BRANCH   1  10
HETATM   10  O10 UNL     1     -35.871   5.626   3.728  1.00 20.00    -0.383 OA
HETATM   11  H22 UNL     1     -36.256   5.332   2.888  1.00 20.00     0.211 HD
ENDBRANCH   1  10
TORSDOF 5
ENDMDL
MODEL 4
REMARK VINA RESULT:      -4.8     10.305     11.756
REMARK  5 active torsions:
REMARK  status: ('A' for Active; 'I' for Inactive)
REMARK    1  A    between atoms: C1_1  and  C7_7 
REMARK    2  A    between atoms: C2_2  and  C9_9 
REMARK    3  A    between atoms: C4_4  and  C8_8 
REMARK    4  A    between atoms: C8_8  and  C9_9 
REMARK    5  A    between atoms: C9_9  and  O10_10 
ROOT
HETATM    1  C9  UNL     1     -34.348  13.511  -3.840  1.00 20.00     0.200 C 
ENDROOT
BRANCH   1   2
HETATM    2  C2  UNL     1     -34.504  14.766  -3.091  1.00 20.00    -0.074 C 
HETATM    3  C1  UNL     1     -34.629  15.792  -2.478  1.00 20.00    -0.099 C 
BRANCH   3   4
HETATM    4  C7  UNL     1     -34.780  17.022  -1.743  1.00 20.00     0.065 A 
HETATM    5  C5  UNL     1     -33.597  17.560  -0.992  1.00 20.00     0.018 A 
HETATM    6  C6  UNL     1     -34.753  16.969  -0.242  1.00 20.00     0.018 A 
ENDBRANCH   3   4
ENDBRANCH   1   2
BRANCH   1   7
HETATM    7  C8  UNL     1     -34.972  13.633  -5.234  1.00 20.00     0.071 C 
BRANCH   7   8
HETATM    8  C4  UNL     1     -34.447  14.831  -5.976  1.00 20.00    -0.033 C 
HETATM    9  C3  UNL     1     -34.512  14.978  -7.305  1.00 20.00     0.007 C 
ENDBRANCH   7   8
ENDBRANCH   1   7
BRANCH   1  10
HETATM   10  O10 UNL     1     -32.960  13.217  -3.985  1.00 20.00    -0.383 OA
HETATM   11  H22 UNL     1     -32.515  13.599  -3.213  1.00 20.00     0.211 HD
ENDBRANCH   1  10
TORSDOF 5
ENDMDL
MODEL 5
REMARK VINA RESULT:      -4.7     11.103     12.408
REMARK  5 active torsions:
REMARK  status: ('A' for Active; 'I' for Inactive)
REMARK    1  A    between atoms: C1_1  and  C7_7 
REMARK    2  A    between atoms: C2_2  and  C9_9 
REMARK    3  A    between atoms: C4_4  and  C8_8 
REMARK    4  A    between atoms: C8_8  and  C9_9 
REMARK    5  A    between atoms: C9_9  and  O10_10 
ROOT
HETATM    1  C9  UNL     1     -33.307  15.342  -4.029  1.00 20.00     0.200 C 
ENDROOT
BRANCH   1   2
HETATM    2  C2  UNL     1     -33.819  15.877  -2.759  1.00 20.00    -0.074 C 
HETATM    3  C1  UNL     1     -34.239  16.312  -1.721  1.00 20.00    -0.099 C 
BRANCH   3   4
HETATM    4  C7  UNL     1     -34.743  16.835  -0.476  1.00 20.00     0.065 A 
HETATM    5  C5  UNL     1     -35.383  18.193  -0.474  1.00 20.00     0.018 A 
HETATM    6  C6  UNL     1     -34.034  18.000   0.152  1.00 20.00     0.018 A 
ENDBRANCH   3   4
ENDBRANCH   1   2
BRANCH   1   7
HETATM    7  C8  UNL     1     -33.229  16.448  -5.088  1.00 20.00     0.071 C 
BRANCH   7   8
HETATM    8  C4  UNL     1     -34.063  16.122  -6.295  1.00 20.00    -0.033 C 
HETATM    9  C3  UNL     1     -34.482  14.890  -6.608  1.00 20.00     0.007 C 
ENDBRANCH   7   8
ENDBRANCH   1   7
BRANCH   1  10
HETATM   10  O10 UNL     1     -31.999  14.812  -3.825  1.00 20.00    -0.383 OA
HETATM   11  H22 UNL     1     -32.033  14.306  -2.999  1.00 20.00     0.211 HD
ENDBRANCH   1  10
TORSDOF 5
ENDMDL
MODEL 6
REMARK VINA RESULT:      -4.4     11.243     11.782
REMARK  5 active torsions:
REMARK  status: ('A' for Active; 'I' for Inactive)
REMARK    1  A    between atoms: C1_1  and  C7_7 
REMARK    2  A    between atoms: C2_2  and  C9_9 
REMARK    3  A    between atoms: C4_4  and  C8_8 
REMARK    4  A    between atoms: C8_8  and  C9_9 
REMARK    5  A    between atoms: C9_9  and  O10_10 
ROOT
HETATM    1  C9  UNL     1     -33.488  15.094  -4.059  1.00 20.00     0.200 C 
ENDROOT
BRANCH   1   2
HETATM    2  C2  UNL     1     -33.908  15.732  -2.802  1.00 20.00    -0.074 C 
HETATM    3  C1  UNL     1     -34.248  16.254  -1.775  1.00 20.00    -0.099 C 
BRANCH   3   4
HETATM    4  C7  UNL     1     -34.658  16.879  -0.543  1.00 20.00     0.065 A 
HETATM    5  C5  UNL     1     -35.197  18.279  -0.593  1.00 20.00     0.018 A 
HETATM    6  C6  UNL     1     -33.839  18.020  -0.011  1.00 20.00     0.018 A 
ENDBRANCH   3   4
ENDBRANCH   1   2
BRANCH   1   7
HETATM    7  C8  UNL     1     -34.696  14.847  -4.969  1.00 20.00     0.071 C 
BRANCH   7   8
HETATM    8  C4  UNL     1     -35.773  14.070  -4.265  1.00 20.00    -0.033 C 
HETATM    9  C3  UNL     1     -37.018  14.521  -4.070  1.00 20.00     0.007 C 
ENDBRANCH   7   8
ENDBRANCH   1   7
BRANCH   1  10
HETATM   10  O10 UNL     1     -32.571  15.949  -4.739  1.00 20.00    -0.383 OA
HETATM   11  H22 UNL     1     -32.417  15.551  -5.610  1.00 20.00     0.211 HD
ENDBRANCH   1  10
TORSDOF 5
ENDMDL
MODEL 7
REMARK VINA RESULT:      -4.4     10.488     11.572
REMARK  5 active torsions:
REMARK  status: ('A' for Active; 'I' for Inactive)
REMARK    1  A    between atoms: C1_1  and  C7_7 
REMARK    2  A    between atoms: C2_2  and  C9_9 
REMARK    3  A    between atoms: C4_4  and  C8_8 
REMARK    4  A    between atoms: C8_8  and  C9_9 
REMARK    5  A    between atoms: C9_9  and  O10_10 
ROOT
HETATM    1  C9  UNL     1     -34.579  17.101  -0.386  1.00 20.00     0.200 C 
ENDROOT
BRANCH   1   2
HETATM    2  C2  UNL     1     -34.454  16.316  -1.623  1.00 20.00    -0.074 C 
HETATM    3  C1  UNL     1     -34.354  15.674  -2.634  1.00 20.00    -0.099 C 
BRANCH   3   4
HETATM    4  C7  UNL     1     -34.233  14.904  -3.845  1.00 20.00     0.065 A 
HETATM    5  C5  UNL     1     -34.911  13.567  -3.917  1.00 20.00     0.018 A 
HETATM    6  C6  UNL     1     -33.417  13.643  -3.816  1.00 20.00     0.018 A 
ENDBRANCH   3   4
ENDBRANCH   1   2
BRANCH   1   7
HETATM    7  C8  UNL     1     -33.748  18.386  -0.476  1.00 20.00     0.071 C 
BRANCH   7   8
HETATM    8  C4  UNL     1     -33.034  18.678   0.815  1.00 20.00    -0.033 C 
HETATM    9  C3  UNL     1     -31.737  18.997   0.898  1.00 20.00     0.007 C 
ENDBRANCH   7   8
ENDBRANCH   1   7
BRANCH   1  10
HETATM   10  O10 UNL     1     -35.947  17.455  -0.188  1.00 20.00    -0.383 OA
HETATM   11  H22 UNL     1     -36.424  16.627  -0.021  1.00 20.00     0.211 HD
ENDBRANCH   1  10
TORSDOF 5
ENDMDL
MODEL 8
REMARK VINA RESULT:      -4.4     10.735     11.684
REMARK  5 active torsions:
REMARK  status: ('A' for Active; 'I' for Inactive)
REMARK    1  A    between atoms: C1_1  and  C7_7 
REMARK    2  A    between atoms: C2_2  and  C9_9 
REMARK    3  A    between atoms: C4_4  and  C8_8 
REMARK    4  A    between atoms: C8_8  and  C9_9 
REMARK    5  A    between atoms: C9_9  and  O10_10 
ROOT
HETATM    1  C9  UNL     1     -36.150  14.909  -3.758  1.00 20.00     0.200 C 
ENDROOT
BRANCH   1   2
HETATM    2  C2  UNL     1     -35.440  15.650  -2.705  1.00 20.00    -0.074 C 
HETATM    3  C1  UNL     1     -34.861  16.255  -1.842  1.00 20.00    -0.099 C 
BRANCH   3   4
HETATM    4  C7  UNL     1     -34.168  16.981  -0.809  1.00 20.00     0.065 A 
HETATM    5  C5  UNL     1     -34.924  17.369   0.427  1.00 20.00     0.018 A 
HETATM    6  C6  UNL     1     -34.534  18.417  -0.571  1.00 20.00     0.018 A 
ENDBRANCH   3   4
ENDBRANCH   1   2
BRANCH   1   7
HETATM    7  C8  UNL     1     -35.423  13.599  -4.078  1.00 20.00     0.071 C 
BRANCH   7   8
HETATM    8  C4  UNL     1     -34.708  13.667  -5.399  1.00 20.00    -0.033 C 
HETATM    9  C3  UNL     1     -34.837  14.674  -6.271  1.00 20.00     0.007 C 
ENDBRANCH   7   8
ENDBRANCH   1   7
BRANCH   1  10
HETATM   10  O10 UNL     1     -37.470  14.603  -3.312  1.00 20.00    -0.383 OA
HETATM   11  H22 UNL     1     -37.392  13.830  -2.732  1.00 20.00     0.211 HD
ENDBRANCH   1  10
TORSDOF 5
ENDMDL
MODEL 9
REMARK VINA RESULT:      -4.4     10.400     12.276
REMARK  5 active torsions:
REMARK  status: ('A' for Active; 'I' for Inactive)
REMARK    1  A    between atoms: C1_1  and  C7_7 
REMARK    2  A    between atoms: C2_2  and  C9_9 
REMARK    3  A    between atoms: C4_4  and  C8_8 
REMARK    4  A    between atoms: C8_8  and  C9_9 
REMARK    5  A    between atoms: C9_9  and  O10_10 
ROOT
HETATM    1  C9  UNL     1     -34.239  13.264  -4.693  1.00 20.00     0.200 C 
ENDROOT
BRANCH   1   2
HETATM    2  C2  UNL     1     -34.600  14.110  -5.840  1.00 20.00    -0.074 C 
HETATM    3  C1  UNL     1     -34.894  14.803  -6.777  1.00 20.00    -0.099 C 
BRANCH   3   4
HETATM    4  C7  UNL     1     -35.248  15.633  -7.900  1.00 20.00     0.065 A 
HETATM    5  C5  UNL     1     -34.781  17.059  -7.913  1.00 20.00     0.018 A 
HETATM    6  C6  UNL     1     -36.230  16.748  -7.686  1.00 20.00     0.018 A 
ENDBRANCH   3   4
ENDBRANCH   1   2
BRANCH   1   7
HETATM    7  C8  UNL     1     -33.608  14.107  -3.579  1.00 20.00     0.071 C 
BRANCH   7   8
HETATM    8  C4  UNL     1     -34.572  15.125  -3.036  1.00 20.00    -0.033 C 
HETATM    9  C3  UNL     1     -34.220  16.144  -2.244  1.00 20.00     0.007 C 
ENDBRANCH   7   8
ENDBRANCH   1   7
BRANCH   1  10
HETATM   10  O10 UNL     1     -35.412  12.636  -4.181  1.00 20.00    -0.383 OA
HETATM   11  H22 UNL     1     -35.737  12.048  -4.881  1.00 20.00     0.211 HD
ENDBRANCH   1  10
TORSDOF 5
ENDMDL
