MODEL 1
REMARK VINA RESULT:      -4.5      0.000      0.000
REMARK  3 active torsions:
REMARK  status: ('A' for Active; 'I' for Inactive)
REMARK    1  A    between atoms: C1_1  and  C4_4 
REMARK    2  A    between atoms: C3_3  and  C10_10 
REMARK    3  A    between atoms: C5_5  and  C10_10 
ROOT
HETATM    1  C1  UNL     1     -33.724  17.372  -4.039  1.00 20.00    -0.101 C 
HETATM    2  C2  UNL     1     -33.742  17.885  -5.125  1.00 20.00    -0.111 C 
HETATM    3  C7  UNL     1     -33.764  18.509  -6.446  1.00 20.00     0.112 C 
ENDROOT
BRANCH   1   4
HETATM    4  C4  UNL     1     -33.702  16.759  -2.743  1.00 20.00     0.078 A 
HETATM    5  C5  UNL     1     -34.465  15.480  -2.478  1.00 20.00     0.017 A 
HETATM    6  C6  UNL     1     -34.936  16.781  -1.848  1.00 20.00    -0.028 A 
HETATM    7  C8  UNL     1     -36.214  17.430  -2.321  1.00 20.00     0.016 C 
HETATM    8  C9  UNL     1     -34.707  16.943  -0.365  1.00 20.00     0.016 C 
BRANCH   5   9
HETATM    9  C10 UNL     1     -35.242  14.765  -3.532  1.00 20.00     0.076 C 
BRANCH   9  10
HETATM   10  C3  UNL     1     -34.487  13.612  -4.167  1.00 20.00     0.231 C 
HETATM   11  O11 UNL     1     -35.017  12.569  -4.537  1.00 20.00    -0.307 OA
ENDBRANCH   9  10
ENDBRANCH   5   9
ENDBRANCH   1   4
TORSDOF 3
ENDMDL
MODEL 2
REMARK VINA RESULT:      -4.5      2.250      4.304
REMARK  3 active torsions:
REMARK  status: ('A' for Active; 'I' for Inactive)
REMARK    1  A    between atoms: C1_1  and  C4_4 
REMARK    2  A    between atoms: C3_3  and  C10_10 
REMARK    3  A    between atoms: C5_5  and  C10_10 
ROOT
HETATM    1  C1  UNL     1     -34.285  15.905  -2.114  1.00 20.00    -0.101 C 
HETATM    2  C2  UNL     1     -34.573  16.532  -1.131  1.00 20.00    -0.111 C 
HETATM    3  C7  UNL     1     -34.925  17.294   0.065  1.00 20.00     0.112 C 
ENDROOT
BRANCH   1   4
HETATM    4  C4  UNL     1     -33.942  15.157  -3.288  1.00 20.00     0.078 A 
HETATM    5  C5  UNL     1     -34.208  15.717  -4.669  1.00 20.00     0.017 A 
HETATM    6  C6  UNL     1     -35.025  14.539  -4.164  1.00 20.00    -0.028 A 
HETATM    7  C8  UNL     1     -36.485  14.722  -3.824  1.00 20.00     0.016 C 
HETATM    8  C9  UNL     1     -34.730  13.190  -4.776  1.00 20.00     0.016 C 
BRANCH   5   9
HETATM    9  C10 UNL     1     -34.795  17.069  -4.897  1.00 20.00     0.076 C 
BRANCH   9  10
HETATM   10  C3  UNL     1     -33.756  18.165  -5.049  1.00 20.00     0.231 C 
HETATM   11  O11 UNL     1     -33.415  18.915  -4.139  1.00 20.00    -0.307 OA
ENDBRANCH   9  10
ENDBRANCH   5   9
ENDBRANCH   1   4
TORSDOF 3
ENDMDL
MODEL 3
REMARK VINA RESULT:      -4.3      1.886      4.022
REMARK  3 active torsions:
REMARK  status: ('A' for Active; 'I' for Inactive)
REMARK    1  A    between atoms: C1_1  and  C4_4 
REMARK    2  A    between atoms: C3_3  and  C10_10 
REMARK    3  A    between atoms: C5_5  and  C10_10 
ROOT
HETATM    1  C1  UNL     1     -34.407  16.012  -1.897  1.00 20.00    -0.101 C 
HETATM    2  C2  UNL     1     -34.663  16.641  -0.907  1.00 20.00    -0.111 C 
HETATM    3  C7  UNL     1     -34.975  17.409   0.297  1.00 20.00     0.112 C 
ENDROOT
BRANCH   1   4
HETATM    4  C4  UNL     1     -34.101  15.260  -3.079  1.00 20.00     0.078 A 
HETATM    5  C5  UNL     1     -34.380  15.829  -4.452  1.00 20.00     0.017 A 
HETATM    6  C6  UNL     1     -35.213  14.667  -3.936  1.00 20.00    -0.028 A 
HETATM    7  C8  UNL     1     -36.662  14.881  -3.568  1.00 20.00     0.016 C 
HETATM    8  C9  UNL     1     -34.957  13.314  -4.557  1.00 20.00     0.016 C 
BRANCH   5   9
HETATM    9  C10 UNL     1     -34.943  17.194  -4.667  1.00 20.00     0.076 C 
BRANCH   9  10
HETATM   10  C3  UNL     1     -35.436  17.433  -6.082  1.00 20.00     0.231 C 
HETATM   11  O11 UNL     1     -35.590  16.542  -6.912  1.00 20.00    -0.307 OA
ENDBRANCH   9  10
ENDBRANCH   5   9
ENDBRANCH   1   4
TORSDOF 3
ENDMDL
MODEL 4
REMARK VINA RESULT:      -4.1      1.421      3.048
REMARK  3 active torsions:
REMARK  status: ('A' for Active; 'I' for Inactive)
REMARK    1  A    between atoms: C1_1  and  C4_4 
REMARK    2  A    between atoms: C3_3  and  C10_10 
REMARK    3  A    between atoms: C5_5  and  C10_10 
ROOT
HETATM    1  C1  UNL     1     -34.356  17.238  -1.305  1.00 20.00    -0.101 C 
HETATM    2  C2  UNL     1     -33.456  17.847  -0.795  1.00 20.00    -0.111 C 
HETATM    3  C7  UNL     1     -32.359  18.587  -0.175  1.00 20.00     0.112 C 
ENDROOT
BRANCH   1   4
HETATM    4  C4  UNL     1     -35.432  16.511  -1.915  1.00 20.00     0.078 A 
HETATM    5  C5  UNL     1     -35.152  15.389  -2.892  1.00 20.00     0.017 A 
HETATM    6  C6  UNL     1     -35.756  16.691  -3.393  1.00 20.00    -0.028 A 
HETATM    7  C8  UNL     1     -34.934  17.624  -4.251  1.00 20.00     0.016 C 
HETATM    8  C9  UNL     1     -37.213  16.662  -3.787  1.00 20.00     0.016 C 
BRANCH   5   9
HETATM    9  C10 UNL     1     -33.773  14.948  -3.248  1.00 20.00     0.076 C 
BRANCH   9  10
HETATM   10  C3  UNL     1     -33.734  13.647  -4.030  1.00 20.00     0.231 C 
HETATM   11  O11 UNL     1     -34.672  12.859  -4.091  1.00 20.00    -0.307 OA
ENDBRANCH   9  10
ENDBRANCH   5   9
ENDBRANCH   1   4
TORSDOF 3
ENDMDL
MODEL 5
REMARK VINA RESULT:      -4.0      2.350      3.253
REMARK  3 active torsions:
REMARK  status: ('A' for Active; 'I' for Inactive)
REMARK    1  A    between atoms: C1_1  and  C4_4 
REMARK    2  A    between atoms: C3_3  and  C10_10 
REMARK    3  A    between atoms: C5_5  and  C10_10 
ROOT
HETATM    1  C1  UNL     1     -34.554  15.455  -6.260  1.00 20.00    -0.101 C 
HETATM    2  C2  UNL     1     -34.634  16.391  -7.008  1.00 20.00    -0.111 C 
HETATM    3  C7  UNL     1     -34.731  17.531  -7.918  1.00 20.00     0.112 C 
ENDROOT
BRANCH   1   4
HETATM    4  C4  UNL     1     -34.459  14.338  -5.366  1.00 20.00     0.078 A 
HETATM    5  C5  UNL     1     -35.312  14.270  -4.118  1.00 20.00     0.017 A 
HETATM    6  C6  UNL     1     -33.813  14.488  -3.994  1.00 20.00    -0.028 A 
HETATM    7  C8  UNL     1     -33.280  15.826  -3.540  1.00 20.00     0.016 C 
HETATM    8  C9  UNL     1     -32.993  13.326  -3.488  1.00 20.00     0.016 C 
BRANCH   5   9
HETATM    9  C10 UNL     1     -36.314  15.315  -3.762  1.00 20.00     0.076 C 
BRANCH   9  10
HETATM   10  C3  UNL     1     -37.708  15.027  -4.288  1.00 20.00     0.231 C 
HETATM   11  O11 UNL     1     -38.447  14.162  -3.827  1.00 20.00    -0.307 OA
ENDBRANCH   9  10
ENDBRANCH   5   9
ENDBRANCH   1   4
TORSDOF 3
ENDMDL
MODEL 6
REMARK VINA RESULT:      -4.0      1.705      2.976
REMARK  3 active torsions:
REMARK  status: ('A' for Active; 'I' for Inactive)
REMARK    1  A    between atoms: C1_1  and  C4_4 
REMARK    2  A    between atoms: C3_3  and  C10_10 
REMARK    3  A    between atoms: C5_5  and  C10_10 
ROOT
HETATM    1  C1  UNL     1     -36.476  16.091  -3.696  1.00 20.00    -0.101 C 
HETATM    2  C2  UNL     1     -37.563  15.583  -3.641  1.00 20.00    -0.111 C 
HETATM    3  C7  UNL     1     -38.886  14.964  -3.573  1.00 20.00     0.112 C 
ENDROOT
BRANCH   1   4
HETATM    4  C4  UNL     1     -35.179  16.697  -3.761  1.00 20.00     0.078 A 
HETATM    5  C5  UNL     1     -33.928  15.875  -3.538  1.00 20.00     0.017 A 
HETATM    6  C6  UNL     1     -34.349  16.902  -2.499  1.00 20.00    -0.028 A 
HETATM    7  C8  UNL     1     -34.869  16.448  -1.157  1.00 20.00     0.016 C 
HETATM    8  C9  UNL     1     -33.525  18.164  -2.414  1.00 20.00     0.016 C 
BRANCH   5   9
HETATM    9  C10 UNL     1     -33.957  14.406  -3.281  1.00 20.00     0.076 C 
BRANCH   9  10
HETATM   10  C3  UNL     1     -34.149  13.572  -4.535  1.00 20.00     0.231 C 
HETATM   11  O11 UNL     1     -34.921  12.622  -4.612  1.00 20.00    -0.307 OA
ENDBRANCH   9  10
ENDBRANCH   5   9
ENDBRANCH   1   4
TORSDOF 3
ENDMDL
MODEL 7
REMARK VINA RESULT:      -4.0      1.180      3.408
REMARK  3 active torsions:
REMARK  status: ('A' for Active; 'I' for Inactive)
REMARK    1  A    between atoms: C1_1  and  C4_4 
REMARK    2  A    between atoms: C3_3  and  C10_10 
REMARK    3  A    between atoms: C5_5  and  C10_10 
ROOT
HETATM    1  C1  UNL     1     -35.168  17.074  -2.031  1.00 20.00    -0.101 C 
HETATM    2  C2  UNL     1     -34.615  17.445  -1.031  1.00 20.00    -0.111 C 
HETATM    3  C7  UNL     1     -33.942  17.895   0.186  1.00 20.00     0.112 C 
ENDROOT
BRANCH   1   4
HETATM    4  C4  UNL     1     -35.827  16.631  -3.225  1.00 20.00     0.078 A 
HETATM    5  C5  UNL     1     -35.431  15.333  -3.893  1.00 20.00     0.017 A 
HETATM    6  C6  UNL     1     -35.108  16.655  -4.568  1.00 20.00    -0.028 A 
HETATM    7  C8  UNL     1     -33.676  17.126  -4.663  1.00 20.00     0.016 C 
HETATM    8  C9  UNL     1     -35.928  17.020  -5.783  1.00 20.00     0.016 C 
BRANCH   5   9
HETATM    9  C10 UNL     1     -34.379  14.427  -3.346  1.00 20.00     0.076 C 
BRANCH   9  10
HETATM   10  C3  UNL     1     -33.970  13.323  -4.304  1.00 20.00     0.231 C 
HETATM   11  O11 UNL     1     -34.764  12.569  -4.857  1.00 20.00    -0.307 OA
ENDBRANCH   9  10
ENDBRANCH   5   9
ENDBRANCH   1   4
TORSDOF 3
ENDMDL
MODEL 8
REMARK VINA RESULT:      -4.0      2.359      4.261
REMARK  3 active torsions:
REMARK  status: ('A' for Active; 'I' for Inactive)
REMARK    1  A    between atoms: C1_1  and  C4_4 
REMARK    2  A    between atoms: C3_3  and  C10_10 
REMARK    3  A    between atoms: C5_5  and  C10_10 
ROOT
HETATM    1  C1  UNL     1     -35.049  16.387  -3.212  1.00 20.00    -0.101 C 
HETATM    2  C2  UNL     1     -34.806  16.584  -2.053  1.00 20.00    -0.111 C 
HETATM    3  C7  UNL     1     -34.509  16.824  -0.642  1.00 20.00     0.112 C 
ENDROOT
BRANCH   1   4
HETATM    4  C4  UNL     1     -35.341  16.150  -4.596  1.00 20.00     0.078 A 
HETATM    5  C5  UNL     1     -36.460  15.218  -5.004  1.00 20.00     0.017 A 
HETATM    6  C6  UNL     1     -35.016  14.809  -5.244  1.00 20.00    -0.028 A 
HETATM    7  C8  UNL     1     -34.401  13.694  -4.432  1.00 20.00     0.016 C 
HETATM    8  C9  UNL     1     -34.527  14.835  -6.672  1.00 20.00     0.016 C 
BRANCH   5   9
HETATM    9  C10 UNL     1     -37.342  14.528  -4.018  1.00 20.00     0.076 C 
BRANCH   9  10
HETATM   10  C3  UNL     1     -38.815  14.852  -4.189  1.00 20.00     0.231 C 
HETATM   11  O11 UNL     1     -39.664  14.025  -4.509  1.00 20.00    -0.307 OA
ENDBRANCH   9  10
ENDBRANCH   5   9
ENDBRANCH   1   4
TORSDOF 3
ENDMDL
MODEL 9
REMARK VINA RESULT:      -3.9      1.974      3.654
REMARK  3 active torsions:
REMARK  status: ('A' for Active; 'I' for Inactive)
REMARK    1  A    between atoms: C1_1  and  C4_4 
REMARK    2  A    between atoms: C3_3  and  C10_10 
REMARK    3  A    between atoms: C5_5  and  C10_10 
ROOT
HETATM    1  C1  UNL     1     -35.726  15.830  -2.687  1.00 20.00    -0.101 C 
HETATM    2  C2  UNL     1     -34.923  16.354  -1.964  1.00 20.00    -0.111 C 
HETATM    3  C7  UNL     1     -33.945  16.992  -1.084  1.00 20.00     0.112 C 
ENDROOT
BRANCH   1   4
HETATM    4  C4  UNL     1     -36.686  15.205  -3.550  1.00 20.00     0.078 A 
HETATM    5  C5  UNL     1     -36.249  14.519  -4.826  1.00 20.00     0.017 A 
HETATM    6  C6  UNL     1     -37.036  15.817  -4.901  1.00 20.00    -0.028 A 
HETATM    7  C8  UNL     1     -36.360  17.085  -5.367  1.00 20.00     0.016 C 
HETATM    8  C9  UNL     1     -38.474  15.719  -5.350  1.00 20.00     0.016 C 
BRANCH   5   9
HETATM    9  C10 UNL     1     -34.820  14.415  -5.243  1.00 20.00     0.076 C 
BRANCH   9  10
HETATM   10  C3  UNL     1     -34.103  13.211  -4.661  1.00 20.00     0.231 C 
HETATM   11  O11 UNL     1     -33.391  13.256  -3.663  1.00 20.00    -0.307 OA
ENDBRANCH   9  10
ENDBRANCH   5   9
ENDBRANCH   1   4
TORSDOF 3
ENDMDL
