MODEL 1
REMARK VINA RESULT:      -5.7      0.000      0.000
REMARK  1 active torsions:
REMARK  status: ('A' for Active; 'I' for Inactive)
REMARK    1  A    between atoms: C3_3  and  C7_7 
ROOT
HETATM    1  C1  UNL     1     -34.378   4.906   6.354  1.00 20.00    -0.030 C 
HETATM    2  C2  UNL     1     -35.230   4.340   5.492  1.00 20.00    -0.026 C 
HETATM    3  C4  UNL     1     -33.837   6.221   5.884  1.00 20.00     0.033 C 
HETATM    4  C5  UNL     1     -34.390   4.920   3.148  1.00 20.00     0.021 C 
HETATM    5  C6  UNL     1     -35.385   5.190   4.298  1.00 20.00     0.013 C 
HETATM    6  C7  UNL     1     -33.983   6.411   3.183  1.00 20.00     0.060 C 
HETATM    7  C8  UNL     1     -34.624   6.510   4.597  1.00 20.00     0.008 C 
ENDROOT
BRANCH   6   8
HETATM    8  C3  UNL     1     -32.501   6.760   3.028  1.00 20.00     0.127 C 
HETATM    9  C9  UNL     1     -32.179   8.059   2.340  1.00 20.00     0.091 C 
HETATM   10  O10 UNL     1     -31.616   6.016   3.449  1.00 20.00    -0.298 OA
ENDBRANCH   6   8
TORSDOF 1
ENDMDL
MODEL 2
REMARK VINA RESULT:      -4.5     11.957     13.092
REMARK  1 active torsions:
REMARK  status: ('A' for Active; 'I' for Inactive)
REMARK    1  A    between atoms: C3_3  and  C7_7 
ROOT
HETATM    1  C1  UNL     1     -34.084  15.885  -6.372  1.00 20.00    -0.030 C 
HETATM    2  C2  UNL     1     -34.492  14.613  -6.317  1.00 20.00    -0.026 C 
HETATM    3  C4  UNL     1     -33.588  16.411  -5.060  1.00 20.00     0.033 C 
HETATM    4  C5  UNL     1     -35.556  14.286  -4.015  1.00 20.00     0.021 C 
HETATM    5  C6  UNL     1     -34.341  14.089  -4.948  1.00 20.00     0.013 C 
HETATM    6  C7  UNL     1     -34.629  14.992  -2.998  1.00 20.00     0.060 C 
HETATM    7  C8  UNL     1     -33.589  15.182  -4.140  1.00 20.00     0.008 C 
ENDROOT
BRANCH   6   8
HETATM    8  C3  UNL     1     -35.158  16.235  -2.279  1.00 20.00     0.127 C 
HETATM    9  C9  UNL     1     -34.482  16.611  -0.989  1.00 20.00     0.091 C 
HETATM   10  O10 UNL     1     -36.089  16.897  -2.737  1.00 20.00    -0.298 OA
ENDBRANCH   6   8
TORSDOF 1
ENDMDL
MODEL 3
REMARK VINA RESULT:      -4.4     11.650     12.666
REMARK  1 active torsions:
REMARK  status: ('A' for Active; 'I' for Inactive)
REMARK    1  A    between atoms: C3_3  and  C7_7 
ROOT
HETATM    1  C1  UNL     1     -35.755  17.254  -3.008  1.00 20.00    -0.030 C 
HETATM    2  C2  UNL     1     -34.467  17.539  -2.788  1.00 20.00    -0.026 C 
HETATM    3  C4  UNL     1     -36.038  15.784  -3.084  1.00 20.00     0.033 C 
HETATM    4  C5  UNL     1     -33.105  15.762  -4.024  1.00 20.00     0.021 C 
HETATM    5  C6  UNL     1     -33.681  16.296  -2.694  1.00 20.00     0.013 C 
HETATM    6  C7  UNL     1     -33.800  14.408  -3.752  1.00 20.00     0.060 C 
HETATM    7  C8  UNL     1     -34.702  15.127  -2.708  1.00 20.00     0.008 C 
ENDROOT
BRANCH   6   8
HETATM    8  C3  UNL     1     -34.471  13.690  -4.925  1.00 20.00     0.127 C 
HETATM    9  C9  UNL     1     -34.643  14.479  -6.193  1.00 20.00     0.091 C 
HETATM   10  O10 UNL     1     -34.849  12.523  -4.834  1.00 20.00    -0.298 OA
ENDBRANCH   6   8
TORSDOF 1
ENDMDL
MODEL 4
REMARK VINA RESULT:      -4.4     11.866     13.194
REMARK  1 active torsions:
REMARK  status: ('A' for Active; 'I' for Inactive)
REMARK    1  A    between atoms: C3_3  and  C7_7 
ROOT
HETATM    1  C1  UNL     1     -33.905  17.488  -2.915  1.00 20.00    -0.030 C 
HETATM    2  C2  UNL     1     -33.651  17.867  -4.172  1.00 20.00    -0.026 C 
HETATM    3  C4  UNL     1     -33.804  16.008  -2.705  1.00 20.00     0.033 C 
HETATM    4  C5  UNL     1     -34.561  16.022  -5.690  1.00 20.00     0.021 C 
HETATM    5  C6  UNL     1     -33.348  16.691  -5.006  1.00 20.00     0.013 C 
HETATM    6  C7  UNL     1     -34.154  14.679  -5.041  1.00 20.00     0.060 C 
HETATM    7  C8  UNL     1     -33.268  15.477  -4.042  1.00 20.00     0.008 C 
ENDROOT
BRANCH   6   8
HETATM    8  C3  UNL     1     -35.259  13.781  -4.480  1.00 20.00     0.127 C 
HETATM    9  C9  UNL     1     -36.572  14.442  -4.162  1.00 20.00     0.091 C 
HETATM   10  O10 UNL     1     -35.082  12.577  -4.302  1.00 20.00    -0.298 OA
ENDBRANCH   6   8
TORSDOF 1
ENDMDL
MODEL 5
REMARK VINA RESULT:      -4.2     11.611     12.726
REMARK  1 active torsions:
REMARK  status: ('A' for Active; 'I' for Inactive)
REMARK    1  A    between atoms: C3_3  and  C7_7 
ROOT
HETATM    1  C1  UNL     1     -33.605  16.437  -3.090  1.00 20.00    -0.030 C 
HETATM    2  C2  UNL     1     -32.979  15.677  -3.995  1.00 20.00    -0.026 C 
HETATM    3  C4  UNL     1     -34.863  15.820  -2.558  1.00 20.00     0.033 C 
HETATM    4  C5  UNL     1     -34.802  14.481  -5.331  1.00 20.00     0.021 C 
HETATM    5  C6  UNL     1     -33.731  14.430  -4.219  1.00 20.00     0.013 C 
HETATM    6  C7  UNL     1     -35.854  13.999  -4.306  1.00 20.00     0.060 C 
HETATM    7  C8  UNL     1     -34.874  14.410  -3.169  1.00 20.00     0.008 C 
ENDROOT
BRANCH   6   8
HETATM    8  C3  UNL     1     -37.243  14.639  -4.339  1.00 20.00     0.127 C 
HETATM    9  C9  UNL     1     -37.420  15.828  -5.244  1.00 20.00     0.091 C 
HETATM   10  O10 UNL     1     -38.171  14.201  -3.660  1.00 20.00    -0.298 OA
ENDBRANCH   6   8
TORSDOF 1
ENDMDL
MODEL 6
REMARK VINA RESULT:      -4.2     11.228     13.105
REMARK  1 active torsions:
REMARK  status: ('A' for Active; 'I' for Inactive)
REMARK    1  A    between atoms: C3_3  and  C7_7 
ROOT
HETATM    1  C1  UNL     1     -33.611  17.704  -4.824  1.00 20.00    -0.030 C 
HETATM    2  C2  UNL     1     -34.079  18.053  -3.622  1.00 20.00    -0.026 C 
HETATM    3  C4  UNL     1     -34.247  16.464  -5.376  1.00 20.00     0.033 C 
HETATM    4  C5  UNL     1     -34.578  15.879  -2.371  1.00 20.00     0.021 C 
HETATM    5  C6  UNL     1     -35.102  17.091  -3.174  1.00 20.00     0.013 C 
HETATM    6  C7  UNL     1     -35.272  14.939  -3.383  1.00 20.00     0.060 C 
HETATM    7  C8  UNL     1     -35.362  16.137  -4.372  1.00 20.00     0.008 C 
ENDROOT
BRANCH   6   8
HETATM    8  C3  UNL     1     -34.528  13.679  -3.830  1.00 20.00     0.127 C 
HETATM    9  C9  UNL     1     -33.038  13.664  -3.622  1.00 20.00     0.091 C 
HETATM   10  O10 UNL     1     -35.120  12.725  -4.331  1.00 20.00    -0.298 OA
ENDBRANCH   6   8
TORSDOF 1
ENDMDL
MODEL 7
REMARK VINA RESULT:      -4.2     12.476     13.372
REMARK  1 active torsions:
REMARK  status: ('A' for Active; 'I' for Inactive)
REMARK    1  A    between atoms: C3_3  and  C7_7 
ROOT
HETATM    1  C1  UNL     1     -35.140  16.040  -2.267  1.00 20.00    -0.030 C 
HETATM    2  C2  UNL     1     -33.827  16.276  -2.359  1.00 20.00    -0.026 C 
HETATM    3  C4  UNL     1     -35.662  15.138  -3.344  1.00 20.00     0.033 C 
HETATM    4  C5  UNL     1     -33.274  16.361  -4.854  1.00 20.00     0.021 C 
HETATM    5  C6  UNL     1     -33.264  15.573  -3.526  1.00 20.00     0.013 C 
HETATM    6  C7  UNL     1     -34.039  15.191  -5.515  1.00 20.00     0.060 C 
HETATM    7  C8  UNL     1     -34.401  14.679  -4.091  1.00 20.00     0.008 C 
ENDROOT
BRANCH   6   8
HETATM    8  C3  UNL     1     -35.177  15.525  -6.481  1.00 20.00     0.127 C 
HETATM    9  C9  UNL     1     -35.511  14.488  -7.518  1.00 20.00     0.091 C 
HETATM   10  O10 UNL     1     -35.791  16.589  -6.411  1.00 20.00    -0.298 OA
ENDBRANCH   6   8
TORSDOF 1
ENDMDL
MODEL 8
REMARK VINA RESULT:      -4.1     11.418     13.462
REMARK  1 active torsions:
REMARK  status: ('A' for Active; 'I' for Inactive)
REMARK    1  A    between atoms: C3_3  and  C7_7 
ROOT
HETATM    1  C1  UNL     1     -38.137  15.174  -5.672  1.00 20.00    -0.030 C 
HETATM    2  C2  UNL     1     -37.689  15.390  -6.913  1.00 20.00    -0.026 C 
HETATM    3  C4  UNL     1     -37.061  15.215  -4.631  1.00 20.00     0.033 C 
HETATM    4  C5  UNL     1     -35.366  14.329  -7.045  1.00 20.00     0.021 C 
HETATM    5  C6  UNL     1     -36.230  15.601  -6.897  1.00 20.00     0.013 C 
HETATM    6  C7  UNL     1     -34.637  14.702  -5.733  1.00 20.00     0.060 C 
HETATM    7  C8  UNL     1     -35.812  15.667  -5.403  1.00 20.00     0.008 C 
ENDROOT
BRANCH   6   8
HETATM    8  C3  UNL     1     -34.313  13.582  -4.742  1.00 20.00     0.127 C 
HETATM    9  C9  UNL     1     -33.257  13.874  -3.711  1.00 20.00     0.091 C 
HETATM   10  O10 UNL     1     -34.891  12.497  -4.785  1.00 20.00    -0.298 OA
ENDBRANCH   6   8
TORSDOF 1
ENDMDL
MODEL 9
REMARK VINA RESULT:      -4.1      9.589     10.454
REMARK  1 active torsions:
REMARK  status: ('A' for Active; 'I' for Inactive)
REMARK    1  A    between atoms: C3_3  and  C7_7 
ROOT
HETATM    1  C1  UNL     1     -42.881   4.339  -0.082  1.00 20.00    -0.030 C 
HETATM    2  C2  UNL     1     -41.640   4.633   0.319  1.00 20.00    -0.026 C 
HETATM    3  C4  UNL     1     -43.186   4.804  -1.474  1.00 20.00     0.033 C 
HETATM    4  C5  UNL     1     -41.052   6.893  -0.722  1.00 20.00     0.021 C 
HETATM    5  C6  UNL     1     -40.919   5.354  -0.745  1.00 20.00     0.013 C 
HETATM    6  C7  UNL     1     -41.552   6.847  -2.185  1.00 20.00     0.060 C 
HETATM    7  C8  UNL     1     -41.840   5.330  -1.995  1.00 20.00     0.008 C 
ENDROOT
BRANCH   6   8
HETATM    8  C3  UNL     1     -42.709   7.765  -2.584  1.00 20.00     0.127 C 
HETATM    9  C9  UNL     1     -42.939   7.963  -4.057  1.00 20.00     0.091 C 
HETATM   10  O10 UNL     1     -43.417   8.312  -1.740  1.00 20.00    -0.298 OA
ENDBRANCH   6   8
TORSDOF 1
ENDMDL
