MODEL 1
REMARK VINA RESULT:      -5.6      0.000      0.000
REMARK  1 active torsions:
REMARK  status: ('A' for Active; 'I' for Inactive)
REMARK    1  A    between atoms: C3_3  and  C7_7 
ROOT
HETATM    1  C1  UNL     1     -34.365   5.202   6.420  1.00 20.00    -0.023 C 
HETATM    2  C2  UNL     1     -33.938   6.311   5.791  1.00 20.00    -0.075 C 
HETATM    3  C4  UNL     1     -35.103   4.086   5.743  1.00 20.00     0.027 C 
HETATM    4  C5  UNL     1     -35.042   4.149   4.218  1.00 20.00     0.005 C 
HETATM    5  C6  UNL     1     -35.218   5.578   3.708  1.00 20.00     0.018 C 
HETATM    6  C7  UNL     1     -34.195   6.544   4.321  1.00 20.00     0.100 C 
HETATM    7  C8  UNL     1     -33.225   7.405   6.537  1.00 20.00     0.044 C 
ENDROOT
BRANCH   6   8
HETATM    8  C3  UNL     1     -32.880   6.425   3.607  1.00 20.00     0.227 C 
HETATM    9  O9  UNL     1     -32.180   5.421   3.705  1.00 20.00    -0.279 OA
HETATM   10 CL10 UNL     1     -32.513   7.843   2.671  1.00 20.00    -0.043 Cl
ENDBRANCH   6   8
TORSDOF 1
ENDMDL
MODEL 2
REMARK VINA RESULT:      -4.7     11.863     13.197
REMARK  1 active torsions:
REMARK  status: ('A' for Active; 'I' for Inactive)
REMARK    1  A    between atoms: C3_3  and  C7_7 
ROOT
HETATM    1  C1  UNL     1     -33.623  16.794  -4.528  1.00 20.00    -0.023 C 
HETATM    2  C2  UNL     1     -34.302  15.784  -5.100  1.00 20.00    -0.075 C 
HETATM    3  C4  UNL     1     -33.739  17.170  -3.081  1.00 20.00     0.027 C 
HETATM    4  C5  UNL     1     -34.434  16.111  -2.229  1.00 20.00     0.005 C 
HETATM    5  C6  UNL     1     -35.646  15.518  -2.946  1.00 20.00     0.018 C 
HETATM    6  C7  UNL     1     -35.282  14.940  -4.321  1.00 20.00     0.100 C 
HETATM    7  C8  UNL     1     -34.157  15.477  -6.565  1.00 20.00     0.044 C 
ENDROOT
BRANCH   6   8
HETATM    8  C3  UNL     1     -34.679  13.575  -4.163  1.00 20.00     0.227 C 
HETATM    9  O9  UNL     1     -35.332  12.553  -4.356  1.00 20.00    -0.279 OA
HETATM   10 CL10 UNL     1     -33.007  13.650  -3.692  1.00 20.00    -0.043 Cl
ENDBRANCH   6   8
TORSDOF 1
ENDMDL
MODEL 3
REMARK VINA RESULT:      -4.6     11.982     13.203
REMARK  1 active torsions:
REMARK  status: ('A' for Active; 'I' for Inactive)
REMARK    1  A    between atoms: C3_3  and  C7_7 
ROOT
HETATM    1  C1  UNL     1     -34.362  15.321  -5.870  1.00 20.00    -0.023 C 
HETATM    2  C2  UNL     1     -33.979  16.009  -4.780  1.00 20.00    -0.075 C 
HETATM    3  C4  UNL     1     -34.822  13.895  -5.843  1.00 20.00     0.027 C 
HETATM    4  C5  UNL     1     -35.142  13.382  -4.441  1.00 20.00     0.005 C 
HETATM    5  C6  UNL     1     -34.106  13.851  -3.421  1.00 20.00     0.018 C 
HETATM    6  C7  UNL     1     -33.956  15.379  -3.407  1.00 20.00     0.100 C 
HETATM    7  C8  UNL     1     -33.503  17.432  -4.881  1.00 20.00     0.044 C 
ENDROOT
BRANCH   6   8
HETATM    8  C3  UNL     1     -35.062  15.999  -2.605  1.00 20.00     0.227 C 
HETATM    9  O9  UNL     1     -36.188  16.153  -3.069  1.00 20.00    -0.279 OA
HETATM   10 CL10 UNL     1     -34.542  16.444  -1.007  1.00 20.00    -0.043 Cl
ENDBRANCH   6   8
TORSDOF 1
ENDMDL
MODEL 4
REMARK VINA RESULT:      -4.4     12.445     13.637
REMARK  1 active torsions:
REMARK  status: ('A' for Active; 'I' for Inactive)
REMARK    1  A    between atoms: C3_3  and  C7_7 
ROOT
HETATM    1  C1  UNL     1     -36.940  15.115  -6.058  1.00 20.00    -0.023 C 
HETATM    2  C2  UNL     1     -36.201  15.062  -4.936  1.00 20.00    -0.075 C 
HETATM    3  C4  UNL     1     -36.363  15.108  -7.443  1.00 20.00     0.027 C 
HETATM    4  C5  UNL     1     -34.892  14.700  -7.490  1.00 20.00     0.005 C 
HETATM    5  C6  UNL     1     -34.095  15.336  -6.353  1.00 20.00     0.018 C 
HETATM    6  C7  UNL     1     -34.691  15.016  -4.975  1.00 20.00     0.100 C 
HETATM    7  C8  UNL     1     -36.843  15.099  -3.576  1.00 20.00     0.044 C 
ENDROOT
BRANCH   6   8
HETATM    8  C3  UNL     1     -34.269  13.644  -4.536  1.00 20.00     0.227 C 
HETATM    9  O9  UNL     1     -34.888  12.639  -4.873  1.00 20.00    -0.279 OA
HETATM   10 CL10 UNL     1     -32.849  13.687  -3.535  1.00 20.00    -0.043 Cl
ENDBRANCH   6   8
TORSDOF 1
ENDMDL
MODEL 5
REMARK VINA RESULT:      -4.4     12.435     13.333
REMARK  1 active torsions:
REMARK  status: ('A' for Active; 'I' for Inactive)
REMARK    1  A    between atoms: C3_3  and  C7_7 
ROOT
HETATM    1  C1  UNL     1     -33.618  16.585  -3.823  1.00 20.00    -0.023 C 
HETATM    2  C2  UNL     1     -34.465  15.845  -3.085  1.00 20.00    -0.075 C 
HETATM    3  C4  UNL     1     -33.311  16.319  -5.267  1.00 20.00     0.027 C 
HETATM    4  C5  UNL     1     -34.284  15.347  -5.929  1.00 20.00     0.005 C 
HETATM    5  C6  UNL     1     -34.622  14.175  -5.010  1.00 20.00     0.018 C 
HETATM    6  C7  UNL     1     -35.174  14.639  -3.655  1.00 20.00     0.100 C 
HETATM    7  C8  UNL     1     -34.708  16.153  -1.634  1.00 20.00     0.044 C 
ENDROOT
BRANCH   6   8
HETATM    8  C3  UNL     1     -36.628  14.988  -3.783  1.00 20.00     0.227 C 
HETATM    9  O9  UNL     1     -37.509  14.141  -3.667  1.00 20.00    -0.279 OA
HETATM   10 CL10 UNL     1     -36.869  16.679  -4.103  1.00 20.00    -0.043 Cl
ENDBRANCH   6   8
TORSDOF 1
ENDMDL
MODEL 6
REMARK VINA RESULT:      -4.3     12.461     13.470
REMARK  1 active torsions:
REMARK  status: ('A' for Active; 'I' for Inactive)
REMARK    1  A    between atoms: C3_3  and  C7_7 
ROOT
HETATM    1  C1  UNL     1     -34.540  13.992  -3.483  1.00 20.00    -0.023 C 
HETATM    2  C2  UNL     1     -34.667  15.325  -3.352  1.00 20.00    -0.075 C 
HETATM    3  C4  UNL     1     -34.770  13.249  -4.765  1.00 20.00     0.027 C 
HETATM    4  C5  UNL     1     -34.832  14.156  -5.993  1.00 20.00     0.005 C 
HETATM    5  C6  UNL     1     -35.631  15.427  -5.714  1.00 20.00     0.018 C 
HETATM    6  C7  UNL     1     -35.085  16.203  -4.508  1.00 20.00     0.100 C 
HETATM    7  C8  UNL     1     -34.446  16.004  -2.029  1.00 20.00     0.044 C 
ENDROOT
BRANCH   6   8
HETATM    8  C3  UNL     1     -33.890  17.015  -4.915  1.00 20.00     0.227 C 
HETATM    9  O9  UNL     1     -32.774  16.513  -5.022  1.00 20.00    -0.279 OA
HETATM   10 CL10 UNL     1     -34.296  18.681  -5.197  1.00 20.00    -0.043 Cl
ENDBRANCH   6   8
TORSDOF 1
ENDMDL
MODEL 7
REMARK VINA RESULT:      -4.3     12.251     13.479
REMARK  1 active torsions:
REMARK  status: ('A' for Active; 'I' for Inactive)
REMARK    1  A    between atoms: C3_3  and  C7_7 
ROOT
HETATM    1  C1  UNL     1     -34.028  18.100  -2.740  1.00 20.00    -0.023 C 
HETATM    2  C2  UNL     1     -34.156  16.856  -2.246  1.00 20.00    -0.075 C 
HETATM    3  C4  UNL     1     -33.588  18.405  -4.141  1.00 20.00     0.027 C 
HETATM    4  C5  UNL     1     -33.617  17.192  -5.068  1.00 20.00     0.005 C 
HETATM    5  C6  UNL     1     -33.081  15.941  -4.373  1.00 20.00     0.018 C 
HETATM    6  C7  UNL     1     -33.834  15.633  -3.072  1.00 20.00     0.100 C 
HETATM    7  C8  UNL     1     -34.577  16.621  -0.822  1.00 20.00     0.044 C 
ENDROOT
BRANCH   6   8
HETATM    8  C3  UNL     1     -35.129  14.939  -3.376  1.00 20.00     0.227 C 
HETATM    9  O9  UNL     1     -36.213  15.491  -3.209  1.00 20.00    -0.279 OA
HETATM   10 CL10 UNL     1     -34.882  13.324  -3.969  1.00 20.00    -0.043 Cl
ENDBRANCH   6   8
TORSDOF 1
ENDMDL
MODEL 8
REMARK VINA RESULT:      -4.3     12.911     14.147
REMARK  1 active torsions:
REMARK  status: ('A' for Active; 'I' for Inactive)
REMARK    1  A    between atoms: C3_3  and  C7_7 
ROOT
HETATM    1  C1  UNL     1     -34.926  13.804  -5.366  1.00 20.00    -0.023 C 
HETATM    2  C2  UNL     1     -34.454  14.851  -6.065  1.00 20.00    -0.075 C 
HETATM    3  C4  UNL     1     -34.726  13.620  -3.891  1.00 20.00     0.027 C 
HETATM    4  C5  UNL     1     -34.233  14.879  -3.181  1.00 20.00     0.005 C 
HETATM    5  C6  UNL     1     -33.160  15.600  -3.995  1.00 20.00     0.018 C 
HETATM    6  C7  UNL     1     -33.640  15.944  -5.412  1.00 20.00     0.100 C 
HETATM    7  C8  UNL     1     -34.669  14.960  -7.549  1.00 20.00     0.044 C 
ENDROOT
BRANCH   6   8
HETATM    8  C3  UNL     1     -34.486  17.183  -5.384  1.00 20.00     0.227 C 
HETATM    9  O9  UNL     1     -35.681  17.143  -5.103  1.00 20.00    -0.279 OA
HETATM   10 CL10 UNL     1     -33.575  18.607  -5.787  1.00 20.00    -0.043 Cl
ENDBRANCH   6   8
TORSDOF 1
ENDMDL
MODEL 9
REMARK VINA RESULT:      -4.2     12.214     13.394
REMARK  1 active torsions:
REMARK  status: ('A' for Active; 'I' for Inactive)
REMARK    1  A    between atoms: C3_3  and  C7_7 
ROOT
HETATM    1  C1  UNL     1     -33.737  18.010  -3.176  1.00 20.00    -0.023 C 
HETATM    2  C2  UNL     1     -33.954  17.100  -4.142  1.00 20.00    -0.075 C 
HETATM    3  C4  UNL     1     -34.124  17.818  -1.740  1.00 20.00     0.027 C 
HETATM    4  C5  UNL     1     -34.482  16.375  -1.392  1.00 20.00     0.005 C 
HETATM    5  C6  UNL     1     -35.327  15.726  -2.486  1.00 20.00     0.018 C 
HETATM    6  C7  UNL     1     -34.646  15.787  -3.860  1.00 20.00     0.100 C 
HETATM    7  C8  UNL     1     -33.563  17.368  -5.569  1.00 20.00     0.044 C 
ENDROOT
BRANCH   6   8
HETATM    8  C3  UNL     1     -33.618  14.700  -3.976  1.00 20.00     0.227 C 
HETATM    9  O9  UNL     1     -32.469  14.852  -3.572  1.00 20.00    -0.279 OA
HETATM   10 CL10 UNL     1     -34.261  13.269  -4.724  1.00 20.00    -0.043 Cl
ENDBRANCH   6   8
TORSDOF 1
ENDMDL
