MODEL 1
REMARK VINA RESULT:      -4.3      0.000      0.000
REMARK  1 active torsions:
REMARK  status: ('A' for Active; 'I' for Inactive)
REMARK    1  A    between atoms: C2_2  and  C3_3 
ROOT
HETATM    1  C1  UNL     1     -33.619   6.517   5.226  1.00 20.00     0.011 C 
HETATM    2  C2  UNL     1     -34.034   5.695   4.253  1.00 20.00     0.004 C 
HETATM    3  C4  UNL     1     -34.092   6.348   6.641  1.00 20.00     0.195 C 
HETATM    4  C5  UNL     1     -34.958   4.549   4.525  1.00 20.00     0.069 C 
HETATM    5  C6  UNL     1     -35.015   4.250   6.023  1.00 20.00     0.172 C 
HETATM    6  O8  UNL     1     -35.215   5.463   6.748  1.00 20.00    -0.387 OA
ENDROOT
BRANCH   2   7
HETATM    7  C3  UNL     1     -33.543   5.913   2.894  1.00 20.00     0.248 C 
HETATM    8  O7  UNL     1     -33.960   5.191   1.981  1.00 20.00    -0.274 OA
HETATM    9 CL9  UNL     1     -32.382   7.204   2.664  1.00 20.00    -0.039 Cl
ENDBRANCH   2   7
TORSDOF 1
ENDMDL
MODEL 2
REMARK VINA RESULT:      -4.3     11.861     12.606
REMARK  1 active torsions:
REMARK  status: ('A' for Active; 'I' for Inactive)
REMARK    1  A    between atoms: C2_2  and  C3_3 
ROOT
HETATM    1  C1  UNL     1     -33.488  14.653  -3.466  1.00 20.00     0.011 C 
HETATM    2  C2  UNL     1     -34.503  15.400  -3.013  1.00 20.00     0.004 C 
HETATM    3  C4  UNL     1     -33.737  13.385  -4.230  1.00 20.00     0.195 C 
HETATM    4  C5  UNL     1     -35.932  15.035  -3.270  1.00 20.00     0.069 C 
HETATM    5  C6  UNL     1     -36.027  13.993  -4.384  1.00 20.00     0.172 C 
HETATM    6  O8  UNL     1     -35.096  12.939  -4.136  1.00 20.00    -0.387 OA
ENDROOT
BRANCH   2   7
HETATM    7  C3  UNL     1     -34.197  16.622  -2.270  1.00 20.00     0.248 C 
HETATM    8  O7  UNL     1     -33.670  17.570  -2.864  1.00 20.00    -0.274 OA
HETATM    9 CL9  UNL     1     -34.609  16.644  -0.568  1.00 20.00    -0.039 Cl
ENDBRANCH   2   7
TORSDOF 1
ENDMDL
MODEL 3
REMARK VINA RESULT:      -4.1      1.377      2.057
REMARK  1 active torsions:
REMARK  status: ('A' for Active; 'I' for Inactive)
REMARK    1  A    between atoms: C2_2  and  C3_3 
ROOT
HETATM    1  C1  UNL     1     -34.367   5.542   3.673  1.00 20.00     0.011 C 
HETATM    2  C2  UNL     1     -33.434   6.294   4.272  1.00 20.00     0.004 C 
HETATM    3  C4  UNL     1     -35.352   4.740   4.474  1.00 20.00     0.195 C 
HETATM    4  C5  UNL     1     -33.343   6.404   5.762  1.00 20.00     0.069 C 
HETATM    5  C6  UNL     1     -34.627   5.896   6.417  1.00 20.00     0.172 C 
HETATM    6  O8  UNL     1     -34.985   4.633   5.856  1.00 20.00    -0.387 OA
ENDROOT
BRANCH   2   7
HETATM    7  C3  UNL     1     -32.500   7.048   3.438  1.00 20.00     0.248 C 
HETATM    8  O7  UNL     1     -32.709   7.127   2.222  1.00 20.00    -0.274 OA
HETATM    9 CL9  UNL     1     -31.134   7.792   4.244  1.00 20.00    -0.039 Cl
ENDBRANCH   2   7
TORSDOF 1
ENDMDL
MODEL 4
REMARK VINA RESULT:      -4.1      1.340      1.460
REMARK  1 active torsions:
REMARK  status: ('A' for Active; 'I' for Inactive)
REMARK    1  A    between atoms: C2_2  and  C3_3 
ROOT
HETATM    1  C1  UNL     1     -33.464   6.461   5.521  1.00 20.00     0.011 C 
HETATM    2  C2  UNL     1     -33.479   6.301   4.191  1.00 20.00     0.004 C 
HETATM    3  C4  UNL     1     -34.421   5.714   6.405  1.00 20.00     0.195 C 
HETATM    4  C5  UNL     1     -34.418   5.349   3.519  1.00 20.00     0.069 C 
HETATM    5  C6  UNL     1     -35.016   4.377   4.535  1.00 20.00     0.172 C 
HETATM    6  O8  UNL     1     -35.489   5.101   5.671  1.00 20.00    -0.387 OA
ENDROOT
BRANCH   2   7
HETATM    7  C3  UNL     1     -32.527   7.061   3.384  1.00 20.00     0.248 C 
HETATM    8  O7  UNL     1     -32.719   7.165   2.167  1.00 20.00    -0.274 OA
HETATM    9 CL9  UNL     1     -31.163   7.775   4.220  1.00 20.00    -0.039 Cl
ENDBRANCH   2   7
TORSDOF 1
ENDMDL
MODEL 5
REMARK VINA RESULT:      -4.0     12.069     12.563
REMARK  1 active torsions:
REMARK  status: ('A' for Active; 'I' for Inactive)
REMARK    1  A    between atoms: C2_2  and  C3_3 
ROOT
HETATM    1  C1  UNL     1     -33.577  14.599  -3.341  1.00 20.00     0.011 C 
HETATM    2  C2  UNL     1     -34.619  15.313  -2.893  1.00 20.00     0.004 C 
HETATM    3  C4  UNL     1     -33.777  13.395  -4.215  1.00 20.00     0.195 C 
HETATM    4  C5  UNL     1     -36.029  14.973  -3.264  1.00 20.00     0.069 C 
HETATM    5  C6  UNL     1     -36.055  14.021  -4.459  1.00 20.00     0.172 C 
HETATM    6  O8  UNL     1     -35.139  12.948  -4.238  1.00 20.00    -0.387 OA
ENDROOT
BRANCH   2   7
HETATM    7  C3  UNL     1     -34.360  16.471  -2.040  1.00 20.00     0.248 C 
HETATM    8  O7  UNL     1     -34.607  16.395  -0.831  1.00 20.00    -0.274 OA
HETATM    9 CL9  UNL     1     -33.709  17.902  -2.814  1.00 20.00    -0.039 Cl
ENDBRANCH   2   7
TORSDOF 1
ENDMDL
MODEL 6
REMARK VINA RESULT:      -4.0     12.332     13.144
REMARK  1 active torsions:
REMARK  status: ('A' for Active; 'I' for Inactive)
REMARK    1  A    between atoms: C2_2  and  C3_3 
ROOT
HETATM    1  C1  UNL     1     -35.036  14.925  -3.107  1.00 20.00     0.011 C 
HETATM    2  C2  UNL     1     -34.470  14.891  -4.320  1.00 20.00     0.004 C 
HETATM    3  C4  UNL     1     -34.733  16.031  -2.138  1.00 20.00     0.195 C 
HETATM    4  C5  UNL     1     -33.537  15.964  -4.789  1.00 20.00     0.069 C 
HETATM    5  C6  UNL     1     -33.651  17.200  -3.899  1.00 20.00     0.172 C 
HETATM    6  O8  UNL     1     -33.595  16.811  -2.526  1.00 20.00    -0.387 OA
ENDROOT
BRANCH   2   7
HETATM    7  C3  UNL     1     -34.800  13.785  -5.217  1.00 20.00     0.248 C 
HETATM    8  O7  UNL     1     -34.750  12.627  -4.786  1.00 20.00    -0.274 OA
HETATM    9 CL9  UNL     1     -35.247  14.196  -6.860  1.00 20.00    -0.039 Cl
ENDBRANCH   2   7
TORSDOF 1
ENDMDL
MODEL 7
REMARK VINA RESULT:      -4.0     12.104     12.847
REMARK  1 active torsions:
REMARK  status: ('A' for Active; 'I' for Inactive)
REMARK    1  A    between atoms: C2_2  and  C3_3 
ROOT
HETATM    1  C1  UNL     1     -35.697  15.317  -3.213  1.00 20.00     0.011 C 
HETATM    2  C2  UNL     1     -34.426  15.677  -2.992  1.00 20.00     0.004 C 
HETATM    3  C4  UNL     1     -36.032  14.151  -4.099  1.00 20.00     0.195 C 
HETATM    4  C5  UNL     1     -33.275  14.923  -3.581  1.00 20.00     0.069 C 
HETATM    5  C6  UNL     1     -33.733  13.557  -4.090  1.00 20.00     0.172 C 
HETATM    6  O8  UNL     1     -34.913  13.709  -4.879  1.00 20.00    -0.387 OA
ENDROOT
BRANCH   2   7
HETATM    7  C3  UNL     1     -34.163  16.824  -2.125  1.00 20.00     0.248 C 
HETATM    8  O7  UNL     1     -33.608  17.822  -2.599  1.00 20.00    -0.274 OA
HETATM    9 CL9  UNL     1     -34.665  16.690  -0.452  1.00 20.00    -0.039 Cl
ENDBRANCH   2   7
TORSDOF 1
ENDMDL
MODEL 8
REMARK VINA RESULT:      -3.9     12.441     13.480
REMARK  1 active torsions:
REMARK  status: ('A' for Active; 'I' for Inactive)
REMARK    1  A    between atoms: C2_2  and  C3_3 
ROOT
HETATM    1  C1  UNL     1     -33.866  16.041  -5.342  1.00 20.00     0.011 C 
HETATM    2  C2  UNL     1     -34.398  15.015  -4.663  1.00 20.00     0.004 C 
HETATM    3  C4  UNL     1     -33.441  17.299  -4.641  1.00 20.00     0.195 C 
HETATM    4  C5  UNL     1     -34.565  15.051  -3.176  1.00 20.00     0.069 C 
HETATM    5  C6  UNL     1     -33.728  16.176  -2.569  1.00 20.00     0.172 C 
HETATM    6  O8  UNL     1     -33.942  17.383  -3.300  1.00 20.00    -0.387 OA
ENDROOT
BRANCH   2   7
HETATM    7  C3  UNL     1     -34.797  13.819  -5.402  1.00 20.00     0.248 C 
HETATM    8  O7  UNL     1     -34.758  12.721  -4.835  1.00 20.00    -0.274 OA
HETATM    9 CL9  UNL     1     -35.310  14.041  -7.062  1.00 20.00    -0.039 Cl
ENDBRANCH   2   7
TORSDOF 1
ENDMDL
MODEL 9
REMARK VINA RESULT:      -3.9     12.568     14.248
REMARK  1 active torsions:
REMARK  status: ('A' for Active; 'I' for Inactive)
REMARK    1  A    between atoms: C2_2  and  C3_3 
ROOT
HETATM    1  C1  UNL     1     -34.009  15.831  -5.402  1.00 20.00     0.011 C 
HETATM    2  C2  UNL     1     -34.490  14.607  -5.654  1.00 20.00     0.004 C 
HETATM    3  C4  UNL     1     -34.192  16.954  -6.382  1.00 20.00     0.195 C 
HETATM    4  C5  UNL     1     -35.261  14.299  -6.899  1.00 20.00     0.069 C 
HETATM    5  C6  UNL     1     -35.723  15.588  -7.576  1.00 20.00     0.172 C 
HETATM    6  O8  UNL     1     -34.629  16.501  -7.670  1.00 20.00    -0.387 OA
ENDROOT
BRANCH   2   7
HETATM    7  C3  UNL     1     -34.274  13.553  -4.664  1.00 20.00     0.248 C 
HETATM    8  O7  UNL     1     -35.058  12.597  -4.623  1.00 20.00    -0.274 OA
HETATM    9 CL9  UNL     1     -32.898  13.732  -3.595  1.00 20.00    -0.039 Cl
ENDBRANCH   2   7
TORSDOF 1
ENDMDL
