MODEL 1
REMARK VINA RESULT:      -4.1      0.000      0.000
REMARK  2 active torsions:
REMARK  status: ('A' for Active; 'I' for Inactive)
REMARK    1  A    between atoms: C5_5  and  C8_8 
REMARK    2  A    between atoms: C8_8  and  N10_10 
ROOT
HETATM    1  C1  UNL     1     -35.095  13.222  -4.320  1.00 20.00     0.135 A 
HETATM    2  C2  UNL     1     -35.607  14.475  -4.078  1.00 20.00     0.112 A 
HETATM    3  C3  UNL     1     -33.433  14.411  -3.725  1.00 20.00     0.210 A 
HETATM    4  N9  UNL     1     -33.741  13.188  -4.098  1.00 20.00    -0.255 NA
HETATM    5  N10 UNL     1     -34.530  15.225  -3.696  1.00 20.00    -0.338 N 
ENDROOT
BRANCH   5   6
HETATM    6  C8  UNL     1     -34.548  16.669  -3.321  1.00 20.00     0.047 C 
HETATM    7  C6  UNL     1     -33.659  17.561  -4.225  1.00 20.00     0.043 C 
HETATM    8  C7  UNL     1     -35.998  17.190  -3.475  1.00 20.00     0.043 C 
BRANCH   6   9
HETATM    9  C5  UNL     1     -33.970  16.823  -1.914  1.00 20.00    -0.007 C 
HETATM   10  C4  UNL     1     -34.606  16.655  -0.748  1.00 20.00     0.009 C 
ENDBRANCH   6   9
ENDBRANCH   5   6
TORSDOF 2
ENDMDL
MODEL 2
REMARK VINA RESULT:      -3.9      0.485      1.923
REMARK  2 active torsions:
REMARK  status: ('A' for Active; 'I' for Inactive)
REMARK    1  A    between atoms: C5_5  and  C8_8 
REMARK    2  A    between atoms: C8_8  and  N10_10 
ROOT
HETATM    1  C1  UNL     1     -35.090  13.224  -4.381  1.00 20.00     0.135 A 
HETATM    2  C2  UNL     1     -35.673  14.411  -4.004  1.00 20.00     0.112 A 
HETATM    3  C3  UNL     1     -33.529  14.368  -3.495  1.00 20.00     0.210 A 
HETATM    4  N9  UNL     1     -33.755  13.204  -4.062  1.00 20.00    -0.255 NA
HETATM    5  N10 UNL     1     -34.660  15.132  -3.436  1.00 20.00    -0.338 N 
ENDROOT
BRANCH   5   6
HETATM    6  C8  UNL     1     -34.769  16.505  -2.860  1.00 20.00     0.047 C 
HETATM    7  C6  UNL     1     -36.139  17.183  -3.114  1.00 20.00     0.043 C 
HETATM    8  C7  UNL     1     -34.605  16.399  -1.325  1.00 20.00     0.043 C 
BRANCH   6   9
HETATM    9  C5  UNL     1     -33.742  17.411  -3.541  1.00 20.00    -0.007 C 
HETATM   10  C4  UNL     1     -33.679  17.742  -4.836  1.00 20.00     0.009 C 
ENDBRANCH   6   9
ENDBRANCH   5   6
TORSDOF 2
ENDMDL
MODEL 3
REMARK VINA RESULT:      -3.8      2.074      2.798
REMARK  2 active torsions:
REMARK  status: ('A' for Active; 'I' for Inactive)
REMARK    1  A    between atoms: C5_5  and  C8_8 
REMARK    2  A    between atoms: C8_8  and  N10_10 
ROOT
HETATM    1  C1  UNL     1     -36.898  15.184  -6.559  1.00 20.00     0.135 A 
HETATM    2  C2  UNL     1     -36.451  15.475  -5.292  1.00 20.00     0.112 A 
HETATM    3  C3  UNL     1     -34.886  14.493  -6.493  1.00 20.00     0.210 A 
HETATM    4  N9  UNL     1     -35.919  14.573  -7.302  1.00 20.00    -0.255 NA
HETATM    5  N10 UNL     1     -35.161  15.025  -5.265  1.00 20.00    -0.338 N 
ENDROOT
BRANCH   5   6
HETATM    6  C8  UNL     1     -34.222  15.103  -4.107  1.00 20.00     0.047 C 
HETATM    7  C6  UNL     1     -33.502  13.767  -3.795  1.00 20.00     0.043 C 
HETATM    8  C7  UNL     1     -33.116  16.131  -4.451  1.00 20.00     0.043 C 
BRANCH   6   9
HETATM    9  C5  UNL     1     -35.017  15.434  -2.845  1.00 20.00    -0.007 C 
HETATM   10  C4  UNL     1     -34.614  16.157  -1.793  1.00 20.00     0.009 C 
ENDBRANCH   6   9
ENDBRANCH   5   6
TORSDOF 2
ENDMDL
MODEL 4
REMARK VINA RESULT:      -3.8      0.975      1.219
REMARK  2 active torsions:
REMARK  status: ('A' for Active; 'I' for Inactive)
REMARK    1  A    between atoms: C5_5  and  C8_8 
REMARK    2  A    between atoms: C8_8  and  N10_10 
ROOT
HETATM    1  C1  UNL     1     -34.453  13.216  -4.754  1.00 20.00     0.135 A 
HETATM    2  C2  UNL     1     -34.234  14.087  -3.713  1.00 20.00     0.112 A 
HETATM    3  C3  UNL     1     -35.156  15.106  -5.436  1.00 20.00     0.210 A 
HETATM    4  N9  UNL     1     -35.028  13.857  -5.824  1.00 20.00    -0.255 NA
HETATM    5  N10 UNL     1     -34.688  15.294  -4.166  1.00 20.00    -0.338 N 
ENDROOT
BRANCH   5   6
HETATM    6  C8  UNL     1     -34.678  16.581  -3.410  1.00 20.00     0.047 C 
HETATM    7  C6  UNL     1     -33.781  17.673  -4.047  1.00 20.00     0.043 C 
HETATM    8  C7  UNL     1     -36.120  17.145  -3.398  1.00 20.00     0.043 C 
BRANCH   6   9
HETATM    9  C5  UNL     1     -34.087  16.337  -2.022  1.00 20.00    -0.007 C 
HETATM   10  C4  UNL     1     -34.628  16.651  -0.838  1.00 20.00     0.009 C 
ENDBRANCH   6   9
ENDBRANCH   5   6
TORSDOF 2
ENDMDL
MODEL 5
REMARK VINA RESULT:      -3.8      1.930      3.439
REMARK  2 active torsions:
REMARK  status: ('A' for Active; 'I' for Inactive)
REMARK    1  A    between atoms: C5_5  and  C8_8 
REMARK    2  A    between atoms: C8_8  and  N10_10 
ROOT
HETATM    1  C1  UNL     1     -37.865  15.733  -3.497  1.00 20.00     0.135 A 
HETATM    2  C2  UNL     1     -36.599  16.269  -3.474  1.00 20.00     0.112 A 
HETATM    3  C3  UNL     1     -36.563  14.143  -4.053  1.00 20.00     0.210 A 
HETATM    4  N9  UNL     1     -37.836  14.409  -3.858  1.00 20.00    -0.255 NA
HETATM    5  N10 UNL     1     -35.776  15.238  -3.831  1.00 20.00    -0.338 N 
ENDROOT
BRANCH   5   6
HETATM    6  C8  UNL     1     -34.290  15.297  -3.958  1.00 20.00     0.047 C 
HETATM    7  C6  UNL     1     -33.600  16.131  -2.849  1.00 20.00     0.043 C 
HETATM    8  C7  UNL     1     -33.738  13.856  -3.837  1.00 20.00     0.043 C 
BRANCH   6   9
HETATM    9  C5  UNL     1     -33.932  16.000  -5.268  1.00 20.00    -0.007 C 
HETATM   10  C4  UNL     1     -34.162  15.568  -6.514  1.00 20.00     0.009 C 
ENDBRANCH   6   9
ENDBRANCH   5   6
TORSDOF 2
ENDMDL
MODEL 6
REMARK VINA RESULT:      -3.8      1.397      2.392
REMARK  2 active torsions:
REMARK  status: ('A' for Active; 'I' for Inactive)
REMARK    1  A    between atoms: C5_5  and  C8_8 
REMARK    2  A    between atoms: C8_8  and  N10_10 
ROOT
HETATM    1  C1  UNL     1     -37.830  15.672  -3.796  1.00 20.00     0.135 A 
HETATM    2  C2  UNL     1     -36.762  16.528  -3.678  1.00 20.00     0.112 A 
HETATM    3  C3  UNL     1     -36.102  14.429  -3.790  1.00 20.00     0.210 A 
HETATM    4  N9  UNL     1     -37.413  14.366  -3.866  1.00 20.00    -0.255 NA
HETATM    5  N10 UNL     1     -35.662  15.717  -3.674  1.00 20.00    -0.338 N 
ENDROOT
BRANCH   5   6
HETATM    6  C8  UNL     1     -34.240  16.158  -3.566  1.00 20.00     0.047 C 
HETATM    7  C6  UNL     1     -33.224  14.988  -3.534  1.00 20.00     0.043 C 
HETATM    8  C7  UNL     1     -33.901  17.004  -4.817  1.00 20.00     0.043 C 
BRANCH   6   9
HETATM    9  C5  UNL     1     -34.047  16.891  -2.239  1.00 20.00    -0.007 C 
HETATM   10  C4  UNL     1     -34.521  16.541  -1.037  1.00 20.00     0.009 C 
ENDBRANCH   6   9
ENDBRANCH   5   6
TORSDOF 2
ENDMDL
MODEL 7
REMARK VINA RESULT:      -3.7      1.908      3.248
REMARK  2 active torsions:
REMARK  status: ('A' for Active; 'I' for Inactive)
REMARK    1  A    between atoms: C5_5  and  C8_8 
REMARK    2  A    between atoms: C8_8  and  N10_10 
ROOT
HETATM    1  C1  UNL     1     -34.458  16.731  -6.975  1.00 20.00     0.135 A 
HETATM    2  C2  UNL     1     -34.611  15.585  -6.231  1.00 20.00     0.112 A 
HETATM    3  C3  UNL     1     -33.676  17.193  -5.050  1.00 20.00     0.210 A 
HETATM    4  N9  UNL     1     -33.875  17.728  -6.233  1.00 20.00    -0.255 NA
HETATM    5  N10 UNL     1     -34.105  15.896  -5.001  1.00 20.00    -0.338 N 
ENDROOT
BRANCH   5   6
HETATM    6  C8  UNL     1     -34.035  14.988  -3.818  1.00 20.00     0.047 C 
HETATM    7  C6  UNL     1     -34.647  13.586  -4.070  1.00 20.00     0.043 C 
HETATM    8  C7  UNL     1     -32.544  14.763  -3.469  1.00 20.00     0.043 C 
BRANCH   6   9
HETATM    9  C5  UNL     1     -34.864  15.588  -2.683  1.00 20.00    -0.007 C 
HETATM   10  C4  UNL     1     -34.418  16.263  -1.616  1.00 20.00     0.009 C 
ENDBRANCH   6   9
ENDBRANCH   5   6
TORSDOF 2
ENDMDL
MODEL 8
REMARK VINA RESULT:      -3.7      2.041      2.693
REMARK  2 active torsions:
REMARK  status: ('A' for Active; 'I' for Inactive)
REMARK    1  A    between atoms: C5_5  and  C8_8 
REMARK    2  A    between atoms: C8_8  and  N10_10 
ROOT
HETATM    1  C1  UNL     1     -33.724  13.465  -3.751  1.00 20.00     0.135 A 
HETATM    2  C2  UNL     1     -33.613  14.808  -4.020  1.00 20.00     0.112 A 
HETATM    3  C3  UNL     1     -34.950  13.808  -5.457  1.00 20.00     0.210 A 
HETATM    4  N9  UNL     1     -34.559  12.847  -4.650  1.00 20.00    -0.255 NA
HETATM    5  N10 UNL     1     -34.402  15.013  -5.116  1.00 20.00    -0.338 N 
ENDROOT
BRANCH   5   6
HETATM    6  C8  UNL     1     -34.629  16.313  -5.812  1.00 20.00     0.047 C 
HETATM    7  C6  UNL     1     -34.606  16.208  -7.358  1.00 20.00     0.043 C 
HETATM    8  C7  UNL     1     -36.036  16.829  -5.425  1.00 20.00     0.043 C 
BRANCH   6   9
HETATM    9  C5  UNL     1     -33.489  17.269  -5.460  1.00 20.00    -0.007 C 
HETATM   10  C4  UNL     1     -33.585  18.478  -4.891  1.00 20.00     0.009 C 
ENDBRANCH   6   9
ENDBRANCH   5   6
TORSDOF 2
ENDMDL
MODEL 9
REMARK VINA RESULT:      -3.7     11.468     12.790
REMARK  2 active torsions:
REMARK  status: ('A' for Active; 'I' for Inactive)
REMARK    1  A    between atoms: C5_5  and  C8_8 
REMARK    2  A    between atoms: C8_8  and  N10_10 
ROOT
HETATM    1  C1  UNL     1     -42.760   7.785  -3.360  1.00 20.00     0.135 A 
HETATM    2  C2  UNL     1     -42.070   7.515  -2.202  1.00 20.00     0.112 A 
HETATM    3  C3  UNL     1     -42.911   5.680  -3.086  1.00 20.00     0.210 A 
HETATM    4  N9  UNL     1     -43.282   6.639  -3.906  1.00 20.00    -0.255 NA
HETATM    5  N10 UNL     1     -42.177   6.162  -2.039  1.00 20.00    -0.338 N 
ENDROOT
BRANCH   5   6
HETATM    6  C8  UNL     1     -41.595   5.357  -0.925  1.00 20.00     0.047 C 
HETATM    7  C6  UNL     1     -40.734   4.160  -1.401  1.00 20.00     0.043 C 
HETATM    8  C7  UNL     1     -40.659   6.277  -0.104  1.00 20.00     0.043 C 
BRANCH   6   9
HETATM    9  C5  UNL     1     -42.733   4.735  -0.116  1.00 20.00    -0.007 C 
HETATM   10  C4  UNL     1     -43.205   5.137   1.071  1.00 20.00     0.009 C 
ENDBRANCH   6   9
ENDBRANCH   5   6
TORSDOF 2
ENDMDL
