MODEL 1
REMARK VINA RESULT:      -4.7      0.000      0.000
REMARK  1 active torsions:
REMARK  status: ('A' for Active; 'I' for Inactive)
REMARK    1  A    between atoms: C3_3  and  C6_6 
ROOT
HETATM    1  C1  UNL     1     -34.294  14.727  -3.103  1.00 20.00    -0.024 C 
HETATM    2  C2  UNL     1     -34.878  15.871  -2.699  1.00 20.00    -0.083 C 
HETATM    3  C4  UNL     1     -34.409  14.162  -4.488  1.00 20.00     0.032 C 
HETATM    4  C5  UNL     1     -35.755  16.699  -3.632  1.00 20.00     0.021 C 
HETATM    5  C6  UNL     1     -36.183  15.929  -4.910  1.00 20.00     0.066 C 
HETATM    6  C7  UNL     1     -34.985  15.162  -5.503  1.00 20.00    -0.003 C 
HETATM    7  C8  UNL     1     -34.629  16.399  -1.313  1.00 20.00     0.043 C 
HETATM    8  C10 UNL     1     -36.970  17.328  -2.936  1.00 20.00     0.015 C 
HETATM    9  C11 UNL     1     -35.316  14.468  -6.824  1.00 20.00     0.011 C 
ENDROOT
BRANCH   5  10
HETATM   10  C3  UNL     1     -37.337  14.995  -4.648  1.00 20.00     0.128 C 
HETATM   11  C9  UNL     1     -38.587  15.222  -5.454  1.00 20.00     0.091 C 
HETATM   12  O12 UNL     1     -37.259  14.090  -3.819  1.00 20.00    -0.298 OA
ENDBRANCH   5  10
TORSDOF 1
ENDMDL
MODEL 2
REMARK VINA RESULT:      -4.6      2.087      4.092
REMARK  1 active torsions:
REMARK  status: ('A' for Active; 'I' for Inactive)
REMARK    1  A    between atoms: C3_3  and  C6_6 
ROOT
HETATM    1  C1  UNL     1     -34.571  13.963  -5.232  1.00 20.00    -0.024 C 
HETATM    2  C2  UNL     1     -35.205  14.764  -6.109  1.00 20.00    -0.083 C 
HETATM    3  C4  UNL     1     -34.326  14.310  -3.794  1.00 20.00     0.032 C 
HETATM    4  C5  UNL     1     -35.717  16.145  -5.712  1.00 20.00     0.021 C 
HETATM    5  C6  UNL     1     -35.129  16.650  -4.366  1.00 20.00     0.066 C 
HETATM    6  C7  UNL     1     -35.142  15.522  -3.317  1.00 20.00    -0.003 C 
HETATM    7  C8  UNL     1     -35.479  14.288  -7.509  1.00 20.00     0.043 C 
HETATM    8  C10 UNL     1     -35.555  17.202  -6.814  1.00 20.00     0.015 C 
HETATM    9  C11 UNL     1     -34.674  15.986  -1.937  1.00 20.00     0.011 C 
ENDROOT
BRANCH   5  10
HETATM   10  C3  UNL     1     -33.738  17.209  -4.531  1.00 20.00     0.128 C 
HETATM   11  C9  UNL     1     -33.552  18.665  -4.201  1.00 20.00     0.091 C 
HETATM   12  O12 UNL     1     -32.803  16.508  -4.912  1.00 20.00    -0.298 OA
ENDBRANCH   5  10
TORSDOF 1
ENDMDL
MODEL 3
REMARK VINA RESULT:      -4.6      1.312      4.125
REMARK  1 active torsions:
REMARK  status: ('A' for Active; 'I' for Inactive)
REMARK    1  A    between atoms: C3_3  and  C6_6 
ROOT
HETATM    1  C1  UNL     1     -37.492  15.111  -4.772  1.00 20.00    -0.024 C 
HETATM    2  C2  UNL     1     -36.772  15.203  -5.905  1.00 20.00    -0.083 C 
HETATM    3  C4  UNL     1     -36.931  15.310  -3.395  1.00 20.00     0.032 C 
HETATM    4  C5  UNL     1     -35.275  15.496  -5.886  1.00 20.00     0.021 C 
HETATM    5  C6  UNL     1     -34.636  15.315  -4.483  1.00 20.00     0.066 C 
HETATM    6  C7  UNL     1     -35.531  15.945  -3.398  1.00 20.00    -0.003 C 
HETATM    7  C8  UNL     1     -37.446  15.074  -7.243  1.00 20.00     0.043 C 
HETATM    8  C10 UNL     1     -34.484  14.728  -6.954  1.00 20.00     0.015 C 
HETATM    9  C11 UNL     1     -34.905  15.893  -2.004  1.00 20.00     0.011 C 
ENDROOT
BRANCH   5  10
HETATM   10  C3  UNL     1     -34.360  13.866  -4.170  1.00 20.00     0.128 C 
HETATM   11  C9  UNL     1     -32.987  13.536  -3.650  1.00 20.00     0.091 C 
HETATM   12  O12 UNL     1     -35.216  12.997  -4.329  1.00 20.00    -0.298 OA
ENDBRANCH   5  10
TORSDOF 1
ENDMDL
MODEL 4
REMARK VINA RESULT:      -4.5      1.660      3.588
REMARK  1 active torsions:
REMARK  status: ('A' for Active; 'I' for Inactive)
REMARK    1  A    between atoms: C3_3  and  C6_6 
ROOT
HETATM    1  C1  UNL     1     -33.534  14.921  -3.853  1.00 20.00    -0.024 C 
HETATM    2  C2  UNL     1     -34.720  14.375  -4.182  1.00 20.00    -0.083 C 
HETATM    3  C4  UNL     1     -33.347  15.954  -2.782  1.00 20.00     0.032 C 
HETATM    4  C5  UNL     1     -36.016  14.794  -3.496  1.00 20.00     0.021 C 
HETATM    5  C6  UNL     1     -35.879  16.112  -2.687  1.00 20.00     0.066 C 
HETATM    6  C7  UNL     1     -34.573  16.108  -1.869  1.00 20.00    -0.003 C 
HETATM    7  C8  UNL     1     -34.790  13.281  -5.212  1.00 20.00     0.043 C 
HETATM    8  C10 UNL     1     -37.222  14.854  -4.445  1.00 20.00     0.015 C 
HETATM    9  C11 UNL     1     -34.432  17.333  -0.966  1.00 20.00     0.011 C 
ENDROOT
BRANCH   5  10
HETATM   10  C3  UNL     1     -35.950  17.330  -3.573  1.00 20.00     0.128 C 
HETATM   11  C9  UNL     1     -37.051  18.314  -3.282  1.00 20.00     0.091 C 
HETATM   12  O12 UNL     1     -35.145  17.512  -4.485  1.00 20.00    -0.298 OA
ENDBRANCH   5  10
TORSDOF 1
ENDMDL
MODEL 5
REMARK VINA RESULT:      -4.5      1.482      3.544
REMARK  1 active torsions:
REMARK  status: ('A' for Active; 'I' for Inactive)
REMARK    1  A    between atoms: C3_3  and  C6_6 
ROOT
HETATM    1  C1  UNL     1     -35.779  15.013  -6.452  1.00 20.00    -0.024 C 
HETATM    2  C2  UNL     1     -36.947  15.121  -5.792  1.00 20.00    -0.083 C 
HETATM    3  C4  UNL     1     -34.503  14.518  -5.838  1.00 20.00     0.032 C 
HETATM    4  C5  UNL     1     -37.071  14.768  -4.314  1.00 20.00     0.021 C 
HETATM    5  C6  UNL     1     -35.698  14.637  -3.601  1.00 20.00     0.066 C 
HETATM    6  C7  UNL     1     -34.712  13.840  -4.475  1.00 20.00    -0.003 C 
HETATM    7  C8  UNL     1     -38.192  15.545  -6.522  1.00 20.00     0.043 C 
HETATM    8  C10 UNL     1     -38.008  15.703  -3.535  1.00 20.00     0.015 C 
HETATM    9  C11 UNL     1     -33.373  13.583  -3.782  1.00 20.00     0.011 C 
ENDROOT
BRANCH   5  10
HETATM   10  C3  UNL     1     -35.119  15.981  -3.236  1.00 20.00     0.128 C 
HETATM   11  C9  UNL     1     -34.762  16.192  -1.790  1.00 20.00     0.091 C 
HETATM   12  O12 UNL     1     -34.946  16.859  -4.079  1.00 20.00    -0.298 OA
ENDBRANCH   5  10
TORSDOF 1
ENDMDL
MODEL 6
REMARK VINA RESULT:      -4.4      1.889      4.168
REMARK  1 active torsions:
REMARK  status: ('A' for Active; 'I' for Inactive)
REMARK    1  A    between atoms: C3_3  and  C6_6 
ROOT
HETATM    1  C1  UNL     1     -35.167  16.702  -5.820  1.00 20.00    -0.024 C 
HETATM    2  C2  UNL     1     -34.616  15.506  -5.541  1.00 20.00    -0.083 C 
HETATM    3  C4  UNL     1     -34.909  17.955  -5.039  1.00 20.00     0.032 C 
HETATM    4  C5  UNL     1     -33.677  15.310  -4.355  1.00 20.00     0.021 C 
HETATM    5  C6  UNL     1     -33.721  16.486  -3.342  1.00 20.00     0.066 C 
HETATM    6  C7  UNL     1     -33.710  17.836  -4.084  1.00 20.00    -0.003 C 
HETATM    7  C8  UNL     1     -34.870  14.326  -6.439  1.00 20.00     0.043 C 
HETATM    8  C10 UNL     1     -33.859  13.963  -3.642  1.00 20.00     0.015 C 
HETATM    9  C11 UNL     1     -33.644  19.036  -3.139  1.00 20.00     0.011 C 
ENDROOT
BRANCH   5  10
HETATM   10  C3  UNL     1     -34.911  16.394  -2.420  1.00 20.00     0.128 C 
HETATM   11  C9  UNL     1     -34.634  16.513  -0.946  1.00 20.00     0.091 C 
HETATM   12  O12 UNL     1     -36.051  16.234  -2.853  1.00 20.00    -0.298 OA
ENDBRANCH   5  10
TORSDOF 1
ENDMDL
MODEL 7
REMARK VINA RESULT:      -4.4      1.912      3.076
REMARK  1 active torsions:
REMARK  status: ('A' for Active; 'I' for Inactive)
REMARK    1  A    between atoms: C3_3  and  C6_6 
ROOT
HETATM    1  C1  UNL     1     -35.057  16.891  -2.655  1.00 20.00    -0.024 C 
HETATM    2  C2  UNL     1     -34.595  17.814  -3.519  1.00 20.00    -0.083 C 
HETATM    3  C4  UNL     1     -34.684  15.438  -2.689  1.00 20.00     0.032 C 
HETATM    4  C5  UNL     1     -33.649  17.447  -4.658  1.00 20.00     0.021 C 
HETATM    5  C6  UNL     1     -33.578  15.919  -4.924  1.00 20.00     0.066 C 
HETATM    6  C7  UNL     1     -33.478  15.146  -3.595  1.00 20.00    -0.003 C 
HETATM    7  C8  UNL     1     -34.961  19.262  -3.347  1.00 20.00     0.043 C 
HETATM    8  C10 UNL     1     -33.920  18.220  -5.956  1.00 20.00     0.015 C 
HETATM    9  C11 UNL     1     -33.297  13.640  -3.794  1.00 20.00     0.011 C 
ENDROOT
BRANCH   5  10
HETATM   10  C3  UNL     1     -34.751  15.432  -5.737  1.00 20.00     0.128 C 
HETATM   11  C9  UNL     1     -34.438  14.820  -7.075  1.00 20.00     0.091 C 
HETATM   12  O12 UNL     1     -35.905  15.527  -5.324  1.00 20.00    -0.298 OA
ENDBRANCH   5  10
TORSDOF 1
ENDMDL
MODEL 8
REMARK VINA RESULT:      -4.4      1.906      3.484
REMARK  1 active torsions:
REMARK  status: ('A' for Active; 'I' for Inactive)
REMARK    1  A    between atoms: C3_3  and  C6_6 
ROOT
HETATM    1  C1  UNL     1     -36.433  17.013  -4.143  1.00 20.00    -0.024 C 
HETATM    2  C2  UNL     1     -35.967  17.387  -2.936  1.00 20.00    -0.083 C 
HETATM    3  C4  UNL     1     -36.216  15.659  -4.751  1.00 20.00     0.032 C 
HETATM    4  C5  UNL     1     -35.131  16.450  -2.071  1.00 20.00     0.021 C 
HETATM    5  C6  UNL     1     -34.589  15.222  -2.851  1.00 20.00     0.066 C 
HETATM    6  C7  UNL     1     -35.691  14.623  -3.745  1.00 20.00    -0.003 C 
HETATM    7  C8  UNL     1     -36.314  18.740  -2.377  1.00 20.00     0.043 C 
HETATM    8  C10 UNL     1     -34.003  17.160  -1.309  1.00 20.00     0.015 C 
HETATM    9  C11 UNL     1     -35.251  13.344  -4.459  1.00 20.00     0.011 C 
ENDROOT
BRANCH   5  10
HETATM   10  C3  UNL     1     -33.368  15.564  -3.668  1.00 20.00     0.128 C 
HETATM   11  C9  UNL     1     -32.181  14.651  -3.523  1.00 20.00     0.091 C 
HETATM   12  O12 UNL     1     -33.346  16.539  -4.417  1.00 20.00    -0.298 OA
ENDBRANCH   5  10
TORSDOF 1
ENDMDL
MODEL 9
REMARK VINA RESULT:      -4.4      1.557      3.601
REMARK  1 active torsions:
REMARK  status: ('A' for Active; 'I' for Inactive)
REMARK    1  A    between atoms: C3_3  and  C6_6 
ROOT
HETATM    1  C1  UNL     1     -33.534  15.936  -4.647  1.00 20.00    -0.024 C 
HETATM    2  C2  UNL     1     -34.588  15.302  -5.193  1.00 20.00    -0.083 C 
HETATM    3  C4  UNL     1     -33.475  16.410  -3.225  1.00 20.00     0.032 C 
HETATM    4  C5  UNL     1     -35.861  15.029  -4.400  1.00 20.00     0.021 C 
HETATM    5  C6  UNL     1     -35.948  15.848  -3.084  1.00 20.00     0.066 C 
HETATM    6  C7  UNL     1     -34.595  15.827  -2.348  1.00 20.00    -0.003 C 
HETATM    7  C8  UNL     1     -34.514  14.787  -6.605  1.00 20.00     0.043 C 
HETATM    8  C10 UNL     1     -37.146  15.180  -5.228  1.00 20.00     0.015 C 
HETATM    9  C11 UNL     1     -34.644  16.528  -0.990  1.00 20.00     0.011 C 
ENDROOT
BRANCH   5  10
HETATM   10  C3  UNL     1     -36.399  17.266  -3.329  1.00 20.00     0.128 C 
HETATM   11  C9  UNL     1     -37.676  17.694  -2.656  1.00 20.00     0.091 C 
HETATM   12  O12 UNL     1     -35.755  18.034  -4.040  1.00 20.00    -0.298 OA
ENDBRANCH   5  10
TORSDOF 1
ENDMDL
