MODEL 1
REMARK VINA RESULT:      -4.8      0.000      0.000
REMARK  1 active torsions:
REMARK  status: ('A' for Active; 'I' for Inactive)
REMARK    1  A    between atoms: C2_2  and  C3_3 
ROOT
HETATM    1  C1  UNL     1     -33.875  16.231  -3.289  1.00 20.00     0.050 C 
HETATM    2  C2  UNL     1     -33.607  15.352  -4.259  1.00 20.00     0.082 C 
HETATM    3  C4  UNL     1     -34.459  15.893  -1.957  1.00 20.00     0.071 C 
HETATM    4  C5  UNL     1     -34.010  18.189  -2.200  1.00 20.00     0.179 C 
HETATM    5  C6  UNL     1     -33.995  17.089  -1.152  1.00 20.00     0.012 C 
HETATM    6  C8  UNL     1     -34.858  17.389   0.060  1.00 20.00     0.012 C 
HETATM    7  O10 UNL     1     -33.564  17.579  -3.421  1.00 20.00    -0.355 OA
ENDROOT
BRANCH   2   8
HETATM    8  C3  UNL     1     -33.884  13.903  -4.070  1.00 20.00     0.147 C 
HETATM    9  C7  UNL     1     -35.255  13.419  -4.461  1.00 20.00     0.096 C 
HETATM   10  O9  UNL     1     -33.034  13.125  -3.639  1.00 20.00    -0.294 OA
ENDBRANCH   2   8
TORSDOF 1
ENDMDL
MODEL 2
REMARK VINA RESULT:      -4.1      1.253      1.427
REMARK  1 active torsions:
REMARK  status: ('A' for Active; 'I' for Inactive)
REMARK    1  A    between atoms: C2_2  and  C3_3 
ROOT
HETATM    1  C1  UNL     1     -35.027  16.012  -3.416  1.00 20.00     0.050 C 
HETATM    2  C2  UNL     1     -34.873  15.137  -4.415  1.00 20.00     0.082 C 
HETATM    3  C4  UNL     1     -34.781  15.722  -1.972  1.00 20.00     0.071 C 
HETATM    4  C5  UNL     1     -35.464  17.941  -2.355  1.00 20.00     0.179 C 
HETATM    5  C6  UNL     1     -34.548  17.128  -1.456  1.00 20.00     0.012 C 
HETATM    6  C8  UNL     1     -34.838  17.297   0.024  1.00 20.00     0.012 C 
HETATM    7  O10 UNL     1     -35.386  17.333  -3.654  1.00 20.00    -0.355 OA
ENDROOT
BRANCH   2   8
HETATM    8  C3  UNL     1     -34.422  13.746  -4.145  1.00 20.00     0.147 C 
HETATM    9  C7  UNL     1     -33.003  13.574  -3.673  1.00 20.00     0.096 C 
HETATM   10  O9  UNL     1     -35.171  12.779  -4.274  1.00 20.00    -0.294 OA
ENDBRANCH   2   8
TORSDOF 1
ENDMDL
MODEL 3
REMARK VINA RESULT:      -4.1     10.931     12.008
REMARK  1 active torsions:
REMARK  status: ('A' for Active; 'I' for Inactive)
REMARK    1  A    between atoms: C2_2  and  C3_3 
ROOT
HETATM    1  C1  UNL     1     -33.602   5.981   3.340  1.00 20.00     0.050 C 
HETATM    2  C2  UNL     1     -32.940   6.613   2.366  1.00 20.00     0.082 C 
HETATM    3  C4  UNL     1     -33.521   6.313   4.793  1.00 20.00     0.071 C 
HETATM    4  C5  UNL     1     -34.989   4.530   4.345  1.00 20.00     0.179 C 
HETATM    5  C6  UNL     1     -34.831   5.722   5.274  1.00 20.00     0.012 C 
HETATM    6  C8  UNL     1     -34.838   5.354   6.746  1.00 20.00     0.012 C 
HETATM    7  O10 UNL     1     -34.502   4.959   3.064  1.00 20.00    -0.355 OA
ENDROOT
BRANCH   2   8
HETATM    8  C3  UNL     1     -32.033   7.749   2.677  1.00 20.00     0.147 C 
HETATM    9  C7  UNL     1     -32.161   8.975   1.812  1.00 20.00     0.096 C 
HETATM   10  O9  UNL     1     -31.231   7.710   3.609  1.00 20.00    -0.294 OA
ENDBRANCH   2   8
TORSDOF 1
ENDMDL
MODEL 4
REMARK VINA RESULT:      -4.0      2.095      3.462
REMARK  1 active torsions:
REMARK  status: ('A' for Active; 'I' for Inactive)
REMARK    1  A    between atoms: C2_2  and  C3_3 
ROOT
HETATM    1  C1  UNL     1     -33.637  16.198  -4.502  1.00 20.00     0.050 C 
HETATM    2  C2  UNL     1     -33.528  15.288  -3.529  1.00 20.00     0.082 C 
HETATM    3  C4  UNL     1     -34.024  15.907  -5.914  1.00 20.00     0.071 C 
HETATM    4  C5  UNL     1     -33.632  18.194  -5.528  1.00 20.00     0.179 C 
HETATM    5  C6  UNL     1     -34.527  17.272  -6.338  1.00 20.00     0.012 C 
HETATM    6  C8  UNL     1     -34.461  17.516  -7.834  1.00 20.00     0.012 C 
HETATM    7  O10 UNL     1     -33.449  17.553  -4.256  1.00 20.00    -0.355 OA
ENDROOT
BRANCH   2   8
HETATM    8  C3  UNL     1     -33.800  13.851  -3.798  1.00 20.00     0.147 C 
HETATM    9  C7  UNL     1     -35.229  13.475  -4.088  1.00 20.00     0.096 C 
HETATM   10  O9  UNL     1     -32.906  13.007  -3.809  1.00 20.00    -0.294 OA
ENDBRANCH   2   8
TORSDOF 1
ENDMDL
MODEL 5
REMARK VINA RESULT:      -3.9      2.670      3.109
REMARK  1 active torsions:
REMARK  status: ('A' for Active; 'I' for Inactive)
REMARK    1  A    between atoms: C2_2  and  C3_3 
ROOT
HETATM    1  C1  UNL     1     -35.434  15.300  -3.988  1.00 20.00     0.050 C 
HETATM    2  C2  UNL     1     -36.345  14.747  -4.794  1.00 20.00     0.082 C 
HETATM    3  C4  UNL     1     -35.738  16.125  -2.782  1.00 20.00     0.071 C 
HETATM    4  C5  UNL     1     -33.429  15.850  -3.141  1.00 20.00     0.179 C 
HETATM    5  C6  UNL     1     -34.442  15.960  -2.014  1.00 20.00     0.012 C 
HETATM    6  C8  UNL     1     -34.153  17.090  -1.043  1.00 20.00     0.012 C 
HETATM    7  O10 UNL     1     -34.073  15.094  -4.179  1.00 20.00    -0.355 OA
ENDROOT
BRANCH   2   8
HETATM    8  C3  UNL     1     -37.798  14.923  -4.532  1.00 20.00     0.147 C 
HETATM    9  C7  UNL     1     -38.498  16.015  -5.297  1.00 20.00     0.096 C 
HETATM   10  O9  UNL     1     -38.413  14.201  -3.748  1.00 20.00    -0.294 OA
ENDBRANCH   2   8
TORSDOF 1
ENDMDL
MODEL 6
REMARK VINA RESULT:      -3.8     12.580     14.329
REMARK  1 active torsions:
REMARK  status: ('A' for Active; 'I' for Inactive)
REMARK    1  A    between atoms: C2_2  and  C3_3 
ROOT
HETATM    1  C1  UNL     1     -42.613   4.427  -2.771  1.00 20.00     0.050 C 
HETATM    2  C2  UNL     1     -43.003   3.408  -3.542  1.00 20.00     0.082 C 
HETATM    3  C4  UNL     1     -41.753   4.308  -1.556  1.00 20.00     0.071 C 
HETATM    4  C5  UNL     1     -42.364   6.530  -2.027  1.00 20.00     0.179 C 
HETATM    5  C6  UNL     1     -41.202   5.717  -1.481  1.00 20.00     0.012 C 
HETATM    6  C8  UNL     1     -40.765   6.136  -0.090  1.00 20.00     0.012 C 
HETATM    7  O10 UNL     1     -42.939   5.742  -3.081  1.00 20.00    -0.355 OA
ENDROOT
BRANCH   2   8
HETATM    8  C3  UNL     1     -42.586   2.015  -3.231  1.00 20.00     0.147 C 
HETATM    9  C7  UNL     1     -41.375   1.492  -3.956  1.00 20.00     0.096 C 
HETATM   10  O9  UNL     1     -43.180   1.324  -2.405  1.00 20.00    -0.294 OA
ENDBRANCH   2   8
TORSDOF 1
ENDMDL
MODEL 7
REMARK VINA RESULT:      -3.8      1.552      4.644
REMARK  1 active torsions:
REMARK  status: ('A' for Active; 'I' for Inactive)
REMARK    1  A    between atoms: C2_2  and  C3_3 
ROOT
HETATM    1  C1  UNL     1     -34.651  15.029  -3.469  1.00 20.00     0.050 C 
HETATM    2  C2  UNL     1     -34.461  15.757  -2.364  1.00 20.00     0.082 C 
HETATM    3  C4  UNL     1     -35.061  15.570  -4.798  1.00 20.00     0.071 C 
HETATM    4  C5  UNL     1     -34.741  13.240  -4.822  1.00 20.00     0.179 C 
HETATM    5  C6  UNL     1     -34.557  14.464  -5.702  1.00 20.00     0.012 C 
HETATM    6  C8  UNL     1     -35.285  14.374  -7.031  1.00 20.00     0.012 C 
HETATM    7  O10 UNL     1     -34.414  13.659  -3.487  1.00 20.00    -0.355 OA
ENDROOT
BRANCH   2   8
HETATM    8  C3  UNL     1     -34.653  17.232  -2.384  1.00 20.00     0.147 C 
HETATM    9  C7  UNL     1     -36.011  17.743  -1.983  1.00 20.00     0.096 C 
HETATM   10  O9  UNL     1     -33.746  18.005  -2.689  1.00 20.00    -0.294 OA
ENDBRANCH   2   8
TORSDOF 1
ENDMDL
MODEL 8
REMARK VINA RESULT:      -3.8      1.725      4.447
REMARK  1 active torsions:
REMARK  status: ('A' for Active; 'I' for Inactive)
REMARK    1  A    between atoms: C2_2  and  C3_3 
ROOT
HETATM    1  C1  UNL     1     -34.321  15.160  -4.048  1.00 20.00     0.050 C 
HETATM    2  C2  UNL     1     -33.549  15.583  -3.042  1.00 20.00     0.082 C 
HETATM    3  C4  UNL     1     -35.579  15.821  -4.506  1.00 20.00     0.071 C 
HETATM    4  C5  UNL     1     -35.039  13.912  -5.771  1.00 20.00     0.179 C 
HETATM    5  C6  UNL     1     -35.656  15.292  -5.923  1.00 20.00     0.012 C 
HETATM    6  C8  UNL     1     -37.060  15.273  -6.499  1.00 20.00     0.012 C 
HETATM    7  O10 UNL     1     -33.972  14.059  -4.820  1.00 20.00    -0.355 OA
ENDROOT
BRANCH   2   8
HETATM    8  C3  UNL     1     -33.906  16.804  -2.272  1.00 20.00     0.147 C 
HETATM    9  C7  UNL     1     -34.604  16.594  -0.955  1.00 20.00     0.096 C 
HETATM   10  O9  UNL     1     -33.628  17.933  -2.671  1.00 20.00    -0.294 OA
ENDBRANCH   2   8
TORSDOF 1
ENDMDL
MODEL 9
REMARK VINA RESULT:      -3.6      2.007      4.397
REMARK  1 active torsions:
REMARK  status: ('A' for Active; 'I' for Inactive)
REMARK    1  A    between atoms: C2_2  and  C3_3 
ROOT
HETATM    1  C1  UNL     1     -35.308  16.702  -2.673  1.00 20.00     0.050 C 
HETATM    2  C2  UNL     1     -35.400  17.649  -1.735  1.00 20.00     0.082 C 
HETATM    3  C4  UNL     1     -34.430  15.497  -2.598  1.00 20.00     0.071 C 
HETATM    4  C5  UNL     1     -35.705  15.575  -4.574  1.00 20.00     0.179 C 
HETATM    5  C6  UNL     1     -35.152  14.582  -3.566  1.00 20.00     0.012 C 
HETATM    6  C8  UNL     1     -34.267  13.515  -4.183  1.00 20.00     0.012 C 
HETATM    7  O10 UNL     1     -36.098  16.731  -3.816  1.00 20.00    -0.355 OA
ENDROOT
BRANCH   2   8
HETATM    8  C3  UNL     1     -34.595  17.564  -0.487  1.00 20.00     0.147 C 
HETATM    9  C7  UNL     1     -33.224  18.185  -0.521  1.00 20.00     0.096 C 
HETATM   10  O9  UNL     1     -35.028  17.035   0.535  1.00 20.00    -0.294 OA
ENDBRANCH   2   8
TORSDOF 1
ENDMDL
