MODEL 1
REMARK VINA RESULT:      -4.5      0.000      0.000
REMARK  2 active torsions:
REMARK  status: ('A' for Active; 'I' for Inactive)
REMARK    1  A    between atoms: C7_7  and  O11_11 
REMARK    2  A    between atoms: C10_10  and  O11_11 
ROOT
HETATM    1  C1  UNL     1     -34.634  15.896  -5.071  1.00 20.00    -0.019 C 
HETATM    2  C2  UNL     1     -33.331  16.005  -4.744  1.00 20.00    -0.019 C 
HETATM    3  C3  UNL     1     -34.690  13.630  -4.109  1.00 20.00    -0.019 C 
HETATM    4  C4  UNL     1     -33.384  13.739  -3.781  1.00 20.00    -0.019 C 
HETATM    5  C5  UNL     1     -35.289  15.025  -4.010  1.00 20.00     0.060 C 
HETATM    6  C6  UNL     1     -33.126  15.205  -3.466  1.00 20.00     0.060 C 
HETATM    7  C7  UNL     1     -34.477  15.489  -2.788  1.00 20.00     0.144 C 
ENDROOT
BRANCH   7   8
HETATM    8  O11 UNL     1     -34.688  16.846  -2.441  1.00 20.00    -0.379 OA
BRANCH   8   9
HETATM    9  C10 UNL     1     -33.939  17.217  -1.289  1.00 20.00     0.114 C 
HETATM   10  C8  UNL     1     -33.404  18.629  -1.475  1.00 20.00     0.039 C 
HETATM   11  C9  UNL     1     -34.825  17.104  -0.059  1.00 20.00     0.039 C 
ENDBRANCH   8   9
ENDBRANCH   7   8
TORSDOF 2
ENDMDL
MODEL 2
REMARK VINA RESULT:      -4.5      2.010      4.249
REMARK  2 active torsions:
REMARK  status: ('A' for Active; 'I' for Inactive)
REMARK    1  A    between atoms: C7_7  and  O11_11 
REMARK    2  A    between atoms: C10_10  and  O11_11 
ROOT
HETATM    1  C1  UNL     1     -34.571  13.413  -3.766  1.00 20.00    -0.019 C 
HETATM    2  C2  UNL     1     -33.274  13.778  -3.705  1.00 20.00    -0.019 C 
HETATM    3  C3  UNL     1     -35.233  15.614  -2.884  1.00 20.00    -0.019 C 
HETATM    4  C4  UNL     1     -33.935  15.979  -2.824  1.00 20.00    -0.019 C 
HETATM    5  C5  UNL     1     -35.372  14.669  -4.068  1.00 20.00     0.060 C 
HETATM    6  C6  UNL     1     -33.221  15.275  -3.967  1.00 20.00     0.060 C 
HETATM    7  C7  UNL     1     -34.365  15.378  -4.990  1.00 20.00     0.144 C 
ENDROOT
BRANCH   7   8
HETATM    8  O11 UNL     1     -34.129  14.699  -6.209  1.00 20.00    -0.379 OA
BRANCH   8   9
HETATM    9  C10 UNL     1     -34.651  15.417  -7.322  1.00 20.00     0.114 C 
HETATM   10  C8  UNL     1     -35.962  14.782  -7.757  1.00 20.00     0.039 C 
HETATM   11  C9  UNL     1     -34.828  16.877  -6.936  1.00 20.00     0.039 C 
ENDBRANCH   8   9
ENDBRANCH   7   8
TORSDOF 2
ENDMDL
MODEL 3
REMARK VINA RESULT:      -4.4      1.139      2.086
REMARK  2 active torsions:
REMARK  status: ('A' for Active; 'I' for Inactive)
REMARK    1  A    between atoms: C7_7  and  O11_11 
REMARK    2  A    between atoms: C10_10  and  O11_11 
ROOT
HETATM    1  C1  UNL     1     -32.703  14.818  -3.795  1.00 20.00    -0.019 C 
HETATM    2  C2  UNL     1     -33.444  13.694  -3.715  1.00 20.00    -0.019 C 
HETATM    3  C3  UNL     1     -34.007  15.540  -5.755  1.00 20.00    -0.019 C 
HETATM    4  C4  UNL     1     -34.748  14.415  -5.675  1.00 20.00    -0.019 C 
HETATM    5  C5  UNL     1     -33.613  15.912  -4.333  1.00 20.00     0.060 C 
HETATM    6  C6  UNL     1     -34.841  14.046  -4.202  1.00 20.00     0.060 C 
HETATM    7  C7  UNL     1     -34.927  15.483  -3.659  1.00 20.00     0.144 C 
ENDROOT
BRANCH   7   8
HETATM    8  O11 UNL     1     -34.904  15.580  -2.246  1.00 20.00    -0.379 OA
BRANCH   8   9
HETATM    9  C10 UNL     1     -34.915  16.936  -1.812  1.00 20.00     0.114 C 
HETATM   10  C8  UNL     1     -36.234  17.578  -2.212  1.00 20.00     0.039 C 
HETATM   11  C9  UNL     1     -34.696  16.981  -0.308  1.00 20.00     0.039 C 
ENDBRANCH   8   9
ENDBRANCH   7   8
TORSDOF 2
ENDMDL
MODEL 4
REMARK VINA RESULT:      -4.3      1.532      3.528
REMARK  2 active torsions:
REMARK  status: ('A' for Active; 'I' for Inactive)
REMARK    1  A    between atoms: C7_7  and  O11_11 
REMARK    2  A    between atoms: C10_10  and  O11_11 
ROOT
HETATM    1  C1  UNL     1     -33.789  16.196  -2.485  1.00 20.00    -0.019 C 
HETATM    2  C2  UNL     1     -35.046  15.722  -2.387  1.00 20.00    -0.019 C 
HETATM    3  C3  UNL     1     -33.119  14.171  -3.716  1.00 20.00    -0.019 C 
HETATM    4  C4  UNL     1     -34.379  13.696  -3.617  1.00 20.00    -0.019 C 
HETATM    5  C5  UNL     1     -33.223  15.687  -3.802  1.00 20.00     0.060 C 
HETATM    6  C6  UNL     1     -35.311  14.898  -3.638  1.00 20.00     0.060 C 
HETATM    7  C7  UNL     1     -34.507  15.735  -4.648  1.00 20.00     0.144 C 
ENDROOT
BRANCH   7   8
HETATM    8  O11 UNL     1     -35.006  17.044  -4.856  1.00 20.00    -0.379 OA
BRANCH   8   9
HETATM    9  C10 UNL     1     -34.816  17.472  -6.201  1.00 20.00     0.114 C 
HETATM   10  C8  UNL     1     -33.702  18.507  -6.243  1.00 20.00     0.039 C 
HETATM   11  C9  UNL     1     -34.500  16.265  -7.070  1.00 20.00     0.039 C 
ENDBRANCH   8   9
ENDBRANCH   7   8
TORSDOF 2
ENDMDL
MODEL 5
REMARK VINA RESULT:      -4.3     12.463     14.473
REMARK  2 active torsions:
REMARK  status: ('A' for Active; 'I' for Inactive)
REMARK    1  A    between atoms: C7_7  and  O11_11 
REMARK    2  A    between atoms: C10_10  and  O11_11 
ROOT
HETATM    1  C1  UNL     1     -40.652   5.764  -0.336  1.00 20.00    -0.019 C 
HETATM    2  C2  UNL     1     -41.229   6.556  -1.262  1.00 20.00    -0.019 C 
HETATM    3  C3  UNL     1     -42.828   5.481   0.781  1.00 20.00    -0.019 C 
HETATM    4  C4  UNL     1     -43.406   6.274  -0.147  1.00 20.00    -0.019 C 
HETATM    5  C5  UNL     1     -41.695   4.740   0.086  1.00 20.00     0.060 C 
HETATM    6  C6  UNL     1     -42.653   6.056  -1.450  1.00 20.00     0.060 C 
HETATM    7  C7  UNL     1     -42.402   4.549  -1.267  1.00 20.00     0.144 C 
ENDROOT
BRANCH   7   8
HETATM    8  O11 UNL     1     -41.583   3.963  -2.263  1.00 20.00    -0.379 OA
BRANCH   8   9
HETATM    9  C10 UNL     1     -42.306   3.028  -3.056  1.00 20.00     0.114 C 
HETATM   10  C8  UNL     1     -41.333   2.029  -3.663  1.00 20.00     0.039 C 
HETATM   11  C9  UNL     1     -43.354   2.345  -2.192  1.00 20.00     0.039 C 
ENDBRANCH   8   9
ENDBRANCH   7   8
TORSDOF 2
ENDMDL
MODEL 6
REMARK VINA RESULT:      -4.3      1.465      3.899
REMARK  2 active torsions:
REMARK  status: ('A' for Active; 'I' for Inactive)
REMARK    1  A    between atoms: C7_7  and  O11_11 
REMARK    2  A    between atoms: C10_10  and  O11_11 
ROOT
HETATM    1  C1  UNL     1     -34.980  18.114  -3.216  1.00 20.00    -0.019 C 
HETATM    2  C2  UNL     1     -35.989  17.351  -2.748  1.00 20.00    -0.019 C 
HETATM    3  C3  UNL     1     -33.596  17.472  -1.283  1.00 20.00    -0.019 C 
HETATM    4  C4  UNL     1     -34.607  16.708  -0.815  1.00 20.00    -0.019 C 
HETATM    5  C5  UNL     1     -33.682  17.438  -2.801  1.00 20.00     0.060 C 
HETATM    6  C6  UNL     1     -35.356  16.172  -2.025  1.00 20.00     0.060 C 
HETATM    7  C7  UNL     1     -34.127  15.971  -2.928  1.00 20.00     0.144 C 
ENDROOT
BRANCH   7   8
HETATM    8  O11 UNL     1     -34.429  15.577  -4.255  1.00 20.00    -0.379 OA
BRANCH   8   9
HETATM    9  C10 UNL     1     -34.023  14.236  -4.511  1.00 20.00     0.114 C 
HETATM   10  C8  UNL     1     -32.906  13.860  -3.550  1.00 20.00     0.039 C 
HETATM   11  C9  UNL     1     -35.225  13.315  -4.372  1.00 20.00     0.039 C 
ENDBRANCH   8   9
ENDBRANCH   7   8
TORSDOF 2
ENDMDL
MODEL 7
REMARK VINA RESULT:      -4.3      1.624      3.722
REMARK  2 active torsions:
REMARK  status: ('A' for Active; 'I' for Inactive)
REMARK    1  A    between atoms: C7_7  and  O11_11 
REMARK    2  A    between atoms: C10_10  and  O11_11 
ROOT
HETATM    1  C1  UNL     1     -33.758  16.005  -2.587  1.00 20.00    -0.019 C 
HETATM    2  C2  UNL     1     -35.075  15.718  -2.598  1.00 20.00    -0.019 C 
HETATM    3  C3  UNL     1     -33.283  13.881  -3.738  1.00 20.00    -0.019 C 
HETATM    4  C4  UNL     1     -34.603  13.594  -3.749  1.00 20.00    -0.019 C 
HETATM    5  C5  UNL     1     -33.160  15.394  -3.845  1.00 20.00     0.060 C 
HETATM    6  C6  UNL     1     -35.345  14.916  -3.861  1.00 20.00     0.060 C 
HETATM    7  C7  UNL     1     -34.344  15.610  -4.801  1.00 20.00     0.144 C 
ENDROOT
BRANCH   7   8
HETATM    8  O11 UNL     1     -34.629  16.972  -5.062  1.00 20.00    -0.379 OA
BRANCH   8   9
HETATM    9  C10 UNL     1     -35.024  17.178  -6.415  1.00 20.00     0.114 C 
HETATM   10  C8  UNL     1     -34.520  16.021  -7.264  1.00 20.00     0.039 C 
HETATM   11  C9  UNL     1     -36.537  17.310  -6.479  1.00 20.00     0.039 C 
ENDBRANCH   8   9
ENDBRANCH   7   8
TORSDOF 2
ENDMDL
MODEL 8
REMARK VINA RESULT:      -4.2      0.748      2.040
REMARK  2 active torsions:
REMARK  status: ('A' for Active; 'I' for Inactive)
REMARK    1  A    between atoms: C7_7  and  O11_11 
REMARK    2  A    between atoms: C10_10  and  O11_11 
ROOT
HETATM    1  C1  UNL     1     -34.147  14.198  -3.454  1.00 20.00    -0.019 C 
HETATM    2  C2  UNL     1     -35.419  14.579  -3.681  1.00 20.00    -0.019 C 
HETATM    3  C3  UNL     1     -33.340  16.017  -4.904  1.00 20.00    -0.019 C 
HETATM    4  C4  UNL     1     -34.615  16.398  -5.132  1.00 20.00    -0.019 C 
HETATM    5  C5  UNL     1     -33.292  15.456  -3.491  1.00 20.00     0.060 C 
HETATM    6  C6  UNL     1     -35.405  16.088  -3.869  1.00 20.00     0.060 C 
HETATM    7  C7  UNL     1     -34.294  16.442  -2.866  1.00 20.00     0.144 C 
ENDROOT
BRANCH   7   8
HETATM    8  O11 UNL     1     -34.608  16.159  -1.515  1.00 20.00    -0.379 OA
BRANCH   8   9
HETATM    9  C10 UNL     1     -34.080  17.145  -0.634  1.00 20.00     0.114 C 
HETATM   10  C8  UNL     1     -33.798  18.417  -1.418  1.00 20.00     0.039 C 
HETATM   11  C9  UNL     1     -35.066  17.384   0.499  1.00 20.00     0.039 C 
ENDBRANCH   8   9
ENDBRANCH   7   8
TORSDOF 2
ENDMDL
MODEL 9
REMARK VINA RESULT:      -4.2      1.982      3.370
REMARK  2 active torsions:
REMARK  status: ('A' for Active; 'I' for Inactive)
REMARK    1  A    between atoms: C7_7  and  O11_11 
REMARK    2  A    between atoms: C10_10  and  O11_11 
ROOT
HETATM    1  C1  UNL     1     -35.419  17.131  -6.534  1.00 20.00    -0.019 C 
HETATM    2  C2  UNL     1     -34.508  16.701  -7.430  1.00 20.00    -0.019 C 
HETATM    3  C3  UNL     1     -36.522  14.930  -6.597  1.00 20.00    -0.019 C 
HETATM    4  C4  UNL     1     -35.610  14.500  -7.494  1.00 20.00    -0.019 C 
HETATM    5  C5  UNL     1     -35.816  15.928  -5.691  1.00 20.00     0.060 C 
HETATM    6  C6  UNL     1     -34.305  15.215  -7.179  1.00 20.00     0.060 C 
HETATM    7  C7  UNL     1     -34.457  15.209  -5.648  1.00 20.00     0.144 C 
ENDROOT
BRANCH   7   8
HETATM    8  O11 UNL     1     -33.452  15.925  -4.953  1.00 20.00    -0.379 OA
BRANCH   8   9
HETATM    9  C10 UNL     1     -33.121  15.302  -3.717  1.00 20.00     0.114 C 
HETATM   10  C8  UNL     1     -33.855  16.009  -2.588  1.00 20.00     0.039 C 
HETATM   11  C9  UNL     1     -33.479  13.826  -3.789  1.00 20.00     0.039 C 
ENDBRANCH   8   9
ENDBRANCH   7   8
TORSDOF 2
ENDMDL
