MODEL 1
REMARK VINA RESULT:      -4.9      0.000      0.000
REMARK  2 active torsions:
REMARK  status: ('A' for Active; 'I' for Inactive)
REMARK    1  A    between atoms: C1_1  and  C6_6 
REMARK    2  A    between atoms: C7_7  and  C8_8 
ROOT
HETATM    1  C2  UNL     1     -36.047  14.993  -3.635  1.00 20.00     0.014 C 
HETATM    2  C3  UNL     1     -33.526  14.944  -3.761  1.00 20.00     0.014 C 
HETATM    3  C4  UNL     1     -35.975  16.126  -2.613  1.00 20.00     0.008 C 
HETATM    4  C5  UNL     1     -33.450  16.076  -2.738  1.00 20.00     0.008 C 
HETATM    5  C6  UNL     1     -34.827  14.999  -4.551  1.00 20.00     0.072 C 
HETATM    6  C7  UNL     1     -34.670  16.080  -1.806  1.00 20.00     0.014 C 
ENDROOT
BRANCH   5   7
HETATM    7  C1  UNL     1     -34.896  13.755  -5.415  1.00 20.00     0.223 C 
HETATM    8  O9  UNL     1     -34.735  12.632  -4.944  1.00 20.00    -0.279 OA
HETATM    9 CL11 UNL     1     -35.216  14.132  -7.080  1.00 20.00    -0.043 Cl
ENDBRANCH   5   7
BRANCH   6  10
HETATM   10  C8  UNL     1     -34.599  17.250  -0.828  1.00 20.00     0.226 C 
HETATM   11  F10 UNL     1     -34.943  16.794   0.400  1.00 20.00    -0.255 F 
ENDBRANCH   6  10
TORSDOF 2
ENDMDL
MODEL 2
REMARK VINA RESULT:      -4.7      1.514      1.880
REMARK  2 active torsions:
REMARK  status: ('A' for Active; 'I' for Inactive)
REMARK    1  A    between atoms: C1_1  and  C6_6 
REMARK    2  A    between atoms: C7_7  and  C8_8 
ROOT
HETATM    1  C2  UNL     1     -34.028  16.068  -5.219  1.00 20.00     0.014 C 
HETATM    2  C3  UNL     1     -34.677  14.958  -3.046  1.00 20.00     0.014 C 
HETATM    3  C4  UNL     1     -33.479  17.265  -4.445  1.00 20.00     0.008 C 
HETATM    4  C5  UNL     1     -34.130  16.154  -2.269  1.00 20.00     0.008 C 
HETATM    5  C6  UNL     1     -33.963  14.795  -4.382  1.00 20.00     0.072 C 
HETATM    6  C7  UNL     1     -34.192  17.444  -3.098  1.00 20.00     0.014 C 
ENDROOT
BRANCH   5   7
HETATM    7  C1  UNL     1     -34.675  13.701  -5.155  1.00 20.00     0.223 C 
HETATM    8  O9  UNL     1     -34.856  12.585  -4.676  1.00 20.00    -0.279 OA
HETATM    9 CL11 UNL     1     -35.168  14.231  -6.734  1.00 20.00    -0.043 Cl
ENDBRANCH   5   7
BRANCH   6  10
HETATM   10  C8  UNL     1     -33.592  18.615  -2.322  1.00 20.00     0.226 C 
HETATM   11  F10 UNL     1     -33.080  18.133  -1.164  1.00 20.00    -0.255 F 
ENDBRANCH   6  10
TORSDOF 2
ENDMDL
MODEL 3
REMARK VINA RESULT:      -4.5      3.870      4.848
REMARK  2 active torsions:
REMARK  status: ('A' for Active; 'I' for Inactive)
REMARK    1  A    between atoms: C1_1  and  C6_6 
REMARK    2  A    between atoms: C7_7  and  C8_8 
ROOT
HETATM    1  C2  UNL     1     -34.894  15.546  -2.353  1.00 20.00     0.014 C 
HETATM    2  C3  UNL     1     -33.631  17.133  -3.856  1.00 20.00     0.014 C 
HETATM    3  C4  UNL     1     -34.963  14.525  -3.487  1.00 20.00     0.008 C 
HETATM    4  C5  UNL     1     -33.699  16.115  -4.993  1.00 20.00     0.008 C 
HETATM    5  C6  UNL     1     -33.672  16.447  -2.497  1.00 20.00     0.072 C 
HETATM    6  C7  UNL     1     -34.927  15.204  -4.864  1.00 20.00     0.014 C 
ENDROOT
BRANCH   5   7
HETATM    7  C1  UNL     1     -33.771  17.528  -1.438  1.00 20.00     0.223 C 
HETATM    8  O9  UNL     1     -33.196  18.605  -1.558  1.00 20.00    -0.279 OA
HETATM    9 CL11 UNL     1     -34.765  17.042  -0.098  1.00 20.00    -0.043 Cl
ENDBRANCH   5   7
BRANCH   6  10
HETATM   10  C8  UNL     1     -34.946  14.160  -5.979  1.00 20.00     0.226 C 
HETATM   11  F10 UNL     1     -34.865  12.934  -5.409  1.00 20.00    -0.255 F 
ENDBRANCH   6  10
TORSDOF 2
ENDMDL
MODEL 4
REMARK VINA RESULT:      -4.5      1.270      1.358
REMARK  2 active torsions:
REMARK  status: ('A' for Active; 'I' for Inactive)
REMARK    1  A    between atoms: C1_1  and  C6_6 
REMARK    2  A    between atoms: C7_7  and  C8_8 
ROOT
HETATM    1  C2  UNL     1     -34.852  14.731  -3.118  1.00 20.00     0.014 C 
HETATM    2  C3  UNL     1     -33.768  16.261  -4.808  1.00 20.00     0.014 C 
HETATM    3  C4  UNL     1     -34.850  15.861  -2.091  1.00 20.00     0.008 C 
HETATM    4  C5  UNL     1     -33.763  17.393  -3.783  1.00 20.00     0.008 C 
HETATM    5  C6  UNL     1     -34.901  15.279  -4.540  1.00 20.00     0.072 C 
HETATM    6  C7  UNL     1     -33.709  16.857  -2.347  1.00 20.00     0.014 C 
ENDROOT
BRANCH   5   7
HETATM    7  C1  UNL     1     -34.731  14.108  -5.489  1.00 20.00     0.223 C 
HETATM    8  O9  UNL     1     -34.789  12.946  -5.098  1.00 20.00    -0.279 OA
HETATM    9 CL11 UNL     1     -34.455  14.627  -7.125  1.00 20.00    -0.043 Cl
ENDBRANCH   5   7
BRANCH   6  10
HETATM   10  C8  UNL     1     -33.759  18.003  -1.339  1.00 20.00     0.226 C 
HETATM   11  F10 UNL     1     -32.758  17.821  -0.445  1.00 20.00    -0.255 F 
ENDBRANCH   6  10
TORSDOF 2
ENDMDL
MODEL 5
REMARK VINA RESULT:      -4.3      3.909      4.887
REMARK  2 active torsions:
REMARK  status: ('A' for Active; 'I' for Inactive)
REMARK    1  A    between atoms: C1_1  and  C6_6 
REMARK    2  A    between atoms: C7_7  and  C8_8 
ROOT
HETATM    1  C2  UNL     1     -34.709  15.200  -2.991  1.00 20.00     0.014 C 
HETATM    2  C3  UNL     1     -33.700  17.332  -3.890  1.00 20.00     0.014 C 
HETATM    3  C4  UNL     1     -34.562  14.549  -4.365  1.00 20.00     0.008 C 
HETATM    4  C5  UNL     1     -33.552  16.685  -5.266  1.00 20.00     0.008 C 
HETATM    5  C6  UNL     1     -33.662  16.288  -2.782  1.00 20.00     0.072 C 
HETATM    6  C7  UNL     1     -34.604  15.590  -5.492  1.00 20.00     0.014 C 
ENDROOT
BRANCH   5   7
HETATM    7  C1  UNL     1     -33.983  16.989  -1.476  1.00 20.00     0.223 C 
HETATM    8  O9  UNL     1     -34.660  16.453  -0.604  1.00 20.00    -0.279 OA
HETATM    9 CL11 UNL     1     -33.289  18.580  -1.400  1.00 20.00    -0.043 Cl
ENDBRANCH   5   7
BRANCH   6  10
HETATM   10  C8  UNL     1     -34.404  14.922  -6.851  1.00 20.00     0.226 C 
HETATM   11  F10 UNL     1     -35.312  13.923  -6.966  1.00 20.00    -0.255 F 
ENDBRANCH   6  10
TORSDOF 2
ENDMDL
MODEL 6
REMARK VINA RESULT:      -4.3     11.947     12.304
REMARK  2 active torsions:
REMARK  status: ('A' for Active; 'I' for Inactive)
REMARK    1  A    between atoms: C1_1  and  C6_6 
REMARK    2  A    between atoms: C7_7  and  C8_8 
ROOT
HETATM    1  C2  UNL     1     -33.332   5.835   2.923  1.00 20.00     0.014 C 
HETATM    2  C3  UNL     1     -32.955   7.000   5.130  1.00 20.00     0.014 C 
HETATM    3  C4  UNL     1     -34.468   5.023   3.543  1.00 20.00     0.008 C 
HETATM    4  C5  UNL     1     -34.089   6.190   5.755  1.00 20.00     0.008 C 
HETATM    5  C6  UNL     1     -33.162   7.174   3.631  1.00 20.00     0.072 C 
HETATM    6  C7  UNL     1     -34.270   4.836   5.054  1.00 20.00     0.014 C 
ENDROOT
BRANCH   5   7
HETATM    7  C1  UNL     1     -31.919   7.836   3.068  1.00 20.00     0.223 C 
HETATM    8  O9  UNL     1     -30.863   7.866   3.694  1.00 20.00    -0.279 OA
HETATM    9 CL11 UNL     1     -32.195   8.513   1.491  1.00 20.00    -0.043 Cl
ENDBRANCH   5   7
BRANCH   6  10
HETATM   10  C8  UNL     1     -35.442   4.066   5.660  1.00 20.00     0.226 C 
HETATM   11  F10 UNL     1     -35.707   4.595   6.879  1.00 20.00    -0.255 F 
ENDBRANCH   6  10
TORSDOF 2
ENDMDL
MODEL 7
REMARK VINA RESULT:      -4.3      3.594      4.214
REMARK  2 active torsions:
REMARK  status: ('A' for Active; 'I' for Inactive)
REMARK    1  A    between atoms: C1_1  and  C6_6 
REMARK    2  A    between atoms: C7_7  and  C8_8 
ROOT
HETATM    1  C2  UNL     1     -33.613  15.941  -4.027  1.00 20.00     0.014 C 
HETATM    2  C3  UNL     1     -34.441  15.061  -6.244  1.00 20.00     0.014 C 
HETATM    3  C4  UNL     1     -33.758  17.373  -4.540  1.00 20.00     0.008 C 
HETATM    4  C5  UNL     1     -34.586  16.491  -6.761  1.00 20.00     0.008 C 
HETATM    5  C6  UNL     1     -34.590  15.004  -4.729  1.00 20.00     0.072 C 
HETATM    6  C7  UNL     1     -33.606  17.446  -6.066  1.00 20.00     0.014 C 
ENDROOT
BRANCH   5   7
HETATM    7  C1  UNL     1     -34.266  13.589  -4.287  1.00 20.00     0.223 C 
HETATM    8  O9  UNL     1     -35.033  12.655  -4.499  1.00 20.00    -0.279 OA
HETATM    9 CL11 UNL     1     -32.732  13.492  -3.477  1.00 20.00    -0.043 Cl
ENDBRANCH   5   7
BRANCH   6  10
HETATM   10  C8  UNL     1     -33.805  18.878  -6.560  1.00 20.00     0.226 C 
HETATM   11  F10 UNL     1     -33.817  18.858  -7.914  1.00 20.00    -0.255 F 
ENDBRANCH   6  10
TORSDOF 2
ENDMDL
MODEL 8
REMARK VINA RESULT:      -4.3      1.143      1.878
REMARK  2 active torsions:
REMARK  status: ('A' for Active; 'I' for Inactive)
REMARK    1  A    between atoms: C1_1  and  C6_6 
REMARK    2  A    between atoms: C7_7  and  C8_8 
ROOT
HETATM    1  C2  UNL     1     -34.196  15.207  -2.889  1.00 20.00     0.014 C 
HETATM    2  C3  UNL     1     -36.281  15.731  -4.213  1.00 20.00     0.014 C 
HETATM    3  C4  UNL     1     -34.636  16.188  -1.805  1.00 20.00     0.008 C 
HETATM    4  C5  UNL     1     -36.724  16.714  -3.131  1.00 20.00     0.008 C 
HETATM    5  C6  UNL     1     -35.397  14.634  -3.633  1.00 20.00     0.072 C 
HETATM    6  C7  UNL     1     -35.524  17.303  -2.376  1.00 20.00     0.014 C 
ENDROOT
BRANCH   5   7
HETATM    7  C1  UNL     1     -34.869  13.808  -4.791  1.00 20.00     0.223 C 
HETATM    8  O9  UNL     1     -34.799  12.584  -4.732  1.00 20.00    -0.279 OA
HETATM    9 CL11 UNL     1     -34.399  14.797  -6.140  1.00 20.00    -0.043 Cl
ENDBRANCH   5   7
BRANCH   6  10
HETATM   10  C8  UNL     1     -35.993  18.241  -1.265  1.00 20.00     0.226 C 
HETATM   11  F10 UNL     1     -34.968  18.406  -0.395  1.00 20.00    -0.255 F 
ENDBRANCH   6  10
TORSDOF 2
ENDMDL
MODEL 9
REMARK VINA RESULT:      -4.2      3.650      4.555
REMARK  2 active torsions:
REMARK  status: ('A' for Active; 'I' for Inactive)
REMARK    1  A    between atoms: C1_1  and  C6_6 
REMARK    2  A    between atoms: C7_7  and  C8_8 
ROOT
HETATM    1  C2  UNL     1     -35.929  14.653  -3.837  1.00 20.00     0.014 C 
HETATM    2  C3  UNL     1     -34.623  14.510  -5.993  1.00 20.00     0.014 C 
HETATM    3  C4  UNL     1     -37.226  14.795  -4.630  1.00 20.00     0.008 C 
HETATM    4  C5  UNL     1     -35.919  14.653  -6.790  1.00 20.00     0.008 C 
HETATM    5  C6  UNL     1     -34.880  13.880  -4.630  1.00 20.00     0.072 C 
HETATM    6  C7  UNL     1     -36.983  15.432  -6.005  1.00 20.00     0.014 C 
ENDROOT
BRANCH   5   7
HETATM    7  C1  UNL     1     -33.583  13.932  -3.846  1.00 20.00     0.223 C 
HETATM    8  O9  UNL     1     -32.877  12.938  -3.700  1.00 20.00    -0.279 OA
HETATM    9 CL11 UNL     1     -33.260  15.519  -3.218  1.00 20.00    -0.043 Cl
ENDBRANCH   5   7
BRANCH   6  10
HETATM   10  C8  UNL     1     -38.285  15.517  -6.799  1.00 20.00     0.226 C 
HETATM   11  F10 UNL     1     -38.220  14.618  -7.810  1.00 20.00    -0.255 F 
ENDBRANCH   6  10
TORSDOF 2
ENDMDL
