MODEL 1
REMARK VINA RESULT:      -3.6      0.000      0.000
REMARK  3 active torsions:
REMARK  status: ('A' for Active; 'I' for Inactive)
REMARK    1  A    between atoms: C1_1  and  C7_7 
REMARK    2  A    between atoms: C1_1  and  N8_8 
REMARK    3  A    between atoms: C6_6  and  N8_8 
ROOT
HETATM    1  C1  UNL     1     -35.452  15.357  -3.179  1.00 20.00     0.078 C 
HETATM    2  S9  UNL     1     -37.005  14.971  -3.748  1.00 20.00    -0.065 SA
ENDROOT
BRANCH   1   3
HETATM    3  C7  UNL     1     -34.291  14.349  -3.401  1.00 20.00     0.039 C 
HETATM    4  C3  UNL     1     -34.670  13.312  -4.461  1.00 20.00     0.017 C 
HETATM    5  C4  UNL     1     -32.947  15.000  -3.745  1.00 20.00     0.017 C 
ENDBRANCH   1   3
BRANCH   1   6
HETATM    6  N8  UNL     1     -35.146  16.530  -2.465  1.00 20.00    -0.380 N 
HETATM    7  C5  UNL     1     -35.217  17.868  -3.050  1.00 20.00     0.150 C 
BRANCH   6   8
HETATM    8  C6  UNL     1     -34.712  16.521  -1.065  1.00 20.00     0.118 C 
HETATM    9  C2  UNL     1     -33.682  17.568  -0.814  1.00 20.00     0.026 C 
ENDBRANCH   6   8
ENDBRANCH   1   6
TORSDOF 3
ENDMDL
MODEL 2
REMARK VINA RESULT:      -3.5      1.515      3.714
REMARK  3 active torsions:
REMARK  status: ('A' for Active; 'I' for Inactive)
REMARK    1  A    between atoms: C1_1  and  C7_7 
REMARK    2  A    between atoms: C1_1  and  N8_8 
REMARK    3  A    between atoms: C6_6  and  N8_8 
ROOT
HETATM    1  C1  UNL     1     -34.460  16.598  -2.851  1.00 20.00     0.078 C 
HETATM    2  S9  UNL     1     -36.146  16.622  -3.049  1.00 20.00    -0.065 SA
ENDROOT
BRANCH   1   3
HETATM    3  C7  UNL     1     -33.845  17.116  -1.522  1.00 20.00     0.039 C 
HETATM    4  C3  UNL     1     -33.418  18.580  -1.657  1.00 20.00     0.017 C 
HETATM    5  C4  UNL     1     -34.745  16.932  -0.295  1.00 20.00     0.017 C 
ENDBRANCH   1   3
BRANCH   1   6
HETATM    6  N8  UNL     1     -33.558  16.175  -3.845  1.00 20.00    -0.380 N 
HETATM    7  C5  UNL     1     -33.349  16.897  -5.099  1.00 20.00     0.150 C 
BRANCH   6   8
HETATM    8  C6  UNL     1     -32.751  14.958  -3.723  1.00 20.00     0.118 C 
HETATM    9  C2  UNL     1     -33.603  13.737  -3.793  1.00 20.00     0.026 C 
ENDBRANCH   6   8
ENDBRANCH   1   6
TORSDOF 3
ENDMDL
MODEL 3
REMARK VINA RESULT:      -3.5      1.783      1.818
REMARK  3 active torsions:
REMARK  status: ('A' for Active; 'I' for Inactive)
REMARK    1  A    between atoms: C1_1  and  C7_7 
REMARK    2  A    between atoms: C1_1  and  N8_8 
REMARK    3  A    between atoms: C6_6  and  N8_8 
ROOT
HETATM    1  C1  UNL     1     -33.961  16.102  -3.510  1.00 20.00     0.078 C 
HETATM    2  S9  UNL     1     -33.416  16.634  -5.028  1.00 20.00    -0.065 SA
ENDROOT
BRANCH   1   3
HETATM    3  C7  UNL     1     -34.368  14.614  -3.329  1.00 20.00     0.039 C 
HETATM    4  C3  UNL     1     -35.684  14.322  -4.053  1.00 20.00     0.017 C 
HETATM    5  C4  UNL     1     -33.290  13.609  -3.748  1.00 20.00     0.017 C 
ENDBRANCH   1   3
BRANCH   1   6
HETATM    6  N8  UNL     1     -34.116  16.944  -2.393  1.00 20.00    -0.380 N 
HETATM    7  C5  UNL     1     -33.760  18.362  -2.399  1.00 20.00     0.150 C 
BRANCH   6   8
HETATM    8  C6  UNL     1     -34.637  16.473  -1.107  1.00 20.00     0.118 C 
HETATM    9  C2  UNL     1     -34.467  17.506  -0.046  1.00 20.00     0.026 C 
ENDBRANCH   6   8
ENDBRANCH   1   6
TORSDOF 3
ENDMDL
MODEL 4
REMARK VINA RESULT:      -3.4      1.651      3.881
REMARK  3 active torsions:
REMARK  status: ('A' for Active; 'I' for Inactive)
REMARK    1  A    between atoms: C1_1  and  C7_7 
REMARK    2  A    between atoms: C1_1  and  N8_8 
REMARK    3  A    between atoms: C6_6  and  N8_8 
ROOT
HETATM    1  C1  UNL     1     -35.079  15.326  -3.443  1.00 20.00     0.078 C 
HETATM    2  S9  UNL     1     -36.743  15.665  -3.475  1.00 20.00    -0.065 SA
ENDROOT
BRANCH   1   3
HETATM    3  C7  UNL     1     -34.144  16.196  -2.559  1.00 20.00     0.039 C 
HETATM    4  C3  UNL     1     -33.803  17.511  -3.265  1.00 20.00     0.017 C 
HETATM    5  C4  UNL     1     -34.679  16.467  -1.149  1.00 20.00     0.017 C 
ENDBRANCH   1   3
BRANCH   1   6
HETATM    6  N8  UNL     1     -34.469  14.318  -4.212  1.00 20.00    -0.380 N 
HETATM    7  C5  UNL     1     -33.295  13.568  -3.768  1.00 20.00     0.150 C 
BRANCH   6   8
HETATM    8  C6  UNL     1     -34.946  13.933  -5.544  1.00 20.00     0.118 C 
HETATM    9  C2  UNL     1     -34.511  14.917  -6.576  1.00 20.00     0.026 C 
ENDBRANCH   6   8
ENDBRANCH   1   6
TORSDOF 3
ENDMDL
MODEL 5
REMARK VINA RESULT:      -3.4     11.619     12.335
REMARK  3 active torsions:
REMARK  status: ('A' for Active; 'I' for Inactive)
REMARK    1  A    between atoms: C1_1  and  C7_7 
REMARK    2  A    between atoms: C1_1  and  N8_8 
REMARK    3  A    between atoms: C6_6  and  N8_8 
ROOT
HETATM    1  C1  UNL     1     -33.568   6.190   4.802  1.00 20.00     0.078 C 
HETATM    2  S9  UNL     1     -33.527   7.010   6.288  1.00 20.00    -0.065 SA
ENDROOT
BRANCH   1   3
HETATM    3  C7  UNL     1     -34.629   5.078   4.578  1.00 20.00     0.039 C 
HETATM    4  C3  UNL     1     -35.044   4.450   5.911  1.00 20.00     0.017 C 
HETATM    5  C4  UNL     1     -35.863   5.530   3.791  1.00 20.00     0.017 C 
ENDBRANCH   1   3
BRANCH   1   6
HETATM    6  N8  UNL     1     -32.661   6.423   3.752  1.00 20.00    -0.380 N 
HETATM    7  C5  UNL     1     -32.331   5.421   2.739  1.00 20.00     0.150 C 
BRANCH   6   8
HETATM    8  C6  UNL     1     -31.946   7.691   3.583  1.00 20.00     0.118 C 
HETATM    9  C2  UNL     1     -32.032   8.173   2.175  1.00 20.00     0.026 C 
ENDBRANCH   6   8
ENDBRANCH   1   6
TORSDOF 3
ENDMDL
MODEL 6
REMARK VINA RESULT:      -3.4      2.067      4.050
REMARK  3 active torsions:
REMARK  status: ('A' for Active; 'I' for Inactive)
REMARK    1  A    between atoms: C1_1  and  C7_7 
REMARK    2  A    between atoms: C1_1  and  N8_8 
REMARK    3  A    between atoms: C6_6  and  N8_8 
ROOT
HETATM    1  C1  UNL     1     -33.807  17.444  -3.031  1.00 20.00     0.078 C 
HETATM    2  S9  UNL     1     -33.836  19.019  -3.667  1.00 20.00    -0.065 SA
ENDROOT
BRANCH   1   3
HETATM    3  C7  UNL     1     -33.590  17.246  -1.506  1.00 20.00     0.039 C 
HETATM    4  C3  UNL     1     -33.188  18.564  -0.841  1.00 20.00     0.017 C 
HETATM    5  C4  UNL     1     -34.782  16.618  -0.775  1.00 20.00     0.017 C 
ENDBRANCH   1   3
BRANCH   1   6
HETATM    6  N8  UNL     1     -33.921  16.280  -3.813  1.00 20.00    -0.380 N 
HETATM    7  C5  UNL     1     -34.981  16.076  -4.800  1.00 20.00     0.150 C 
BRANCH   6   8
HETATM    8  C6  UNL     1     -32.993  15.152  -3.703  1.00 20.00     0.118 C 
HETATM    9  C2  UNL     1     -33.720  13.851  -3.747  1.00 20.00     0.026 C 
ENDBRANCH   6   8
ENDBRANCH   1   6
TORSDOF 3
ENDMDL
MODEL 7
REMARK VINA RESULT:      -3.3      1.745      3.476
REMARK  3 active torsions:
REMARK  status: ('A' for Active; 'I' for Inactive)
REMARK    1  A    between atoms: C1_1  and  C7_7 
REMARK    2  A    between atoms: C1_1  and  N8_8 
REMARK    3  A    between atoms: C6_6  and  N8_8 
ROOT
HETATM    1  C1  UNL     1     -35.917  16.325  -2.989  1.00 20.00     0.078 C 
HETATM    2  S9  UNL     1     -36.962  17.614  -2.627  1.00 20.00    -0.065 SA
ENDROOT
BRANCH   1   3
HETATM    3  C7  UNL     1     -34.739  16.011  -2.026  1.00 20.00     0.039 C 
HETATM    4  C3  UNL     1     -33.396  16.190  -2.739  1.00 20.00     0.017 C 
HETATM    5  C4  UNL     1     -34.762  16.807  -0.718  1.00 20.00     0.017 C 
ENDBRANCH   1   3
BRANCH   1   6
HETATM    6  N8  UNL     1     -36.019  15.533  -4.147  1.00 20.00    -0.380 N 
HETATM    7  C5  UNL     1     -35.992  16.084  -5.502  1.00 20.00     0.150 C 
BRANCH   6   8
HETATM    8  C6  UNL     1     -36.178  14.077  -4.106  1.00 20.00     0.118 C 
HETATM    9  C2  UNL     1     -34.985  13.389  -4.678  1.00 20.00     0.026 C 
ENDBRANCH   6   8
ENDBRANCH   1   6
TORSDOF 3
ENDMDL
MODEL 8
REMARK VINA RESULT:      -3.3      2.216      2.807
REMARK  3 active torsions:
REMARK  status: ('A' for Active; 'I' for Inactive)
REMARK    1  A    between atoms: C1_1  and  C7_7 
REMARK    2  A    between atoms: C1_1  and  N8_8 
REMARK    3  A    between atoms: C6_6  and  N8_8 
ROOT
HETATM    1  C1  UNL     1     -35.001  14.946  -4.491  1.00 20.00     0.078 C 
HETATM    2  S9  UNL     1     -34.219  13.457  -4.257  1.00 20.00    -0.065 SA
ENDROOT
BRANCH   1   3
HETATM    3  C7  UNL     1     -34.549  15.865  -5.658  1.00 20.00     0.039 C 
HETATM    4  C3  UNL     1     -33.285  16.641  -5.277  1.00 20.00     0.017 C 
HETATM    5  C4  UNL     1     -34.351  15.140  -6.993  1.00 20.00     0.017 C 
ENDBRANCH   1   3
BRANCH   1   6
HETATM    6  N8  UNL     1     -36.022  15.436  -3.655  1.00 20.00    -0.380 N 
HETATM    7  C5  UNL     1     -37.391  14.923  -3.672  1.00 20.00     0.150 C 
BRANCH   6   8
HETATM    8  C6  UNL     1     -35.812  16.523  -2.694  1.00 20.00     0.118 C 
HETATM    9  C2  UNL     1     -34.712  16.195  -1.743  1.00 20.00     0.026 C 
ENDBRANCH   6   8
ENDBRANCH   1   6
TORSDOF 3
ENDMDL
MODEL 9
REMARK VINA RESULT:      -3.3      1.734      2.081
REMARK  3 active torsions:
REMARK  status: ('A' for Active; 'I' for Inactive)
REMARK    1  A    between atoms: C1_1  and  C7_7 
REMARK    2  A    between atoms: C1_1  and  N8_8 
REMARK    3  A    between atoms: C6_6  and  N8_8 
ROOT
HETATM    1  C1  UNL     1     -35.121  15.846  -4.737  1.00 20.00     0.078 C 
HETATM    2  S9  UNL     1     -36.802  16.083  -4.775  1.00 20.00    -0.065 SA
ENDROOT
BRANCH   1   3
HETATM    3  C7  UNL     1     -34.505  14.656  -5.522  1.00 20.00     0.039 C 
HETATM    4  C3  UNL     1     -34.825  13.328  -4.831  1.00 20.00     0.017 C 
HETATM    5  C4  UNL     1     -34.903  14.600  -7.001  1.00 20.00     0.017 C 
ENDBRANCH   1   3
BRANCH   1   6
HETATM    6  N8  UNL     1     -34.232  16.643  -3.992  1.00 20.00    -0.380 N 
HETATM    7  C5  UNL     1     -33.772  17.960  -4.431  1.00 20.00     0.150 C 
BRANCH   6   8
HETATM    8  C6  UNL     1     -33.670  16.221  -2.706  1.00 20.00     0.118 C 
HETATM    9  C2  UNL     1     -34.700  16.260  -1.629  1.00 20.00     0.026 C 
ENDBRANCH   6   8
ENDBRANCH   1   6
TORSDOF 3
ENDMDL
