MODEL 1
REMARK VINA RESULT:      -4.6      0.000      0.000
REMARK  2 active torsions:
REMARK  status: ('A' for Active; 'I' for Inactive)
REMARK    1  A    between atoms: C2_2  and  C3_3 
REMARK    2  A    between atoms: C4_4  and  C5_5 
ROOT
HETATM    1  C1  UNL     1     -32.068   8.567   1.690  1.00 20.00     0.087 C 
HETATM    2  C2  UNL     1     -31.873   7.443   2.537  1.00 20.00     0.093 C 
HETATM    3  N8  UNL     1     -32.223   9.484   0.996  1.00 20.00    -0.192 NA
ENDROOT
BRANCH   2   4
HETATM    4  C3  UNL     1     -32.828   7.029   3.381  1.00 20.00     0.012 C 
HETATM    5  C4  UNL     1     -33.677   5.890   3.112  1.00 20.00     0.017 C 
BRANCH   5   6
HETATM    6  C5  UNL     1     -34.633   5.473   3.952  1.00 20.00     0.084 C 
HETATM    7  N9  UNL     1     -34.519   5.249   5.287  1.00 20.00    -0.398 N 
HETATM    8  C6  UNL     1     -34.130   6.310   6.212  1.00 20.00     0.148 C 
HETATM    9  C7  UNL     1     -35.011   4.020   5.903  1.00 20.00     0.148 C 
ENDBRANCH   5   6
ENDBRANCH   2   4
TORSDOF 2
ENDMDL
MODEL 2
REMARK VINA RESULT:      -4.3      1.029      5.085
REMARK  2 active torsions:
REMARK  status: ('A' for Active; 'I' for Inactive)
REMARK    1  A    between atoms: C2_2  and  C3_3 
REMARK    2  A    between atoms: C4_4  and  C5_5 
ROOT
HETATM    1  C1  UNL     1     -34.729   5.317   5.167  1.00 20.00     0.087 C 
HETATM    2  C2  UNL     1     -34.730   5.228   3.749  1.00 20.00     0.093 C 
HETATM    3  N8  UNL     1     -34.732   5.387   6.325  1.00 20.00    -0.192 NA
ENDROOT
BRANCH   2   4
HETATM    4  C3  UNL     1     -33.756   5.783   3.013  1.00 20.00     0.012 C 
HETATM    5  C4  UNL     1     -33.031   6.963   3.428  1.00 20.00     0.017 C 
BRANCH   5   6
HETATM    6  C5  UNL     1     -32.058   7.521   2.696  1.00 20.00     0.084 C 
HETATM    7  N9  UNL     1     -32.184   8.500   1.764  1.00 20.00    -0.398 N 
HETATM    8  C6  UNL     1     -32.723   9.815   2.102  1.00 20.00     0.148 C 
HETATM    9  C7  UNL     1     -31.570   8.387   0.444  1.00 20.00     0.148 C 
ENDBRANCH   5   6
ENDBRANCH   2   4
TORSDOF 2
ENDMDL
MODEL 3
REMARK VINA RESULT:      -4.2     11.036     11.942
REMARK  2 active torsions:
REMARK  status: ('A' for Active; 'I' for Inactive)
REMARK    1  A    between atoms: C2_2  and  C3_3 
REMARK    2  A    between atoms: C4_4  and  C5_5 
ROOT
HETATM    1  C1  UNL     1     -32.377  18.697  -0.005  1.00 20.00     0.087 C 
HETATM    2  C2  UNL     1     -33.561  18.005  -0.375  1.00 20.00     0.093 C 
HETATM    3  N8  UNL     1     -31.412  19.263   0.302  1.00 20.00    -0.192 NA
ENDROOT
BRANCH   2   4
HETATM    4  C3  UNL     1     -33.706  17.469  -1.595  1.00 20.00     0.012 C 
HETATM    5  C4  UNL     1     -34.363  16.202  -1.825  1.00 20.00     0.017 C 
BRANCH   5   6
HETATM    6  C5  UNL     1     -34.509  15.661  -3.041  1.00 20.00     0.084 C 
HETATM    7  N9  UNL     1     -35.474  14.797  -3.451  1.00 20.00    -0.398 N 
HETATM    8  C6  UNL     1     -36.890  15.152  -3.408  1.00 20.00     0.148 C 
HETATM    9  C7  UNL     1     -35.149  13.575  -4.180  1.00 20.00     0.148 C 
ENDBRANCH   5   6
ENDBRANCH   2   4
TORSDOF 2
ENDMDL
MODEL 4
REMARK VINA RESULT:      -4.2     10.813     11.551
REMARK  2 active torsions:
REMARK  status: ('A' for Active; 'I' for Inactive)
REMARK    1  A    between atoms: C2_2  and  C3_3 
REMARK    2  A    between atoms: C4_4  and  C5_5 
ROOT
HETATM    1  C1  UNL     1     -34.104  13.741  -4.089  1.00 20.00     0.087 C 
HETATM    2  C2  UNL     1     -33.262  14.840  -3.773  1.00 20.00     0.093 C 
HETATM    3  N8  UNL     1     -34.789  12.841  -4.348  1.00 20.00    -0.192 NA
ENDROOT
BRANCH   2   4
HETATM    4  C3  UNL     1     -33.735  15.928  -3.149  1.00 20.00     0.012 C 
HETATM    5  C4  UNL     1     -34.539  15.859  -1.949  1.00 20.00     0.017 C 
BRANCH   5   6
HETATM    6  C5  UNL     1     -35.015  16.943  -1.322  1.00 20.00     0.084 C 
HETATM    7  N9  UNL     1     -34.473  17.583  -0.254  1.00 20.00    -0.398 N 
HETATM    8  C6  UNL     1     -33.135  18.167  -0.308  1.00 20.00     0.148 C 
HETATM    9  C7  UNL     1     -35.274  17.941   0.914  1.00 20.00     0.148 C 
ENDBRANCH   5   6
ENDBRANCH   2   4
TORSDOF 2
ENDMDL
MODEL 5
REMARK VINA RESULT:      -4.2     11.403     12.164
REMARK  2 active torsions:
REMARK  status: ('A' for Active; 'I' for Inactive)
REMARK    1  A    between atoms: C2_2  and  C3_3 
REMARK    2  A    between atoms: C4_4  and  C5_5 
ROOT
HETATM    1  C1  UNL     1     -32.597  18.800   0.331  1.00 20.00     0.087 C 
HETATM    2  C2  UNL     1     -33.913  18.353   0.627  1.00 20.00     0.093 C 
HETATM    3  N8  UNL     1     -31.523  19.168   0.093  1.00 20.00    -0.192 NA
ENDROOT
BRANCH   2   4
HETATM    4  C3  UNL     1     -34.487  17.361  -0.068  1.00 20.00     0.012 C 
HETATM    5  C4  UNL     1     -34.046  16.967  -1.388  1.00 20.00     0.017 C 
BRANCH   5   6
HETATM    6  C5  UNL     1     -34.617  15.977  -2.086  1.00 20.00     0.084 C 
HETATM    7  N9  UNL     1     -34.310  15.571  -3.345  1.00 20.00    -0.398 N 
HETATM    8  C6  UNL     1     -32.977  15.083  -3.689  1.00 20.00     0.148 C 
HETATM    9  C7  UNL     1     -35.342  15.364  -4.358  1.00 20.00     0.148 C 
ENDBRANCH   5   6
ENDBRANCH   2   4
TORSDOF 2
ENDMDL
MODEL 6
REMARK VINA RESULT:      -4.1      1.007      1.444
REMARK  2 active torsions:
REMARK  status: ('A' for Active; 'I' for Inactive)
REMARK    1  A    between atoms: C2_2  and  C3_3 
REMARK    2  A    between atoms: C4_4  and  C5_5 
ROOT
HETATM    1  C1  UNL     1     -32.306   8.815   0.833  1.00 20.00     0.087 C 
HETATM    2  C2  UNL     1     -31.893   8.363   2.115  1.00 20.00     0.093 C 
HETATM    3  N8  UNL     1     -32.641   9.189  -0.213  1.00 20.00    -0.192 NA
ENDROOT
BRANCH   2   4
HETATM    4  C3  UNL     1     -32.256   7.160   2.583  1.00 20.00     0.012 C 
HETATM    5  C4  UNL     1     -32.976   6.983   3.824  1.00 20.00     0.017 C 
BRANCH   5   6
HETATM    6  C5  UNL     1     -33.340   5.783   4.295  1.00 20.00     0.084 C 
HETATM    7  N9  UNL     1     -34.578   5.395   4.697  1.00 20.00    -0.398 N 
HETATM    8  C6  UNL     1     -35.721   5.416   3.788  1.00 20.00     0.148 C 
HETATM    9  C7  UNL     1     -34.792   4.709   5.969  1.00 20.00     0.148 C 
ENDBRANCH   5   6
ENDBRANCH   2   4
TORSDOF 2
ENDMDL
MODEL 7
REMARK VINA RESULT:      -4.1      1.334      4.980
REMARK  2 active torsions:
REMARK  status: ('A' for Active; 'I' for Inactive)
REMARK    1  A    between atoms: C2_2  and  C3_3 
REMARK    2  A    between atoms: C4_4  and  C5_5 
ROOT
HETATM    1  C1  UNL     1     -35.079   4.772   5.613  1.00 20.00     0.087 C 
HETATM    2  C2  UNL     1     -35.490   4.934   4.262  1.00 20.00     0.093 C 
HETATM    3  N8  UNL     1     -34.747   4.637   6.716  1.00 20.00    -0.192 NA
ENDROOT
BRANCH   2   4
HETATM    4  C3  UNL     1     -34.671   5.459   3.340  1.00 20.00     0.012 C 
HETATM    5  C4  UNL     1     -33.349   5.954   3.652  1.00 20.00     0.017 C 
BRANCH   5   6
HETATM    6  C5  UNL     1     -32.527   6.479   2.734  1.00 20.00     0.084 C 
HETATM    7  N9  UNL     1     -31.958   7.712   2.745  1.00 20.00    -0.398 N 
HETATM    8  C6  UNL     1     -31.070   8.137   3.824  1.00 20.00     0.148 C 
HETATM    9  C7  UNL     1     -31.997   8.585   1.575  1.00 20.00     0.148 C 
ENDBRANCH   5   6
ENDBRANCH   2   4
TORSDOF 2
ENDMDL
MODEL 8
REMARK VINA RESULT:      -4.0     11.147     12.116
REMARK  2 active torsions:
REMARK  status: ('A' for Active; 'I' for Inactive)
REMARK    1  A    between atoms: C2_2  and  C3_3 
REMARK    2  A    between atoms: C4_4  and  C5_5 
ROOT
HETATM    1  C1  UNL     1     -33.321  18.418  -0.681  1.00 20.00     0.087 C 
HETATM    2  C2  UNL     1     -34.370  17.468  -0.562  1.00 20.00     0.093 C 
HETATM    3  N8  UNL     1     -32.465  19.196  -0.775  1.00 20.00    -0.192 NA
ENDROOT
BRANCH   2   4
HETATM    4  C3  UNL     1     -34.463  16.420  -1.393  1.00 20.00     0.012 C 
HETATM    5  C4  UNL     1     -33.649  16.282  -2.579  1.00 20.00     0.017 C 
BRANCH   5   6
HETATM    6  C5  UNL     1     -33.738  15.237  -3.413  1.00 20.00     0.084 C 
HETATM    7  N9  UNL     1     -34.791  14.895  -4.199  1.00 20.00    -0.398 N 
HETATM    8  C6  UNL     1     -35.303  15.795  -5.229  1.00 20.00     0.148 C 
HETATM    9  C7  UNL     1     -35.311  13.531  -4.234  1.00 20.00     0.148 C 
ENDBRANCH   5   6
ENDBRANCH   2   4
TORSDOF 2
ENDMDL
MODEL 9
REMARK VINA RESULT:      -4.0     10.787     11.831
REMARK  2 active torsions:
REMARK  status: ('A' for Active; 'I' for Inactive)
REMARK    1  A    between atoms: C2_2  and  C3_3 
REMARK    2  A    between atoms: C4_4  and  C5_5 
ROOT
HETATM    1  C1  UNL     1     -35.864  18.088   0.549  1.00 20.00     0.087 C 
HETATM    2  C2  UNL     1     -34.491  17.759   0.389  1.00 20.00     0.093 C 
HETATM    3  N8  UNL     1     -36.984  18.358   0.683  1.00 20.00    -0.192 NA
ENDROOT
BRANCH   2   4
HETATM    4  C3  UNL     1     -34.015  17.288  -0.773  1.00 20.00     0.012 C 
HETATM    5  C4  UNL     1     -34.706  16.291  -1.559  1.00 20.00     0.017 C 
BRANCH   5   6
HETATM    6  C5  UNL     1     -34.234  15.817  -2.720  1.00 20.00     0.084 C 
HETATM    7  N9  UNL     1     -34.628  14.694  -3.374  1.00 20.00    -0.398 N 
HETATM    8  C6  UNL     1     -36.004  14.513  -3.827  1.00 20.00     0.148 C 
HETATM    9  C7  UNL     1     -33.662  13.721  -3.878  1.00 20.00     0.148 C 
ENDBRANCH   5   6
ENDBRANCH   2   4
TORSDOF 2
ENDMDL
