MODEL 1
REMARK VINA RESULT:      -4.4      0.000      0.000
REMARK  1 active torsions:
REMARK  status: ('A' for Active; 'I' for Inactive)
REMARK    1  A    between atoms: C1_1  and  C3_3 
ROOT
HETATM    1  C2  UNL     1     -35.210   5.818   3.956  1.00 20.00     0.056 A 
HETATM    2  C3  UNL     1     -33.805   5.330   3.847  1.00 20.00     0.067 A 
HETATM    3  C4  UNL     1     -34.461   5.396   5.190  1.00 20.00     0.122 A 
HETATM    4 CL7  UNL     1     -34.026   6.643   6.354  1.00 20.00    -0.101 Cl
HETATM    5 CL8  UNL     1     -34.904   3.865   5.943  1.00 20.00    -0.101 Cl
ENDROOT
BRANCH   2   6
HETATM    6  C1  UNL     1     -32.737   6.311   3.479  1.00 20.00     0.090 C 
HETATM    7  N6  UNL     1     -32.972   7.252   2.633  1.00 20.00    -0.310 NA
HETATM    8  C5  UNL     1     -31.819   8.114   2.392  1.00 20.00     0.176 C 
ENDBRANCH   2   6
TORSDOF 1
ENDMDL
MODEL 2
REMARK VINA RESULT:      -3.8      2.870      4.128
REMARK  1 active torsions:
REMARK  status: ('A' for Active; 'I' for Inactive)
REMARK    1  A    between atoms: C1_1  and  C3_3 
ROOT
HETATM    1  C2  UNL     1     -32.177   5.843   2.698  1.00 20.00     0.056 A 
HETATM    2  C3  UNL     1     -33.376   6.546   3.239  1.00 20.00     0.067 A 
HETATM    3  C4  UNL     1     -32.118   7.316   2.992  1.00 20.00     0.122 A 
HETATM    4 CL7  UNL     1     -31.098   7.847   4.326  1.00 20.00    -0.101 Cl
HETATM    5 CL8  UNL     1     -32.115   8.431   1.626  1.00 20.00    -0.101 Cl
ENDROOT
BRANCH   2   6
HETATM    6  C1  UNL     1     -33.810   6.239   4.638  1.00 20.00     0.090 C 
HETATM    7  N6  UNL     1     -34.543   5.211   4.888  1.00 20.00    -0.310 NA
HETATM    8  C5  UNL     1     -34.872   5.067   6.303  1.00 20.00     0.176 C 
ENDBRANCH   2   6
TORSDOF 1
ENDMDL
MODEL 3
REMARK VINA RESULT:      -3.5     11.513     12.510
REMARK  1 active torsions:
REMARK  status: ('A' for Active; 'I' for Inactive)
REMARK    1  A    between atoms: C1_1  and  C3_3 
ROOT
HETATM    1  C2  UNL     1     -34.791  13.612  -3.813  1.00 20.00     0.056 A 
HETATM    2  C3  UNL     1     -35.334  14.725  -4.643  1.00 20.00     0.067 A 
HETATM    3  C4  UNL     1     -34.356  15.027  -3.552  1.00 20.00     0.122 A 
HETATM    4 CL7  UNL     1     -34.874  15.781  -2.048  1.00 20.00    -0.101 Cl
HETATM    5 CL8  UNL     1     -32.728  15.495  -4.041  1.00 20.00    -0.101 Cl
ENDROOT
BRANCH   2   6
HETATM    6  C1  UNL     1     -36.776  15.091  -4.486  1.00 20.00     0.090 C 
HETATM    7  N6  UNL     1     -37.587  14.315  -3.856  1.00 20.00    -0.310 NA
HETATM    8  C5  UNL     1     -38.953  14.827  -3.801  1.00 20.00     0.176 C 
ENDBRANCH   2   6
TORSDOF 1
ENDMDL
MODEL 4
REMARK VINA RESULT:      -3.5     12.054     12.614
REMARK  1 active torsions:
REMARK  status: ('A' for Active; 'I' for Inactive)
REMARK    1  A    between atoms: C1_1  and  C3_3 
ROOT
HETATM    1  C2  UNL     1     -33.311  14.114  -3.720  1.00 20.00     0.056 A 
HETATM    2  C3  UNL     1     -34.417  14.964  -3.193  1.00 20.00     0.067 A 
HETATM    3  C4  UNL     1     -34.079  15.013  -4.649  1.00 20.00     0.122 A 
HETATM    4 CL7  UNL     1     -33.233  16.394  -5.341  1.00 20.00    -0.101 Cl
HETATM    5 CL8  UNL     1     -35.223  14.268  -5.764  1.00 20.00    -0.101 Cl
ENDROOT
BRANCH   2   6
HETATM    6  C1  UNL     1     -34.068  16.111  -2.298  1.00 20.00     0.090 C 
HETATM    7  N6  UNL     1     -34.690  16.291  -1.185  1.00 20.00    -0.310 NA
HETATM    8  C5  UNL     1     -34.221  17.456  -0.442  1.00 20.00     0.176 C 
ENDBRANCH   2   6
TORSDOF 1
ENDMDL
MODEL 5
REMARK VINA RESULT:      -3.4     11.925     12.745
REMARK  1 active torsions:
REMARK  status: ('A' for Active; 'I' for Inactive)
REMARK    1  A    between atoms: C1_1  and  C3_3 
ROOT
HETATM    1  C2  UNL     1     -34.492  16.040  -3.867  1.00 20.00     0.056 A 
HETATM    2  C3  UNL     1     -35.522  15.085  -3.365  1.00 20.00     0.067 A 
HETATM    3  C4  UNL     1     -34.492  14.614  -4.343  1.00 20.00     0.122 A 
HETATM    4 CL7  UNL     1     -34.908  14.310  -6.027  1.00 20.00    -0.101 Cl
HETATM    5 CL8  UNL     1     -33.238  13.538  -3.730  1.00 20.00    -0.101 Cl
ENDROOT
BRANCH   2   6
HETATM    6  C1  UNL     1     -36.941  15.278  -3.798  1.00 20.00     0.090 C 
HETATM    7  N6  UNL     1     -37.777  14.300  -3.767  1.00 20.00    -0.310 NA
HETATM    8  C5  UNL     1     -39.113  14.667  -4.225  1.00 20.00     0.176 C 
ENDBRANCH   2   6
TORSDOF 1
ENDMDL
MODEL 6
REMARK VINA RESULT:      -3.4     11.728     12.766
REMARK  1 active torsions:
REMARK  status: ('A' for Active; 'I' for Inactive)
REMARK    1  A    between atoms: C1_1  and  C3_3 
ROOT
HETATM    1  C2  UNL     1     -33.869  14.249  -3.491  1.00 20.00     0.056 A 
HETATM    2  C3  UNL     1     -33.904  15.563  -4.196  1.00 20.00     0.067 A 
HETATM    3  C4  UNL     1     -34.868  15.296  -3.084  1.00 20.00     0.122 A 
HETATM    4 CL7  UNL     1     -36.569  14.980  -3.411  1.00 20.00    -0.101 Cl
HETATM    5 CL8  UNL     1     -34.598  16.151  -1.566  1.00 20.00    -0.101 Cl
ENDROOT
BRANCH   2   6
HETATM    6  C1  UNL     1     -34.378  15.596  -5.615  1.00 20.00     0.090 C 
HETATM    7  N6  UNL     1     -34.569  14.506  -6.271  1.00 20.00    -0.310 NA
HETATM    8  C5  UNL     1     -35.029  14.726  -7.638  1.00 20.00     0.176 C 
ENDBRANCH   2   6
TORSDOF 1
ENDMDL
MODEL 7
REMARK VINA RESULT:      -3.4     11.834     12.314
REMARK  1 active torsions:
REMARK  status: ('A' for Active; 'I' for Inactive)
REMARK    1  A    between atoms: C1_1  and  C3_3 
ROOT
HETATM    1  C2  UNL     1     -33.794  16.346  -3.993  1.00 20.00     0.056 A 
HETATM    2  C3  UNL     1     -33.758  16.044  -2.533  1.00 20.00     0.067 A 
HETATM    3  C4  UNL     1     -34.287  15.020  -3.485  1.00 20.00     0.122 A 
HETATM    4 CL7  UNL     1     -36.013  14.687  -3.598  1.00 20.00    -0.101 Cl
HETATM    5 CL8  UNL     1     -33.284  13.599  -3.774  1.00 20.00    -0.101 Cl
ENDROOT
BRANCH   2   6
HETATM    6  C1  UNL     1     -34.690  16.788  -1.629  1.00 20.00     0.090 C 
HETATM    7  N6  UNL     1     -34.406  16.957  -0.385  1.00 20.00    -0.310 NA
HETATM    8  C5  UNL     1     -35.426  17.702   0.345  1.00 20.00     0.176 C 
ENDBRANCH   2   6
TORSDOF 1
ENDMDL
MODEL 8
REMARK VINA RESULT:      -3.3      9.373     10.216
REMARK  1 active torsions:
REMARK  status: ('A' for Active; 'I' for Inactive)
REMARK    1  A    between atoms: C1_1  and  C3_3 
ROOT
HETATM    1  C2  UNL     1     -40.655   6.227  -0.261  1.00 20.00     0.056 A 
HETATM    2  C3  UNL     1     -41.922   6.576  -0.965  1.00 20.00     0.067 A 
HETATM    3  C4  UNL     1     -41.635   5.147  -0.629  1.00 20.00     0.122 A 
HETATM    4 CL7  UNL     1     -41.160   3.997  -1.875  1.00 20.00    -0.101 Cl
HETATM    5 CL8  UNL     1     -42.587   4.420   0.664  1.00 20.00    -0.101 Cl
ENDROOT
BRANCH   2   6
HETATM    6  C1  UNL     1     -41.842   7.049  -2.382  1.00 20.00     0.090 C 
HETATM    7  N6  UNL     1     -42.662   7.935  -2.827  1.00 20.00    -0.310 NA
HETATM    8  C5  UNL     1     -42.439   8.276  -4.229  1.00 20.00     0.176 C 
ENDBRANCH   2   6
TORSDOF 1
ENDMDL
MODEL 9
REMARK VINA RESULT:      -3.3      9.430     10.408
REMARK  1 active torsions:
REMARK  status: ('A' for Active; 'I' for Inactive)
REMARK    1  A    between atoms: C1_1  and  C3_3 
ROOT
HETATM    1  C2  UNL     1     -40.781   6.194  -0.286  1.00 20.00     0.056 A 
HETATM    2  C3  UNL     1     -41.484   5.721  -1.513  1.00 20.00     0.067 A 
HETATM    3  C4  UNL     1     -42.283   6.149  -0.324  1.00 20.00     0.122 A 
HETATM    4 CL7  UNL     1     -43.096   4.969   0.700  1.00 20.00    -0.101 Cl
HETATM    5 CL8  UNL     1     -43.153   7.678  -0.450  1.00 20.00    -0.101 Cl
ENDROOT
BRANCH   2   6
HETATM    6  C1  UNL     1     -41.386   4.272  -1.875  1.00 20.00     0.090 C 
HETATM    7  N6  UNL     1     -42.114   3.778  -2.814  1.00 20.00    -0.310 NA
HETATM    8  C5  UNL     1     -41.890   2.352  -3.030  1.00 20.00     0.176 C 
ENDBRANCH   2   6
TORSDOF 1
ENDMDL
