MODEL 1
REMARK VINA RESULT:      -4.7      0.000      0.000
REMARK  1 active torsions:
REMARK  status: ('A' for Active; 'I' for Inactive)
REMARK    1  A    between atoms: C2_2  and  C3_3 
ROOT
HETATM    1  C1  UNL     1     -35.548  15.526  -3.163  1.00 20.00    -0.007 C 
HETATM    2  C2  UNL     1     -34.688  14.996  -4.038  1.00 20.00    -0.012 C 
HETATM    3  C4  UNL     1     -33.698  17.013  -3.317  1.00 20.00     0.022 C 
HETATM    4  C5  UNL     1     -33.391  15.731  -4.118  1.00 20.00     0.019 C 
HETATM    5  C6  UNL     1     -34.972  16.736  -2.480  1.00 20.00    -0.029 C 
HETATM    6  C8  UNL     1     -32.227  14.940  -3.531  1.00 20.00     0.015 C 
HETATM    7  C9  UNL     1     -34.634  16.420  -1.019  1.00 20.00     0.019 C 
HETATM    8  C10 UNL     1     -35.939  17.922  -2.546  1.00 20.00     0.019 C 
ENDROOT
BRANCH   2   9
HETATM    9  C3  UNL     1     -35.009  13.825  -4.836  1.00 20.00     0.151 C 
HETATM   10  C7  UNL     1     -35.242  14.007  -6.320  1.00 20.00     0.096 C 
HETATM   11  O11 UNL     1     -35.101  12.703  -4.317  1.00 20.00    -0.293 OA
ENDBRANCH   2   9
TORSDOF 1
ENDMDL
MODEL 2
REMARK VINA RESULT:      -4.5      2.000      3.981
REMARK  1 active torsions:
REMARK  status: ('A' for Active; 'I' for Inactive)
REMARK    1  A    between atoms: C2_2  and  C3_3 
ROOT
HETATM    1  C1  UNL     1     -35.120  16.226  -4.877  1.00 20.00    -0.007 C 
HETATM    2  C2  UNL     1     -34.623  15.814  -3.708  1.00 20.00    -0.012 C 
HETATM    3  C4  UNL     1     -35.337  13.857  -4.816  1.00 20.00     0.022 C 
HETATM    4  C5  UNL     1     -34.531  14.329  -3.588  1.00 20.00     0.019 C 
HETATM    5  C6  UNL     1     -35.458  15.067  -5.777  1.00 20.00    -0.029 C 
HETATM    6  C8  UNL     1     -33.093  13.824  -3.603  1.00 20.00     0.015 C 
HETATM    7  C9  UNL     1     -34.458  14.976  -6.935  1.00 20.00     0.019 C 
HETATM    8  C10 UNL     1     -36.882  15.189  -6.327  1.00 20.00     0.019 C 
ENDROOT
BRANCH   2   9
HETATM    9  C3  UNL     1     -34.229  16.740  -2.660  1.00 20.00     0.151 C 
HETATM   10  C7  UNL     1     -34.627  16.426  -1.234  1.00 20.00     0.096 C 
HETATM   11  O11 UNL     1     -33.588  17.769  -2.922  1.00 20.00    -0.293 OA
ENDBRANCH   2   9
TORSDOF 1
ENDMDL
MODEL 3
REMARK VINA RESULT:      -4.5      1.574      2.550
REMARK  1 active torsions:
REMARK  status: ('A' for Active; 'I' for Inactive)
REMARK    1  A    between atoms: C2_2  and  C3_3 
ROOT
HETATM    1  C1  UNL     1     -34.425  16.149  -4.982  1.00 20.00    -0.007 C 
HETATM    2  C2  UNL     1     -34.059  15.440  -3.911  1.00 20.00    -0.012 C 
HETATM    3  C4  UNL     1     -33.676  17.696  -3.337  1.00 20.00     0.022 C 
HETATM    4  C5  UNL     1     -33.722  16.281  -2.725  1.00 20.00     0.019 C 
HETATM    5  C6  UNL     1     -34.404  17.628  -4.703  1.00 20.00    -0.029 C 
HETATM    6  C8  UNL     1     -34.750  16.161  -1.605  1.00 20.00     0.015 C 
HETATM    7  C9  UNL     1     -35.831  18.179  -4.614  1.00 20.00     0.019 C 
HETATM    8  C10 UNL     1     -33.620  18.384  -5.780  1.00 20.00     0.019 C 
ENDROOT
BRANCH   2   9
HETATM    9  C3  UNL     1     -33.987  13.988  -3.925  1.00 20.00     0.151 C 
HETATM   10  C7  UNL     1     -35.211  13.211  -4.357  1.00 20.00     0.096 C 
HETATM   11  O11 UNL     1     -32.953  13.395  -3.585  1.00 20.00    -0.293 OA
ENDBRANCH   2   9
TORSDOF 1
ENDMDL
MODEL 4
REMARK VINA RESULT:      -4.5      1.523      2.487
REMARK  1 active torsions:
REMARK  status: ('A' for Active; 'I' for Inactive)
REMARK    1  A    between atoms: C2_2  and  C3_3 
ROOT
HETATM    1  C1  UNL     1     -34.410  15.845  -2.087  1.00 20.00    -0.007 C 
HETATM    2  C2  UNL     1     -35.252  15.503  -3.066  1.00 20.00    -0.012 C 
HETATM    3  C4  UNL     1     -36.115  17.502  -2.157  1.00 20.00     0.022 C 
HETATM    4  C5  UNL     1     -36.289  16.539  -3.349  1.00 20.00     0.019 C 
HETATM    5  C6  UNL     1     -34.733  17.202  -1.524  1.00 20.00    -0.029 C 
HETATM    6  C8  UNL     1     -36.083  17.228  -4.693  1.00 20.00     0.015 C 
HETATM    7  C9  UNL     1     -33.678  18.228  -1.953  1.00 20.00     0.019 C 
HETATM    8  C10 UNL     1     -34.828  17.161   0.004  1.00 20.00     0.019 C 
ENDROOT
BRANCH   2   9
HETATM    9  C3  UNL     1     -35.159  14.233  -3.765  1.00 20.00     0.151 C 
HETATM   10  C7  UNL     1     -33.785  13.657  -4.034  1.00 20.00     0.096 C 
HETATM   11  O11 UNL     1     -36.177  13.635  -4.144  1.00 20.00    -0.293 OA
ENDBRANCH   2   9
TORSDOF 1
ENDMDL
MODEL 5
REMARK VINA RESULT:      -4.4      2.083      3.077
REMARK  1 active torsions:
REMARK  status: ('A' for Active; 'I' for Inactive)
REMARK    1  A    between atoms: C2_2  and  C3_3 
ROOT
HETATM    1  C1  UNL     1     -35.630  14.908  -3.493  1.00 20.00    -0.007 C 
HETATM    2  C2  UNL     1     -36.353  15.091  -4.602  1.00 20.00    -0.012 C 
HETATM    3  C4  UNL     1     -34.163  15.779  -5.151  1.00 20.00     0.022 C 
HETATM    4  C5  UNL     1     -35.534  15.476  -5.789  1.00 20.00     0.019 C 
HETATM    5  C6  UNL     1     -34.164  15.138  -3.740  1.00 20.00    -0.029 C 
HETATM    6  C8  UNL     1     -35.460  14.372  -6.838  1.00 20.00     0.015 C 
HETATM    7  C9  UNL     1     -33.399  13.810  -3.719  1.00 20.00     0.019 C 
HETATM    8  C10 UNL     1     -33.571  16.097  -2.703  1.00 20.00     0.019 C 
ENDROOT
BRANCH   2   9
HETATM    9  C3  UNL     1     -37.797  14.939  -4.624  1.00 20.00     0.151 C 
HETATM   10  C7  UNL     1     -38.592  15.757  -5.620  1.00 20.00     0.096 C 
HETATM   11  O11 UNL     1     -38.372  14.167  -3.844  1.00 20.00    -0.293 OA
ENDBRANCH   2   9
TORSDOF 1
ENDMDL
MODEL 6
REMARK VINA RESULT:      -4.4      2.515      4.345
REMARK  1 active torsions:
REMARK  status: ('A' for Active; 'I' for Inactive)
REMARK    1  A    between atoms: C2_2  and  C3_3 
ROOT
HETATM    1  C1  UNL     1     -34.410  15.532  -2.270  1.00 20.00    -0.007 C 
HETATM    2  C2  UNL     1     -34.011  16.804  -2.187  1.00 20.00    -0.012 C 
HETATM    3  C4  UNL     1     -33.727  16.199  -4.450  1.00 20.00     0.022 C 
HETATM    4  C5  UNL     1     -33.710  17.423  -3.511  1.00 20.00     0.019 C 
HETATM    5  C6  UNL     1     -34.454  15.055  -3.697  1.00 20.00    -0.029 C 
HETATM    6  C8  UNL     1     -34.731  18.482  -3.913  1.00 20.00     0.015 C 
HETATM    7  C9  UNL     1     -35.904  14.897  -4.167  1.00 20.00     0.019 C 
HETATM    8  C10 UNL     1     -33.705  13.729  -3.861  1.00 20.00     0.019 C 
ENDROOT
BRANCH   2   9
HETATM    9  C3  UNL     1     -33.876  17.497  -0.916  1.00 20.00     0.151 C 
HETATM   10  C7  UNL     1     -34.918  17.251   0.153  1.00 20.00     0.096 C 
HETATM   11  O11 UNL     1     -32.936  18.278  -0.711  1.00 20.00    -0.293 OA
ENDBRANCH   2   9
TORSDOF 1
ENDMDL
MODEL 7
REMARK VINA RESULT:      -4.3      1.851      3.299
REMARK  1 active torsions:
REMARK  status: ('A' for Active; 'I' for Inactive)
REMARK    1  A    between atoms: C2_2  and  C3_3 
ROOT
HETATM    1  C1  UNL     1     -35.196  14.639  -4.574  1.00 20.00    -0.007 C 
HETATM    2  C2  UNL     1     -36.272  15.128  -3.951  1.00 20.00    -0.012 C 
HETATM    3  C4  UNL     1     -34.445  15.632  -2.546  1.00 20.00     0.022 C 
HETATM    4  C5  UNL     1     -35.944  15.936  -2.739  1.00 20.00     0.019 C 
HETATM    5  C6  UNL     1     -33.923  15.039  -3.879  1.00 20.00    -0.029 C 
HETATM    6  C8  UNL     1     -36.220  17.424  -2.929  1.00 20.00     0.015 C 
HETATM    7  C9  UNL     1     -33.164  16.083  -4.706  1.00 20.00     0.019 C 
HETATM    8  C10 UNL     1     -33.025  13.824  -3.625  1.00 20.00     0.019 C 
ENDROOT
BRANCH   2   9
HETATM    9  C3  UNL     1     -37.625  14.876  -4.418  1.00 20.00     0.151 C 
HETATM   10  C7  UNL     1     -38.045  15.449  -5.755  1.00 20.00     0.096 C 
HETATM   11  O11 UNL     1     -38.423  14.214  -3.739  1.00 20.00    -0.293 OA
ENDBRANCH   2   9
TORSDOF 1
ENDMDL
MODEL 8
REMARK VINA RESULT:      -4.3      1.599      1.812
REMARK  1 active torsions:
REMARK  status: ('A' for Active; 'I' for Inactive)
REMARK    1  A    between atoms: C2_2  and  C3_3 
ROOT
HETATM    1  C1  UNL     1     -36.111  16.576  -2.873  1.00 20.00    -0.007 C 
HETATM    2  C2  UNL     1     -35.988  15.593  -3.768  1.00 20.00    -0.012 C 
HETATM    3  C4  UNL     1     -33.791  16.345  -3.350  1.00 20.00     0.022 C 
HETATM    4  C5  UNL     1     -34.572  15.211  -4.045  1.00 20.00     0.019 C 
HETATM    5  C6  UNL     1     -34.770  17.042  -2.372  1.00 20.00    -0.029 C 
HETATM    6  C8  UNL     1     -34.214  13.834  -3.496  1.00 20.00     0.015 C 
HETATM    7  C9  UNL     1     -34.548  16.586  -0.926  1.00 20.00     0.019 C 
HETATM    8  C10 UNL     1     -34.644  18.566  -2.462  1.00 20.00     0.019 C 
ENDROOT
BRANCH   2   9
HETATM    9  C3  UNL     1     -37.136  14.977  -4.411  1.00 20.00     0.151 C 
HETATM   10  C7  UNL     1     -37.429  15.328  -5.854  1.00 20.00     0.096 C 
HETATM   11  O11 UNL     1     -37.868  14.189  -3.795  1.00 20.00    -0.293 OA
ENDBRANCH   2   9
TORSDOF 1
ENDMDL
MODEL 9
REMARK VINA RESULT:      -4.3      2.133      3.964
REMARK  1 active torsions:
REMARK  status: ('A' for Active; 'I' for Inactive)
REMARK    1  A    between atoms: C2_2  and  C3_3 
ROOT
HETATM    1  C1  UNL     1     -36.331  15.560  -5.872  1.00 20.00    -0.007 C 
HETATM    2  C2  UNL     1     -36.483  15.014  -4.662  1.00 20.00    -0.012 C 
HETATM    3  C4  UNL     1     -34.491  14.092  -5.527  1.00 20.00     0.022 C 
HETATM    4  C5  UNL     1     -35.314  14.194  -4.227  1.00 20.00     0.019 C 
HETATM    5  C6  UNL     1     -35.004  15.200  -6.481  1.00 20.00    -0.029 C 
HETATM    6  C8  UNL     1     -34.531  14.838  -3.088  1.00 20.00     0.015 C 
HETATM    7  C9  UNL     1     -34.070  16.416  -6.493  1.00 20.00     0.019 C 
HETATM    8  C10 UNL     1     -35.175  14.662  -7.905  1.00 20.00     0.019 C 
ENDROOT
BRANCH   2   9
HETATM    9  C3  UNL     1     -37.685  15.202  -3.867  1.00 20.00     0.151 C 
HETATM   10  C7  UNL     1     -37.999  16.590  -3.352  1.00 20.00     0.096 C 
HETATM   11  O11 UNL     1     -38.435  14.250  -3.607  1.00 20.00    -0.293 OA
ENDBRANCH   2   9
TORSDOF 1
ENDMDL
