MODEL 1
REMARK VINA RESULT:      -5.0      0.000      0.000
REMARK  3 active torsions:
REMARK  status: ('A' for Active; 'I' for Inactive)
REMARK    1  A    between atoms: C7_7  and  C8_8 
REMARK    2  A    between atoms: C8_8  and  C9_9 
REMARK    3  A    between atoms: C9_9  and  N10_10 
ROOT
HETATM    1  C1  UNL     1     -32.050   8.983   1.230  1.00 20.00     0.012 C 
HETATM    2  C3  UNL     1     -32.048   8.165   2.110  1.00 20.00    -0.117 C 
HETATM    3  C7  UNL     1     -32.041   7.166   3.187  1.00 20.00     0.096 C 
ENDROOT
BRANCH   3   4
HETATM    4  C8  UNL     1     -33.335   6.343   3.229  1.00 20.00     0.061 C 
BRANCH   4   5
HETATM    5  C9  UNL     1     -33.535   5.529   4.522  1.00 20.00     0.300 C 
HETATM    6  C4  UNL     1     -33.689   6.405   5.695  1.00 20.00    -0.081 C 
HETATM    7  C2  UNL     1     -33.812   7.116   6.655  1.00 20.00     0.014 C 
BRANCH   5   8
HETATM    8  N10 UNL     1     -34.731   4.696   4.376  1.00 20.00     0.095 N 
HETATM    9  C5  UNL     1     -35.848   5.493   3.874  1.00 20.00     0.310 C 
HETATM   10  C6  UNL     1     -35.078   4.076   5.654  1.00 20.00     0.310 C 
ENDBRANCH   5   8
ENDBRANCH   4   5
ENDBRANCH   3   4
TORSDOF 3
ENDMDL
MODEL 2
REMARK VINA RESULT:      -4.3     11.462     12.910
REMARK  3 active torsions:
REMARK  status: ('A' for Active; 'I' for Inactive)
REMARK    1  A    between atoms: C7_7  and  C8_8 
REMARK    2  A    between atoms: C8_8  and  C9_9 
REMARK    3  A    between atoms: C9_9  and  N10_10 
ROOT
HETATM    1  C1  UNL     1     -34.767  17.382   0.273  1.00 20.00     0.012 C 
HETATM    2  C3  UNL     1     -34.781  16.747  -0.745  1.00 20.00    -0.117 C 
HETATM    3  C7  UNL     1     -34.803  15.967  -1.990  1.00 20.00     0.096 C 
ENDROOT
BRANCH   3   4
HETATM    4  C8  UNL     1     -33.531  16.165  -2.825  1.00 20.00     0.061 C 
BRANCH   4   5
HETATM    5  C9  UNL     1     -33.584  15.539  -4.233  1.00 20.00     0.300 C 
HETATM    6  C4  UNL     1     -34.361  14.289  -4.240  1.00 20.00    -0.081 C 
HETATM    7  C2  UNL     1     -34.992  13.266  -4.250  1.00 20.00     0.014 C 
BRANCH   5   8
HETATM    8  N10 UNL     1     -34.196  16.498  -5.155  1.00 20.00     0.095 N 
HETATM    9  C5  UNL     1     -34.134  15.996  -6.526  1.00 20.00     0.310 C 
HETATM   10  C6  UNL     1     -33.531  17.797  -5.054  1.00 20.00     0.310 C 
ENDBRANCH   5   8
ENDBRANCH   4   5
ENDBRANCH   3   4
TORSDOF 3
ENDMDL
MODEL 3
REMARK VINA RESULT:      -4.3     11.492     12.118
REMARK  3 active torsions:
REMARK  status: ('A' for Active; 'I' for Inactive)
REMARK    1  A    between atoms: C7_7  and  C8_8 
REMARK    2  A    between atoms: C8_8  and  C9_9 
REMARK    3  A    between atoms: C9_9  and  N10_10 
ROOT
HETATM    1  C1  UNL     1     -34.717  13.090  -4.904  1.00 20.00     0.012 C 
HETATM    2  C3  UNL     1     -33.954  13.806  -4.314  1.00 20.00    -0.117 C 
HETATM    3  C7  UNL     1     -33.018  14.677  -3.591  1.00 20.00     0.096 C 
ENDROOT
BRANCH   3   4
HETATM    4  C8  UNL     1     -33.635  16.039  -3.247  1.00 20.00     0.061 C 
BRANCH   4   5
HETATM    5  C9  UNL     1     -34.928  15.965  -2.412  1.00 20.00     0.300 C 
HETATM    6  C4  UNL     1     -34.767  16.627  -1.106  1.00 20.00    -0.081 C 
HETATM    7  C2  UNL     1     -34.639  17.163  -0.039  1.00 20.00     0.014 C 
BRANCH   5   8
HETATM    8  N10 UNL     1     -36.011  16.612  -3.156  1.00 20.00     0.095 N 
HETATM    9  C5  UNL     1     -37.039  15.636  -3.509  1.00 20.00     0.310 C 
HETATM   10  C6  UNL     1     -35.486  17.261  -4.356  1.00 20.00     0.310 C 
ENDBRANCH   5   8
ENDBRANCH   4   5
ENDBRANCH   3   4
TORSDOF 3
ENDMDL
MODEL 4
REMARK VINA RESULT:      -4.2     11.528     12.909
REMARK  3 active torsions:
REMARK  status: ('A' for Active; 'I' for Inactive)
REMARK    1  A    between atoms: C7_7  and  C8_8 
REMARK    2  A    between atoms: C8_8  and  C9_9 
REMARK    3  A    between atoms: C9_9  and  N10_10 
ROOT
HETATM    1  C1  UNL     1     -33.552  17.845  -0.673  1.00 20.00     0.012 C 
HETATM    2  C3  UNL     1     -34.146  16.987  -1.267  1.00 20.00    -0.117 C 
HETATM    3  C7  UNL     1     -34.876  15.938  -1.990  1.00 20.00     0.096 C 
ENDROOT
BRANCH   3   4
HETATM    4  C8  UNL     1     -34.051  15.334  -3.133  1.00 20.00     0.061 C 
BRANCH   4   5
HETATM    5  C9  UNL     1     -34.605  15.617  -4.543  1.00 20.00     0.300 C 
HETATM    6  C4  UNL     1     -34.025  16.843  -5.117  1.00 20.00    -0.081 C 
HETATM    7  C2  UNL     1     -33.557  17.844  -5.586  1.00 20.00     0.014 C 
BRANCH   5   8
HETATM    8  N10 UNL     1     -34.295  14.479  -5.412  1.00 20.00     0.095 N 
HETATM    9  C5  UNL     1     -35.014  14.596  -6.679  1.00 20.00     0.310 C 
HETATM   10  C6  UNL     1     -34.632  13.223  -4.745  1.00 20.00     0.310 C 
ENDBRANCH   5   8
ENDBRANCH   4   5
ENDBRANCH   3   4
TORSDOF 3
ENDMDL
MODEL 5
REMARK VINA RESULT:      -4.1     11.489     12.211
REMARK  3 active torsions:
REMARK  status: ('A' for Active; 'I' for Inactive)
REMARK    1  A    between atoms: C7_7  and  C8_8 
REMARK    2  A    between atoms: C8_8  and  C9_9 
REMARK    3  A    between atoms: C9_9  and  N10_10 
ROOT
HETATM    1  C1  UNL     1     -32.965  18.509  -0.156  1.00 20.00     0.012 C 
HETATM    2  C3  UNL     1     -33.650  17.647  -0.635  1.00 20.00    -0.117 C 
HETATM    3  C7  UNL     1     -34.491  16.592  -1.216  1.00 20.00     0.096 C 
ENDROOT
BRANCH   3   4
HETATM    4  C8  UNL     1     -34.050  16.209  -2.635  1.00 20.00     0.061 C 
BRANCH   4   5
HETATM    5  C9  UNL     1     -34.637  14.882  -3.153  1.00 20.00     0.300 C 
HETATM    6  C4  UNL     1     -36.083  14.993  -3.409  1.00 20.00    -0.081 C 
HETATM    7  C2  UNL     1     -37.263  15.079  -3.615  1.00 20.00     0.014 C 
BRANCH   5   8
HETATM    8  N10 UNL     1     -33.951  14.512  -4.393  1.00 20.00     0.095 N 
HETATM    9  C5  UNL     1     -34.096  15.571  -5.390  1.00 20.00     0.310 C 
HETATM   10  C6  UNL     1     -34.475  13.248  -4.907  1.00 20.00     0.310 C 
ENDBRANCH   5   8
ENDBRANCH   4   5
ENDBRANCH   3   4
TORSDOF 3
ENDMDL
MODEL 6
REMARK VINA RESULT:      -4.1     11.196     12.494
REMARK  3 active torsions:
REMARK  status: ('A' for Active; 'I' for Inactive)
REMARK    1  A    between atoms: C7_7  and  C8_8 
REMARK    2  A    between atoms: C8_8  and  C9_9 
REMARK    3  A    between atoms: C9_9  and  N10_10 
ROOT
HETATM    1  C1  UNL     1     -34.514  15.115  -7.555  1.00 20.00     0.012 C 
HETATM    2  C3  UNL     1     -34.110  15.748  -6.617  1.00 20.00    -0.117 C 
HETATM    3  C7  UNL     1     -33.612  16.522  -5.472  1.00 20.00     0.096 C 
ENDROOT
BRANCH   3   4
HETATM    4  C8  UNL     1     -34.651  16.638  -4.349  1.00 20.00     0.061 C 
BRANCH   4   5
HETATM    5  C9  UNL     1     -34.525  15.569  -3.245  1.00 20.00     0.300 C 
HETATM    6  C4  UNL     1     -34.559  16.171  -1.902  1.00 20.00    -0.081 C 
HETATM    7  C2  UNL     1     -34.582  16.659  -0.805  1.00 20.00     0.014 C 
BRANCH   5   8
HETATM    8  N10 UNL     1     -35.629  14.616  -3.380  1.00 20.00     0.095 N 
HETATM    9  C5  UNL     1     -35.199  13.444  -4.139  1.00 20.00     0.310 C 
HETATM   10  C6  UNL     1     -36.775  15.254  -4.026  1.00 20.00     0.310 C 
ENDBRANCH   5   8
ENDBRANCH   4   5
ENDBRANCH   3   4
TORSDOF 3
ENDMDL
MODEL 7
REMARK VINA RESULT:      -4.0     11.459     12.414
REMARK  3 active torsions:
REMARK  status: ('A' for Active; 'I' for Inactive)
REMARK    1  A    between atoms: C7_7  and  C8_8 
REMARK    2  A    between atoms: C8_8  and  C9_9 
REMARK    3  A    between atoms: C9_9  and  N10_10 
ROOT
HETATM    1  C1  UNL     1     -38.518  15.466  -3.414  1.00 20.00     0.012 C 
HETATM    2  C3  UNL     1     -37.513  14.944  -3.814  1.00 20.00    -0.117 C 
HETATM    3  C7  UNL     1     -36.286  14.303  -4.306  1.00 20.00     0.096 C 
ENDROOT
BRANCH   3   4
HETATM    4  C8  UNL     1     -35.102  14.494  -3.349  1.00 20.00     0.061 C 
BRANCH   4   5
HETATM    5  C9  UNL     1     -34.628  15.953  -3.201  1.00 20.00     0.300 C 
HETATM    6  C4  UNL     1     -34.622  16.379  -1.791  1.00 20.00    -0.081 C 
HETATM    7  C2  UNL     1     -34.620  16.732  -0.643  1.00 20.00     0.014 C 
BRANCH   5   8
HETATM    8  N10 UNL     1     -33.275  16.069  -3.749  1.00 20.00     0.095 N 
HETATM    9  C5  UNL     1     -33.326  16.531  -5.135  1.00 20.00     0.310 C 
HETATM   10  C6  UNL     1     -32.578  14.787  -3.662  1.00 20.00     0.310 C 
ENDBRANCH   5   8
ENDBRANCH   4   5
ENDBRANCH   3   4
TORSDOF 3
ENDMDL
MODEL 8
REMARK VINA RESULT:      -4.0     11.236     12.370
REMARK  3 active torsions:
REMARK  status: ('A' for Active; 'I' for Inactive)
REMARK    1  A    between atoms: C7_7  and  C8_8 
REMARK    2  A    between atoms: C8_8  and  C9_9 
REMARK    3  A    between atoms: C9_9  and  N10_10 
ROOT
HETATM    1  C1  UNL     1     -34.961  17.603   0.684  1.00 20.00     0.012 C 
HETATM    2  C3  UNL     1     -34.719  16.996  -0.323  1.00 20.00    -0.117 C 
HETATM    3  C7  UNL     1     -34.418  16.252  -1.553  1.00 20.00     0.096 C 
ENDROOT
BRANCH   3   4
HETATM    4  C8  UNL     1     -35.528  16.385  -2.603  1.00 20.00     0.061 C 
BRANCH   4   5
HETATM    5  C9  UNL     1     -35.155  15.858  -4.003  1.00 20.00     0.300 C 
HETATM    6  C4  UNL     1     -34.331  14.640  -3.920  1.00 20.00    -0.081 C 
HETATM    7  C2  UNL     1     -33.656  13.649  -3.857  1.00 20.00     0.014 C 
BRANCH   5   8
HETATM    8  N10 UNL     1     -36.385  15.565  -4.742  1.00 20.00     0.095 N 
HETATM    9  C5  UNL     1     -37.208  14.612  -4.001  1.00 20.00     0.310 C 
HETATM   10  C6  UNL     1     -36.067  15.044  -6.070  1.00 20.00     0.310 C 
ENDBRANCH   5   8
ENDBRANCH   4   5
ENDBRANCH   3   4
TORSDOF 3
ENDMDL
MODEL 9
REMARK VINA RESULT:      -4.0      1.117      2.310
REMARK  3 active torsions:
REMARK  status: ('A' for Active; 'I' for Inactive)
REMARK    1  A    between atoms: C7_7  and  C8_8 
REMARK    2  A    between atoms: C8_8  and  C9_9 
REMARK    3  A    between atoms: C9_9  and  N10_10 
ROOT
HETATM    1  C1  UNL     1     -32.452   9.549   1.405  1.00 20.00     0.012 C 
HETATM    2  C3  UNL     1     -32.211   8.514   1.964  1.00 20.00    -0.117 C 
HETATM    3  C7  UNL     1     -31.914   7.245   2.644  1.00 20.00     0.096 C 
ENDROOT
BRANCH   3   4
HETATM    4  C8  UNL     1     -32.555   7.164   4.035  1.00 20.00     0.061 C 
BRANCH   4   5
HETATM    5  C9  UNL     1     -33.907   6.427   4.076  1.00 20.00     0.300 C 
HETATM    6  C4  UNL     1     -34.069   5.529   2.920  1.00 20.00    -0.081 C 
HETATM    7  C2  UNL     1     -34.207   4.799   1.976  1.00 20.00     0.014 C 
BRANCH   5   8
HETATM    8  N10 UNL     1     -33.985   5.646   5.313  1.00 20.00     0.095 N 
HETATM    9  C5  UNL     1     -35.193   4.824   5.320  1.00 20.00     0.310 C 
HETATM   10  C6  UNL     1     -33.959   6.531   6.476  1.00 20.00     0.310 C 
ENDBRANCH   5   8
ENDBRANCH   4   5
ENDBRANCH   3   4
TORSDOF 3
ENDMDL
