MODEL 1
REMARK VINA RESULT:      -5.0      0.000      0.000
REMARK  2 active torsions:
REMARK  status: ('A' for Active; 'I' for Inactive)
REMARK    1  A    between atoms: C1_1  and  C10_10 
REMARK    2  A    between atoms: C1_1  and  C11_11 
ROOT
HETATM    1  C2  UNL     1     -33.276  15.885  -4.383  1.00 20.00     0.009 C 
HETATM    2  C3  UNL     1     -34.208  13.546  -4.218  1.00 20.00     0.010 C 
HETATM    3  C4  UNL     1     -34.413  14.784  -6.348  1.00 20.00     0.010 C 
HETATM    4  C5  UNL     1     -35.366  15.244  -3.117  1.00 20.00     0.022 C 
HETATM    5  C6  UNL     1     -35.571  16.482  -5.251  1.00 20.00     0.022 C 
HETATM    6  C7  UNL     1     -33.926  14.831  -3.437  1.00 20.00    -0.013 C 
HETATM    7  C8  UNL     1     -34.141  16.121  -5.657  1.00 20.00    -0.013 C 
HETATM    8  C9  UNL     1     -35.217  14.055  -5.260  1.00 20.00     0.002 C 
HETATM    9  C10 UNL     1     -35.990  15.200  -4.516  1.00 20.00     0.026 C 
ENDROOT
BRANCH   9  10
HETATM   10  C1  UNL     1     -37.471  15.009  -4.500  1.00 20.00     0.149 C 
HETATM   11  O12 UNL     1     -37.987  14.182  -3.750  1.00 20.00    -0.296 OA
BRANCH  10  12
HETATM   12  C11 UNL     1     -38.257  15.885  -5.449  1.00 20.00     0.193 C 
HETATM   13 CL13 UNL     1     -38.419  15.107  -7.030  1.00 20.00    -0.123 Cl
ENDBRANCH  10  12
ENDBRANCH   9  10
TORSDOF 2
ENDMDL
MODEL 2
REMARK VINA RESULT:      -5.0      1.604      2.254
REMARK  2 active torsions:
REMARK  status: ('A' for Active; 'I' for Inactive)
REMARK    1  A    between atoms: C1_1  and  C10_10 
REMARK    2  A    between atoms: C1_1  and  C11_11 
ROOT
HETATM    1  C2  UNL     1     -33.173  14.303  -3.736  1.00 20.00     0.009 C 
HETATM    2  C3  UNL     1     -34.434  14.641  -5.895  1.00 20.00     0.010 C 
HETATM    3  C4  UNL     1     -34.100  16.561  -4.374  1.00 20.00     0.010 C 
HETATM    4  C5  UNL     1     -35.516  13.477  -4.189  1.00 20.00     0.022 C 
HETATM    5  C6  UNL     1     -35.181  15.400  -2.668  1.00 20.00     0.022 C 
HETATM    6  C7  UNL     1     -34.115  13.638  -4.784  1.00 20.00    -0.013 C 
HETATM    7  C8  UNL     1     -33.766  15.640  -3.201  1.00 20.00    -0.013 C 
HETATM    8  C9  UNL     1     -35.170  15.730  -5.099  1.00 20.00     0.002 C 
HETATM    9  C10 UNL     1     -35.893  14.943  -3.950  1.00 20.00     0.026 C 
ENDROOT
BRANCH   9  10
HETATM   10  C1  UNL     1     -37.367  15.177  -3.899  1.00 20.00     0.149 C 
HETATM   11  O12 UNL     1     -38.135  14.269  -3.586  1.00 20.00    -0.296 OA
BRANCH  10  12
HETATM   12  C11 UNL     1     -37.822  16.574  -4.255  1.00 20.00     0.193 C 
HETATM   13 CL13 UNL     1     -37.954  17.577  -2.803  1.00 20.00    -0.123 Cl
ENDBRANCH  10  12
ENDBRANCH   9  10
TORSDOF 2
ENDMDL
MODEL 3
REMARK VINA RESULT:      -4.9      2.752      3.718
REMARK  2 active torsions:
REMARK  status: ('A' for Active; 'I' for Inactive)
REMARK    1  A    between atoms: C1_1  and  C10_10 
REMARK    2  A    between atoms: C1_1  and  C11_11 
ROOT
HETATM    1  C2  UNL     1     -34.728  14.386  -6.028  1.00 20.00     0.009 C 
HETATM    2  C3  UNL     1     -33.059  15.920  -4.920  1.00 20.00     0.010 C 
HETATM    3  C4  UNL     1     -33.706  13.817  -3.793  1.00 20.00     0.010 C 
HETATM    4  C5  UNL     1     -35.290  16.596  -4.942  1.00 20.00     0.022 C 
HETATM    5  C6  UNL     1     -35.936  14.490  -3.813  1.00 20.00     0.022 C 
HETATM    6  C7  UNL     1     -34.283  15.867  -5.836  1.00 20.00    -0.013 C 
HETATM    7  C8  UNL     1     -34.956  13.675  -4.661  1.00 20.00    -0.013 C 
HETATM    8  C9  UNL     1     -33.644  15.343  -3.621  1.00 20.00     0.002 C 
HETATM    9  C10 UNL     1     -35.146  15.796  -3.643  1.00 20.00     0.026 C 
ENDROOT
BRANCH   9  10
HETATM   10  C1  UNL     1     -35.558  16.558  -2.427  1.00 20.00     0.149 C 
HETATM   11  O12 UNL     1     -36.482  17.369  -2.479  1.00 20.00    -0.296 OA
BRANCH  10  12
HETATM   12  C11 UNL     1     -34.773  16.263  -1.169  1.00 20.00     0.193 C 
HETATM   13 CL13 UNL     1     -33.669  17.594  -0.794  1.00 20.00    -0.123 Cl
ENDBRANCH  10  12
ENDBRANCH   9  10
TORSDOF 2
ENDMDL
MODEL 4
REMARK VINA RESULT:      -4.9      2.084      2.940
REMARK  2 active torsions:
REMARK  status: ('A' for Active; 'I' for Inactive)
REMARK    1  A    between atoms: C1_1  and  C10_10 
REMARK    2  A    between atoms: C1_1  and  C11_11 
ROOT
HETATM    1  C2  UNL     1     -34.681  15.681  -2.438  1.00 20.00     0.009 C 
HETATM    2  C3  UNL     1     -35.892  14.110  -3.998  1.00 20.00     0.010 C 
HETATM    3  C4  UNL     1     -33.422  14.047  -3.891  1.00 20.00     0.010 C 
HETATM    4  C5  UNL     1     -35.810  16.363  -4.592  1.00 20.00     0.022 C 
HETATM    5  C6  UNL     1     -33.338  16.298  -4.485  1.00 20.00     0.022 C 
HETATM    6  C7  UNL     1     -35.937  15.491  -3.340  1.00 20.00    -0.013 C 
HETATM    7  C8  UNL     1     -33.364  15.424  -3.229  1.00 20.00    -0.013 C 
HETATM    8  C9  UNL     1     -34.614  14.234  -4.844  1.00 20.00     0.002 C 
HETATM    9  C10 UNL     1     -34.561  15.753  -5.236  1.00 20.00     0.026 C 
ENDROOT
BRANCH   9  10
HETATM   10  C1  UNL     1     -34.478  15.986  -6.709  1.00 20.00     0.149 C 
HETATM   11  O12 UNL     1     -34.175  17.093  -7.152  1.00 20.00    -0.296 OA
BRANCH  10  12
HETATM   12  C11 UNL     1     -34.789  14.792  -7.582  1.00 20.00     0.193 C 
HETATM   13 CL13 UNL     1     -36.523  14.696  -7.918  1.00 20.00    -0.123 Cl
ENDBRANCH  10  12
ENDBRANCH   9  10
TORSDOF 2
ENDMDL
MODEL 5
REMARK VINA RESULT:      -4.9      1.671      2.798
REMARK  2 active torsions:
REMARK  status: ('A' for Active; 'I' for Inactive)
REMARK    1  A    between atoms: C1_1  and  C10_10 
REMARK    2  A    between atoms: C1_1  and  C11_11 
ROOT
HETATM    1  C2  UNL     1     -35.017  16.371  -2.024  1.00 20.00     0.009 C 
HETATM    2  C3  UNL     1     -33.512  16.809  -4.002  1.00 20.00     0.010 C 
HETATM    3  C4  UNL     1     -35.958  17.069  -4.259  1.00 20.00     0.010 C 
HETATM    4  C5  UNL     1     -33.815  14.590  -3.352  1.00 20.00     0.022 C 
HETATM    5  C6  UNL     1     -36.263  14.852  -3.610  1.00 20.00     0.022 C 
HETATM    6  C7  UNL     1     -33.682  15.981  -2.726  1.00 20.00    -0.013 C 
HETATM    7  C8  UNL     1     -36.229  16.253  -2.995  1.00 20.00    -0.013 C 
HETATM    8  C9  UNL     1     -34.727  16.337  -4.817  1.00 20.00     0.002 C 
HETATM    9  C10 UNL     1     -34.930  14.845  -4.372  1.00 20.00     0.026 C 
ENDROOT
BRANCH   9  10
HETATM   10  C1  UNL     1     -34.927  13.877  -5.510  1.00 20.00     0.149 C 
HETATM   11  O12 UNL     1     -34.841  12.668  -5.302  1.00 20.00    -0.296 OA
BRANCH  10  12
HETATM   12  C11 UNL     1     -35.033  14.485  -6.890  1.00 20.00     0.193 C 
HETATM   13 CL13 UNL     1     -36.721  14.837  -7.290  1.00 20.00    -0.123 Cl
ENDBRANCH  10  12
ENDBRANCH   9  10
TORSDOF 2
ENDMDL
MODEL 6
REMARK VINA RESULT:      -4.9      1.148      1.167
REMARK  2 active torsions:
REMARK  status: ('A' for Active; 'I' for Inactive)
REMARK    1  A    between atoms: C1_1  and  C10_10 
REMARK    2  A    between atoms: C1_1  and  C11_11 
ROOT
HETATM    1  C2  UNL     1     -33.237  15.913  -4.501  1.00 20.00     0.009 C 
HETATM    2  C3  UNL     1     -34.135  13.727  -3.616  1.00 20.00     0.010 C 
HETATM    3  C4  UNL     1     -34.692  14.420  -5.923  1.00 20.00     0.010 C 
HETATM    4  C5  UNL     1     -35.086  15.690  -2.794  1.00 20.00     0.022 C 
HETATM    5  C6  UNL     1     -35.643  16.383  -5.104  1.00 20.00     0.022 C 
HETATM    6  C7  UNL     1     -33.722  15.149  -3.232  1.00 20.00    -0.013 C 
HETATM    7  C8  UNL     1     -34.303  15.871  -5.636  1.00 20.00    -0.013 C 
HETATM    8  C9  UNL     1     -35.303  14.012  -4.573  1.00 20.00     0.002 C 
HETATM    9  C10 UNL     1     -35.936  15.337  -4.019  1.00 20.00     0.026 C 
ENDROOT
BRANCH   9  10
HETATM   10  C1  UNL     1     -37.394  15.221  -3.716  1.00 20.00     0.149 C 
HETATM   11  O12 UNL     1     -37.957  14.128  -3.754  1.00 20.00    -0.296 OA
BRANCH  10  12
HETATM   12  C11 UNL     1     -38.098  16.514  -3.371  1.00 20.00     0.193 C 
HETATM   13 CL13 UNL     1     -39.333  16.896  -4.580  1.00 20.00    -0.123 Cl
ENDBRANCH  10  12
ENDBRANCH   9  10
TORSDOF 2
ENDMDL
MODEL 7
REMARK VINA RESULT:      -4.8      2.403      3.706
REMARK  2 active torsions:
REMARK  status: ('A' for Active; 'I' for Inactive)
REMARK    1  A    between atoms: C1_1  and  C10_10 
REMARK    2  A    between atoms: C1_1  and  C11_11 
ROOT
HETATM    1  C2  UNL     1     -36.776  15.109  -7.107  1.00 20.00     0.009 C 
HETATM    2  C3  UNL     1     -36.009  16.962  -5.575  1.00 20.00     0.010 C 
HETATM    3  C4  UNL     1     -34.359  15.829  -7.026  1.00 20.00     0.010 C 
HETATM    4  C5  UNL     1     -36.556  14.917  -4.598  1.00 20.00     0.022 C 
HETATM    5  C6  UNL     1     -34.903  13.785  -6.050  1.00 20.00     0.022 C 
HETATM    6  C7  UNL     1     -37.017  15.823  -5.743  1.00 20.00    -0.013 C 
HETATM    7  C8  UNL     1     -35.297  14.644  -7.255  1.00 20.00    -0.013 C 
HETATM    8  C9  UNL     1     -34.686  16.180  -5.566  1.00 20.00     0.002 C 
HETATM    9  C10 UNL     1     -35.061  14.803  -4.912  1.00 20.00     0.026 C 
ENDROOT
BRANCH   9  10
HETATM   10  C1  UNL     1     -34.228  14.461  -3.721  1.00 20.00     0.149 C 
HETATM   11  O12 UNL     1     -34.076  13.290  -3.378  1.00 20.00    -0.296 OA
BRANCH  10  12
HETATM   12  C11 UNL     1     -33.609  15.633  -2.994  1.00 20.00     0.193 C 
HETATM   13 CL13 UNL     1     -34.628  16.137  -1.637  1.00 20.00    -0.123 Cl
ENDBRANCH  10  12
ENDBRANCH   9  10
TORSDOF 2
ENDMDL
MODEL 8
REMARK VINA RESULT:      -4.8      1.900      2.723
REMARK  2 active torsions:
REMARK  status: ('A' for Active; 'I' for Inactive)
REMARK    1  A    between atoms: C1_1  and  C10_10 
REMARK    2  A    between atoms: C1_1  and  C11_11 
ROOT
HETATM    1  C2  UNL     1     -33.336  13.711  -3.804  1.00 20.00     0.009 C 
HETATM    2  C3  UNL     1     -34.587  15.624  -2.736  1.00 20.00     0.010 C 
HETATM    3  C4  UNL     1     -35.839  13.933  -4.035  1.00 20.00     0.010 C 
HETATM    4  C5  UNL     1     -33.287  16.104  -4.610  1.00 20.00     0.022 C 
HETATM    5  C6  UNL     1     -34.541  14.411  -5.909  1.00 20.00     0.022 C 
HETATM    6  C7  UNL     1     -33.259  15.205  -3.371  1.00 20.00    -0.013 C 
HETATM    7  C8  UNL     1     -34.564  13.444  -4.724  1.00 20.00    -0.013 C 
HETATM    8  C9  UNL     1     -35.547  15.437  -3.921  1.00 20.00     0.002 C 
HETATM    9  C10 UNL     1     -34.666  15.757  -5.181  1.00 20.00     0.026 C 
ENDROOT
BRANCH   9  10
HETATM   10  C1  UNL     1     -35.235  16.828  -6.052  1.00 20.00     0.149 C 
HETATM   11  O12 UNL     1     -34.526  17.413  -6.869  1.00 20.00    -0.296 OA
BRANCH  10  12
HETATM   12  C11 UNL     1     -36.704  17.125  -5.853  1.00 20.00     0.193 C 
HETATM   13 CL13 UNL     1     -37.702  15.993  -6.777  1.00 20.00    -0.123 Cl
ENDBRANCH  10  12
ENDBRANCH   9  10
TORSDOF 2
ENDMDL
MODEL 9
REMARK VINA RESULT:      -4.8      3.059      3.826
REMARK  2 active torsions:
REMARK  status: ('A' for Active; 'I' for Inactive)
REMARK    1  A    between atoms: C1_1  and  C10_10 
REMARK    2  A    between atoms: C1_1  and  C11_11 
ROOT
HETATM    1  C2  UNL     1     -34.707  13.703  -5.681  1.00 20.00     0.009 C 
HETATM    2  C3  UNL     1     -36.523  14.401  -4.074  1.00 20.00     0.010 C 
HETATM    3  C4  UNL     1     -35.831  15.954  -5.869  1.00 20.00     0.010 C 
HETATM    4  C5  UNL     1     -34.336  14.355  -3.269  1.00 20.00     0.022 C 
HETATM    5  C6  UNL     1     -33.645  15.910  -5.065  1.00 20.00     0.022 C 
HETATM    6  C7  UNL     1     -35.244  13.575  -4.224  1.00 20.00    -0.013 C 
HETATM    7  C8  UNL     1     -34.524  15.194  -6.094  1.00 20.00    -0.013 C 
HETATM    8  C9  UNL     1     -35.988  15.816  -4.347  1.00 20.00     0.002 C 
HETATM    9  C10 UNL     1     -34.515  15.778  -3.807  1.00 20.00     0.026 C 
ENDROOT
BRANCH   9  10
HETATM   10  C1  UNL     1     -34.221  16.837  -2.796  1.00 20.00     0.149 C 
HETATM   11  O12 UNL     1     -33.731  17.912  -3.139  1.00 20.00    -0.296 OA
BRANCH  10  12
HETATM   12  C11 UNL     1     -34.563  16.491  -1.365  1.00 20.00     0.193 C 
HETATM   13 CL13 UNL     1     -33.833  17.654  -0.248  1.00 20.00    -0.123 Cl
ENDBRANCH  10  12
ENDBRANCH   9  10
TORSDOF 2
ENDMDL
