MODEL 1
REMARK VINA RESULT:      -5.8      0.000      0.000
REMARK  0 active torsions:
REMARK  status: ('A' for Active; 'I' for Inactive)
ROOT
HETATM    1  C1  UNL     1     -34.602   4.750   5.893  1.00 20.00     0.185 C 
HETATM    2  C2  UNL     1     -34.457   6.257   5.699  1.00 20.00     0.087 C 
HETATM    3  C3  UNL     1     -34.020   6.304   4.256  1.00 20.00     0.340 C 
HETATM    4  C4  UNL     1     -34.903   5.254   3.650  1.00 20.00     0.420 C 
HETATM    5  C5  UNL     1     -33.497   6.913   6.672  1.00 20.00     0.019 C 
HETATM    6  O6  UNL     1     -35.014   4.208   4.619  1.00 20.00    -0.321 OA
HETATM    7  F7  UNL     1     -34.167   7.509   3.689  1.00 20.00    -0.196 F 
HETATM    8  F8  UNL     1     -32.724   5.935   4.138  1.00 20.00    -0.196 F 
HETATM    9  F9  UNL     1     -36.149   5.735   3.427  1.00 20.00    -0.169 F 
HETATM   10  F10 UNL     1     -34.424   4.775   2.487  1.00 20.00    -0.169 F 
ENDROOT
TORSDOF 0
ENDMDL
MODEL 2
REMARK VINA RESULT:      -5.0      1.473      2.825
REMARK  0 active torsions:
REMARK  status: ('A' for Active; 'I' for Inactive)
ROOT
HETATM    1  C1  UNL     1     -33.743   6.222   5.848  1.00 20.00     0.185 C 
HETATM    2  C2  UNL     1     -34.108   5.005   5.002  1.00 20.00     0.087 C 
HETATM    3  C3  UNL     1     -34.196   5.642   3.637  1.00 20.00     0.340 C 
HETATM    4  C4  UNL     1     -33.021   6.573   3.673  1.00 20.00     0.420 C 
HETATM    5  C5  UNL     1     -35.371   4.299   5.452  1.00 20.00     0.019 C 
HETATM    6  O6  UNL     1     -32.954   7.089   5.004  1.00 20.00    -0.321 OA
HETATM    7  F7  UNL     1     -34.141   4.761   2.628  1.00 20.00    -0.196 F 
HETATM    8  F8  UNL     1     -35.341   6.353   3.515  1.00 20.00    -0.196 F 
HETATM    9  F9  UNL     1     -31.866   5.909   3.435  1.00 20.00    -0.169 F 
HETATM   10  F10 UNL     1     -33.121   7.575   2.779  1.00 20.00    -0.169 F 
ENDROOT
TORSDOF 0
ENDMDL
MODEL 3
REMARK VINA RESULT:      -4.9      1.844      2.815
REMARK  0 active torsions:
REMARK  status: ('A' for Active; 'I' for Inactive)
ROOT
HETATM    1  C1  UNL     1     -34.544   5.214   3.378  1.00 20.00     0.185 C 
HETATM    2  C2  UNL     1     -33.336   5.880   4.030  1.00 20.00     0.087 C 
HETATM    3  C3  UNL     1     -33.907   6.206   5.388  1.00 20.00     0.340 C 
HETATM    4  C4  UNL     1     -34.698   4.965   5.678  1.00 20.00     0.420 C 
HETATM    5  C5  UNL     1     -32.804   7.075   3.265  1.00 20.00     0.019 C 
HETATM    6  O6  UNL     1     -35.271   4.550   4.435  1.00 20.00    -0.321 OA
HETATM    7  F7  UNL     1     -32.976   6.467   6.315  1.00 20.00    -0.196 F 
HETATM    8  F8  UNL     1     -34.739   7.271   5.312  1.00 20.00    -0.196 F 
HETATM    9  F9  UNL     1     -33.894   3.965   6.109  1.00 20.00    -0.169 F 
HETATM   10  F10 UNL     1     -35.657   5.160   6.601  1.00 20.00    -0.169 F 
ENDROOT
TORSDOF 0
ENDMDL
MODEL 4
REMARK VINA RESULT:      -4.6     12.237     13.198
REMARK  0 active torsions:
REMARK  status: ('A' for Active; 'I' for Inactive)
ROOT
HETATM    1  C1  UNL     1     -33.863  16.320  -5.577  1.00 20.00     0.185 C 
HETATM    2  C2  UNL     1     -35.001  15.581  -4.879  1.00 20.00     0.087 C 
HETATM    3  C3  UNL     1     -34.228  14.485  -4.188  1.00 20.00     0.340 C 
HETATM    4  C4  UNL     1     -33.022  15.237  -3.709  1.00 20.00     0.420 C 
HETATM    5  C5  UNL     1     -36.087  15.094  -5.818  1.00 20.00     0.019 C 
HETATM    6  O6  UNL     1     -32.700  16.183  -4.731  1.00 20.00    -0.321 OA
HETATM    7  F7  UNL     1     -34.907  13.890  -3.198  1.00 20.00    -0.196 F 
HETATM    8  F8  UNL     1     -33.852  13.535  -5.075  1.00 20.00    -0.196 F 
HETATM    9  F9  UNL     1     -33.299  15.933  -2.582  1.00 20.00    -0.169 F 
HETATM   10  F10 UNL     1     -31.971  14.433  -3.458  1.00 20.00    -0.169 F 
ENDROOT
TORSDOF 0
ENDMDL
MODEL 5
REMARK VINA RESULT:      -4.6     11.982     13.040
REMARK  0 active torsions:
REMARK  status: ('A' for Active; 'I' for Inactive)
ROOT
HETATM    1  C1  UNL     1     -34.973  13.242  -4.605  1.00 20.00     0.185 C 
HETATM    2  C2  UNL     1     -34.391  14.195  -5.644  1.00 20.00     0.087 C 
HETATM    3  C3  UNL     1     -34.116  15.402  -4.781  1.00 20.00     0.340 C 
HETATM    4  C4  UNL     1     -33.578  14.756  -3.539  1.00 20.00     0.420 C 
HETATM    5  C5  UNL     1     -35.308  14.457  -6.823  1.00 20.00     0.019 C 
HETATM    6  O6  UNL     1     -34.326  13.552  -3.351  1.00 20.00    -0.321 OA
HETATM    7  F7  UNL     1     -33.264  16.276  -5.334  1.00 20.00    -0.196 F 
HETATM    8  F8  UNL     1     -35.266  16.055  -4.495  1.00 20.00    -0.196 F 
HETATM    9  F9  UNL     1     -32.279  14.408  -3.696  1.00 20.00    -0.169 F 
HETATM   10  F10 UNL     1     -33.671  15.548  -2.455  1.00 20.00    -0.169 F 
ENDROOT
TORSDOF 0
ENDMDL
MODEL 6
REMARK VINA RESULT:      -4.4     12.155     12.980
REMARK  0 active torsions:
REMARK  status: ('A' for Active; 'I' for Inactive)
ROOT
HETATM    1  C1  UNL     1     -35.653  16.428  -3.732  1.00 20.00     0.185 C 
HETATM    2  C2  UNL     1     -34.329  16.346  -2.977  1.00 20.00     0.087 C 
HETATM    3  C3  UNL     1     -33.757  15.083  -3.571  1.00 20.00     0.340 C 
HETATM    4  C4  UNL     1     -34.127  15.246  -5.015  1.00 20.00     0.420 C 
HETATM    5  C5  UNL     1     -34.480  16.324  -1.469  1.00 20.00     0.019 C 
HETATM    6  O6  UNL     1     -35.421  15.853  -5.036  1.00 20.00    -0.321 OA
HETATM    7  F7  UNL     1     -32.438  14.946  -3.376  1.00 20.00    -0.196 F 
HETATM    8  F8  UNL     1     -34.375  13.993  -3.060  1.00 20.00    -0.196 F 
HETATM    9  F9  UNL     1     -33.273  16.086  -5.645  1.00 20.00    -0.169 F 
HETATM   10  F10 UNL     1     -34.139  14.079  -5.687  1.00 20.00    -0.169 F 
ENDROOT
TORSDOF 0
ENDMDL
MODEL 7
REMARK VINA RESULT:      -4.4      8.617      9.548
REMARK  0 active torsions:
REMARK  status: ('A' for Active; 'I' for Inactive)
ROOT
HETATM    1  C1  UNL     1     -42.648   5.197  -2.475  1.00 20.00     0.185 C 
HETATM    2  C2  UNL     1     -41.773   6.407  -2.160  1.00 20.00     0.087 C 
HETATM    3  C3  UNL     1     -41.570   6.215  -0.677  1.00 20.00     0.340 C 
HETATM    4  C4  UNL     1     -41.366   4.731  -0.600  1.00 20.00     0.420 C 
HETATM    5  C5  UNL     1     -42.395   7.734  -2.546  1.00 20.00     0.019 C 
HETATM    6  O6  UNL     1     -42.249   4.150  -1.564  1.00 20.00    -0.321 OA
HETATM    7  F7  UNL     1     -40.542   6.915  -0.180  1.00 20.00    -0.196 F 
HETATM    8  F8  UNL     1     -42.687   6.559   0.005  1.00 20.00    -0.196 F 
HETATM    9  F9  UNL     1     -40.103   4.394  -0.951  1.00 20.00    -0.169 F 
HETATM   10  F10 UNL     1     -41.608   4.233   0.627  1.00 20.00    -0.169 F 
ENDROOT
TORSDOF 0
ENDMDL
MODEL 8
REMARK VINA RESULT:      -4.4      1.398      2.066
REMARK  0 active torsions:
REMARK  status: ('A' for Active; 'I' for Inactive)
ROOT
HETATM    1  C1  UNL     1     -33.773   6.634   5.398  1.00 20.00     0.185 C 
HETATM    2  C2  UNL     1     -33.693   6.766   3.880  1.00 20.00     0.087 C 
HETATM    3  C3  UNL     1     -33.958   5.339   3.470  1.00 20.00     0.340 C 
HETATM    4  C4  UNL     1     -35.047   4.957   4.428  1.00 20.00     0.420 C 
HETATM    5  C5  UNL     1     -32.379   7.333   3.380  1.00 20.00     0.019 C 
HETATM    6  O6  UNL     1     -34.732   5.589   5.671  1.00 20.00    -0.321 OA
HETATM    7  F7  UNL     1     -34.315   5.205   2.185  1.00 20.00    -0.196 F 
HETATM    8  F8  UNL     1     -32.866   4.569   3.688  1.00 20.00    -0.196 F 
HETATM    9  F9  UNL     1     -36.244   5.437   4.019  1.00 20.00    -0.169 F 
HETATM   10  F10 UNL     1     -35.160   3.626   4.587  1.00 20.00    -0.169 F 
ENDROOT
TORSDOF 0
ENDMDL
MODEL 9
REMARK VINA RESULT:      -4.4     12.213     12.995
REMARK  0 active torsions:
REMARK  status: ('A' for Active; 'I' for Inactive)
ROOT
HETATM    1  C1  UNL     1     -35.815  15.301  -3.528  1.00 20.00     0.185 C 
HETATM    2  C2  UNL     1     -34.605  14.373  -3.507  1.00 20.00     0.087 C 
HETATM    3  C3  UNL     1     -33.502  15.358  -3.805  1.00 20.00     0.340 C 
HETATM    4  C4  UNL     1     -33.931  16.534  -2.978  1.00 20.00     0.420 C 
HETATM    5  C5  UNL     1     -34.699  13.216  -4.482  1.00 20.00     0.019 C 
HETATM    6  O6  UNL     1     -35.357  16.588  -3.058  1.00 20.00    -0.321 OA
HETATM    7  F7  UNL     1     -32.280  14.909  -3.490  1.00 20.00    -0.196 F 
HETATM    8  F8  UNL     1     -33.505  15.696  -5.115  1.00 20.00    -0.196 F 
HETATM    9  F9  UNL     1     -33.603  16.358  -1.676  1.00 20.00    -0.169 F 
HETATM   10  F10 UNL     1     -33.387  17.692  -3.394  1.00 20.00    -0.169 F 
ENDROOT
TORSDOF 0
ENDMDL
