MODEL 1
REMARK VINA RESULT:      -4.5      0.000      0.000
REMARK  1 active torsions:
REMARK  status: ('A' for Active; 'I' for Inactive)
REMARK    1  A    between atoms: C1_1  and  C6_6 
ROOT
HETATM    1  C2  UNL     1     -34.402  17.160  -6.950  1.00 20.00     0.005 C 
HETATM    2  C3  UNL     1     -33.756  17.838  -5.730  1.00 20.00     0.005 C 
HETATM    3  C4  UNL     1     -35.537  15.437  -5.278  1.00 20.00     0.018 C 
HETATM    4  C5  UNL     1     -33.709  16.046  -3.808  1.00 20.00     0.018 C 
HETATM    5  C6  UNL     1     -34.866  15.061  -3.961  1.00 20.00     0.073 C 
HETATM    6  C7  UNL     1     -34.370  15.824  -6.182  1.00 20.00    -0.010 C 
HETATM    7  C8  UNL     1     -33.314  16.436  -5.232  1.00 20.00    -0.010 C 
ENDROOT
BRANCH   5   8
HETATM    8  C1  UNL     1     -34.356  13.649  -3.990  1.00 20.00     0.223 C 
HETATM    9  O9  UNL     1     -35.060  12.717  -4.370  1.00 20.00    -0.279 OA
HETATM   10 CL10 UNL     1     -32.712  13.534  -3.439  1.00 20.00    -0.043 Cl
ENDBRANCH   5   8
TORSDOF 1
ENDMDL
MODEL 2
REMARK VINA RESULT:      -4.4      1.942      2.975
REMARK  1 active torsions:
REMARK  status: ('A' for Active; 'I' for Inactive)
REMARK    1  A    between atoms: C1_1  and  C6_6 
ROOT
HETATM    1  C2  UNL     1     -34.440  16.579  -1.577  1.00 20.00     0.005 C 
HETATM    2  C3  UNL     1     -34.059  17.532  -2.723  1.00 20.00     0.005 C 
HETATM    3  C4  UNL     1     -33.607  14.566  -3.096  1.00 20.00     0.018 C 
HETATM    4  C5  UNL     1     -34.041  16.096  -4.924  1.00 20.00     0.018 C 
HETATM    5  C6  UNL     1     -33.687  14.643  -4.617  1.00 20.00     0.073 C 
HETATM    6  C7  UNL     1     -34.729  15.488  -2.627  1.00 20.00    -0.010 C 
HETATM    7  C8  UNL     1     -34.814  16.595  -3.703  1.00 20.00    -0.010 C 
ENDROOT
BRANCH   5   8
HETATM    8  C1  UNL     1     -34.739  13.717  -5.156  1.00 20.00     0.223 C 
HETATM    9  O9  UNL     1     -34.979  12.636  -4.627  1.00 20.00    -0.279 OA
HETATM   10 CL10 UNL     1     -35.525  14.368  -6.563  1.00 20.00    -0.043 Cl
ENDBRANCH   5   8
TORSDOF 1
ENDMDL
MODEL 3
REMARK VINA RESULT:      -4.4     12.001     13.164
REMARK  1 active torsions:
REMARK  status: ('A' for Active; 'I' for Inactive)
REMARK    1  A    between atoms: C1_1  and  C6_6 
ROOT
HETATM    1  C2  UNL     1     -31.905   6.479   2.175  1.00 20.00     0.005 C 
HETATM    2  C3  UNL     1     -32.473   7.745   2.840  1.00 20.00     0.005 C 
HETATM    3  C4  UNL     1     -34.190   5.258   2.759  1.00 20.00     0.018 C 
HETATM    4  C5  UNL     1     -34.362   6.950   4.486  1.00 20.00     0.018 C 
HETATM    5  C6  UNL     1     -35.006   5.659   3.984  1.00 20.00     0.073 C 
HETATM    6  C7  UNL     1     -32.760   5.631   3.138  1.00 20.00    -0.010 C 
HETATM    7  C8  UNL     1     -32.898   6.872   4.050  1.00 20.00    -0.010 C 
ENDROOT
BRANCH   5   8
HETATM    8  C1  UNL     1     -34.957   4.597   5.044  1.00 20.00     0.223 C 
HETATM    9  O9  UNL     1     -35.107   3.409   4.775  1.00 20.00    -0.279 OA
HETATM   10 CL10 UNL     1     -34.669   5.263   6.624  1.00 20.00    -0.043 Cl
ENDBRANCH   5   8
TORSDOF 1
ENDMDL
MODEL 4
REMARK VINA RESULT:      -4.4      2.813      4.096
REMARK  1 active torsions:
REMARK  status: ('A' for Active; 'I' for Inactive)
REMARK    1  A    between atoms: C1_1  and  C6_6 
ROOT
HETATM    1  C2  UNL     1     -33.901  18.316  -0.340  1.00 20.00     0.005 C 
HETATM    2  C3  UNL     1     -35.161  17.443  -0.210  1.00 20.00     0.005 C 
HETATM    3  C4  UNL     1     -34.043  17.967  -2.969  1.00 20.00     0.018 C 
HETATM    4  C5  UNL     1     -35.289  15.973  -2.385  1.00 20.00     0.018 C 
HETATM    5  C6  UNL     1     -34.640  16.696  -3.563  1.00 20.00     0.073 C 
HETATM    6  C7  UNL     1     -33.523  17.521  -1.605  1.00 20.00    -0.010 C 
HETATM    7  C8  UNL     1     -34.495  16.407  -1.153  1.00 20.00    -0.010 C 
ENDROOT
BRANCH   5   8
HETATM    8  C1  UNL     1     -33.582  15.837  -4.193  1.00 20.00     0.223 C 
HETATM    9  O9  UNL     1     -32.695  16.316  -4.893  1.00 20.00    -0.279 OA
HETATM   10 CL10 UNL     1     -33.786  14.156  -3.802  1.00 20.00    -0.043 Cl
ENDBRANCH   5   8
TORSDOF 1
ENDMDL
MODEL 5
REMARK VINA RESULT:      -4.3     11.985     13.772
REMARK  1 active torsions:
REMARK  status: ('A' for Active; 'I' for Inactive)
REMARK    1  A    between atoms: C1_1  and  C6_6 
ROOT
HETATM    1  C2  UNL     1     -34.578   4.687   6.632  1.00 20.00     0.005 C 
HETATM    2  C3  UNL     1     -35.523   4.242   5.502  1.00 20.00     0.005 C 
HETATM    3  C4  UNL     1     -33.929   6.786   5.139  1.00 20.00     0.018 C 
HETATM    4  C5  UNL     1     -34.656   5.385   3.300  1.00 20.00     0.018 C 
HETATM    5  C6  UNL     1     -33.961   6.708   3.616  1.00 20.00     0.073 C 
HETATM    6  C7  UNL     1     -33.674   5.344   5.570  1.00 20.00    -0.010 C 
HETATM    7  C8  UNL     1     -34.367   4.476   4.494  1.00 20.00    -0.010 C 
ENDROOT
BRANCH   5   8
HETATM    8  C1  UNL     1     -32.576   6.728   3.038  1.00 20.00     0.223 C 
HETATM    9  O9  UNL     1     -31.826   5.760   3.129  1.00 20.00    -0.279 OA
HETATM   10 CL10 UNL     1     -32.212   8.239   2.261  1.00 20.00    -0.043 Cl
ENDBRANCH   5   8
TORSDOF 1
ENDMDL
MODEL 6
REMARK VINA RESULT:      -4.3      2.514      3.354
REMARK  1 active torsions:
REMARK  status: ('A' for Active; 'I' for Inactive)
REMARK    1  A    between atoms: C1_1  and  C6_6 
ROOT
HETATM    1  C2  UNL     1     -35.046  14.431  -6.341  1.00 20.00     0.005 C 
HETATM    2  C3  UNL     1     -34.782  13.303  -5.328  1.00 20.00     0.005 C 
HETATM    3  C4  UNL     1     -33.425  15.971  -4.907  1.00 20.00     0.018 C 
HETATM    4  C5  UNL     1     -33.991  14.456  -3.103  1.00 20.00     0.018 C 
HETATM    5  C6  UNL     1     -33.278  15.774  -3.402  1.00 20.00     0.073 C 
HETATM    6  C7  UNL     1     -34.828  15.453  -5.207  1.00 20.00    -0.010 C 
HETATM    7  C8  UNL     1     -35.061  14.315  -4.186  1.00 20.00    -0.010 C 
ENDROOT
BRANCH   5   8
HETATM    8  C1  UNL     1     -33.911  16.901  -2.639  1.00 20.00     0.223 C 
HETATM    9  O9  UNL     1     -33.875  18.058  -3.049  1.00 20.00    -0.279 OA
HETATM   10 CL10 UNL     1     -34.665  16.356  -1.171  1.00 20.00    -0.043 Cl
ENDBRANCH   5   8
TORSDOF 1
ENDMDL
MODEL 7
REMARK VINA RESULT:      -4.3      1.976      3.054
REMARK  1 active torsions:
REMARK  status: ('A' for Active; 'I' for Inactive)
REMARK    1  A    between atoms: C1_1  and  C6_6 
ROOT
HETATM    1  C2  UNL     1     -33.599  16.953  -2.317  1.00 20.00     0.005 C 
HETATM    2  C3  UNL     1     -34.874  16.363  -1.690  1.00 20.00     0.005 C 
HETATM    3  C4  UNL     1     -34.652  16.451  -4.704  1.00 20.00     0.018 C 
HETATM    4  C5  UNL     1     -35.952  14.796  -3.503  1.00 20.00     0.018 C 
HETATM    5  C6  UNL     1     -35.615  15.287  -4.910  1.00 20.00     0.073 C 
HETATM    6  C7  UNL     1     -33.796  16.009  -3.520  1.00 20.00    -0.010 C 
HETATM    7  C8  UNL     1     -34.737  15.149  -2.646  1.00 20.00    -0.010 C 
ENDROOT
BRANCH   5   8
HETATM    8  C1  UNL     1     -34.981  14.189  -5.715  1.00 20.00     0.223 C 
HETATM    9  O9  UNL     1     -34.937  13.033  -5.305  1.00 20.00    -0.279 OA
HETATM   10 CL10 UNL     1     -34.355  14.766  -7.230  1.00 20.00    -0.043 Cl
ENDBRANCH   5   8
TORSDOF 1
ENDMDL
MODEL 8
REMARK VINA RESULT:      -4.2      2.891      3.516
REMARK  1 active torsions:
REMARK  status: ('A' for Active; 'I' for Inactive)
REMARK    1  A    between atoms: C1_1  and  C6_6 
ROOT
HETATM    1  C2  UNL     1     -33.249  13.652  -3.719  1.00 20.00     0.005 C 
HETATM    2  C3  UNL     1     -32.978  15.165  -3.673  1.00 20.00     0.005 C 
HETATM    3  C4  UNL     1     -35.556  14.194  -4.918  1.00 20.00     0.018 C 
HETATM    4  C5  UNL     1     -35.314  16.356  -3.850  1.00 20.00     0.018 C 
HETATM    5  C6  UNL     1     -36.298  15.498  -4.643  1.00 20.00     0.073 C 
HETATM    6  C7  UNL     1     -34.758  13.954  -3.639  1.00 20.00    -0.010 C 
HETATM    7  C8  UNL     1     -34.411  15.367  -3.114  1.00 20.00    -0.010 C 
ENDROOT
BRANCH   5   8
HETATM    8  C1  UNL     1     -37.549  15.258  -3.849  1.00 20.00     0.223 C 
HETATM    9  O9  UNL     1     -38.075  14.150  -3.793  1.00 20.00    -0.279 OA
HETATM   10 CL10 UNL     1     -38.111  16.702  -3.061  1.00 20.00    -0.043 Cl
ENDBRANCH   5   8
TORSDOF 1
ENDMDL
MODEL 9
REMARK VINA RESULT:      -4.2      2.155      2.566
REMARK  1 active torsions:
REMARK  status: ('A' for Active; 'I' for Inactive)
REMARK    1  A    between atoms: C1_1  and  C6_6 
ROOT
HETATM    1  C2  UNL     1     -35.597  14.761  -7.736  1.00 20.00     0.005 C 
HETATM    2  C3  UNL     1     -36.842  15.146  -6.919  1.00 20.00     0.005 C 
HETATM    3  C4  UNL     1     -34.858  13.211  -5.709  1.00 20.00     0.018 C 
HETATM    4  C5  UNL     1     -36.261  14.689  -4.396  1.00 20.00     0.018 C 
HETATM    5  C6  UNL     1     -35.244  13.555  -4.274  1.00 20.00     0.073 C 
HETATM    6  C7  UNL     1     -34.831  14.565  -6.412  1.00 20.00    -0.010 C 
HETATM    7  C8  UNL     1     -35.916  15.407  -5.701  1.00 20.00    -0.010 C 
ENDROOT
BRANCH   5   8
HETATM    8  C1  UNL     1     -34.051  14.000  -3.479  1.00 20.00     0.223 C 
HETATM    9  O9  UNL     1     -32.984  13.394  -3.524  1.00 20.00    -0.279 OA
HETATM   10 CL10 UNL     1     -34.384  15.422  -2.537  1.00 20.00    -0.043 Cl
ENDBRANCH   5   8
TORSDOF 1
ENDMDL
