MODEL 1
REMARK VINA RESULT:      -4.5      0.000      0.000
REMARK  0 active torsions:
REMARK  status: ('A' for Active; 'I' for Inactive)
ROOT
HETATM    1  C1  UNL     1     -34.305  13.560  -4.231  1.00 20.00     0.223 A 
HETATM    2  C2  UNL     1     -32.330  14.759  -3.677  1.00 20.00     0.128 A 
HETATM    3  C3  UNL     1     -34.548  14.967  -4.638  1.00 20.00     0.092 A 
HETATM    4  C4  UNL     1     -33.300  15.737  -4.270  1.00 20.00     0.026 A 
HETATM    5  C5  UNL     1     -34.635  16.109  -3.647  1.00 20.00    -0.029 A 
HETATM    6  C6  UNL     1     -35.280  17.385  -4.127  1.00 20.00     0.016 C 
HETATM    7  C7  UNL     1     -34.897  15.824  -2.190  1.00 20.00     0.016 C 
HETATM    8  N8  UNL     1     -33.024  13.488  -3.714  1.00 20.00    -0.360 N 
HETATM    9  O9  UNL     1     -35.127  12.670  -4.364  1.00 20.00    -0.273 OA
HETATM   10  H20 UNL     1     -32.615  12.625  -3.368  1.00 20.00     0.162 HD
ENDROOT
TORSDOF 0
ENDMDL
MODEL 2
REMARK VINA RESULT:      -4.4      1.335      2.078
REMARK  0 active torsions:
REMARK  status: ('A' for Active; 'I' for Inactive)
ROOT
HETATM    1  C1  UNL     1     -34.771  13.664  -5.024  1.00 20.00     0.223 A 
HETATM    2  C2  UNL     1     -34.403  15.830  -5.927  1.00 20.00     0.128 A 
HETATM    3  C3  UNL     1     -35.093  14.625  -3.939  1.00 20.00     0.092 A 
HETATM    4  C4  UNL     1     -34.842  16.004  -4.504  1.00 20.00     0.026 A 
HETATM    5  C5  UNL     1     -34.056  15.522  -3.297  1.00 20.00    -0.029 A 
HETATM    6  C6  UNL     1     -34.410  16.134  -1.964  1.00 20.00     0.016 C 
HETATM    7  C7  UNL     1     -32.590  15.195  -3.429  1.00 20.00     0.016 C 
HETATM    8  N8  UNL     1     -34.408  14.397  -6.139  1.00 20.00    -0.360 N 
HETATM    9  O9  UNL     1     -34.842  12.454  -4.893  1.00 20.00    -0.273 OA
HETATM   10  H20 UNL     1     -34.145  13.968  -7.021  1.00 20.00     0.162 HD
ENDROOT
TORSDOF 0
ENDMDL
MODEL 3
REMARK VINA RESULT:      -4.4      1.673      2.569
REMARK  0 active torsions:
REMARK  status: ('A' for Active; 'I' for Inactive)
ROOT
HETATM    1  C1  UNL     1     -33.824  13.602  -3.906  1.00 20.00     0.223 A 
HETATM    2  C2  UNL     1     -36.098  14.233  -4.181  1.00 20.00     0.128 A 
HETATM    3  C3  UNL     1     -33.824  15.073  -4.110  1.00 20.00     0.092 A 
HETATM    4  C4  UNL     1     -35.268  15.475  -4.304  1.00 20.00     0.026 A 
HETATM    5  C5  UNL     1     -34.253  15.726  -5.407  1.00 20.00    -0.029 A 
HETATM    6  C6  UNL     1     -33.825  17.155  -5.628  1.00 20.00     0.016 C 
HETATM    7  C7  UNL     1     -34.301  14.917  -6.678  1.00 20.00     0.016 C 
HETATM    8  N8  UNL     1     -35.141  13.176  -3.930  1.00 20.00    -0.360 N 
HETATM    9  O9  UNL     1     -32.810  12.945  -3.743  1.00 20.00    -0.273 OA
HETATM   10  H20 UNL     1     -35.409  12.204  -3.807  1.00 20.00     0.162 HD
ENDROOT
TORSDOF 0
ENDMDL
MODEL 4
REMARK VINA RESULT:      -4.4      1.327      1.393
REMARK  0 active torsions:
REMARK  status: ('A' for Active; 'I' for Inactive)
ROOT
HETATM    1  C1  UNL     1     -35.827  14.146  -3.988  1.00 20.00     0.223 A 
HETATM    2  C2  UNL     1     -33.492  13.729  -3.849  1.00 20.00     0.128 A 
HETATM    3  C3  UNL     1     -35.156  15.413  -4.374  1.00 20.00     0.092 A 
HETATM    4  C4  UNL     1     -33.670  15.157  -4.269  1.00 20.00     0.026 A 
HETATM    5  C5  UNL     1     -34.320  16.230  -3.412  1.00 20.00    -0.029 A 
HETATM    6  C6  UNL     1     -34.045  17.664  -3.790  1.00 20.00     0.016 C 
HETATM    7  C7  UNL     1     -34.467  16.026  -1.925  1.00 20.00     0.016 C 
HETATM    8  N8  UNL     1     -34.840  13.213  -3.723  1.00 20.00    -0.360 N 
HETATM    9  O9  UNL     1     -37.038  14.013  -3.941  1.00 20.00    -0.273 OA
HETATM   10  H20 UNL     1     -35.042  12.259  -3.442  1.00 20.00     0.162 HD
ENDROOT
TORSDOF 0
ENDMDL
MODEL 5
REMARK VINA RESULT:      -4.3      1.446      1.658
REMARK  0 active torsions:
REMARK  status: ('A' for Active; 'I' for Inactive)
ROOT
HETATM    1  C1  UNL     1     -33.286  14.074  -3.856  1.00 20.00     0.223 A 
HETATM    2  C2  UNL     1     -33.223  16.309  -4.658  1.00 20.00     0.128 A 
HETATM    3  C3  UNL     1     -34.698  14.469  -4.090  1.00 20.00     0.092 A 
HETATM    4  C4  UNL     1     -34.663  15.898  -4.583  1.00 20.00     0.026 A 
HETATM    5  C5  UNL     1     -35.393  15.555  -3.295  1.00 20.00    -0.029 A 
HETATM    6  C6  UNL     1     -36.900  15.577  -3.339  1.00 20.00     0.016 C 
HETATM    7  C7  UNL     1     -34.831  15.993  -1.966  1.00 20.00     0.016 C 
HETATM    8  N8  UNL     1     -32.486  15.143  -4.217  1.00 20.00    -0.360 N 
HETATM    9  O9  UNL     1     -32.956  12.981  -3.428  1.00 20.00    -0.273 OA
HETATM   10  H20 UNL     1     -31.472  15.121  -4.154  1.00 20.00     0.162 HD
ENDROOT
TORSDOF 0
ENDMDL
MODEL 6
REMARK VINA RESULT:      -4.2      2.024      2.473
REMARK  0 active torsions:
REMARK  status: ('A' for Active; 'I' for Inactive)
ROOT
HETATM    1  C1  UNL     1     -33.997  15.747  -5.429  1.00 20.00     0.223 A 
HETATM    2  C2  UNL     1     -34.108  13.576  -4.471  1.00 20.00     0.128 A 
HETATM    3  C3  UNL     1     -33.756  15.924  -3.975  1.00 20.00     0.092 A 
HETATM    4  C4  UNL     1     -33.844  14.546  -3.359  1.00 20.00     0.026 A 
HETATM    5  C5  UNL     1     -34.807  15.637  -2.924  1.00 20.00    -0.029 A 
HETATM    6  C6  UNL     1     -34.589  16.234  -1.556  1.00 20.00     0.016 C 
HETATM    7  C7  UNL     1     -36.262  15.563  -3.314  1.00 20.00     0.016 C 
HETATM    8  N8  UNL     1     -34.166  14.394  -5.665  1.00 20.00    -0.360 N 
HETATM    9  O9  UNL     1     -34.020  16.671  -6.224  1.00 20.00    -0.273 OA
HETATM   10  H20 UNL     1     -34.341  14.012  -6.589  1.00 20.00     0.162 HD
ENDROOT
TORSDOF 0
ENDMDL
MODEL 7
REMARK VINA RESULT:      -4.1      2.106      2.836
REMARK  0 active torsions:
REMARK  status: ('A' for Active; 'I' for Inactive)
ROOT
HETATM    1  C1  UNL     1     -33.222  16.048  -4.386  1.00 20.00     0.223 A 
HETATM    2  C2  UNL     1     -32.998  13.849  -3.516  1.00 20.00     0.128 A 
HETATM    3  C3  UNL     1     -34.558  15.674  -3.859  1.00 20.00     0.092 A 
HETATM    4  C4  UNL     1     -34.424  14.267  -3.321  1.00 20.00     0.026 A 
HETATM    5  C5  UNL     1     -35.396  14.560  -4.451  1.00 20.00    -0.029 A 
HETATM    6  C6  UNL     1     -36.865  14.551  -4.108  1.00 20.00     0.016 C 
HETATM    7  C7  UNL     1     -35.110  14.062  -5.845  1.00 20.00     0.016 C 
HETATM    8  N8  UNL     1     -32.364  14.989  -4.146  1.00 20.00    -0.360 N 
HETATM    9  O9  UNL     1     -32.984  17.119  -4.918  1.00 20.00    -0.273 OA
HETATM   10  H20 UNL     1     -31.384  15.001  -4.410  1.00 20.00     0.162 HD
ENDROOT
TORSDOF 0
ENDMDL
MODEL 8
REMARK VINA RESULT:      -4.0      2.368      3.311
REMARK  0 active torsions:
REMARK  status: ('A' for Active; 'I' for Inactive)
ROOT
HETATM    1  C1  UNL     1     -33.690  16.916  -4.093  1.00 20.00     0.223 A 
HETATM    2  C2  UNL     1     -34.349  16.279  -1.901  1.00 20.00     0.128 A 
HETATM    3  C3  UNL     1     -34.643  15.790  -4.259  1.00 20.00     0.092 A 
HETATM    4  C4  UNL     1     -35.050  15.369  -2.865  1.00 20.00     0.026 A 
HETATM    5  C5  UNL     1     -34.348  14.383  -3.783  1.00 20.00    -0.029 A 
HETATM    6  C6  UNL     1     -35.188  13.273  -4.363  1.00 20.00     0.016 C 
HETATM    7  C7  UNL     1     -32.926  13.966  -3.500  1.00 20.00     0.016 C 
HETATM    8  N8  UNL     1     -33.575  17.173  -2.738  1.00 20.00    -0.360 N 
HETATM    9  O9  UNL     1     -33.145  17.479  -5.027  1.00 20.00    -0.273 OA
HETATM   10  H20 UNL     1     -32.982  17.907  -2.363  1.00 20.00     0.162 HD
ENDROOT
TORSDOF 0
ENDMDL
MODEL 9
REMARK VINA RESULT:      -4.0      1.831      2.270
REMARK  0 active torsions:
REMARK  status: ('A' for Active; 'I' for Inactive)
ROOT
HETATM    1  C1  UNL     1     -34.354  13.789  -4.972  1.00 20.00     0.223 A 
HETATM    2  C2  UNL     1     -33.295  15.916  -4.960  1.00 20.00     0.128 A 
HETATM    3  C3  UNL     1     -34.782  14.471  -6.219  1.00 20.00     0.092 A 
HETATM    4  C4  UNL     1     -34.124  15.832  -6.206  1.00 20.00     0.026 A 
HETATM    5  C5  UNL     1     -35.639  15.719  -6.224  1.00 20.00    -0.029 A 
HETATM    6  C6  UNL     1     -36.334  16.068  -7.517  1.00 20.00     0.016 C 
HETATM    7  C7  UNL     1     -36.441  16.088  -5.001  1.00 20.00     0.016 C 
HETATM    8  N8  UNL     1     -33.491  14.640  -4.303  1.00 20.00    -0.360 N 
HETATM    9  O9  UNL     1     -34.726  12.672  -4.654  1.00 20.00    -0.273 OA
HETATM   10  H20 UNL     1     -33.054  14.400  -3.418  1.00 20.00     0.162 HD
ENDROOT
TORSDOF 0
ENDMDL
