MODEL 1
REMARK VINA RESULT:      -5.0      0.000      0.000
REMARK  2 active torsions:
REMARK  status: ('A' for Active; 'I' for Inactive)
REMARK    1  A    between atoms: C3_3  and  C6_6 
REMARK    2  A    between atoms: C7_7  and  O11_11 
ROOT
HETATM    1  C1  UNL     1     -35.749  16.169  -2.411  1.00 20.00    -0.023 C 
HETATM    2  C2  UNL     1     -34.615  16.660  -1.889  1.00 20.00    -0.085 C 
HETATM    3  C4  UNL     1     -35.789  15.107  -3.469  1.00 20.00     0.042 C 
HETATM    4  C5  UNL     1     -33.258  16.193  -2.352  1.00 20.00     0.071 C 
HETATM    5  C6  UNL     1     -34.435  14.419  -3.704  1.00 20.00     0.084 C 
HETATM    6  C7  UNL     1     -33.262  15.425  -3.694  1.00 20.00     0.068 C 
HETATM    7  C8  UNL     1     -34.624  17.699  -0.806  1.00 20.00     0.043 C 
HETATM    8  C9  UNL     1     -33.293  16.406  -4.877  1.00 20.00     0.047 C 
ENDROOT
BRANCH   6   9
HETATM    9  O11 UNL     1     -32.021  14.709  -3.743  1.00 20.00    -0.389 OA
HETATM   10  H25 UNL     1     -31.328  15.380  -3.705  1.00 20.00     0.210 HD
ENDBRANCH   6   9
BRANCH   5  11
HETATM   11  C3  UNL     1     -34.501  13.613  -4.974  1.00 20.00     0.238 C 
HETATM   12  O10 UNL     1     -34.775  12.418  -5.002  1.00 20.00    -0.306 OA
ENDBRANCH   5  11
TORSDOF 2
ENDMDL
MODEL 2
REMARK VINA RESULT:      -4.8      1.668      2.443
REMARK  2 active torsions:
REMARK  status: ('A' for Active; 'I' for Inactive)
REMARK    1  A    between atoms: C3_3  and  C6_6 
REMARK    2  A    between atoms: C7_7  and  O11_11 
ROOT
HETATM    1  C1  UNL     1     -33.657  16.975  -3.449  1.00 20.00    -0.023 C 
HETATM    2  C2  UNL     1     -34.311  16.370  -2.444  1.00 20.00    -0.085 C 
HETATM    3  C4  UNL     1     -33.698  16.505  -4.872  1.00 20.00     0.042 C 
HETATM    4  C5  UNL     1     -35.136  15.128  -2.666  1.00 20.00     0.071 C 
HETATM    5  C6  UNL     1     -34.778  15.446  -5.141  1.00 20.00     0.084 C 
HETATM    6  C7  UNL     1     -34.867  14.402  -4.005  1.00 20.00     0.068 C 
HETATM    7  C8  UNL     1     -34.269  16.896  -1.039  1.00 20.00     0.043 C 
HETATM    8  C9  UNL     1     -33.617  13.515  -3.896  1.00 20.00     0.047 C 
ENDROOT
BRANCH   6   9
HETATM    9  O11 UNL     1     -35.998  13.552  -4.228  1.00 20.00    -0.389 OA
HETATM   10  H25 UNL     1     -36.762  14.036  -3.890  1.00 20.00     0.210 HD
ENDBRANCH   6   9
BRANCH   5  11
HETATM   11  C3  UNL     1     -34.534  14.820  -6.489  1.00 20.00     0.238 C 
HETATM   12  O10 UNL     1     -35.367  14.142  -7.080  1.00 20.00    -0.306 OA
ENDBRANCH   5  11
TORSDOF 2
ENDMDL
MODEL 3
REMARK VINA RESULT:      -4.7      1.693      2.380
REMARK  2 active torsions:
REMARK  status: ('A' for Active; 'I' for Inactive)
REMARK    1  A    between atoms: C3_3  and  C6_6 
REMARK    2  A    between atoms: C7_7  and  O11_11 
ROOT
HETATM    1  C1  UNL     1     -34.069  17.041  -2.890  1.00 20.00    -0.023 C 
HETATM    2  C2  UNL     1     -33.755  17.652  -4.043  1.00 20.00    -0.085 C 
HETATM    3  C4  UNL     1     -34.416  15.586  -2.786  1.00 20.00     0.042 C 
HETATM    4  C5  UNL     1     -33.750  16.915  -5.359  1.00 20.00     0.071 C 
HETATM    5  C6  UNL     1     -34.103  14.784  -4.059  1.00 20.00     0.084 C 
HETATM    6  C7  UNL     1     -34.486  15.556  -5.342  1.00 20.00     0.068 C 
HETATM    7  C8  UNL     1     -33.380  19.104  -4.095  1.00 20.00     0.043 C 
HETATM    8  C9  UNL     1     -36.001  15.760  -5.498  1.00 20.00     0.047 C 
ENDROOT
BRANCH   6   9
HETATM    9  O11 UNL     1     -34.013  14.837  -6.488  1.00 20.00    -0.389 OA
HETATM   10  H25 UNL     1     -33.497  15.470  -7.002  1.00 20.00     0.210 HD
ENDBRANCH   6   9
BRANCH   5  11
HETATM   11  C3  UNL     1     -34.766  13.435  -3.971  1.00 20.00     0.238 C 
HETATM   12  O10 UNL     1     -34.662  12.574  -4.838  1.00 20.00    -0.306 OA
ENDBRANCH   5  11
TORSDOF 2
ENDMDL
MODEL 4
REMARK VINA RESULT:      -4.7      1.529      1.566
REMARK  2 active torsions:
REMARK  status: ('A' for Active; 'I' for Inactive)
REMARK    1  A    between atoms: C3_3  and  C6_6 
REMARK    2  A    between atoms: C7_7  and  O11_11 
ROOT
HETATM    1  C1  UNL     1     -35.876  15.570  -2.697  1.00 20.00    -0.023 C 
HETATM    2  C2  UNL     1     -34.754  16.126  -2.212  1.00 20.00    -0.085 C 
HETATM    3  C4  UNL     1     -36.013  15.057  -4.099  1.00 20.00     0.042 C 
HETATM    4  C5  UNL     1     -33.524  16.307  -3.065  1.00 20.00     0.071 C 
HETATM    5  C6  UNL     1     -34.678  14.954  -4.852  1.00 20.00     0.084 C 
HETATM    6  C7  UNL     1     -33.765  16.172  -4.586  1.00 20.00     0.068 C 
HETATM    7  C8  UNL     1     -34.651  16.596  -0.791  1.00 20.00     0.043 C 
HETATM    8  C9  UNL     1     -34.319  17.483  -5.163  1.00 20.00     0.047 C 
ENDROOT
BRANCH   6   9
HETATM    9  O11 UNL     1     -32.477  15.937  -5.171  1.00 20.00    -0.389 OA
HETATM   10  H25 UNL     1     -32.122  15.160  -4.721  1.00 20.00     0.210 HD
ENDBRANCH   6   9
BRANCH   5  11
HETATM   11  C3  UNL     1     -34.950  14.738  -6.317  1.00 20.00     0.238 C 
HETATM   12  O10 UNL     1     -34.097  14.868  -7.189  1.00 20.00    -0.306 OA
ENDBRANCH   5  11
TORSDOF 2
ENDMDL
MODEL 5
REMARK VINA RESULT:      -4.6      1.230      1.283
REMARK  2 active torsions:
REMARK  status: ('A' for Active; 'I' for Inactive)
REMARK    1  A    between atoms: C3_3  and  C6_6 
REMARK    2  A    between atoms: C7_7  and  O11_11 
ROOT
HETATM    1  C1  UNL     1     -36.031  16.455  -3.058  1.00 20.00    -0.023 C 
HETATM    2  C2  UNL     1     -35.138  17.447  -3.200  1.00 20.00    -0.085 C 
HETATM    3  C4  UNL     1     -35.752  15.025  -3.411  1.00 20.00     0.042 C 
HETATM    4  C5  UNL     1     -33.760  17.202  -3.761  1.00 20.00     0.071 C 
HETATM    5  C6  UNL     1     -34.267  14.733  -3.677  1.00 20.00     0.084 C 
HETATM    6  C7  UNL     1     -33.592  15.854  -4.501  1.00 20.00     0.068 C 
HETATM    7  C8  UNL     1     -35.450  18.859  -2.801  1.00 20.00     0.043 C 
HETATM    8  C9  UNL     1     -34.126  15.957  -5.938  1.00 20.00     0.047 C 
ENDROOT
BRANCH   6   9
HETATM    9  O11 UNL     1     -32.181  15.612  -4.566  1.00 20.00    -0.389 OA
HETATM   10  H25 UNL     1     -31.762  16.478  -4.485  1.00 20.00     0.210 HD
ENDBRANCH   6   9
BRANCH   5  11
HETATM   11  C3  UNL     1     -34.134  13.378  -4.320  1.00 20.00     0.238 C 
HETATM   12  O10 UNL     1     -35.071  12.597  -4.448  1.00 20.00    -0.306 OA
ENDBRANCH   5  11
TORSDOF 2
ENDMDL
MODEL 6
REMARK VINA RESULT:      -4.5      1.940      2.844
REMARK  2 active torsions:
REMARK  status: ('A' for Active; 'I' for Inactive)
REMARK    1  A    between atoms: C3_3  and  C6_6 
REMARK    2  A    between atoms: C7_7  and  O11_11 
ROOT
HETATM    1  C1  UNL     1     -33.917  16.851  -6.456  1.00 20.00    -0.023 C 
HETATM    2  C2  UNL     1     -33.891  17.597  -5.340  1.00 20.00    -0.085 C 
HETATM    3  C4  UNL     1     -34.217  15.382  -6.469  1.00 20.00     0.042 C 
HETATM    4  C5  UNL     1     -34.142  17.001  -3.978  1.00 20.00     0.071 C 
HETATM    5  C6  UNL     1     -34.777  14.854  -5.139  1.00 20.00     0.084 C 
HETATM    6  C7  UNL     1     -34.045  15.459  -3.919  1.00 20.00     0.068 C 
HETATM    7  C8  UNL     1     -33.619  19.073  -5.378  1.00 20.00     0.043 C 
HETATM    8  C9  UNL     1     -32.579  15.014  -3.810  1.00 20.00     0.047 C 
ENDROOT
BRANCH   6   9
HETATM    9  O11 UNL     1     -34.720  15.066  -2.718  1.00 20.00    -0.389 OA
HETATM   10  H25 UNL     1     -34.223  14.315  -2.369  1.00 20.00     0.210 HD
ENDBRANCH   6   9
BRANCH   5  11
HETATM   11  C3  UNL     1     -34.746  13.349  -5.150  1.00 20.00     0.238 C 
HETATM   12  O10 UNL     1     -35.147  12.658  -4.220  1.00 20.00    -0.306 OA
ENDBRANCH   5  11
TORSDOF 2
ENDMDL
MODEL 7
REMARK VINA RESULT:      -4.5      1.973      3.937
REMARK  2 active torsions:
REMARK  status: ('A' for Active; 'I' for Inactive)
REMARK    1  A    between atoms: C3_3  and  C6_6 
REMARK    2  A    between atoms: C7_7  and  O11_11 
ROOT
HETATM    1  C1  UNL     1     -36.596  15.058  -5.553  1.00 20.00    -0.023 C 
HETATM    2  C2  UNL     1     -35.629  14.922  -6.475  1.00 20.00    -0.085 C 
HETATM    3  C4  UNL     1     -36.339  15.439  -4.126  1.00 20.00     0.042 C 
HETATM    4  C5  UNL     1     -34.173  15.121  -6.136  1.00 20.00     0.071 C 
HETATM    5  C6  UNL     1     -34.910  15.943  -3.869  1.00 20.00     0.084 C 
HETATM    6  C7  UNL     1     -33.853  15.105  -4.623  1.00 20.00     0.068 C 
HETATM    7  C8  UNL     1     -35.936  14.572  -7.901  1.00 20.00     0.043 C 
HETATM    8  C9  UNL     1     -33.743  13.662  -4.109  1.00 20.00     0.047 C 
ENDROOT
BRANCH   6   9
HETATM    9  O11 UNL     1     -32.568  15.726  -4.486  1.00 20.00    -0.389 OA
HETATM   10  H25 UNL     1     -32.439  16.246  -5.289  1.00 20.00     0.210 HD
ENDBRANCH   6   9
BRANCH   5  11
HETATM   11  C3  UNL     1     -34.662  15.996  -2.385  1.00 20.00     0.238 C 
HETATM   12  O10 UNL     1     -33.700  16.567  -1.881  1.00 20.00    -0.306 OA
ENDBRANCH   5  11
TORSDOF 2
ENDMDL
MODEL 8
REMARK VINA RESULT:      -4.4     11.900     13.643
REMARK  2 active torsions:
REMARK  status: ('A' for Active; 'I' for Inactive)
REMARK    1  A    between atoms: C3_3  and  C6_6 
REMARK    2  A    between atoms: C7_7  and  O11_11 
ROOT
HETATM    1  C1  UNL     1     -43.291   4.060  -3.257  1.00 20.00    -0.023 C 
HETATM    2  C2  UNL     1     -42.301   3.211  -2.939  1.00 20.00    -0.085 C 
HETATM    3  C4  UNL     1     -43.353   5.482  -2.788  1.00 20.00     0.042 C 
HETATM    4  C5  UNL     1     -41.158   3.622  -2.045  1.00 20.00     0.071 C 
HETATM    5  C6  UNL     1     -42.046   5.980  -2.152  1.00 20.00     0.084 C 
HETATM    6  C7  UNL     1     -41.404   4.915  -1.233  1.00 20.00     0.068 C 
HETATM    7  C8  UNL     1     -42.263   1.805  -3.460  1.00 20.00     0.043 C 
HETATM    8  C9  UNL     1     -42.237   4.614   0.022  1.00 20.00     0.047 C 
ENDROOT
BRANCH   6   9
HETATM    9  O11 UNL     1     -40.111   5.369  -0.812  1.00 20.00    -0.389 OA
HETATM   10  H25 UNL     1     -39.514   4.621  -0.943  1.00 20.00     0.210 HD
ENDBRANCH   6   9
BRANCH   5  11
HETATM   11  C3  UNL     1     -42.304   7.282  -1.442  1.00 20.00     0.238 C 
HETATM   12  O10 UNL     1     -41.424   7.939  -0.895  1.00 20.00    -0.306 OA
ENDBRANCH   5  11
TORSDOF 2
ENDMDL
MODEL 9
REMARK VINA RESULT:      -4.3      2.240      4.286
REMARK  2 active torsions:
REMARK  status: ('A' for Active; 'I' for Inactive)
REMARK    1  A    between atoms: C3_3  and  C6_6 
REMARK    2  A    between atoms: C7_7  and  O11_11 
ROOT
HETATM    1  C1  UNL     1     -33.634  15.868  -5.614  1.00 20.00    -0.023 C 
HETATM    2  C2  UNL     1     -34.761  15.238  -5.979  1.00 20.00    -0.085 C 
HETATM    3  C4  UNL     1     -33.362  16.350  -4.221  1.00 20.00     0.042 C 
HETATM    4  C5  UNL     1     -35.881  14.981  -5.002  1.00 20.00     0.071 C 
HETATM    5  C6  UNL     1     -34.352  15.811  -3.177  1.00 20.00     0.084 C 
HETATM    6  C7  UNL     1     -35.806  15.811  -3.700  1.00 20.00     0.068 C 
HETATM    7  C8  UNL     1     -34.976  14.742  -7.379  1.00 20.00     0.043 C 
HETATM    8  C9  UNL     1     -36.370  17.222  -3.926  1.00 20.00     0.047 C 
ENDROOT
BRANCH   6   9
HETATM    9  O11 UNL     1     -36.651  15.141  -2.755  1.00 20.00    -0.389 OA
HETATM   10  H25 UNL     1     -37.002  15.832  -2.179  1.00 20.00     0.210 HD
ENDBRANCH   6   9
BRANCH   5  11
HETATM   11  C3  UNL     1     -34.193  16.586  -1.896  1.00 20.00     0.238 C 
HETATM   12  O10 UNL     1     -34.754  16.281  -0.848  1.00 20.00    -0.306 OA
ENDBRANCH   5  11
TORSDOF 2
ENDMDL
