MODEL 1
REMARK VINA RESULT:      -5.4      0.000      0.000
REMARK  3 active torsions:
REMARK  status: ('A' for Active; 'I' for Inactive)
REMARK    1  A    between atoms: C1_1  and  C7_7 
REMARK    2  A    between atoms: C2_2  and  C9_9 
REMARK    3  A    between atoms: C9_9  and  C10_10 
ROOT
HETATM    1  C3  UNL     1     -34.753   5.399   5.669  1.00 20.00     0.128 C 
HETATM    2  C4  UNL     1     -35.310   4.674   4.472  1.00 20.00     0.079 C 
HETATM    3  C5  UNL     1     -33.591   6.289   5.308  1.00 20.00     0.095 C 
HETATM    4  C6  UNL     1     -34.627   5.405   3.322  1.00 20.00     0.025 C 
HETATM    5  C7  UNL     1     -33.271   5.824   3.887  1.00 20.00     0.072 C 
HETATM    6  O11 UNL     1     -35.193   5.279   6.806  1.00 20.00    -0.298 OA
ENDROOT
BRANCH   5   7
HETATM    7  C1  UNL     1     -32.635   6.876   3.089  1.00 20.00    -0.101 C 
HETATM    8  C2  UNL     1     -32.115   7.739   2.436  1.00 20.00    -0.106 C 
BRANCH   8   9
HETATM    9  C9  UNL     1     -31.475   8.792   1.636  1.00 20.00     0.093 C 
BRANCH   9  10
HETATM   10  C10 UNL     1     -32.493   9.634   0.866  1.00 20.00     0.007 C 
HETATM   11  C8  UNL     1     -32.973   8.963  -0.415  1.00 20.00     0.006 C 
ENDBRANCH   9  10
ENDBRANCH   8   9
ENDBRANCH   5   7
TORSDOF 3
ENDMDL
MODEL 2
REMARK VINA RESULT:      -5.0     10.379     11.870
REMARK  3 active torsions:
REMARK  status: ('A' for Active; 'I' for Inactive)
REMARK    1  A    between atoms: C1_1  and  C7_7 
REMARK    2  A    between atoms: C2_2  and  C9_9 
REMARK    3  A    between atoms: C9_9  and  C10_10 
ROOT
HETATM    1  C3  UNL     1     -34.497  13.607  -4.761  1.00 20.00     0.128 C 
HETATM    2  C4  UNL     1     -34.498  14.750  -5.743  1.00 20.00     0.079 C 
HETATM    3  C5  UNL     1     -34.102  14.045  -3.374  1.00 20.00     0.095 C 
HETATM    4  C6  UNL     1     -34.385  15.954  -4.816  1.00 20.00     0.025 C 
HETATM    5  C7  UNL     1     -33.557  15.451  -3.635  1.00 20.00     0.072 C 
HETATM    6  O11 UNL     1     -34.784  12.453  -5.057  1.00 20.00    -0.298 OA
ENDROOT
BRANCH   5   7
HETATM    7  C1  UNL     1     -33.676  16.318  -2.459  1.00 20.00    -0.101 C 
HETATM    8  C2  UNL     1     -33.772  17.028  -1.495  1.00 20.00    -0.106 C 
BRANCH   8   9
HETATM    9  C9  UNL     1     -33.892  17.899  -0.319  1.00 20.00     0.093 C 
BRANCH   9  10
HETATM   10  C10 UNL     1     -32.934  19.088  -0.378  1.00 20.00     0.007 C 
HETATM   11  C8  UNL     1     -31.793  18.984   0.626  1.00 20.00     0.006 C 
ENDBRANCH   9  10
ENDBRANCH   8   9
ENDBRANCH   5   7
TORSDOF 3
ENDMDL
MODEL 3
REMARK VINA RESULT:      -4.9     10.376     11.730
REMARK  3 active torsions:
REMARK  status: ('A' for Active; 'I' for Inactive)
REMARK    1  A    between atoms: C1_1  and  C7_7 
REMARK    2  A    between atoms: C2_2  and  C9_9 
REMARK    3  A    between atoms: C9_9  and  C10_10 
ROOT
HETATM    1  C3  UNL     1     -34.492  13.614  -4.772  1.00 20.00     0.128 C 
HETATM    2  C4  UNL     1     -34.406  14.759  -5.747  1.00 20.00     0.079 C 
HETATM    3  C5  UNL     1     -34.157  14.037  -3.364  1.00 20.00     0.095 C 
HETATM    4  C6  UNL     1     -34.306  15.957  -4.811  1.00 20.00     0.025 C 
HETATM    5  C7  UNL     1     -33.558  15.426  -3.590  1.00 20.00     0.072 C 
HETATM    6  O11 UNL     1     -34.798  12.470  -5.087  1.00 20.00    -0.298 OA
ENDROOT
BRANCH   5   7
HETATM    7  C1  UNL     1     -33.713  16.293  -2.419  1.00 20.00    -0.101 C 
HETATM    8  C2  UNL     1     -33.838  17.004  -1.458  1.00 20.00    -0.106 C 
BRANCH   8   9
HETATM    9  C9  UNL     1     -33.995  17.875  -0.286  1.00 20.00     0.093 C 
BRANCH   9  10
HETATM   10  C10 UNL     1     -35.126  17.413   0.633  1.00 20.00     0.007 C 
HETATM   11  C8  UNL     1     -35.009  17.970   2.046  1.00 20.00     0.006 C 
ENDBRANCH   9  10
ENDBRANCH   8   9
ENDBRANCH   5   7
TORSDOF 3
ENDMDL
MODEL 4
REMARK VINA RESULT:      -4.7     10.685     12.004
REMARK  3 active torsions:
REMARK  status: ('A' for Active; 'I' for Inactive)
REMARK    1  A    between atoms: C1_1  and  C7_7 
REMARK    2  A    between atoms: C2_2  and  C9_9 
REMARK    3  A    between atoms: C9_9  and  C10_10 
ROOT
HETATM    1  C3  UNL     1     -34.511  14.622  -5.700  1.00 20.00     0.128 C 
HETATM    2  C4  UNL     1     -34.445  13.310  -4.961  1.00 20.00     0.079 C 
HETATM    3  C5  UNL     1     -34.769  15.785  -4.777  1.00 20.00     0.095 C 
HETATM    4  C6  UNL     1     -34.365  13.776  -3.512  1.00 20.00     0.025 C 
HETATM    5  C7  UNL     1     -35.169  15.074  -3.483  1.00 20.00     0.072 C 
HETATM    6  O11 UNL     1     -34.372  14.730  -6.912  1.00 20.00    -0.298 OA
ENDROOT
BRANCH   5   7
HETATM    7  C1  UNL     1     -34.881  15.882  -2.295  1.00 20.00    -0.101 C 
HETATM    8  C2  UNL     1     -34.644  16.544  -1.321  1.00 20.00    -0.106 C 
BRANCH   8   9
HETATM    9  C9  UNL     1     -34.357  17.355  -0.130  1.00 20.00     0.093 C 
BRANCH   9  10
HETATM   10  C10 UNL     1     -33.128  18.245  -0.317  1.00 20.00     0.007 C 
HETATM   11  C8  UNL     1     -32.668  18.904   0.977  1.00 20.00     0.006 C 
ENDBRANCH   9  10
ENDBRANCH   8   9
ENDBRANCH   5   7
TORSDOF 3
ENDMDL
MODEL 5
REMARK VINA RESULT:      -4.5     10.319     11.523
REMARK  3 active torsions:
REMARK  status: ('A' for Active; 'I' for Inactive)
REMARK    1  A    between atoms: C1_1  and  C7_7 
REMARK    2  A    between atoms: C2_2  and  C9_9 
REMARK    3  A    between atoms: C9_9  and  C10_10 
ROOT
HETATM    1  C3  UNL     1     -34.484  18.159   1.503  1.00 20.00     0.128 C 
HETATM    2  C4  UNL     1     -33.304  19.021   1.137  1.00 20.00     0.079 C 
HETATM    3  C5  UNL     1     -34.913  17.265   0.368  1.00 20.00     0.095 C 
HETATM    4  C6  UNL     1     -32.847  18.381  -0.169  1.00 20.00     0.025 C 
HETATM    5  C7  UNL     1     -34.132  17.855  -0.807  1.00 20.00     0.072 C 
HETATM    6  O11 UNL     1     -35.033  18.184   2.598  1.00 20.00    -0.298 OA
ENDROOT
BRANCH   5   7
HETATM    7  C1  UNL     1     -33.870  16.864  -1.854  1.00 20.00    -0.101 C 
HETATM    8  C2  UNL     1     -33.657  16.052  -2.713  1.00 20.00    -0.106 C 
BRANCH   8   9
HETATM    9  C9  UNL     1     -33.393  15.058  -3.761  1.00 20.00     0.093 C 
BRANCH   9  10
HETATM   10  C10 UNL     1     -34.232  13.792  -3.584  1.00 20.00     0.007 C 
HETATM   11  C8  UNL     1     -34.739  13.225  -4.904  1.00 20.00     0.006 C 
ENDBRANCH   9  10
ENDBRANCH   8   9
ENDBRANCH   5   7
TORSDOF 3
ENDMDL
MODEL 6
REMARK VINA RESULT:      -4.3      9.670     11.256
REMARK  3 active torsions:
REMARK  status: ('A' for Active; 'I' for Inactive)
REMARK    1  A    between atoms: C1_1  and  C7_7 
REMARK    2  A    between atoms: C2_2  and  C9_9 
REMARK    3  A    between atoms: C9_9  and  C10_10 
ROOT
HETATM    1  C3  UNL     1     -42.598   5.138   0.479  1.00 20.00     0.128 C 
HETATM    2  C4  UNL     1     -41.283   5.803   0.163  1.00 20.00     0.079 C 
HETATM    3  C5  UNL     1     -43.005   4.146  -0.581  1.00 20.00     0.095 C 
HETATM    4  C6  UNL     1     -40.766   4.940  -0.981  1.00 20.00     0.025 C 
HETATM    5  C7  UNL     1     -42.026   4.476  -1.709  1.00 20.00     0.072 C 
HETATM    6  O11 UNL     1     -43.260   5.376   1.481  1.00 20.00    -0.298 OA
ENDROOT
BRANCH   5   7
HETATM    7  C1  UNL     1     -41.776   3.324  -2.580  1.00 20.00    -0.101 C 
HETATM    8  C2  UNL     1     -41.569   2.381  -3.295  1.00 20.00    -0.106 C 
BRANCH   8   9
HETATM    9  C9  UNL     1     -41.318   1.226  -4.166  1.00 20.00     0.093 C 
BRANCH   9  10
HETATM   10  C10 UNL     1     -42.066  -0.024  -3.702  1.00 20.00     0.007 C 
HETATM   11  C8  UNL     1     -41.353  -1.317  -4.074  1.00 20.00     0.006 C 
ENDBRANCH   9  10
ENDBRANCH   8   9
ENDBRANCH   5   7
TORSDOF 3
ENDMDL
MODEL 7
REMARK VINA RESULT:      -4.2     10.144     11.315
REMARK  3 active torsions:
REMARK  status: ('A' for Active; 'I' for Inactive)
REMARK    1  A    between atoms: C1_1  and  C7_7 
REMARK    2  A    between atoms: C2_2  and  C9_9 
REMARK    3  A    between atoms: C9_9  and  C10_10 
ROOT
HETATM    1  C3  UNL     1     -41.979   0.763  -3.813  1.00 20.00     0.128 C 
HETATM    2  C4  UNL     1     -43.337   0.792  -3.162  1.00 20.00     0.079 C 
HETATM    3  C5  UNL     1     -41.196   2.026  -3.559  1.00 20.00     0.095 C 
HETATM    4  C6  UNL     1     -43.214   2.002  -2.244  1.00 20.00     0.025 C 
HETATM    5  C7  UNL     1     -42.271   2.949  -2.985  1.00 20.00     0.072 C 
HETATM    6  O11 UNL     1     -41.560  -0.179  -4.476  1.00 20.00    -0.298 OA
ENDROOT
BRANCH   5   7
HETATM    7  C1  UNL     1     -41.708   3.977  -2.105  1.00 20.00    -0.101 C 
HETATM    8  C2  UNL     1     -41.244   4.819  -1.385  1.00 20.00    -0.106 C 
BRANCH   8   9
HETATM    9  C9  UNL     1     -40.680   5.850  -0.504  1.00 20.00     0.093 C 
BRANCH   9  10
HETATM   10  C10 UNL     1     -41.140   7.256  -0.890  1.00 20.00     0.007 C 
HETATM   11  C8  UNL     1     -42.655   7.411  -0.881  1.00 20.00     0.006 C 
ENDBRANCH   9  10
ENDBRANCH   8   9
ENDBRANCH   5   7
TORSDOF 3
ENDMDL
MODEL 8
REMARK VINA RESULT:      -4.2     10.717     11.817
REMARK  3 active torsions:
REMARK  status: ('A' for Active; 'I' for Inactive)
REMARK    1  A    between atoms: C1_1  and  C7_7 
REMARK    2  A    between atoms: C2_2  and  C9_9 
REMARK    3  A    between atoms: C9_9  and  C10_10 
ROOT
HETATM    1  C3  UNL     1     -36.460  18.316  -0.898  1.00 20.00     0.128 C 
HETATM    2  C4  UNL     1     -35.490  18.058   0.226  1.00 20.00     0.079 C 
HETATM    3  C5  UNL     1     -36.085  17.576  -2.157  1.00 20.00     0.095 C 
HETATM    4  C6  UNL     1     -34.686  16.885  -0.323  1.00 20.00     0.025 C 
HETATM    5  C7  UNL     1     -34.666  17.109  -1.833  1.00 20.00     0.072 C 
HETATM    6  O11 UNL     1     -37.440  19.043  -0.800  1.00 20.00    -0.298 OA
ENDROOT
BRANCH   5   7
HETATM    7  C1  UNL     1     -34.299  15.897  -2.572  1.00 20.00    -0.101 C 
HETATM    8  C2  UNL     1     -33.998  14.904  -3.176  1.00 20.00    -0.106 C 
BRANCH   8   9
HETATM    9  C9  UNL     1     -33.632  13.690  -3.918  1.00 20.00     0.093 C 
BRANCH   9  10
HETATM   10  C10 UNL     1     -34.714  13.271  -4.914  1.00 20.00     0.007 C 
HETATM   11  C8  UNL     1     -34.907  14.276  -6.041  1.00 20.00     0.006 C 
ENDBRANCH   9  10
ENDBRANCH   8   9
ENDBRANCH   5   7
TORSDOF 3
ENDMDL
MODEL 9
REMARK VINA RESULT:      -4.1     10.875     11.853
REMARK  3 active torsions:
REMARK  status: ('A' for Active; 'I' for Inactive)
REMARK    1  A    between atoms: C1_1  and  C7_7 
REMARK    2  A    between atoms: C2_2  and  C9_9 
REMARK    3  A    between atoms: C9_9  and  C10_10 
ROOT
HETATM    1  C3  UNL     1     -33.262  18.500   0.245  1.00 20.00     0.128 C 
HETATM    2  C4  UNL     1     -34.459  18.263   1.129  1.00 20.00     0.079 C 
HETATM    3  C5  UNL     1     -33.320  17.689  -1.025  1.00 20.00     0.095 C 
HETATM    4  C6  UNL     1     -35.392  17.507   0.190  1.00 20.00     0.025 C 
HETATM    5  C7  UNL     1     -34.457  16.713  -0.719  1.00 20.00     0.072 C 
HETATM    6  O11 UNL     1     -32.346  19.263   0.527  1.00 20.00    -0.298 OA
ENDROOT
BRANCH   5   7
HETATM    7  C1  UNL     1     -35.127  16.244  -1.936  1.00 20.00    -0.101 C 
HETATM    8  C2  UNL     1     -35.675  15.858  -2.932  1.00 20.00    -0.106 C 
BRANCH   8   9
HETATM    9  C9  UNL     1     -36.348  15.389  -4.151  1.00 20.00     0.093 C 
BRANCH   9  10
HETATM   10  C10 UNL     1     -35.414  14.587  -5.057  1.00 20.00     0.007 C 
HETATM   11  C8  UNL     1     -34.991  13.257  -4.447  1.00 20.00     0.006 C 
ENDBRANCH   9  10
ENDBRANCH   8   9
ENDBRANCH   5   7
TORSDOF 3
ENDMDL
