MODEL 1
REMARK VINA RESULT:      -3.6      0.000      0.000
REMARK  2 active torsions:
REMARK  status: ('A' for Active; 'I' for Inactive)
REMARK    1  A    between atoms: C6_6  and  C7_7 
REMARK    2  A    between atoms: C6_6  and  N8_8 
ROOT
HETATM    1  C1  UNL     1     -35.725  15.756  -3.720  1.00 20.00     0.283 C 
HETATM    2  C2  UNL     1     -36.052  14.299  -4.034  1.00 20.00     0.105 C 
HETATM    3  C3  UNL     1     -33.520  14.930  -3.687  1.00 20.00     0.346 C 
HETATM    4  N8  UNL     1     -34.481  15.745  -2.943  1.00 20.00     0.098 N 
HETATM    5  S9  UNL     1     -34.449  13.562  -4.439  1.00 20.00    -0.138 SA
ENDROOT
BRANCH   4   6
HETATM    6  C6  UNL     1     -33.979  17.090  -2.694  1.00 20.00     0.277 C 
BRANCH   6   7
HETATM    7  C7  UNL     1     -33.632  17.303  -1.216  1.00 20.00     0.006 C 
HETATM    8  C4  UNL     1     -33.125  18.719  -0.937  1.00 20.00     0.011 C 
HETATM    9  C5  UNL     1     -34.804  16.961  -0.296  1.00 20.00     0.011 C 
ENDBRANCH   6   7
ENDBRANCH   4   6
TORSDOF 2
ENDMDL
MODEL 2
REMARK VINA RESULT:      -3.5      1.564      1.952
REMARK  2 active torsions:
REMARK  status: ('A' for Active; 'I' for Inactive)
REMARK    1  A    between atoms: C6_6  and  C7_7 
REMARK    2  A    between atoms: C6_6  and  N8_8 
ROOT
HETATM    1  C1  UNL     1     -34.640  14.239  -3.586  1.00 20.00     0.283 C 
HETATM    2  C2  UNL     1     -34.730  13.253  -4.747  1.00 20.00     0.105 C 
HETATM    3  C3  UNL     1     -34.389  15.796  -5.336  1.00 20.00     0.346 C 
HETATM    4  N8  UNL     1     -33.823  15.363  -4.057  1.00 20.00     0.098 N 
HETATM    5  S9  UNL     1     -34.949  14.302  -6.206  1.00 20.00    -0.138 SA
ENDROOT
BRANCH   4   6
HETATM    6  C6  UNL     1     -33.773  16.448  -3.087  1.00 20.00     0.277 C 
BRANCH   6   7
HETATM    7  C7  UNL     1     -34.983  16.427  -2.146  1.00 20.00     0.006 C 
HETATM    8  C4  UNL     1     -34.591  16.680  -0.689  1.00 20.00     0.011 C 
HETATM    9  C5  UNL     1     -36.071  17.406  -2.587  1.00 20.00     0.011 C 
ENDBRANCH   6   7
ENDBRANCH   4   6
TORSDOF 2
ENDMDL
MODEL 3
REMARK VINA RESULT:      -3.4      2.255      4.331
REMARK  2 active torsions:
REMARK  status: ('A' for Active; 'I' for Inactive)
REMARK    1  A    between atoms: C6_6  and  C7_7 
REMARK    2  A    between atoms: C6_6  and  N8_8 
ROOT
HETATM    1  C1  UNL     1     -34.472  17.631  -3.154  1.00 20.00     0.283 C 
HETATM    2  C2  UNL     1     -33.644  18.605  -2.322  1.00 20.00     0.105 C 
HETATM    3  C3  UNL     1     -34.561  16.450  -1.119  1.00 20.00     0.346 C 
HETATM    4  N8  UNL     1     -34.290  16.307  -2.550  1.00 20.00     0.098 N 
HETATM    5  S9  UNL     1     -33.917  18.073  -0.614  1.00 20.00    -0.138 SA
ENDROOT
BRANCH   4   6
HETATM    6  C6  UNL     1     -35.143  15.301  -3.168  1.00 20.00     0.277 C 
BRANCH   6   7
HETATM    7  C7  UNL     1     -34.368  14.016  -3.487  1.00 20.00     0.006 C 
HETATM    8  C4  UNL     1     -34.919  13.296  -4.718  1.00 20.00     0.011 C 
HETATM    9  C5  UNL     1     -32.869  14.274  -3.641  1.00 20.00     0.011 C 
ENDBRANCH   6   7
ENDBRANCH   4   6
TORSDOF 2
ENDMDL
MODEL 4
REMARK VINA RESULT:      -3.4      1.450      1.622
REMARK  2 active torsions:
REMARK  status: ('A' for Active; 'I' for Inactive)
REMARK    1  A    between atoms: C6_6  and  C7_7 
REMARK    2  A    between atoms: C6_6  and  N8_8 
ROOT
HETATM    1  C1  UNL     1     -33.918  15.794  -4.967  1.00 20.00     0.283 C 
HETATM    2  C2  UNL     1     -34.613  14.869  -5.961  1.00 20.00     0.105 C 
HETATM    3  C3  UNL     1     -34.366  14.024  -3.480  1.00 20.00     0.346 C 
HETATM    4  N8  UNL     1     -34.468  15.475  -3.645  1.00 20.00     0.098 N 
HETATM    5  S9  UNL     1     -34.696  13.277  -5.104  1.00 20.00    -0.138 SA
ENDROOT
BRANCH   4   6
HETATM    6  C6  UNL     1     -33.785  16.195  -2.579  1.00 20.00     0.277 C 
BRANCH   6   7
HETATM    7  C7  UNL     1     -34.755  16.634  -1.477  1.00 20.00     0.006 C 
HETATM    8  C4  UNL     1     -34.059  17.435  -0.375  1.00 20.00     0.011 C 
HETATM    9  C5  UNL     1     -35.945  17.415  -2.037  1.00 20.00     0.011 C 
ENDBRANCH   6   7
ENDBRANCH   4   6
TORSDOF 2
ENDMDL
MODEL 5
REMARK VINA RESULT:      -3.4      2.496      3.324
REMARK  2 active torsions:
REMARK  status: ('A' for Active; 'I' for Inactive)
REMARK    1  A    between atoms: C6_6  and  C7_7 
REMARK    2  A    between atoms: C6_6  and  N8_8 
ROOT
HETATM    1  C1  UNL     1     -35.960  16.137  -5.661  1.00 20.00     0.283 C 
HETATM    2  C2  UNL     1     -36.973  15.357  -6.492  1.00 20.00     0.105 C 
HETATM    3  C3  UNL     1     -34.428  15.081  -7.104  1.00 20.00     0.346 C 
HETATM    4  N8  UNL     1     -34.712  15.368  -5.697  1.00 20.00     0.098 N 
HETATM    5  S9  UNL     1     -36.023  14.774  -7.918  1.00 20.00    -0.138 SA
ENDROOT
BRANCH   4   6
HETATM    6  C6  UNL     1     -33.613  16.075  -5.052  1.00 20.00     0.277 C 
BRANCH   6   7
HETATM    7  C7  UNL     1     -33.188  15.395  -3.745  1.00 20.00     0.006 C 
HETATM    8  C4  UNL     1     -33.880  16.001  -2.523  1.00 20.00     0.011 C 
HETATM    9  C5  UNL     1     -33.403  13.882  -3.789  1.00 20.00     0.011 C 
ENDBRANCH   6   7
ENDBRANCH   4   6
TORSDOF 2
ENDMDL
MODEL 6
REMARK VINA RESULT:      -3.4     11.616     12.234
REMARK  2 active torsions:
REMARK  status: ('A' for Active; 'I' for Inactive)
REMARK    1  A    between atoms: C6_6  and  C7_7 
REMARK    2  A    between atoms: C6_6  and  N8_8 
ROOT
HETATM    1  C1  UNL     1     -34.058   6.476   5.627  1.00 20.00     0.283 C 
HETATM    2  C2  UNL     1     -34.301   5.211   6.443  1.00 20.00     0.105 C 
HETATM    3  C3  UNL     1     -34.711   5.080   3.846  1.00 20.00     0.346 C 
HETATM    4  N8  UNL     1     -33.690   6.036   4.277  1.00 20.00     0.098 N 
HETATM    5  S9  UNL     1     -35.188   4.114   5.309  1.00 20.00    -0.138 SA
ENDROOT
BRANCH   4   6
HETATM    6  C6  UNL     1     -33.564   7.155   3.352  1.00 20.00     0.277 C 
BRANCH   6   7
HETATM    7  C7  UNL     1     -32.129   7.305   2.833  1.00 20.00     0.006 C 
HETATM    8  C4  UNL     1     -32.028   8.312   1.686  1.00 20.00     0.011 C 
HETATM    9  C5  UNL     1     -31.149   7.665   3.951  1.00 20.00     0.011 C 
ENDBRANCH   6   7
ENDBRANCH   4   6
TORSDOF 2
ENDMDL
MODEL 7
REMARK VINA RESULT:      -3.3      2.100      2.595
REMARK  2 active torsions:
REMARK  status: ('A' for Active; 'I' for Inactive)
REMARK    1  A    between atoms: C6_6  and  C7_7 
REMARK    2  A    between atoms: C6_6  and  N8_8 
ROOT
HETATM    1  C1  UNL     1     -33.634  16.540  -5.533  1.00 20.00     0.283 C 
HETATM    2  C2  UNL     1     -34.338  16.584  -6.885  1.00 20.00     0.105 C 
HETATM    3  C3  UNL     1     -34.525  14.361  -5.489  1.00 20.00     0.346 C 
HETATM    4  N8  UNL     1     -34.382  15.589  -4.705  1.00 20.00     0.098 N 
HETATM    5  S9  UNL     1     -34.766  14.858  -7.220  1.00 20.00    -0.138 SA
ENDROOT
BRANCH   4   6
HETATM    6  C6  UNL     1     -33.731  15.346  -3.425  1.00 20.00     0.277 C 
BRANCH   6   7
HETATM    7  C7  UNL     1     -34.559  15.888  -2.253  1.00 20.00     0.006 C 
HETATM    8  C4  UNL     1     -33.826  16.987  -1.483  1.00 20.00     0.011 C 
HETATM    9  C5  UNL     1     -35.937  16.374  -2.701  1.00 20.00     0.011 C 
ENDBRANCH   6   7
ENDBRANCH   4   6
TORSDOF 2
ENDMDL
MODEL 8
REMARK VINA RESULT:      -3.3      2.166      2.849
REMARK  2 active torsions:
REMARK  status: ('A' for Active; 'I' for Inactive)
REMARK    1  A    between atoms: C6_6  and  C7_7 
REMARK    2  A    between atoms: C6_6  and  N8_8 
ROOT
HETATM    1  C1  UNL     1     -34.843  14.093  -5.672  1.00 20.00     0.283 C 
HETATM    2  C2  UNL     1     -35.196  14.481  -7.105  1.00 20.00     0.105 C 
HETATM    3  C3  UNL     1     -36.681  15.479  -5.175  1.00 20.00     0.346 C 
HETATM    4  N8  UNL     1     -35.289  15.201  -4.820  1.00 20.00     0.098 N 
HETATM    5  S9  UNL     1     -36.833  15.241  -6.970  1.00 20.00    -0.138 SA
ENDROOT
BRANCH   4   6
HETATM    6  C6  UNL     1     -35.137  14.897  -3.403  1.00 20.00     0.277 C 
BRANCH   6   7
HETATM    7  C7  UNL     1     -34.122  15.828  -2.728  1.00 20.00     0.006 C 
HETATM    8  C4  UNL     1     -33.691  16.977  -3.640  1.00 20.00     0.011 C 
HETATM    9  C5  UNL     1     -34.638  16.367  -1.393  1.00 20.00     0.011 C 
ENDBRANCH   6   7
ENDBRANCH   4   6
TORSDOF 2
ENDMDL
MODEL 9
REMARK VINA RESULT:      -3.2      2.217      4.490
REMARK  2 active torsions:
REMARK  status: ('A' for Active; 'I' for Inactive)
REMARK    1  A    between atoms: C6_6  and  C7_7 
REMARK    2  A    between atoms: C6_6  and  N8_8 
ROOT
HETATM    1  C1  UNL     1     -33.767  16.160  -2.523  1.00 20.00     0.283 C 
HETATM    2  C2  UNL     1     -34.617  16.585  -1.330  1.00 20.00     0.105 C 
HETATM    3  C3  UNL     1     -35.617  16.970  -3.734  1.00 20.00     0.346 C 
HETATM    4  N8  UNL     1     -34.702  15.835  -3.606  1.00 20.00     0.098 N 
HETATM    5  S9  UNL     1     -35.930  17.596  -2.057  1.00 20.00    -0.138 SA
ENDROOT
BRANCH   4   6
HETATM    6  C6  UNL     1     -34.014  15.545  -4.856  1.00 20.00     0.277 C 
BRANCH   6   7
HETATM    7  C7  UNL     1     -34.440  14.193  -5.440  1.00 20.00     0.006 C 
HETATM    8  C4  UNL     1     -35.106  13.294  -4.397  1.00 20.00     0.011 C 
HETATM    9  C5  UNL     1     -35.342  14.355  -6.664  1.00 20.00     0.011 C 
ENDBRANCH   6   7
ENDBRANCH   4   6
TORSDOF 2
ENDMDL
