MODEL 1
REMARK VINA RESULT:      -5.5      0.000      0.000
REMARK  0 active torsions:
REMARK  status: ('A' for Active; 'I' for Inactive)
ROOT
HETATM    1  C1  UNL     1     -34.413   5.824   6.644  1.00 20.00     0.047 A 
HETATM    2  C2  UNL     1     -35.173   4.885   6.053  1.00 20.00     0.052 A 
HETATM    3  C3  UNL     1     -33.495   6.620   5.860  1.00 20.00     0.153 A 
HETATM    4  C4  UNL     1     -33.376   6.445   4.534  1.00 20.00     0.167 A 
HETATM    5  C5  UNL     1     -34.148   5.439   3.783  1.00 20.00     0.262 A 
HETATM    6  C6  UNL     1     -35.122   4.595   4.608  1.00 20.00     0.258 A 
HETATM    7  O7  UNL     1     -35.571   5.520   3.609  1.00 20.00    -0.327 OA
HETATM    8  F8  UNL     1     -32.761   7.555   6.496  1.00 20.00    -0.203 F 
HETATM    9  F9  UNL     1     -32.506   7.226   3.854  1.00 20.00    -0.204 F 
HETATM   10  F10 UNL     1     -35.192   3.250   4.264  1.00 20.00    -0.203 F 
ENDROOT
TORSDOF 0
ENDMDL
MODEL 2
REMARK VINA RESULT:      -5.3      1.631      2.807
REMARK  0 active torsions:
REMARK  status: ('A' for Active; 'I' for Inactive)
ROOT
HETATM    1  C1  UNL     1     -35.126   4.783   4.442  1.00 20.00     0.047 A 
HETATM    2  C2  UNL     1     -34.449   5.044   3.310  1.00 20.00     0.052 A 
HETATM    3  C3  UNL     1     -34.780   5.458   5.672  1.00 20.00     0.153 A 
HETATM    4  C4  UNL     1     -33.782   6.356   5.720  1.00 20.00     0.167 A 
HETATM    5  C5  UNL     1     -32.964   6.711   4.546  1.00 20.00     0.262 A 
HETATM    6  C6  UNL     1     -33.328   6.000   3.241  1.00 20.00     0.258 A 
HETATM    7  O7  UNL     1     -33.495   7.414   3.412  1.00 20.00    -0.327 OA
HETATM    8  F8  UNL     1     -35.493   5.169   6.779  1.00 20.00    -0.203 F 
HETATM    9  F9  UNL     1     -33.511   6.960   6.899  1.00 20.00    -0.204 F 
HETATM   10  F10 UNL     1     -32.253   5.608   2.451  1.00 20.00    -0.203 F 
ENDROOT
TORSDOF 0
ENDMDL
MODEL 3
REMARK VINA RESULT:      -5.0      1.297      2.385
REMARK  0 active torsions:
REMARK  status: ('A' for Active; 'I' for Inactive)
ROOT
HETATM    1  C1  UNL     1     -33.148   6.150   3.052  1.00 20.00     0.047 A 
HETATM    2  C2  UNL     1     -34.251   5.380   3.034  1.00 20.00     0.052 A 
HETATM    3  C3  UNL     1     -32.710   6.768   4.283  1.00 20.00     0.153 A 
HETATM    4  C4  UNL     1     -33.383   6.593   5.432  1.00 20.00     0.167 A 
HETATM    5  C5  UNL     1     -34.610   5.782   5.528  1.00 20.00     0.262 A 
HETATM    6  C6  UNL     1     -35.078   5.125   4.228  1.00 20.00     0.258 A 
HETATM    7  O7  UNL     1     -34.618   4.358   5.348  1.00 20.00    -0.327 OA
HETATM    8  F8  UNL     1     -31.594   7.523   4.253  1.00 20.00    -0.203 F 
HETATM    9  F9  UNL     1     -32.918   7.190   6.552  1.00 20.00    -0.204 F 
HETATM   10  F10 UNL     1     -36.452   5.123   4.016  1.00 20.00    -0.203 F 
ENDROOT
TORSDOF 0
ENDMDL
MODEL 4
REMARK VINA RESULT:      -4.7      1.554      3.149
REMARK  0 active torsions:
REMARK  status: ('A' for Active; 'I' for Inactive)
ROOT
HETATM    1  C1  UNL     1     -34.053   6.340   6.306  1.00 20.00     0.047 A 
HETATM    2  C2  UNL     1     -33.337   7.060   5.425  1.00 20.00     0.052 A 
HETATM    3  C3  UNL     1     -34.783   5.171   5.870  1.00 20.00     0.153 A 
HETATM    4  C4  UNL     1     -34.768   4.776   4.586  1.00 20.00     0.167 A 
HETATM    5  C5  UNL     1     -34.029   5.496   3.533  1.00 20.00     0.262 A 
HETATM    6  C6  UNL     1     -33.254   6.732   3.990  1.00 20.00     0.258 A 
HETATM    7  O7  UNL     1     -32.596   5.560   3.493  1.00 20.00    -0.327 OA
HETATM    8  F8  UNL     1     -35.479   4.476   6.791  1.00 20.00    -0.203 F 
HETATM    9  F9  UNL     1     -35.465   3.670   4.241  1.00 20.00    -0.204 F 
HETATM   10  F10 UNL     1     -33.291   7.819   3.123  1.00 20.00    -0.203 F 
ENDROOT
TORSDOF 0
ENDMDL
MODEL 5
REMARK VINA RESULT:      -4.6      8.832      9.784
REMARK  0 active torsions:
REMARK  status: ('A' for Active; 'I' for Inactive)
ROOT
HETATM    1  C1  UNL     1     -42.118   6.799  -2.298  1.00 20.00     0.047 A 
HETATM    2  C2  UNL     1     -42.370   5.534  -2.678  1.00 20.00     0.052 A 
HETATM    3  C3  UNL     1     -41.321   7.062  -1.121  1.00 20.00     0.153 A 
HETATM    4  C4  UNL     1     -40.815   6.061  -0.382  1.00 20.00     0.167 A 
HETATM    5  C5  UNL     1     -41.036   4.639  -0.696  1.00 20.00     0.262 A 
HETATM    6  C6  UNL     1     -41.878   4.355  -1.941  1.00 20.00     0.258 A 
HETATM    7  O7  UNL     1     -40.491   4.005  -1.863  1.00 20.00    -0.327 OA
HETATM    8  F8  UNL     1     -41.088   8.346  -0.786  1.00 20.00    -0.203 F 
HETATM    9  F9  UNL     1     -40.070   6.372   0.703  1.00 20.00    -0.204 F 
HETATM   10  F10 UNL     1     -42.777   3.299  -1.831  1.00 20.00    -0.203 F 
ENDROOT
TORSDOF 0
ENDMDL
MODEL 6
REMARK VINA RESULT:      -4.6     12.255     13.353
REMARK  0 active torsions:
REMARK  status: ('A' for Active; 'I' for Inactive)
ROOT
HETATM    1  C1  UNL     1     -35.254  15.893  -3.581  1.00 20.00     0.047 A 
HETATM    2  C2  UNL     1     -34.455  14.939  -3.072  1.00 20.00     0.052 A 
HETATM    3  C3  UNL     1     -35.788  15.760  -4.918  1.00 20.00     0.153 A 
HETATM    4  C4  UNL     1     -35.503  14.693  -5.682  1.00 20.00     0.167 A 
HETATM    5  C5  UNL     1     -34.629  13.594  -5.233  1.00 20.00     0.262 A 
HETATM    6  C6  UNL     1     -34.063  13.729  -3.819  1.00 20.00     0.258 A 
HETATM    7  O7  UNL     1     -34.990  12.696  -4.174  1.00 20.00    -0.327 OA
HETATM    8  F8  UNL     1     -36.592  16.738  -5.381  1.00 20.00    -0.203 F 
HETATM    9  F9  UNL     1     -36.040  14.623  -6.921  1.00 20.00    -0.204 F 
HETATM   10  F10 UNL     1     -32.741  13.328  -3.660  1.00 20.00    -0.203 F 
ENDROOT
TORSDOF 0
ENDMDL
MODEL 7
REMARK VINA RESULT:      -4.6     12.232     13.335
REMARK  0 active torsions:
REMARK  status: ('A' for Active; 'I' for Inactive)
ROOT
HETATM    1  C1  UNL     1     -34.023  15.735  -5.832  1.00 20.00     0.047 A 
HETATM    2  C2  UNL     1     -34.445  14.459  -5.797  1.00 20.00     0.052 A 
HETATM    3  C3  UNL     1     -33.598  16.397  -4.619  1.00 20.00     0.153 A 
HETATM    4  C4  UNL     1     -33.613  15.763  -3.435  1.00 20.00     0.167 A 
HETATM    5  C5  UNL     1     -34.066  14.370  -3.275  1.00 20.00     0.262 A 
HETATM    6  C6  UNL     1     -34.516  13.665  -4.557  1.00 20.00     0.258 A 
HETATM    7  O7  UNL     1     -33.355  13.251  -3.826  1.00 20.00    -0.327 OA
HETATM    8  F8  UNL     1     -33.175  17.674  -4.706  1.00 20.00    -0.203 F 
HETATM    9  F9  UNL     1     -33.195  16.433  -2.337  1.00 20.00    -0.204 F 
HETATM   10  F10 UNL     1     -35.634  12.847  -4.431  1.00 20.00    -0.203 F 
ENDROOT
TORSDOF 0
ENDMDL
MODEL 8
REMARK VINA RESULT:      -4.6     12.664     13.891
REMARK  0 active torsions:
REMARK  status: ('A' for Active; 'I' for Inactive)
ROOT
HETATM    1  C1  UNL     1     -34.791  13.448  -4.780  1.00 20.00     0.047 A 
HETATM    2  C2  UNL     1     -34.224  13.865  -3.634  1.00 20.00     0.052 A 
HETATM    3  C3  UNL     1     -34.770  14.294  -5.953  1.00 20.00     0.153 A 
HETATM    4  C4  UNL     1     -34.192  15.505  -5.931  1.00 20.00     0.167 A 
HETATM    5  C5  UNL     1     -33.552  16.069  -4.728  1.00 20.00     0.262 A 
HETATM    6  C6  UNL     1     -33.570  15.178  -3.485  1.00 20.00     0.258 A 
HETATM    7  O7  UNL     1     -32.353  15.525  -4.157  1.00 20.00    -0.327 OA
HETATM    8  F8  UNL     1     -35.343  13.829  -7.081  1.00 20.00    -0.203 F 
HETATM    9  F9  UNL     1     -34.198  16.246  -7.063  1.00 20.00    -0.204 F 
HETATM   10  F10 UNL     1     -33.805  15.832  -2.280  1.00 20.00    -0.203 F 
ENDROOT
TORSDOF 0
ENDMDL
MODEL 9
REMARK VINA RESULT:      -4.6     12.653     13.860
REMARK  0 active torsions:
REMARK  status: ('A' for Active; 'I' for Inactive)
ROOT
HETATM    1  C1  UNL     1     -33.400  16.249  -5.146  1.00 20.00     0.047 A 
HETATM    2  C2  UNL     1     -33.099  15.496  -4.074  1.00 20.00     0.052 A 
HETATM    3  C3  UNL     1     -34.222  15.711  -6.208  1.00 20.00     0.153 A 
HETATM    4  C4  UNL     1     -34.702  14.458  -6.153  1.00 20.00     0.167 A 
HETATM    5  C5  UNL     1     -34.425  13.540  -5.034  1.00 20.00     0.262 A 
HETATM    6  C6  UNL     1     -33.557  14.104  -3.908  1.00 20.00     0.258 A 
HETATM    7  O7  UNL     1     -34.933  13.753  -3.709  1.00 20.00    -0.327 OA
HETATM    8  F8  UNL     1     -34.504  16.508  -7.258  1.00 20.00    -0.203 F 
HETATM    9  F9  UNL     1     -35.471  14.016  -7.174  1.00 20.00    -0.204 F 
HETATM   10  F10 UNL     1     -32.623  13.225  -3.371  1.00 20.00    -0.203 F 
ENDROOT
TORSDOF 0
ENDMDL
