MODEL 1
REMARK VINA RESULT:      -4.1      0.000      0.000
REMARK  1 active torsions:
REMARK  status: ('A' for Active; 'I' for Inactive)
REMARK    1  A    between atoms: C1_1  and  C3_3 
ROOT
HETATM    1  C1  UNL     1     -34.637  14.892  -4.470  1.00 20.00    -0.007 C 
HETATM    2  C2  UNL     1     -34.303  16.064  -5.031  1.00 20.00    -0.016 C 
HETATM    3  C4  UNL     1     -34.799  14.898  -2.979  1.00 20.00     0.058 C 
HETATM    4  C5  UNL     1     -34.983  16.357  -2.549  1.00 20.00     0.052 C 
HETATM    5  C6  UNL     1     -34.051  16.387  -6.466  1.00 20.00     0.056 C 
HETATM    6  C7  UNL     1     -34.416  16.648  -1.170  1.00 20.00     0.022 C 
HETATM    7  S9  UNL     1     -34.149  17.343  -3.845  1.00 20.00    -0.129 SA
ENDROOT
BRANCH   1   8
HETATM    8  C3  UNL     1     -34.834  13.643  -5.202  1.00 20.00     0.266 C 
HETATM    9  O8  UNL     1     -34.876  12.549  -4.648  1.00 20.00    -0.302 OA
ENDBRANCH   1   8
TORSDOF 1
ENDMDL
MODEL 2
REMARK VINA RESULT:      -3.9      1.440      1.577
REMARK  1 active torsions:
REMARK  status: ('A' for Active; 'I' for Inactive)
REMARK    1  A    between atoms: C1_1  and  C3_3 
ROOT
HETATM    1  C1  UNL     1     -34.861  14.816  -4.069  1.00 20.00    -0.007 C 
HETATM    2  C2  UNL     1     -35.981  15.541  -4.206  1.00 20.00    -0.016 C 
HETATM    3  C4  UNL     1     -33.951  15.213  -2.946  1.00 20.00     0.058 C 
HETATM    4  C5  UNL     1     -34.777  16.061  -1.972  1.00 20.00     0.052 C 
HETATM    5  C6  UNL     1     -37.069  15.418  -5.219  1.00 20.00     0.056 C 
HETATM    6  C7  UNL     1     -33.956  17.126  -1.265  1.00 20.00     0.022 C 
HETATM    7  S9  UNL     1     -36.104  16.798  -2.993  1.00 20.00    -0.129 SA
ENDROOT
BRANCH   1   8
HETATM    8  C3  UNL     1     -34.480  13.700  -4.933  1.00 20.00     0.266 C 
HETATM    9  O8  UNL     1     -34.855  12.549  -4.735  1.00 20.00    -0.302 OA
ENDBRANCH   1   8
TORSDOF 1
ENDMDL
MODEL 3
REMARK VINA RESULT:      -3.9      1.191      3.224
REMARK  1 active torsions:
REMARK  status: ('A' for Active; 'I' for Inactive)
REMARK    1  A    between atoms: C1_1  and  C3_3 
ROOT
HETATM    1  C1  UNL     1     -34.800  14.885  -4.821  1.00 20.00    -0.007 C 
HETATM    2  C2  UNL     1     -34.115  15.869  -4.221  1.00 20.00    -0.016 C 
HETATM    3  C4  UNL     1     -35.108  15.087  -6.274  1.00 20.00     0.058 C 
HETATM    4  C5  UNL     1     -34.155  16.168  -6.794  1.00 20.00     0.052 C 
HETATM    5  C6  UNL     1     -33.673  15.984  -2.800  1.00 20.00     0.056 C 
HETATM    6  C7  UNL     1     -34.761  17.015  -7.899  1.00 20.00     0.022 C 
HETATM    7  S9  UNL     1     -33.733  17.174  -5.325  1.00 20.00    -0.129 SA
ENDROOT
BRANCH   1   8
HETATM    8  C3  UNL     1     -35.262  13.666  -4.158  1.00 20.00     0.266 C 
HETATM    9  O8  UNL     1     -34.941  12.544  -4.535  1.00 20.00    -0.302 OA
ENDBRANCH   1   8
TORSDOF 1
ENDMDL
MODEL 4
REMARK VINA RESULT:      -3.8      2.034      2.372
REMARK  1 active torsions:
REMARK  status: ('A' for Active; 'I' for Inactive)
REMARK    1  A    between atoms: C1_1  and  C3_3 
ROOT
HETATM    1  C1  UNL     1     -35.979  15.104  -3.796  1.00 20.00    -0.007 C 
HETATM    2  C2  UNL     1     -34.872  14.436  -4.149  1.00 20.00    -0.016 C 
HETATM    3  C4  UNL     1     -35.792  16.210  -2.801  1.00 20.00     0.058 C 
HETATM    4  C5  UNL     1     -34.304  16.573  -2.801  1.00 20.00     0.052 C 
HETATM    5  C6  UNL     1     -34.720  13.285  -5.088  1.00 20.00     0.056 C 
HETATM    6  C7  UNL     1     -33.806  17.047  -1.446  1.00 20.00     0.022 C 
HETATM    7  S9  UNL     1     -33.445  15.051  -3.343  1.00 20.00    -0.129 SA
ENDROOT
BRANCH   1   8
HETATM    8  C3  UNL     1     -37.322  14.819  -4.300  1.00 20.00     0.266 C 
HETATM    9  O8  UNL     1     -38.148  14.178  -3.660  1.00 20.00    -0.302 OA
ENDBRANCH   1   8
TORSDOF 1
ENDMDL
MODEL 5
REMARK VINA RESULT:      -3.7      2.307      3.527
REMARK  1 active torsions:
REMARK  status: ('A' for Active; 'I' for Inactive)
REMARK    1  A    between atoms: C1_1  and  C3_3 
ROOT
HETATM    1  C1  UNL     1     -34.060  16.330  -2.881  1.00 20.00    -0.007 C 
HETATM    2  C2  UNL     1     -33.890  16.989  -4.036  1.00 20.00    -0.016 C 
HETATM    3  C4  UNL     1     -34.344  14.862  -2.995  1.00 20.00     0.058 C 
HETATM    4  C5  UNL     1     -33.910  14.424  -4.398  1.00 20.00     0.052 C 
HETATM    5  C6  UNL     1     -33.616  18.438  -4.267  1.00 20.00     0.056 C 
HETATM    6  C7  UNL     1     -34.755  13.293  -4.957  1.00 20.00     0.022 C 
HETATM    7  S9  UNL     1     -34.035  15.933  -5.425  1.00 20.00    -0.129 SA
ENDROOT
BRANCH   1   8
HETATM    8  C3  UNL     1     -33.999  16.942  -1.555  1.00 20.00     0.266 C 
HETATM    9  O8  UNL     1     -34.632  16.512  -0.596  1.00 20.00    -0.302 OA
ENDBRANCH   1   8
TORSDOF 1
ENDMDL
MODEL 6
REMARK VINA RESULT:      -3.6      2.089      3.675
REMARK  1 active torsions:
REMARK  status: ('A' for Active; 'I' for Inactive)
REMARK    1  A    between atoms: C1_1  and  C3_3 
ROOT
HETATM    1  C1  UNL     1     -36.262  15.228  -4.178  1.00 20.00    -0.007 C 
HETATM    2  C2  UNL     1     -35.120  15.584  -3.572  1.00 20.00    -0.016 C 
HETATM    3  C4  UNL     1     -36.164  14.928  -5.644  1.00 20.00     0.058 C 
HETATM    4  C5  UNL     1     -34.686  14.669  -5.955  1.00 20.00     0.052 C 
HETATM    5  C6  UNL     1     -34.884  15.961  -2.147  1.00 20.00     0.056 C 
HETATM    6  C7  UNL     1     -34.288  15.099  -7.357  1.00 20.00     0.022 C 
HETATM    7  S9  UNL     1     -33.762  15.597  -4.677  1.00 20.00    -0.129 SA
ENDROOT
BRANCH   1   8
HETATM    8  C3  UNL     1     -37.562  15.129  -3.517  1.00 20.00     0.266 C 
HETATM    9  O8  UNL     1     -38.335  14.197  -3.710  1.00 20.00    -0.302 OA
ENDBRANCH   1   8
TORSDOF 1
ENDMDL
MODEL 7
REMARK VINA RESULT:      -3.6     11.855     12.913
REMARK  1 active torsions:
REMARK  status: ('A' for Active; 'I' for Inactive)
REMARK    1  A    between atoms: C1_1  and  C3_3 
ROOT
HETATM    1  C1  UNL     1     -34.266   5.643   4.235  1.00 20.00    -0.007 C 
HETATM    2  C2  UNL     1     -33.781   6.365   5.256  1.00 20.00    -0.016 C 
HETATM    3  C4  UNL     1     -33.676   5.931   2.887  1.00 20.00     0.058 C 
HETATM    4  C5  UNL     1     -32.349   6.660   3.118  1.00 20.00     0.052 C 
HETATM    5  C6  UNL     1     -34.163   6.336   6.699  1.00 20.00     0.056 C 
HETATM    6  C7  UNL     1     -32.015   7.654   2.019  1.00 20.00     0.022 C 
HETATM    7  S9  UNL     1     -32.538   7.485   4.740  1.00 20.00    -0.129 SA
ENDROOT
BRANCH   1   8
HETATM    8  C3  UNL     1     -35.313   4.630   4.352  1.00 20.00     0.266 C 
HETATM    9  O8  UNL     1     -35.138   3.559   4.923  1.00 20.00    -0.302 OA
ENDBRANCH   1   8
TORSDOF 1
ENDMDL
MODEL 8
REMARK VINA RESULT:      -3.6      2.021      2.960
REMARK  1 active torsions:
REMARK  status: ('A' for Active; 'I' for Inactive)
REMARK    1  A    between atoms: C1_1  and  C3_3 
ROOT
HETATM    1  C1  UNL     1     -34.614  14.852  -3.513  1.00 20.00    -0.007 C 
HETATM    2  C2  UNL     1     -34.819  15.993  -2.839  1.00 20.00    -0.016 C 
HETATM    3  C4  UNL     1     -35.828  14.224  -4.128  1.00 20.00     0.058 C 
HETATM    4  C5  UNL     1     -36.911  15.305  -4.201  1.00 20.00     0.052 C 
HETATM    5  C6  UNL     1     -33.838  16.846  -2.104  1.00 20.00     0.056 C 
HETATM    6  C7  UNL     1     -38.318  14.751  -4.051  1.00 20.00     0.022 C 
HETATM    7  S9  UNL     1     -36.501  16.478  -2.858  1.00 20.00    -0.129 SA
ENDROOT
BRANCH   1   8
HETATM    8  C3  UNL     1     -33.316  14.198  -3.671  1.00 20.00     0.266 C 
HETATM    9  O8  UNL     1     -33.191  12.979  -3.725  1.00 20.00    -0.302 OA
ENDBRANCH   1   8
TORSDOF 1
ENDMDL
MODEL 9
REMARK VINA RESULT:      -3.6      1.740      2.653
REMARK  1 active torsions:
REMARK  status: ('A' for Active; 'I' for Inactive)
REMARK    1  A    between atoms: C1_1  and  C3_3 
ROOT
HETATM    1  C1  UNL     1     -34.719  14.964  -4.266  1.00 20.00    -0.007 C 
HETATM    2  C2  UNL     1     -35.931  15.523  -4.142  1.00 20.00    -0.016 C 
HETATM    3  C4  UNL     1     -33.626  15.864  -4.761  1.00 20.00     0.058 C 
HETATM    4  C5  UNL     1     -34.100  17.307  -4.558  1.00 20.00     0.052 C 
HETATM    5  C6  UNL     1     -37.216  14.905  -3.700  1.00 20.00     0.056 C 
HETATM    6  C7  UNL     1     -33.567  18.263  -5.611  1.00 20.00     0.022 C 
HETATM    7  S9  UNL     1     -35.927  17.215  -4.592  1.00 20.00    -0.129 SA
ENDROOT
BRANCH   1   8
HETATM    8  C3  UNL     1     -34.409  13.567  -3.967  1.00 20.00     0.266 C 
HETATM    9  O8  UNL     1     -34.840  12.634  -4.637  1.00 20.00    -0.302 OA
ENDBRANCH   1   8
TORSDOF 1
ENDMDL
