MODEL 1
REMARK VINA RESULT:      -5.2      0.000      0.000
REMARK  3 active torsions:
REMARK  status: ('A' for Active; 'I' for Inactive)
REMARK    1  A    between atoms: C4_4  and  C5_5 
REMARK    2  A    between atoms: C6_6  and  C9_9 
REMARK    3  A    between atoms: C7_7  and  C10_10 
ROOT
HETATM    1  C1  UNL     1     -34.116   5.926   6.507  1.00 20.00    -0.029 C 
HETATM    2  C2  UNL     1     -33.696   6.838   5.627  1.00 20.00    -0.021 C 
HETATM    3  C8  UNL     1     -34.539   4.658   5.843  1.00 20.00     0.039 C 
HETATM    4  C9  UNL     1     -33.765   6.344   4.212  1.00 20.00     0.041 C 
HETATM    5  C10 UNL     1     -34.569   5.034   4.354  1.00 20.00     0.062 C 
ENDROOT
BRANCH   4   6
HETATM    6  C6  UNL     1     -32.401   6.125   3.636  1.00 20.00    -0.017 C 
HETATM    7  C5  UNL     1     -31.809   6.973   2.782  1.00 20.00    -0.004 C 
BRANCH   7   8
HETATM    8  C4  UNL     1     -32.429   8.196   2.328  1.00 20.00    -0.011 C 
HETATM    9  C3  UNL     1     -32.026   8.864   1.241  1.00 20.00     0.011 C 
ENDBRANCH   7   8
ENDBRANCH   4   6
BRANCH   5  10
HETATM   10  C7  UNL     1     -35.986   5.253   3.902  1.00 20.00     0.236 C 
HETATM   11  O11 UNL     1     -36.303   6.075   3.049  1.00 20.00    -0.306 OA
ENDBRANCH   5  10
TORSDOF 3
ENDMDL
MODEL 2
REMARK VINA RESULT:      -5.1     10.785     11.952
REMARK  3 active torsions:
REMARK  status: ('A' for Active; 'I' for Inactive)
REMARK    1  A    between atoms: C4_4  and  C5_5 
REMARK    2  A    between atoms: C6_6  and  C9_9 
REMARK    3  A    between atoms: C7_7  and  C10_10 
ROOT
HETATM    1  C1  UNL     1     -34.474  13.305  -4.882  1.00 20.00    -0.029 C 
HETATM    2  C2  UNL     1     -34.314  13.631  -3.598  1.00 20.00    -0.021 C 
HETATM    3  C8  UNL     1     -35.178  14.374  -5.650  1.00 20.00     0.039 C 
HETATM    4  C9  UNL     1     -34.886  14.980  -3.274  1.00 20.00     0.041 C 
HETATM    5  C10 UNL     1     -35.680  15.323  -4.551  1.00 20.00     0.062 C 
ENDROOT
BRANCH   4   6
HETATM    6  C6  UNL     1     -33.811  15.978  -2.976  1.00 20.00    -0.017 C 
HETATM    7  C5  UNL     1     -33.774  16.723  -1.861  1.00 20.00    -0.004 C 
BRANCH   7   8
HETATM    8  C4  UNL     1     -34.774  16.638  -0.823  1.00 20.00    -0.011 C 
HETATM    9  C3  UNL     1     -34.772  17.416   0.265  1.00 20.00     0.011 C 
ENDBRANCH   7   8
ENDBRANCH   4   6
BRANCH   5  10
HETATM   10  C7  UNL     1     -37.148  15.110  -4.312  1.00 20.00     0.236 C 
HETATM   11  O11 UNL     1     -37.606  14.112  -3.764  1.00 20.00    -0.306 OA
ENDBRANCH   5  10
TORSDOF 3
ENDMDL
MODEL 3
REMARK VINA RESULT:      -4.6     11.205     12.860
REMARK  3 active torsions:
REMARK  status: ('A' for Active; 'I' for Inactive)
REMARK    1  A    between atoms: C4_4  and  C5_5 
REMARK    2  A    between atoms: C6_6  and  C9_9 
REMARK    3  A    between atoms: C7_7  and  C10_10 
ROOT
HETATM    1  C1  UNL     1     -34.188  15.534  -6.959  1.00 20.00    -0.029 C 
HETATM    2  C2  UNL     1     -33.828  16.146  -5.828  1.00 20.00    -0.021 C 
HETATM    3  C8  UNL     1     -35.212  14.475  -6.722  1.00 20.00     0.039 C 
HETATM    4  C9  UNL     1     -34.546  15.603  -4.629  1.00 20.00     0.041 C 
HETATM    5  C10 UNL     1     -35.231  14.340  -5.192  1.00 20.00     0.062 C 
ENDROOT
BRANCH   4   6
HETATM    6  C6  UNL     1     -35.522  16.592  -4.074  1.00 20.00    -0.017 C 
HETATM    7  C5  UNL     1     -35.624  16.887  -2.770  1.00 20.00    -0.004 C 
BRANCH   7   8
HETATM    8  C4  UNL     1     -34.795  16.278  -1.757  1.00 20.00    -0.011 C 
HETATM    9  C3  UNL     1     -34.503  16.869  -0.593  1.00 20.00     0.011 C 
ENDBRANCH   7   8
ENDBRANCH   4   6
BRANCH   5  10
HETATM   10  C7  UNL     1     -34.472  13.115  -4.768  1.00 20.00     0.236 C 
HETATM   11  O11 UNL     1     -33.518  13.143  -3.997  1.00 20.00    -0.306 OA
ENDBRANCH   5  10
TORSDOF 3
ENDMDL
MODEL 4
REMARK VINA RESULT:      -4.5     11.047     12.342
REMARK  3 active torsions:
REMARK  status: ('A' for Active; 'I' for Inactive)
REMARK    1  A    between atoms: C4_4  and  C5_5 
REMARK    2  A    between atoms: C6_6  and  C9_9 
REMARK    3  A    between atoms: C7_7  and  C10_10 
ROOT
HETATM    1  C1  UNL     1     -34.862  16.879  -4.503  1.00 20.00    -0.029 C 
HETATM    2  C2  UNL     1     -34.093  17.293  -3.493  1.00 20.00    -0.021 C 
HETATM    3  C8  UNL     1     -35.326  15.473  -4.316  1.00 20.00     0.039 C 
HETATM    4  C9  UNL     1     -33.902  16.233  -2.448  1.00 20.00     0.041 C 
HETATM    5  C10 UNL     1     -34.482  14.978  -3.133  1.00 20.00     0.062 C 
ENDROOT
BRANCH   4   6
HETATM    6  C6  UNL     1     -34.612  16.578  -1.176  1.00 20.00    -0.017 C 
HETATM    7  C5  UNL     1     -34.196  17.527  -0.325  1.00 20.00    -0.004 C 
BRANCH   7   8
HETATM    8  C4  UNL     1     -33.012  18.323  -0.549  1.00 20.00    -0.011 C 
HETATM    9  C3  UNL     1     -32.233  18.774   0.441  1.00 20.00     0.011 C 
ENDBRANCH   7   8
ENDBRANCH   4   6
BRANCH   5  10
HETATM   10  C7  UNL     1     -33.363  14.101  -3.623  1.00 20.00     0.236 C 
HETATM   11  O11 UNL     1     -33.543  13.007  -4.148  1.00 20.00    -0.306 OA
ENDBRANCH   5  10
TORSDOF 3
ENDMDL
MODEL 5
REMARK VINA RESULT:      -4.5     11.444     12.469
REMARK  3 active torsions:
REMARK  status: ('A' for Active; 'I' for Inactive)
REMARK    1  A    between atoms: C4_4  and  C5_5 
REMARK    2  A    between atoms: C6_6  and  C9_9 
REMARK    3  A    between atoms: C7_7  and  C10_10 
ROOT
HETATM    1  C1  UNL     1     -35.181  14.025  -3.836  1.00 20.00    -0.029 C 
HETATM    2  C2  UNL     1     -35.777  15.078  -3.273  1.00 20.00    -0.021 C 
HETATM    3  C8  UNL     1     -33.695  14.170  -3.864  1.00 20.00     0.039 C 
HETATM    4  C9  UNL     1     -34.796  16.121  -2.825  1.00 20.00     0.041 C 
HETATM    5  C10 UNL     1     -33.478  15.636  -3.463  1.00 20.00     0.062 C 
ENDROOT
BRANCH   4   6
HETATM    6  C6  UNL     1     -34.720  16.203  -1.332  1.00 20.00    -0.017 C 
HETATM    7  C5  UNL     1     -34.136  17.213  -0.671  1.00 20.00    -0.004 C 
BRANCH   7   8
HETATM    8  C4  UNL     1     -33.517  18.337  -1.335  1.00 20.00    -0.011 C 
HETATM    9  C3  UNL     1     -32.794  19.262  -0.693  1.00 20.00     0.011 C 
ENDBRANCH   7   8
ENDBRANCH   4   6
BRANCH   5  10
HETATM   10  C7  UNL     1     -33.163  16.465  -4.677  1.00 20.00     0.236 C 
HETATM   11  O11 UNL     1     -33.483  16.143  -5.817  1.00 20.00    -0.306 OA
ENDBRANCH   5  10
TORSDOF 3
ENDMDL
MODEL 6
REMARK VINA RESULT:      -4.4     10.911     13.006
REMARK  3 active torsions:
REMARK  status: ('A' for Active; 'I' for Inactive)
REMARK    1  A    between atoms: C4_4  and  C5_5 
REMARK    2  A    between atoms: C6_6  and  C9_9 
REMARK    3  A    between atoms: C7_7  and  C10_10 
ROOT
HETATM    1  C1  UNL     1     -33.260  14.931  -3.706  1.00 20.00    -0.029 C 
HETATM    2  C2  UNL     1     -33.554  15.779  -4.695  1.00 20.00    -0.021 C 
HETATM    3  C8  UNL     1     -34.221  13.790  -3.641  1.00 20.00     0.039 C 
HETATM    4  C9  UNL     1     -34.769  15.359  -5.468  1.00 20.00     0.041 C 
HETATM    5  C10 UNL     1     -35.342  14.220  -4.598  1.00 20.00     0.062 C 
ENDROOT
BRANCH   4   6
HETATM    6  C6  UNL     1     -34.416  14.909  -6.851  1.00 20.00    -0.017 C 
HETATM    7  C5  UNL     1     -35.217  15.070  -7.914  1.00 20.00    -0.004 C 
BRANCH   7   8
HETATM    8  C4  UNL     1     -36.514  15.700  -7.835  1.00 20.00    -0.011 C 
HETATM    9  C3  UNL     1     -37.661  15.015  -7.771  1.00 20.00     0.011 C 
ENDBRANCH   7   8
ENDBRANCH   4   6
BRANCH   5  10
HETATM   10  C7  UNL     1     -36.527  14.718  -3.820  1.00 20.00     0.236 C 
HETATM   11  O11 UNL     1     -37.620  14.159  -3.821  1.00 20.00    -0.306 OA
ENDBRANCH   5  10
TORSDOF 3
ENDMDL
MODEL 7
REMARK VINA RESULT:      -4.3     11.117     12.723
REMARK  3 active torsions:
REMARK  status: ('A' for Active; 'I' for Inactive)
REMARK    1  A    between atoms: C4_4  and  C5_5 
REMARK    2  A    between atoms: C6_6  and  C9_9 
REMARK    3  A    between atoms: C7_7  and  C10_10 
ROOT
HETATM    1  C1  UNL     1     -34.698  15.947  -2.202  1.00 20.00    -0.029 C 
HETATM    2  C2  UNL     1     -35.854  15.816  -2.857  1.00 20.00    -0.021 C 
HETATM    3  C8  UNL     1     -33.523  15.630  -3.067  1.00 20.00     0.039 C 
HETATM    4  C9  UNL     1     -35.660  15.385  -4.281  1.00 20.00     0.041 C 
HETATM    5  C10 UNL     1     -34.164  15.007  -4.316  1.00 20.00     0.062 C 
ENDROOT
BRANCH   4   6
HETATM    6  C6  UNL     1     -36.002  16.481  -5.241  1.00 20.00    -0.017 C 
HETATM    7  C5  UNL     1     -36.379  16.268  -6.510  1.00 20.00    -0.004 C 
BRANCH   7   8
HETATM    8  C4  UNL     1     -36.497  14.949  -7.087  1.00 20.00    -0.011 C 
HETATM    9  C3  UNL     1     -35.588  14.426  -7.918  1.00 20.00     0.011 C 
ENDBRANCH   7   8
ENDBRANCH   4   6
BRANCH   5  10
HETATM   10  C7  UNL     1     -34.015  13.512  -4.285  1.00 20.00     0.236 C 
HETATM   11  O11 UNL     1     -34.932  12.735  -4.532  1.00 20.00    -0.306 OA
ENDBRANCH   5  10
TORSDOF 3
ENDMDL
MODEL 8
REMARK VINA RESULT:      -4.2     11.338     12.486
REMARK  3 active torsions:
REMARK  status: ('A' for Active; 'I' for Inactive)
REMARK    1  A    between atoms: C4_4  and  C5_5 
REMARK    2  A    between atoms: C6_6  and  C9_9 
REMARK    3  A    between atoms: C7_7  and  C10_10 
ROOT
HETATM    1  C1  UNL     1     -33.534  15.991  -2.688  1.00 20.00    -0.029 C 
HETATM    2  C2  UNL     1     -34.808  15.773  -2.353  1.00 20.00    -0.021 C 
HETATM    3  C8  UNL     1     -33.276  15.706  -4.130  1.00 20.00     0.039 C 
HETATM    4  C9  UNL     1     -35.632  15.298  -3.513  1.00 20.00     0.041 C 
HETATM    5  C10 UNL     1     -34.562  15.001  -4.585  1.00 20.00     0.062 C 
ENDROOT
BRANCH   4   6
HETATM    6  C6  UNL     1     -36.617  16.337  -3.952  1.00 20.00    -0.017 C 
HETATM    7  C5  UNL     1     -37.897  16.070  -4.251  1.00 20.00    -0.004 C 
BRANCH   7   8
HETATM    8  C4  UNL     1     -38.463  14.743  -4.178  1.00 20.00    -0.011 C 
HETATM    9  C3  UNL     1     -39.715  14.457  -4.555  1.00 20.00     0.011 C 
ENDBRANCH   7   8
ENDBRANCH   4   6
BRANCH   5  10
HETATM   10  C7  UNL     1     -34.336  13.519  -4.683  1.00 20.00     0.236 C 
HETATM   11  O11 UNL     1     -35.150  12.684  -4.302  1.00 20.00    -0.306 OA
ENDBRANCH   5  10
TORSDOF 3
ENDMDL
MODEL 9
REMARK VINA RESULT:      -4.2      8.966     11.130
REMARK  3 active torsions:
REMARK  status: ('A' for Active; 'I' for Inactive)
REMARK    1  A    between atoms: C4_4  and  C5_5 
REMARK    2  A    between atoms: C6_6  and  C9_9 
REMARK    3  A    between atoms: C7_7  and  C10_10 
ROOT
HETATM    1  C1  UNL     1     -40.793   5.725  -0.381  1.00 20.00    -0.029 C 
HETATM    2  C2  UNL     1     -40.774   4.672  -1.202  1.00 20.00    -0.021 C 
HETATM    3  C8  UNL     1     -42.022   6.553  -0.560  1.00 20.00     0.039 C 
HETATM    4  C9  UNL     1     -41.988   4.608  -2.082  1.00 20.00     0.041 C 
HETATM    5  C10 UNL     1     -42.648   5.982  -1.841  1.00 20.00     0.062 C 
ENDROOT
BRANCH   4   6
HETATM    6  C6  UNL     1     -42.880   3.466  -1.709  1.00 20.00    -0.017 C 
HETATM    7  C5  UNL     1     -43.058   2.380  -2.476  1.00 20.00    -0.004 C 
BRANCH   7   8
HETATM    8  C4  UNL     1     -42.402   2.198  -3.750  1.00 20.00    -0.011 C 
HETATM    9  C3  UNL     1     -41.440   1.292  -3.958  1.00 20.00     0.011 C 
ENDBRANCH   7   8
ENDBRANCH   4   6
BRANCH   5  10
HETATM   10  C7  UNL     1     -42.371   6.892  -3.005  1.00 20.00     0.236 C 
HETATM   11  O11 UNL     1     -43.086   6.953  -4.000  1.00 20.00    -0.306 OA
ENDBRANCH   5  10
TORSDOF 3
ENDMDL
