MODEL 1
REMARK VINA RESULT:      -4.2      0.000      0.000
REMARK  1 active torsions:
REMARK  status: ('A' for Active; 'I' for Inactive)
REMARK    1  A    between atoms: C1_1  and  C5_5 
ROOT
HETATM    1  C2  UNL     1     -33.128  14.961  -3.380  1.00 20.00     0.026 C 
HETATM    2  C3  UNL     1     -35.187  15.102  -2.868  1.00 20.00     0.026 C 
HETATM    3  C4  UNL     1     -34.380  16.357  -4.383  1.00 20.00     0.026 C 
HETATM    4  C5  UNL     1     -34.438  14.821  -4.193  1.00 20.00     0.022 C 
HETATM    5  C6  UNL     1     -34.013  16.165  -2.854  1.00 20.00    -0.041 C 
HETATM    6  C8  UNL     1     -33.688  17.187  -1.836  1.00 20.00     0.015 C 
ENDROOT
BRANCH   4   7
HETATM    7  C1  UNL     1     -34.764  13.791  -5.215  1.00 20.00     0.131 C 
HETATM    8  C7  UNL     1     -35.131  14.290  -6.587  1.00 20.00     0.091 C 
HETATM    9  O9  UNL     1     -34.734  12.590  -4.953  1.00 20.00    -0.298 OA
ENDBRANCH   4   7
TORSDOF 1
ENDMDL
MODEL 2
REMARK VINA RESULT:      -4.2      0.044      1.236
REMARK  1 active torsions:
REMARK  status: ('A' for Active; 'I' for Inactive)
REMARK    1  A    between atoms: C1_1  and  C5_5 
ROOT
HETATM    1  C2  UNL     1     -34.390  16.363  -4.416  1.00 20.00     0.026 C 
HETATM    2  C3  UNL     1     -33.099  14.997  -3.423  1.00 20.00     0.026 C 
HETATM    3  C4  UNL     1     -35.151  15.112  -2.875  1.00 20.00     0.026 C 
HETATM    4  C5  UNL     1     -34.421  14.829  -4.212  1.00 20.00     0.022 C 
HETATM    5  C6  UNL     1     -33.993  16.192  -2.893  1.00 20.00    -0.041 C 
HETATM    6  C8  UNL     1     -33.668  17.229  -1.890  1.00 20.00     0.015 C 
ENDROOT
BRANCH   4   7
HETATM    7  C1  UNL     1     -34.745  13.786  -5.222  1.00 20.00     0.131 C 
HETATM    8  C7  UNL     1     -35.094  14.269  -6.605  1.00 20.00     0.091 C 
HETATM    9  O9  UNL     1     -34.728  12.589  -4.942  1.00 20.00    -0.298 OA
ENDBRANCH   4   7
TORSDOF 1
ENDMDL
MODEL 3
REMARK VINA RESULT:      -4.2      0.066      1.216
REMARK  1 active torsions:
REMARK  status: ('A' for Active; 'I' for Inactive)
REMARK    1  A    between atoms: C1_1  and  C5_5 
ROOT
HETATM    1  C2  UNL     1     -35.161  15.129  -2.850  1.00 20.00     0.026 C 
HETATM    2  C3  UNL     1     -34.428  16.402  -4.387  1.00 20.00     0.026 C 
HETATM    3  C4  UNL     1     -33.108  15.058  -3.400  1.00 20.00     0.026 C 
HETATM    4  C5  UNL     1     -34.428  14.867  -4.188  1.00 20.00     0.022 C 
HETATM    5  C6  UNL     1     -34.025  16.233  -2.865  1.00 20.00    -0.041 C 
HETATM    6  C8  UNL     1     -33.720  17.272  -1.858  1.00 20.00     0.015 C 
ENDROOT
BRANCH   4   7
HETATM    7  C1  UNL     1     -34.738  13.823  -5.201  1.00 20.00     0.131 C 
HETATM    8  C7  UNL     1     -35.075  14.303  -6.587  1.00 20.00     0.091 C 
HETATM    9  O9  UNL     1     -34.719  12.625  -4.920  1.00 20.00    -0.298 OA
ENDBRANCH   4   7
TORSDOF 1
ENDMDL
MODEL 4
REMARK VINA RESULT:      -4.2     11.717     12.542
REMARK  1 active torsions:
REMARK  status: ('A' for Active; 'I' for Inactive)
REMARK    1  A    between atoms: C1_1  and  C5_5 
ROOT
HETATM    1  C2  UNL     1     -32.809   5.375   3.217  1.00 20.00     0.026 C 
HETATM    2  C3  UNL     1     -32.959   6.835   4.755  1.00 20.00     0.026 C 
HETATM    3  C4  UNL     1     -34.443   6.737   3.234  1.00 20.00     0.026 C 
HETATM    4  C5  UNL     1     -33.902   5.711   4.261  1.00 20.00     0.022 C 
HETATM    5  C6  UNL     1     -32.875   6.957   3.178  1.00 20.00    -0.041 C 
HETATM    6  C8  UNL     1     -32.094   7.904   2.354  1.00 20.00     0.015 C 
ENDROOT
BRANCH   4   7
HETATM    7  C1  UNL     1     -34.685   4.757   5.092  1.00 20.00     0.131 C 
HETATM    8  C7  UNL     1     -34.867   5.113   6.543  1.00 20.00     0.091 C 
HETATM    9  O9  UNL     1     -35.162   3.728   4.615  1.00 20.00    -0.298 OA
ENDBRANCH   4   7
TORSDOF 1
ENDMDL
MODEL 5
REMARK VINA RESULT:      -4.2     11.713     12.554
REMARK  1 active torsions:
REMARK  status: ('A' for Active; 'I' for Inactive)
REMARK    1  A    between atoms: C1_1  and  C5_5 
ROOT
HETATM    1  C2  UNL     1     -32.954   6.836   4.751  1.00 20.00     0.026 C 
HETATM    2  C3  UNL     1     -34.440   6.738   3.234  1.00 20.00     0.026 C 
HETATM    3  C4  UNL     1     -32.806   5.377   3.212  1.00 20.00     0.026 C 
HETATM    4  C5  UNL     1     -33.897   5.712   4.259  1.00 20.00     0.022 C 
HETATM    5  C6  UNL     1     -32.872   6.959   3.174  1.00 20.00    -0.041 C 
HETATM    6  C8  UNL     1     -32.093   7.907   2.350  1.00 20.00     0.015 C 
ENDROOT
BRANCH   4   7
HETATM    7  C1  UNL     1     -34.683   4.761   5.089  1.00 20.00     0.131 C 
HETATM    8  C7  UNL     1     -34.856   5.114   6.542  1.00 20.00     0.091 C 
HETATM    9  O9  UNL     1     -35.169   3.737   4.611  1.00 20.00    -0.298 OA
ENDBRANCH   4   7
TORSDOF 1
ENDMDL
MODEL 6
REMARK VINA RESULT:      -4.1      1.944      3.257
REMARK  1 active torsions:
REMARK  status: ('A' for Active; 'I' for Inactive)
REMARK    1  A    between atoms: C1_1  and  C5_5 
ROOT
HETATM    1  C2  UNL     1     -33.674  16.116  -5.755  1.00 20.00     0.026 C 
HETATM    2  C3  UNL     1     -35.757  15.691  -5.746  1.00 20.00     0.026 C 
HETATM    3  C4  UNL     1     -34.493  14.786  -7.198  1.00 20.00     0.026 C 
HETATM    4  C5  UNL     1     -34.491  14.806  -5.649  1.00 20.00     0.022 C 
HETATM    5  C6  UNL     1     -34.801  16.300  -6.853  1.00 20.00    -0.041 C 
HETATM    6  C8  UNL     1     -35.036  17.438  -7.768  1.00 20.00     0.015 C 
ENDROOT
BRANCH   4   7
HETATM    7  C1  UNL     1     -34.255  13.663  -4.725  1.00 20.00     0.131 C 
HETATM    8  C7  UNL     1     -33.223  13.865  -3.649  1.00 20.00     0.091 C 
HETATM    9  O9  UNL     1     -34.874  12.607  -4.835  1.00 20.00    -0.298 OA
ENDBRANCH   4   7
TORSDOF 1
ENDMDL
MODEL 7
REMARK VINA RESULT:      -4.0      1.966      3.468
REMARK  1 active torsions:
REMARK  status: ('A' for Active; 'I' for Inactive)
REMARK    1  A    between atoms: C1_1  and  C5_5 
ROOT
HETATM    1  C2  UNL     1     -35.877  15.729  -5.493  1.00 20.00     0.026 C 
HETATM    2  C3  UNL     1     -35.296  14.417  -7.063  1.00 20.00     0.026 C 
HETATM    3  C4  UNL     1     -33.869  15.733  -6.192  1.00 20.00     0.026 C 
HETATM    4  C5  UNL     1     -34.792  14.631  -5.615  1.00 20.00     0.022 C 
HETATM    5  C6  UNL     1     -35.250  15.995  -6.923  1.00 20.00    -0.041 C 
HETATM    6  C8  UNL     1     -35.599  17.032  -7.917  1.00 20.00     0.015 C 
ENDROOT
BRANCH   4   7
HETATM    7  C1  UNL     1     -34.444  13.587  -4.614  1.00 20.00     0.131 C 
HETATM    8  C7  UNL     1     -33.283  13.882  -3.703  1.00 20.00     0.091 C 
HETATM    9  O9  UNL     1     -35.076  12.534  -4.534  1.00 20.00    -0.298 OA
ENDBRANCH   4   7
TORSDOF 1
ENDMDL
MODEL 8
REMARK VINA RESULT:      -3.9      1.987      2.896
REMARK  1 active torsions:
REMARK  status: ('A' for Active; 'I' for Inactive)
REMARK    1  A    between atoms: C1_1  and  C5_5 
ROOT
HETATM    1  C2  UNL     1     -34.867  15.734  -4.629  1.00 20.00     0.026 C 
HETATM    2  C3  UNL     1     -35.025  13.754  -3.869  1.00 20.00     0.026 C 
HETATM    3  C4  UNL     1     -34.903  15.401  -2.529  1.00 20.00     0.026 C 
HETATM    4  C5  UNL     1     -35.872  15.036  -3.681  1.00 20.00     0.022 C 
HETATM    5  C6  UNL     1     -33.934  14.885  -3.670  1.00 20.00    -0.041 C 
HETATM    6  C8  UNL     1     -32.460  14.771  -3.664  1.00 20.00     0.015 C 
ENDROOT
BRANCH   4   7
HETATM    7  C1  UNL     1     -37.355  15.150  -3.691  1.00 20.00     0.131 C 
HETATM    8  C7  UNL     1     -37.928  16.541  -3.659  1.00 20.00     0.091 C 
HETATM    9  O9  UNL     1     -38.078  14.155  -3.725  1.00 20.00    -0.298 OA
ENDBRANCH   4   7
TORSDOF 1
ENDMDL
MODEL 9
REMARK VINA RESULT:      -3.9      1.568      2.319
REMARK  1 active torsions:
REMARK  status: ('A' for Active; 'I' for Inactive)
REMARK    1  A    between atoms: C1_1  and  C5_5 
ROOT
HETATM    1  C2  UNL     1     -35.155  16.262  -4.403  1.00 20.00     0.026 C 
HETATM    2  C3  UNL     1     -35.015  15.846  -2.322  1.00 20.00     0.026 C 
HETATM    3  C4  UNL     1     -36.713  15.195  -3.425  1.00 20.00     0.026 C 
HETATM    4  C5  UNL     1     -35.190  14.954  -3.575  1.00 20.00     0.022 C 
HETATM    5  C6  UNL     1     -36.091  16.631  -3.180  1.00 20.00    -0.041 C 
HETATM    6  C8  UNL     1     -36.776  17.907  -2.880  1.00 20.00     0.015 C 
ENDROOT
BRANCH   4   7
HETATM    7  C1  UNL     1     -34.498  13.672  -3.877  1.00 20.00     0.131 C 
HETATM    8  C7  UNL     1     -33.018  13.622  -3.606  1.00 20.00     0.091 C 
HETATM    9  O9  UNL     1     -35.106  12.701  -4.324  1.00 20.00    -0.298 OA
ENDBRANCH   4   7
TORSDOF 1
ENDMDL
