MODEL 1
REMARK VINA RESULT:      -3.8      0.000      0.000
REMARK  4 active torsions:
REMARK  status: ('A' for Active; 'I' for Inactive)
REMARK    1  A    between atoms: C5_5  and  N8_8 
REMARK    2  A    between atoms: C6_6  and  C7_7 
REMARK    3  A    between atoms: C6_6  and  N8_8 
REMARK    4  A    between atoms: C7_7  and  O9_9 
ROOT
HETATM    1  C1  UNL     1     -34.659  17.210  -0.133  1.00 20.00     0.013 C 
HETATM    2  C2  UNL     1     -34.693  16.534  -1.124  1.00 20.00    -0.087 C 
HETATM    3  C5  UNL     1     -34.740  15.707  -2.333  1.00 20.00     0.364 C 
ENDROOT
BRANCH   3   4
HETATM    4  N8  UNL     1     -33.516  15.870  -3.117  1.00 20.00     0.097 N 
HETATM    5  C3  UNL     1     -33.630  17.024  -4.008  1.00 20.00     0.311 C 
BRANCH   4   6
HETATM    6  C6  UNL     1     -33.237  14.657  -3.886  1.00 20.00     0.299 C 
BRANCH   6   7
HETATM    7  C7  UNL     1     -34.253  13.586  -3.534  1.00 20.00     0.197 C 
BRANCH   7   8
HETATM    8  O9  UNL     1     -34.618  12.876  -4.711  1.00 20.00    -0.394 OA
HETATM    9  C4  UNL     1     -34.977  13.761  -5.763  1.00 20.00     0.201 C 
ENDBRANCH   7   8
ENDBRANCH   6   7
ENDBRANCH   4   6
ENDBRANCH   3   4
TORSDOF 4
ENDMDL
MODEL 2
REMARK VINA RESULT:      -3.8     10.724     11.647
REMARK  4 active torsions:
REMARK  status: ('A' for Active; 'I' for Inactive)
REMARK    1  A    between atoms: C5_5  and  N8_8 
REMARK    2  A    between atoms: C6_6  and  C7_7 
REMARK    3  A    between atoms: C6_6  and  N8_8 
REMARK    4  A    between atoms: C7_7  and  O9_9 
ROOT
HETATM    1  C1  UNL     1     -35.113   4.276   6.210  1.00 20.00     0.013 C 
HETATM    2  C2  UNL     1     -34.520   5.237   5.803  1.00 20.00    -0.087 C 
HETATM    3  C5  UNL     1     -33.794   6.410   5.310  1.00 20.00     0.364 C 
ENDROOT
BRANCH   3   4
HETATM    4  N8  UNL     1     -33.786   6.435   3.848  1.00 20.00     0.097 N 
HETATM    5  C3  UNL     1     -34.711   5.435   3.314  1.00 20.00     0.311 C 
BRANCH   4   6
HETATM    6  C6  UNL     1     -32.435   6.202   3.340  1.00 20.00     0.299 C 
BRANCH   6   7
HETATM    7  C7  UNL     1     -31.756   7.532   3.067  1.00 20.00     0.197 C 
BRANCH   7   8
HETATM    8  O9  UNL     1     -32.566   8.304   2.191  1.00 20.00    -0.394 OA
HETATM    9  C4  UNL     1     -31.836   8.737   1.051  1.00 20.00     0.201 C 
ENDBRANCH   7   8
ENDBRANCH   6   7
ENDBRANCH   4   6
ENDBRANCH   3   4
TORSDOF 4
ENDMDL
MODEL 3
REMARK VINA RESULT:      -3.5      2.163      2.409
REMARK  4 active torsions:
REMARK  status: ('A' for Active; 'I' for Inactive)
REMARK    1  A    between atoms: C5_5  and  N8_8 
REMARK    2  A    between atoms: C6_6  and  C7_7 
REMARK    3  A    between atoms: C6_6  and  N8_8 
REMARK    4  A    between atoms: C7_7  and  O9_9 
ROOT
HETATM    1  C1  UNL     1     -34.531  16.975  -0.402  1.00 20.00     0.013 C 
HETATM    2  C2  UNL     1     -34.785  16.583  -1.507  1.00 20.00    -0.087 C 
HETATM    3  C5  UNL     1     -35.097  16.107  -2.857  1.00 20.00     0.364 C 
ENDROOT
BRANCH   3   4
HETATM    4  N8  UNL     1     -34.478  14.805  -3.103  1.00 20.00     0.097 N 
HETATM    5  C3  UNL     1     -33.178  14.972  -3.752  1.00 20.00     0.311 C 
BRANCH   4   6
HETATM    6  C6  UNL     1     -35.355  13.969  -3.922  1.00 20.00     0.299 C 
BRANCH   6   7
HETATM    7  C7  UNL     1     -36.593  14.756  -4.310  1.00 20.00     0.197 C 
BRANCH   7   8
HETATM    8  O9  UNL     1     -37.751  14.066  -3.859  1.00 20.00    -0.394 OA
HETATM    9  C4  UNL     1     -38.879  14.928  -3.793  1.00 20.00     0.201 C 
ENDBRANCH   7   8
ENDBRANCH   6   7
ENDBRANCH   4   6
ENDBRANCH   3   4
TORSDOF 4
ENDMDL
MODEL 4
REMARK VINA RESULT:      -3.5     10.777     11.808
REMARK  4 active torsions:
REMARK  status: ('A' for Active; 'I' for Inactive)
REMARK    1  A    between atoms: C5_5  and  N8_8 
REMARK    2  A    between atoms: C6_6  and  C7_7 
REMARK    3  A    between atoms: C6_6  and  N8_8 
REMARK    4  A    between atoms: C7_7  and  O9_9 
ROOT
HETATM    1  C1  UNL     1     -32.134   9.025   1.357  1.00 20.00     0.013 C 
HETATM    2  C2  UNL     1     -32.141   8.077   2.093  1.00 20.00    -0.087 C 
HETATM    3  C5  UNL     1     -32.144   6.919   2.991  1.00 20.00     0.364 C 
ENDROOT
BRANCH   3   4
HETATM    4  N8  UNL     1     -33.461   6.744   3.603  1.00 20.00     0.097 N 
HETATM    5  C3  UNL     1     -33.362   6.829   5.060  1.00 20.00     0.311 C 
BRANCH   4   6
HETATM    6  C6  UNL     1     -34.044   5.464   3.205  1.00 20.00     0.299 C 
BRANCH   6   7
HETATM    7  C7  UNL     1     -35.311   5.212   4.002  1.00 20.00     0.197 C 
BRANCH   7   8
HETATM    8  O9  UNL     1     -35.246   3.921   4.596  1.00 20.00    -0.394 OA
HETATM    9  C4  UNL     1     -34.925   3.999   5.978  1.00 20.00     0.201 C 
ENDBRANCH   7   8
ENDBRANCH   6   7
ENDBRANCH   4   6
ENDBRANCH   3   4
TORSDOF 4
ENDMDL
MODEL 5
REMARK VINA RESULT:      -3.3      2.357      4.112
REMARK  4 active torsions:
REMARK  status: ('A' for Active; 'I' for Inactive)
REMARK    1  A    between atoms: C5_5  and  N8_8 
REMARK    2  A    between atoms: C6_6  and  C7_7 
REMARK    3  A    between atoms: C6_6  and  N8_8 
REMARK    4  A    between atoms: C7_7  and  O9_9 
ROOT
HETATM    1  C1  UNL     1     -35.102  14.550  -6.887  1.00 20.00     0.013 C 
HETATM    2  C2  UNL     1     -34.941  13.939  -5.867  1.00 20.00    -0.087 C 
HETATM    3  C5  UNL     1     -34.746  13.189  -4.624  1.00 20.00     0.364 C 
ENDROOT
BRANCH   3   4
HETATM    4  N8  UNL     1     -34.448  14.095  -3.515  1.00 20.00     0.097 N 
HETATM    5  C3  UNL     1     -35.539  15.052  -3.331  1.00 20.00     0.311 C 
BRANCH   4   6
HETATM    6  C6  UNL     1     -33.188  14.797  -3.753  1.00 20.00     0.299 C 
BRANCH   6   7
HETATM    7  C7  UNL     1     -33.448  16.289  -3.858  1.00 20.00     0.197 C 
BRANCH   7   8
HETATM    8  O9  UNL     1     -32.955  16.768  -5.102  1.00 20.00    -0.394 OA
HETATM    9  C4  UNL     1     -33.558  18.004  -5.461  1.00 20.00     0.201 C 
ENDBRANCH   7   8
ENDBRANCH   6   7
ENDBRANCH   4   6
ENDBRANCH   3   4
TORSDOF 4
ENDMDL
MODEL 6
REMARK VINA RESULT:      -3.2      1.792      2.427
REMARK  4 active torsions:
REMARK  status: ('A' for Active; 'I' for Inactive)
REMARK    1  A    between atoms: C5_5  and  N8_8 
REMARK    2  A    between atoms: C6_6  and  C7_7 
REMARK    3  A    between atoms: C6_6  and  N8_8 
REMARK    4  A    between atoms: C7_7  and  O9_9 
ROOT
HETATM    1  C1  UNL     1     -34.516  16.726  -0.902  1.00 20.00     0.013 C 
HETATM    2  C2  UNL     1     -34.285  16.328  -2.011  1.00 20.00    -0.087 C 
HETATM    3  C5  UNL     1     -33.999  15.844  -3.364  1.00 20.00     0.364 C 
ENDROOT
BRANCH   3   4
HETATM    4  N8  UNL     1     -35.058  14.947  -3.826  1.00 20.00     0.097 N 
HETATM    5  C3  UNL     1     -34.582  13.563  -3.845  1.00 20.00     0.311 C 
BRANCH   4   6
HETATM    6  C6  UNL     1     -35.522  15.345  -5.154  1.00 20.00     0.299 C 
BRANCH   6   7
HETATM    7  C7  UNL     1     -34.350  15.859  -5.970  1.00 20.00     0.197 C 
BRANCH   7   8
HETATM    8  O9  UNL     1     -34.167  15.027  -7.108  1.00 20.00    -0.394 OA
HETATM    9  C4  UNL     1     -35.399  14.482  -7.559  1.00 20.00     0.201 C 
ENDBRANCH   7   8
ENDBRANCH   6   7
ENDBRANCH   4   6
ENDBRANCH   3   4
TORSDOF 4
ENDMDL
MODEL 7
REMARK VINA RESULT:      -3.2      2.210      4.569
REMARK  4 active torsions:
REMARK  status: ('A' for Active; 'I' for Inactive)
REMARK    1  A    between atoms: C5_5  and  N8_8 
REMARK    2  A    between atoms: C6_6  and  C7_7 
REMARK    3  A    between atoms: C6_6  and  N8_8 
REMARK    4  A    between atoms: C7_7  and  O9_9 
ROOT
HETATM    1  C1  UNL     1     -34.495  15.130  -6.940  1.00 20.00     0.013 C 
HETATM    2  C2  UNL     1     -34.623  14.314  -6.068  1.00 20.00    -0.087 C 
HETATM    3  C5  UNL     1     -34.776  13.315  -5.007  1.00 20.00     0.364 C 
ENDROOT
BRANCH   3   4
HETATM    4  N8  UNL     1     -35.280  13.936  -3.783  1.00 20.00     0.097 N 
HETATM    5  C3  UNL     1     -36.571  14.578  -4.029  1.00 20.00     0.311 C 
BRANCH   4   6
HETATM    6  C6  UNL     1     -34.316  14.910  -3.270  1.00 20.00     0.299 C 
BRANCH   6   7
HETATM    7  C7  UNL     1     -35.027  15.903  -2.369  1.00 20.00     0.197 C 
BRANCH   7   8
HETATM    8  O9  UNL     1     -34.083  16.505  -1.493  1.00 20.00    -0.394 OA
HETATM    9  C4  UNL     1     -34.705  16.997  -0.314  1.00 20.00     0.201 C 
ENDBRANCH   7   8
ENDBRANCH   6   7
ENDBRANCH   4   6
ENDBRANCH   3   4
TORSDOF 4
ENDMDL
MODEL 8
REMARK VINA RESULT:      -3.2     10.553     11.599
REMARK  4 active torsions:
REMARK  status: ('A' for Active; 'I' for Inactive)
REMARK    1  A    between atoms: C5_5  and  N8_8 
REMARK    2  A    between atoms: C6_6  and  C7_7 
REMARK    3  A    between atoms: C6_6  and  N8_8 
REMARK    4  A    between atoms: C7_7  and  O9_9 
ROOT
HETATM    1  C1  UNL     1     -32.143   8.711   1.201  1.00 20.00     0.013 C 
HETATM    2  C2  UNL     1     -31.961   8.208   2.276  1.00 20.00    -0.087 C 
HETATM    3  C5  UNL     1     -31.737   7.598   3.589  1.00 20.00     0.364 C 
ENDROOT
BRANCH   3   4
HETATM    4  N8  UNL     1     -32.452   6.327   3.697  1.00 20.00     0.097 N 
HETATM    5  C3  UNL     1     -32.400   5.602   2.427  1.00 20.00     0.311 C 
BRANCH   4   6
HETATM    6  C6  UNL     1     -33.840   6.554   4.097  1.00 20.00     0.299 C 
BRANCH   6   7
HETATM    7  C7  UNL     1     -34.705   5.405   3.611  1.00 20.00     0.197 C 
BRANCH   7   8
HETATM    8  O9  UNL     1     -35.550   4.970   4.668  1.00 20.00    -0.394 OA
HETATM    9  C4  UNL     1     -34.826   4.239   5.648  1.00 20.00     0.201 C 
ENDBRANCH   7   8
ENDBRANCH   6   7
ENDBRANCH   4   6
ENDBRANCH   3   4
TORSDOF 4
ENDMDL
MODEL 9
REMARK VINA RESULT:      -3.1      1.439      1.709
REMARK  4 active torsions:
REMARK  status: ('A' for Active; 'I' for Inactive)
REMARK    1  A    between atoms: C5_5  and  N8_8 
REMARK    2  A    between atoms: C6_6  and  C7_7 
REMARK    3  A    between atoms: C6_6  and  N8_8 
REMARK    4  A    between atoms: C7_7  and  O9_9 
ROOT
HETATM    1  C1  UNL     1     -34.834  17.167  -0.067  1.00 20.00     0.013 C 
HETATM    2  C2  UNL     1     -34.433  16.720  -1.107  1.00 20.00    -0.087 C 
HETATM    3  C5  UNL     1     -33.941  16.173  -2.374  1.00 20.00     0.364 C 
ENDROOT
BRANCH   3   4
HETATM    4  N8  UNL     1     -34.941  16.333  -3.429  1.00 20.00     0.097 N 
HETATM    5  C3  UNL     1     -35.213  17.751  -3.665  1.00 20.00     0.311 C 
BRANCH   4   6
HETATM    6  C6  UNL     1     -36.173  15.629  -3.076  1.00 20.00     0.299 C 
BRANCH   6   7
HETATM    7  C7  UNL     1     -36.380  14.460  -4.020  1.00 20.00     0.197 C 
BRANCH   7   8
HETATM    8  O9  UNL     1     -35.313  14.416  -4.959  1.00 20.00    -0.394 OA
HETATM    9  C4  UNL     1     -34.663  13.152  -4.952  1.00 20.00     0.201 C 
ENDBRANCH   7   8
ENDBRANCH   6   7
ENDBRANCH   4   6
ENDBRANCH   3   4
TORSDOF 4
ENDMDL
