MODEL 1
REMARK VINA RESULT:      -4.9      0.000      0.000
REMARK  3 active torsions:
REMARK  status: ('A' for Active; 'I' for Inactive)
REMARK    1  A    between atoms: C8_8  and  C9_9 
REMARK    2  A    between atoms: C9_9  and  C10_10 
REMARK    3  A    between atoms: C10_10  and  O11_11 
ROOT
HETATM    1  C1  UNL     1     -34.835  17.085   0.069  1.00 20.00     0.017 C 
HETATM    2  C2  UNL     1     -34.678  16.862  -1.100  1.00 20.00    -0.083 C 
HETATM    3  C3  UNL     1     -33.456  15.824  -2.871  1.00 20.00    -0.010 C 
HETATM    4  C4  UNL     1     -34.490  16.593  -2.487  1.00 20.00    -0.009 C 
HETATM    5  C5  UNL     1     -33.166  15.468  -4.302  1.00 20.00     0.033 C 
HETATM    6  C6  UNL     1     -35.449  17.196  -3.482  1.00 20.00     0.048 C 
HETATM    7  C7  UNL     1     -34.957  17.120  -4.932  1.00 20.00     0.010 C 
HETATM    8  C8  UNL     1     -34.324  15.765  -5.270  1.00 20.00    -0.009 C 
ENDROOT
BRANCH   8   9
HETATM    9  C9  UNL     1     -35.362  14.638  -5.267  1.00 20.00     0.031 C 
BRANCH   9  10
HETATM   10  C10 UNL     1     -34.707  13.277  -5.128  1.00 20.00     0.164 C 
BRANCH  10  11
HETATM   11  O11 UNL     1     -35.359  12.565  -4.085  1.00 20.00    -0.401 OA
HETATM   12  H25 UNL     1     -35.560  13.211  -3.387  1.00 20.00     0.209 HD
ENDBRANCH  10  11
ENDBRANCH   9  10
ENDBRANCH   8   9
TORSDOF 3
ENDMDL
MODEL 2
REMARK VINA RESULT:      -4.8      1.756      2.589
REMARK  3 active torsions:
REMARK  status: ('A' for Active; 'I' for Inactive)
REMARK    1  A    between atoms: C8_8  and  C9_9 
REMARK    2  A    between atoms: C9_9  and  C10_10 
REMARK    3  A    between atoms: C10_10  and  O11_11 
ROOT
HETATM    1  C1  UNL     1     -34.476  17.038  -0.563  1.00 20.00     0.017 C 
HETATM    2  C2  UNL     1     -34.563  16.316  -1.518  1.00 20.00    -0.083 C 
HETATM    3  C3  UNL     1     -35.875  15.259  -3.211  1.00 20.00    -0.010 C 
HETATM    4  C4  UNL     1     -34.668  15.462  -2.655  1.00 20.00    -0.009 C 
HETATM    5  C5  UNL     1     -36.104  14.387  -4.413  1.00 20.00     0.033 C 
HETATM    6  C6  UNL     1     -33.422  14.798  -3.185  1.00 20.00     0.048 C 
HETATM    7  C7  UNL     1     -33.706  13.662  -4.173  1.00 20.00     0.010 C 
HETATM    8  C8  UNL     1     -34.819  14.009  -5.169  1.00 20.00    -0.009 C 
ENDROOT
BRANCH   8   9
HETATM    9  C9  UNL     1     -34.388  15.119  -6.135  1.00 20.00     0.031 C 
BRANCH   9  10
HETATM   10  C10 UNL     1     -35.381  15.286  -7.270  1.00 20.00     0.164 C 
BRANCH  10  11
HETATM   11  O11 UNL     1     -35.543  14.032  -7.918  1.00 20.00    -0.401 OA
HETATM   12  H25 UNL     1     -36.214  13.541  -7.416  1.00 20.00     0.209 HD
ENDBRANCH  10  11
ENDBRANCH   9  10
ENDBRANCH   8   9
TORSDOF 3
ENDMDL
MODEL 3
REMARK VINA RESULT:      -4.7      2.120      4.614
REMARK  3 active torsions:
REMARK  status: ('A' for Active; 'I' for Inactive)
REMARK    1  A    between atoms: C8_8  and  C9_9 
REMARK    2  A    between atoms: C9_9  and  C10_10 
REMARK    3  A    between atoms: C10_10  and  O11_11 
ROOT
HETATM    1  C1  UNL     1     -36.361  14.763  -7.918  1.00 20.00     0.017 C 
HETATM    2  C2  UNL     1     -35.650  14.830  -6.953  1.00 20.00    -0.083 C 
HETATM    3  C3  UNL     1     -34.085  16.028  -5.604  1.00 20.00    -0.010 C 
HETATM    4  C4  UNL     1     -34.806  14.912  -5.807  1.00 20.00    -0.009 C 
HETATM    5  C5  UNL     1     -33.171  16.229  -4.428  1.00 20.00     0.033 C 
HETATM    6  C6  UNL     1     -34.736  13.734  -4.868  1.00 20.00     0.048 C 
HETATM    7  C7  UNL     1     -33.564  13.803  -3.883  1.00 20.00     0.010 C 
HETATM    8  C8  UNL     1     -33.370  15.207  -3.296  1.00 20.00    -0.009 C 
ENDROOT
BRANCH   8   9
HETATM    9  C9  UNL     1     -34.532  15.604  -2.379  1.00 20.00     0.031 C 
BRANCH   9  10
HETATM   10  C10 UNL     1     -34.160  16.768  -1.480  1.00 20.00     0.164 C 
BRANCH  10  11
HETATM   11  O11 UNL     1     -34.928  16.683  -0.287  1.00 20.00    -0.401 OA
HETATM   12  H25 UNL     1     -34.830  17.533   0.172  1.00 20.00     0.209 HD
ENDBRANCH  10  11
ENDBRANCH   9  10
ENDBRANCH   8   9
TORSDOF 3
ENDMDL
MODEL 4
REMARK VINA RESULT:      -4.5      1.718      1.897
REMARK  3 active torsions:
REMARK  status: ('A' for Active; 'I' for Inactive)
REMARK    1  A    between atoms: C8_8  and  C9_9 
REMARK    2  A    between atoms: C9_9  and  C10_10 
REMARK    3  A    between atoms: C10_10  and  O11_11 
ROOT
HETATM    1  C1  UNL     1     -34.722  17.015  -0.317  1.00 20.00     0.017 C 
HETATM    2  C2  UNL     1     -34.516  16.608  -1.428  1.00 20.00    -0.083 C 
HETATM    3  C3  UNL     1     -34.429  14.813  -3.000  1.00 20.00    -0.010 C 
HETATM    4  C4  UNL     1     -34.274  16.124  -2.746  1.00 20.00    -0.009 C 
HETATM    5  C5  UNL     1     -34.210  14.193  -4.351  1.00 20.00     0.033 C 
HETATM    6  C6  UNL     1     -33.835  17.097  -3.811  1.00 20.00     0.048 C 
HETATM    7  C7  UNL     1     -33.287  16.421  -5.072  1.00 20.00     0.010 C 
HETATM    8  C8  UNL     1     -34.123  15.209  -5.503  1.00 20.00    -0.009 C 
ENDROOT
BRANCH   8   9
HETATM    9  C9  UNL     1     -35.515  15.626  -5.990  1.00 20.00     0.031 C 
BRANCH   9  10
HETATM   10  C10 UNL     1     -35.981  14.766  -7.150  1.00 20.00     0.164 C 
BRANCH  10  11
HETATM   11  O11 UNL     1     -34.846  14.390  -7.918  1.00 20.00    -0.401 OA
HETATM   12  H25 UNL     1     -34.670  13.455  -7.721  1.00 20.00     0.209 HD
ENDBRANCH  10  11
ENDBRANCH   9  10
ENDBRANCH   8   9
TORSDOF 3
ENDMDL
MODEL 5
REMARK VINA RESULT:      -4.1      2.668      3.851
REMARK  3 active torsions:
REMARK  status: ('A' for Active; 'I' for Inactive)
REMARK    1  A    between atoms: C8_8  and  C9_9 
REMARK    2  A    between atoms: C9_9  and  C10_10 
REMARK    3  A    between atoms: C10_10  and  O11_11 
ROOT
HETATM    1  C1  UNL     1     -38.918  14.748  -3.959  1.00 20.00     0.017 C 
HETATM    2  C2  UNL     1     -37.731  14.826  -3.797  1.00 20.00    -0.083 C 
HETATM    3  C3  UNL     1     -35.533  13.934  -4.075  1.00 20.00    -0.010 C 
HETATM    4  C4  UNL     1     -36.321  14.918  -3.608  1.00 20.00    -0.009 C 
HETATM    5  C5  UNL     1     -34.036  13.930  -3.940  1.00 20.00     0.033 C 
HETATM    6  C6  UNL     1     -35.761  16.110  -2.873  1.00 20.00     0.048 C 
HETATM    7  C7  UNL     1     -34.301  15.933  -2.441  1.00 20.00     0.010 C 
HETATM    8  C8  UNL     1     -33.437  15.286  -3.530  1.00 20.00    -0.009 C 
ENDROOT
BRANCH   8   9
HETATM    9  C9  UNL     1     -33.262  16.211  -4.739  1.00 20.00     0.031 C 
BRANCH   9  10
HETATM   10  C10 UNL     1     -33.387  17.671  -4.345  1.00 20.00     0.164 C 
BRANCH  10  11
HETATM   11  O11 UNL     1     -33.219  18.470  -5.509  1.00 20.00    -0.401 OA
HETATM   12  H25 UNL     1     -33.108  19.386  -5.207  1.00 20.00     0.209 HD
ENDBRANCH  10  11
ENDBRANCH   9  10
ENDBRANCH   8   9
TORSDOF 3
ENDMDL
MODEL 6
REMARK VINA RESULT:      -4.1      1.668      1.940
REMARK  3 active torsions:
REMARK  status: ('A' for Active; 'I' for Inactive)
REMARK    1  A    between atoms: C8_8  and  C9_9 
REMARK    2  A    between atoms: C9_9  and  C10_10 
REMARK    3  A    between atoms: C10_10  and  O11_11 
ROOT
HETATM    1  C1  UNL     1     -34.508  18.084   1.071  1.00 20.00     0.017 C 
HETATM    2  C2  UNL     1     -34.597  17.691  -0.059  1.00 20.00    -0.083 C 
HETATM    3  C3  UNL     1     -33.665  16.562  -1.946  1.00 20.00    -0.010 C 
HETATM    4  C4  UNL     1     -34.702  17.220  -1.401  1.00 20.00    -0.009 C 
HETATM    5  C5  UNL     1     -33.668  16.015  -3.346  1.00 20.00     0.033 C 
HETATM    6  C6  UNL     1     -35.969  17.494  -2.172  1.00 20.00     0.048 C 
HETATM    7  C7  UNL     1     -35.837  17.247  -3.678  1.00 20.00     0.010 C 
HETATM    8  C8  UNL     1     -35.059  15.965  -3.999  1.00 20.00    -0.009 C 
ENDROOT
BRANCH   8   9
HETATM    9  C9  UNL     1     -35.834  14.712  -3.577  1.00 20.00     0.031 C 
BRANCH   9  10
HETATM   10  C10 UNL     1     -37.246  14.716  -4.131  1.00 20.00     0.164 C 
BRANCH  10  11
HETATM   11  O11 UNL     1     -38.159  14.765  -3.043  1.00 20.00    -0.401 OA
HETATM   12  H25 UNL     1     -37.846  15.464  -2.445  1.00 20.00     0.209 HD
ENDBRANCH  10  11
ENDBRANCH   9  10
ENDBRANCH   8   9
TORSDOF 3
ENDMDL
MODEL 7
REMARK VINA RESULT:      -3.9      1.762      2.654
REMARK  3 active torsions:
REMARK  status: ('A' for Active; 'I' for Inactive)
REMARK    1  A    between atoms: C8_8  and  C9_9 
REMARK    2  A    between atoms: C9_9  and  C10_10 
REMARK    3  A    between atoms: C10_10  and  O11_11 
ROOT
HETATM    1  C1  UNL     1     -32.657  18.996   1.322  1.00 20.00     0.017 C 
HETATM    2  C2  UNL     1     -33.133  18.505   0.336  1.00 20.00    -0.083 C 
HETATM    3  C3  UNL     1     -33.453  18.491  -2.031  1.00 20.00    -0.010 C 
HETATM    4  C4  UNL     1     -33.695  17.922  -0.837  1.00 20.00    -0.009 C 
HETATM    5  C5  UNL     1     -33.986  17.960  -3.332  1.00 20.00     0.033 C 
HETATM    6  C6  UNL     1     -34.559  16.694  -0.698  1.00 20.00     0.048 C 
HETATM    7  C7  UNL     1     -35.368  16.366  -1.958  1.00 20.00     0.010 C 
HETATM    8  C8  UNL     1     -34.548  16.531  -3.244  1.00 20.00    -0.009 C 
ENDROOT
BRANCH   8   9
HETATM    9  C9  UNL     1     -33.435  15.482  -3.345  1.00 20.00     0.031 C 
BRANCH   9  10
HETATM   10  C10 UNL     1     -33.786  14.390  -4.339  1.00 20.00     0.164 C 
BRANCH  10  11
HETATM   11  O11 UNL     1     -35.007  14.737  -4.979  1.00 20.00    -0.401 OA
HETATM   12  H25 UNL     1     -35.021  15.706  -5.051  1.00 20.00     0.209 HD
ENDBRANCH  10  11
ENDBRANCH   9  10
ENDBRANCH   8   9
TORSDOF 3
ENDMDL
MODEL 8
REMARK VINA RESULT:      -3.9      1.276      1.941
REMARK  3 active torsions:
REMARK  status: ('A' for Active; 'I' for Inactive)
REMARK    1  A    between atoms: C8_8  and  C9_9 
REMARK    2  A    between atoms: C9_9  and  C10_10 
REMARK    3  A    between atoms: C10_10  and  O11_11 
ROOT
HETATM    1  C1  UNL     1     -37.922  18.538  -2.287  1.00 20.00     0.017 C 
HETATM    2  C2  UNL     1     -36.935  17.968  -2.663  1.00 20.00    -0.083 C 
HETATM    3  C3  UNL     1     -35.199  16.366  -2.309  1.00 20.00    -0.010 C 
HETATM    4  C4  UNL     1     -35.764  17.287  -3.108  1.00 20.00    -0.009 C 
HETATM    5  C5  UNL     1     -33.970  15.583  -2.678  1.00 20.00     0.033 C 
HETATM    6  C6  UNL     1     -35.186  17.638  -4.457  1.00 20.00     0.048 C 
HETATM    7  C7  UNL     1     -33.768  17.101  -4.675  1.00 20.00     0.010 C 
HETATM    8  C8  UNL     1     -33.596  15.664  -4.167  1.00 20.00    -0.009 C 
ENDROOT
BRANCH   8   9
HETATM    9  C9  UNL     1     -34.405  14.667  -5.005  1.00 20.00     0.031 C 
BRANCH   9  10
HETATM   10  C10 UNL     1     -34.145  13.236  -4.573  1.00 20.00     0.164 C 
BRANCH  10  11
HETATM   11  O11 UNL     1     -35.376  12.657  -4.162  1.00 20.00    -0.401 OA
HETATM   12  H25 UNL     1     -36.019  12.833  -4.867  1.00 20.00     0.209 HD
ENDBRANCH  10  11
ENDBRANCH   9  10
ENDBRANCH   8   9
TORSDOF 3
ENDMDL
MODEL 9
REMARK VINA RESULT:      -3.9      2.278      3.721
REMARK  3 active torsions:
REMARK  status: ('A' for Active; 'I' for Inactive)
REMARK    1  A    between atoms: C8_8  and  C9_9 
REMARK    2  A    between atoms: C9_9  and  C10_10 
REMARK    3  A    between atoms: C10_10  and  O11_11 
ROOT
HETATM    1  C1  UNL     1     -33.686  19.232  -7.164  1.00 20.00     0.017 C 
HETATM    2  C2  UNL     1     -33.818  18.196  -6.571  1.00 20.00    -0.083 C 
HETATM    3  C3  UNL     1     -33.222  16.741  -4.774  1.00 20.00    -0.010 C 
HETATM    4  C4  UNL     1     -33.974  16.968  -5.865  1.00 20.00    -0.009 C 
HETATM    5  C5  UNL     1     -33.307  15.488  -3.948  1.00 20.00     0.033 C 
HETATM    6  C6  UNL     1     -34.966  15.954  -6.376  1.00 20.00     0.048 C 
HETATM    7  C7  UNL     1     -34.804  14.566  -5.749  1.00 20.00     0.010 C 
HETATM    8  C8  UNL     1     -34.548  14.627  -4.238  1.00 20.00    -0.009 C 
ENDROOT
BRANCH   8   9
HETATM    9  C9  UNL     1     -35.777  15.137  -3.476  1.00 20.00     0.031 C 
BRANCH   9  10
HETATM   10  C10 UNL     1     -37.057  14.520  -4.006  1.00 20.00     0.164 C 
BRANCH  10  11
HETATM   11  O11 UNL     1     -38.098  14.762  -3.068  1.00 20.00    -0.401 OA
HETATM   12  H25 UNL     1     -37.895  14.230  -2.281  1.00 20.00     0.209 HD
ENDBRANCH  10  11
ENDBRANCH   9  10
ENDBRANCH   8   9
TORSDOF 3
ENDMDL
