MODEL 1
REMARK VINA RESULT:      -3.5      0.000      0.000
REMARK  1 active torsions:
REMARK  status: ('A' for Active; 'I' for Inactive)
REMARK    1  A    between atoms: CA_2  and  C_3 
ROOT
ATOM      1  N   GLY A   1     -35.598  13.373  -4.637  1.00 20.00    -0.249 NA
ATOM      2  CA  GLY A   1     -35.831  14.444  -3.797  1.00 20.00     0.122 A 
HETATM    3  C1  UNK A   1     -34.309  13.117  -4.651  1.00 20.00     0.168 A 
HETATM    4  C2  UNK A   1     -34.718  14.986  -3.188  1.00 20.00     0.104 A 
HETATM    5  S3  UNK A   1     -34.737  16.301  -2.118  1.00 20.00    -0.070 SA
HETATM    6  S4  UNK A   1     -33.318  14.126  -3.678  1.00 20.00    -0.069 SA
ENDROOT
BRANCH   2   7
ATOM      7  C   GLY A   1     -37.192  14.893  -3.636  1.00 20.00     0.292 C 
ATOM      8  O   GLY A   1     -38.179  14.157  -3.792  1.00 20.00    -0.300 OA
ENDBRANCH   2   7
TORSDOF 1
ENDMDL
MODEL 2
REMARK VINA RESULT:      -3.5      2.671      3.241
REMARK  1 active torsions:
REMARK  status: ('A' for Active; 'I' for Inactive)
REMARK    1  A    between atoms: CA_2  and  C_3 
ROOT
ATOM      1  N   GLY A   1     -34.419  15.506  -3.126  1.00 20.00    -0.249 NA
ATOM      2  CA  GLY A   1     -34.738  14.914  -4.333  1.00 20.00     0.122 A 
HETATM    3  C1  UNK A   1     -33.750  16.613  -3.359  1.00 20.00     0.168 A 
HETATM    4  C2  UNK A   1     -34.305  15.578  -5.462  1.00 20.00     0.104 A 
HETATM    5  S3  UNK A   1     -34.566  15.060  -7.055  1.00 20.00    -0.070 SA
HETATM    6  S4  UNK A   1     -33.467  17.003  -5.007  1.00 20.00    -0.069 SA
ENDROOT
BRANCH   2   7
ATOM      7  C   GLY A   1     -35.479  13.678  -4.304  1.00 20.00     0.292 C 
ATOM      8  O   GLY A   1     -34.955  12.561  -4.443  1.00 20.00    -0.300 OA
ENDBRANCH   2   7
TORSDOF 1
ENDMDL
MODEL 3
REMARK VINA RESULT:      -3.5      1.957      2.937
REMARK  1 active torsions:
REMARK  status: ('A' for Active; 'I' for Inactive)
REMARK    1  A    between atoms: CA_2  and  C_3 
ROOT
ATOM      1  N   GLY A   1     -37.159  14.175  -3.871  1.00 20.00    -0.249 NA
ATOM      2  CA  GLY A   1     -35.852  14.604  -3.748  1.00 20.00     0.122 A 
HETATM    3  C1  UNK A   1     -37.962  15.199  -3.684  1.00 20.00     0.168 A 
HETATM    4  C2  UNK A   1     -35.681  15.944  -3.469  1.00 20.00     0.104 A 
HETATM    5  S3  UNK A   1     -34.184  16.714  -3.271  1.00 20.00    -0.070 SA
HETATM    6  S4  UNK A   1     -37.212  16.708  -3.355  1.00 20.00    -0.069 SA
ENDROOT
BRANCH   2   7
ATOM      7  C   GLY A   1     -34.803  13.630  -3.919  1.00 20.00     0.292 C 
ATOM      8  O   GLY A   1     -34.928  12.598  -4.597  1.00 20.00    -0.300 OA
ENDBRANCH   2   7
TORSDOF 1
ENDMDL
MODEL 4
REMARK VINA RESULT:      -3.4      2.463      2.625
REMARK  1 active torsions:
REMARK  status: ('A' for Active; 'I' for Inactive)
REMARK    1  A    between atoms: CA_2  and  C_3 
ROOT
ATOM      1  N   GLY A   1     -34.431  14.790  -6.010  1.00 20.00    -0.249 NA
ATOM      2  CA  GLY A   1     -34.423  14.863  -4.631  1.00 20.00     0.122 A 
HETATM    3  C1  UNK A   1     -34.033  15.943  -6.500  1.00 20.00     0.168 A 
HETATM    4  C2  UNK A   1     -34.022  16.069  -4.094  1.00 20.00     0.104 A 
HETATM    5  S3  UNK A   1     -33.926  16.413  -2.437  1.00 20.00    -0.070 SA
HETATM    6  S4  UNK A   1     -33.634  17.162  -5.358  1.00 20.00    -0.069 SA
ENDROOT
BRANCH   2   7
ATOM      7  C   GLY A   1     -34.828  13.695  -3.890  1.00 20.00     0.292 C 
ATOM      8  O   GLY A   1     -34.989  12.577  -4.406  1.00 20.00    -0.300 OA
ENDBRANCH   2   7
TORSDOF 1
ENDMDL
MODEL 5
REMARK VINA RESULT:      -3.4      2.268      3.046
REMARK  1 active torsions:
REMARK  status: ('A' for Active; 'I' for Inactive)
REMARK    1  A    between atoms: CA_2  and  C_3 
ROOT
ATOM      1  N   GLY A   1     -33.476  15.270  -3.490  1.00 20.00    -0.249 NA
ATOM      2  CA  GLY A   1     -34.684  14.785  -3.952  1.00 20.00     0.122 A 
HETATM    3  C1  UNK A   1     -33.708  16.235  -2.629  1.00 20.00     0.168 A 
HETATM    4  C2  UNK A   1     -35.813  15.389  -3.437  1.00 20.00     0.104 A 
HETATM    5  S3  UNK A   1     -37.407  14.978  -3.841  1.00 20.00    -0.070 SA
HETATM    6  S4  UNK A   1     -35.355  16.613  -2.327  1.00 20.00    -0.069 SA
ENDROOT
BRANCH   2   7
ATOM      7  C   GLY A   1     -34.658  13.711  -4.914  1.00 20.00     0.292 C 
ATOM      8  O   GLY A   1     -34.873  12.524  -4.623  1.00 20.00    -0.300 OA
ENDBRANCH   2   7
TORSDOF 1
ENDMDL
MODEL 6
REMARK VINA RESULT:      -3.1     11.226     11.536
REMARK  1 active torsions:
REMARK  status: ('A' for Active; 'I' for Inactive)
REMARK    1  A    between atoms: CA_2  and  C_3 
ROOT
ATOM      1  N   GLY A   1     -40.852   4.669  -0.812  1.00 20.00    -0.249 NA
ATOM      2  CA  GLY A   1     -41.689   4.867  -1.893  1.00 20.00     0.122 A 
HETATM    3  C1  UNK A   1     -40.597   5.832  -0.253  1.00 20.00     0.168 A 
HETATM    4  C2  UNK A   1     -42.056   6.174  -2.139  1.00 20.00     0.104 A 
HETATM    5  S3  UNK A   1     -43.070   6.679  -3.400  1.00 20.00    -0.070 SA
HETATM    6  S4  UNK A   1     -41.331   7.205  -0.976  1.00 20.00    -0.069 SA
ENDROOT
BRANCH   2   7
ATOM      7  C   GLY A   1     -42.095   3.712  -2.653  1.00 20.00     0.292 C 
ATOM      8  O   GLY A   1     -41.316   2.809  -2.998  1.00 20.00    -0.300 OA
ENDBRANCH   2   7
TORSDOF 1
ENDMDL
MODEL 7
REMARK VINA RESULT:      -3.1      1.840      2.468
REMARK  1 active torsions:
REMARK  status: ('A' for Active; 'I' for Inactive)
REMARK    1  A    between atoms: CA_2  and  C_3 
ROOT
ATOM      1  N   GLY A   1     -35.568  15.560  -2.766  1.00 20.00    -0.249 NA
ATOM      2  CA  GLY A   1     -35.802  15.184  -4.075  1.00 20.00     0.122 A 
HETATM    3  C1  UNK A   1     -34.292  15.846  -2.628  1.00 20.00     0.168 A 
HETATM    4  C2  UNK A   1     -34.703  15.189  -4.909  1.00 20.00     0.104 A 
HETATM    5  S3  UNK A   1     -34.726  14.770  -6.551  1.00 20.00    -0.070 SA
HETATM    6  S4  UNK A   1     -33.316  15.684  -4.031  1.00 20.00    -0.069 SA
ENDROOT
BRANCH   2   7
ATOM      7  C   GLY A   1     -37.149  14.827  -4.444  1.00 20.00     0.292 C 
ATOM      8  O   GLY A   1     -37.919  14.197  -3.702  1.00 20.00    -0.300 OA
ENDBRANCH   2   7
TORSDOF 1
ENDMDL
MODEL 8
REMARK VINA RESULT:      -3.1      2.700      2.902
REMARK  1 active torsions:
REMARK  status: ('A' for Active; 'I' for Inactive)
REMARK    1  A    between atoms: CA_2  and  C_3 
ROOT
ATOM      1  N   GLY A   1     -34.535  13.965  -3.426  1.00 20.00    -0.249 NA
ATOM      2  CA  GLY A   1     -34.197  15.286  -3.646  1.00 20.00     0.122 A 
HETATM    3  C1  UNK A   1     -34.810  13.398  -4.579  1.00 20.00     0.168 A 
HETATM    4  C2  UNK A   1     -34.223  15.703  -4.962  1.00 20.00     0.104 A 
HETATM    5  S3  UNK A   1     -33.853  17.269  -5.494  1.00 20.00    -0.070 SA
HETATM    6  S4  UNK A   1     -34.685  14.396  -5.971  1.00 20.00    -0.069 SA
ENDROOT
BRANCH   2   7
ATOM      7  C   GLY A   1     -33.856  16.096  -2.504  1.00 20.00     0.292 C 
ATOM      8  O   GLY A   1     -34.534  16.136  -1.465  1.00 20.00    -0.300 OA
ENDBRANCH   2   7
TORSDOF 1
ENDMDL
MODEL 9
REMARK VINA RESULT:      -3.1      2.666      2.931
REMARK  1 active torsions:
REMARK  status: ('A' for Active; 'I' for Inactive)
REMARK    1  A    between atoms: CA_2  and  C_3 
ROOT
ATOM      1  N   GLY A   1     -34.819  13.447  -5.265  1.00 20.00    -0.249 NA
ATOM      2  CA  GLY A   1     -34.499  14.677  -5.804  1.00 20.00     0.122 A 
HETATM    3  C1  UNK A   1     -34.646  13.495  -3.963  1.00 20.00     0.168 A 
HETATM    4  C2  UNK A   1     -34.087  15.640  -4.905  1.00 20.00     0.104 A 
HETATM    5  S3  UNK A   1     -33.640  17.224  -5.312  1.00 20.00    -0.070 SA
HETATM    6  S4  UNK A   1     -34.100  14.990  -3.319  1.00 20.00    -0.069 SA
ENDROOT
BRANCH   2   7
ATOM      7  C   GLY A   1     -34.621  14.842  -7.231  1.00 20.00     0.292 C 
ATOM      8  O   GLY A   1     -35.513  14.309  -7.909  1.00 20.00    -0.300 OA
ENDBRANCH   2   7
TORSDOF 1
ENDMDL
