MODEL 1
REMARK VINA RESULT:      -4.4      0.000      0.000
REMARK  2 active torsions:
REMARK  status: ('A' for Active; 'I' for Inactive)
REMARK    1  A    between atoms: C2_2  and  C5_5 
REMARK    2  A    between atoms: C2_2  and  C9_9 
ROOT
HETATM    1  C1  UNL     1     -34.907  13.542  -4.328  1.00 20.00     0.225 C 
HETATM    2  C2  UNL     1     -34.899  14.733  -3.793  1.00 20.00    -0.014 C 
HETATM    3  O10 UNL     1     -34.913  12.470  -4.811  1.00 20.00    -0.284 OA
ENDROOT
BRANCH   2   4
HETATM    4  C5  UNL     1     -36.212  15.215  -3.305  1.00 20.00     0.019 A 
HETATM    5  C3  UNL     1     -37.014  16.095  -4.203  1.00 20.00     0.010 A 
HETATM    6  C4  UNL     1     -37.443  14.681  -3.956  1.00 20.00     0.010 A 
ENDBRANCH   2   4
BRANCH   2   7
HETATM    7  C9  UNL     1     -33.648  15.597  -3.601  1.00 20.00    -0.024 C 
HETATM    8  C6  UNL     1     -32.408  14.689  -3.502  1.00 20.00     0.019 C 
HETATM    9  C7  UNL     1     -33.754  16.449  -2.320  1.00 20.00     0.019 C 
HETATM   10  C8  UNL     1     -33.441  16.570  -4.785  1.00 20.00     0.019 C 
ENDBRANCH   2   7
TORSDOF 2
ENDMDL
MODEL 2
REMARK VINA RESULT:      -4.3      1.653      3.085
REMARK  2 active torsions:
REMARK  status: ('A' for Active; 'I' for Inactive)
REMARK    1  A    between atoms: C2_2  and  C5_5 
REMARK    2  A    between atoms: C2_2  and  C9_9 
ROOT
HETATM    1  C1  UNL     1     -36.630  14.755  -3.682  1.00 20.00     0.225 C 
HETATM    2  C2  UNL     1     -35.457  15.327  -3.642  1.00 20.00    -0.014 C 
HETATM    3  O10 UNL     1     -37.688  14.243  -3.718  1.00 20.00    -0.284 OA
ENDROOT
BRANCH   2   4
HETATM    4  C5  UNL     1     -34.410  14.678  -4.466  1.00 20.00     0.019 A 
HETATM    5  C3  UNL     1     -33.508  13.691  -3.806  1.00 20.00     0.010 A 
HETATM    6  C4  UNL     1     -34.555  13.225  -4.770  1.00 20.00     0.010 A 
ENDBRANCH   2   4
BRANCH   2   7
HETATM    7  C9  UNL     1     -35.133  16.606  -2.864  1.00 20.00    -0.024 C 
HETATM    8  C6  UNL     1     -36.390  17.493  -2.792  1.00 20.00     0.019 C 
HETATM    9  C7  UNL     1     -33.996  17.396  -3.544  1.00 20.00     0.019 C 
HETATM   10  C8  UNL     1     -34.677  16.296  -1.419  1.00 20.00     0.019 C 
ENDBRANCH   2   7
TORSDOF 2
ENDMDL
MODEL 3
REMARK VINA RESULT:      -4.3      2.025      2.641
REMARK  2 active torsions:
REMARK  status: ('A' for Active; 'I' for Inactive)
REMARK    1  A    between atoms: C2_2  and  C5_5 
REMARK    2  A    between atoms: C2_2  and  C9_9 
ROOT
HETATM    1  C1  UNL     1     -36.597  14.568  -4.219  1.00 20.00     0.225 C 
HETATM    2  C2  UNL     1     -35.465  15.015  -4.692  1.00 20.00    -0.014 C 
HETATM    3  O10 UNL     1     -37.616  14.166  -3.791  1.00 20.00    -0.284 OA
ENDROOT
BRANCH   2   4
HETATM    4  C5  UNL     1     -35.501  15.452  -6.108  1.00 20.00     0.019 A 
HETATM    5  C3  UNL     1     -35.340  14.414  -7.167  1.00 20.00     0.010 A 
HETATM    6  C4  UNL     1     -36.676  15.053  -6.937  1.00 20.00     0.010 A 
ENDBRANCH   2   4
BRANCH   2   7
HETATM    7  C9  UNL     1     -34.173  15.156  -3.882  1.00 20.00    -0.024 C 
HETATM    8  C6  UNL     1     -33.236  16.158  -4.583  1.00 20.00     0.019 C 
HETATM    9  C7  UNL     1     -33.452  13.799  -3.746  1.00 20.00     0.019 C 
HETATM   10  C8  UNL     1     -34.450  15.675  -2.452  1.00 20.00     0.019 C 
ENDBRANCH   2   7
TORSDOF 2
ENDMDL
MODEL 4
REMARK VINA RESULT:      -4.3      1.870      3.439
REMARK  2 active torsions:
REMARK  status: ('A' for Active; 'I' for Inactive)
REMARK    1  A    between atoms: C2_2  and  C5_5 
REMARK    2  A    between atoms: C2_2  and  C9_9 
ROOT
HETATM    1  C1  UNL     1     -34.761  13.672  -4.978  1.00 20.00     0.225 C 
HETATM    2  C2  UNL     1     -34.550  14.904  -5.351  1.00 20.00    -0.014 C 
HETATM    3  O10 UNL     1     -34.952  12.560  -4.644  1.00 20.00    -0.284 OA
ENDROOT
BRANCH   2   4
HETATM    4  C5  UNL     1     -33.552  15.646  -4.545  1.00 20.00     0.019 A 
HETATM    5  C3  UNL     1     -33.780  15.758  -3.075  1.00 20.00     0.010 A 
HETATM    6  C4  UNL     1     -32.694  14.871  -3.603  1.00 20.00     0.010 A 
ENDBRANCH   2   4
BRANCH   2   7
HETATM    7  C9  UNL     1     -35.210  15.579  -6.558  1.00 20.00    -0.024 C 
HETATM    8  C6  UNL     1     -34.428  16.855  -6.922  1.00 20.00     0.019 C 
HETATM    9  C7  UNL     1     -36.675  15.953  -6.252  1.00 20.00     0.019 C 
HETATM   10  C8  UNL     1     -35.222  14.650  -7.795  1.00 20.00     0.019 C 
ENDBRANCH   2   7
TORSDOF 2
ENDMDL
MODEL 5
REMARK VINA RESULT:      -4.3      1.660      2.052
REMARK  2 active torsions:
REMARK  status: ('A' for Active; 'I' for Inactive)
REMARK    1  A    between atoms: C2_2  and  C5_5 
REMARK    2  A    between atoms: C2_2  and  C9_9 
ROOT
HETATM    1  C1  UNL     1     -34.845  13.635  -4.628  1.00 20.00     0.225 C 
HETATM    2  C2  UNL     1     -34.521  14.885  -4.816  1.00 20.00    -0.014 C 
HETATM    3  O10 UNL     1     -35.138  12.509  -4.457  1.00 20.00    -0.284 OA
ENDROOT
BRANCH   2   4
HETATM    4  C5  UNL     1     -35.022  15.486  -6.075  1.00 20.00     0.019 A 
HETATM    5  C3  UNL     1     -34.414  15.033  -7.359  1.00 20.00     0.010 A 
HETATM    6  C4  UNL     1     -35.809  14.622  -7.000  1.00 20.00     0.010 A 
ENDBRANCH   2   4
BRANCH   2   7
HETATM    7  C9  UNL     1     -33.730  15.743  -3.823  1.00 20.00    -0.024 C 
HETATM    8  C6  UNL     1     -32.356  15.095  -3.568  1.00 20.00     0.019 C 
HETATM    9  C7  UNL     1     -34.482  15.876  -2.483  1.00 20.00     0.019 C 
HETATM   10  C8  UNL     1     -33.497  17.173  -4.363  1.00 20.00     0.019 C 
ENDBRANCH   2   7
TORSDOF 2
ENDMDL
MODEL 6
REMARK VINA RESULT:      -4.2      1.666      2.391
REMARK  2 active torsions:
REMARK  status: ('A' for Active; 'I' for Inactive)
REMARK    1  A    between atoms: C2_2  and  C5_5 
REMARK    2  A    between atoms: C2_2  and  C9_9 
ROOT
HETATM    1  C1  UNL     1     -34.860  13.636  -4.633  1.00 20.00     0.225 C 
HETATM    2  C2  UNL     1     -34.520  14.880  -4.833  1.00 20.00    -0.014 C 
HETATM    3  O10 UNL     1     -35.166  12.515  -4.451  1.00 20.00    -0.284 OA
ENDROOT
BRANCH   2   4
HETATM    4  C5  UNL     1     -35.032  15.482  -6.087  1.00 20.00     0.019 A 
HETATM    5  C3  UNL     1     -34.424  15.041  -7.376  1.00 20.00     0.010 A 
HETATM    6  C4  UNL     1     -35.814  14.614  -7.013  1.00 20.00     0.010 A 
ENDBRANCH   2   4
BRANCH   2   7
HETATM    7  C9  UNL     1     -33.700  15.731  -3.857  1.00 20.00    -0.024 C 
HETATM    8  C6  UNL     1     -34.461  15.856  -2.523  1.00 20.00     0.019 C 
HETATM    9  C7  UNL     1     -33.446  17.141  -4.428  1.00 20.00     0.019 C 
HETATM   10  C8  UNL     1     -32.319  15.097  -3.568  1.00 20.00     0.019 C 
ENDBRANCH   2   7
TORSDOF 2
ENDMDL
MODEL 7
REMARK VINA RESULT:      -4.2      1.915      3.292
REMARK  2 active torsions:
REMARK  status: ('A' for Active; 'I' for Inactive)
REMARK    1  A    between atoms: C2_2  and  C5_5 
REMARK    2  A    between atoms: C2_2  and  C9_9 
ROOT
HETATM    1  C1  UNL     1     -36.033  16.161  -3.081  1.00 20.00     0.225 C 
HETATM    2  C2  UNL     1     -34.779  15.799  -3.059  1.00 20.00    -0.014 C 
HETATM    3  O10 UNL     1     -37.164  16.485  -3.102  1.00 20.00    -0.284 OA
ENDROOT
BRANCH   2   4
HETATM    4  C5  UNL     1     -33.981  16.356  -1.941  1.00 20.00     0.019 A 
HETATM    5  C3  UNL     1     -34.173  17.792  -1.588  1.00 20.00     0.010 A 
HETATM    6  C4  UNL     1     -34.693  16.718  -0.682  1.00 20.00     0.010 A 
ENDBRANCH   2   4
BRANCH   2   7
HETATM    7  C9  UNL     1     -34.130  14.831  -4.052  1.00 20.00    -0.024 C 
HETATM    8  C6  UNL     1     -32.670  14.572  -3.636  1.00 20.00     0.019 C 
HETATM    9  C7  UNL     1     -34.154  15.405  -5.483  1.00 20.00     0.019 C 
HETATM   10  C8  UNL     1     -34.870  13.472  -4.090  1.00 20.00     0.019 C 
ENDBRANCH   2   7
TORSDOF 2
ENDMDL
MODEL 8
REMARK VINA RESULT:      -4.1      2.062      3.307
REMARK  2 active torsions:
REMARK  status: ('A' for Active; 'I' for Inactive)
REMARK    1  A    between atoms: C2_2  and  C5_5 
REMARK    2  A    between atoms: C2_2  and  C9_9 
ROOT
HETATM    1  C1  UNL     1     -33.463  16.375  -4.292  1.00 20.00     0.225 C 
HETATM    2  C2  UNL     1     -34.181  16.131  -3.231  1.00 20.00    -0.014 C 
HETATM    3  O10 UNL     1     -32.814  16.598  -5.248  1.00 20.00    -0.284 OA
ENDROOT
BRANCH   2   4
HETATM    4  C5  UNL     1     -34.530  14.706  -3.019  1.00 20.00     0.019 A 
HETATM    5  C3  UNL     1     -35.235  13.985  -4.118  1.00 20.00     0.010 A 
HETATM    6  C4  UNL     1     -33.800  13.678  -3.815  1.00 20.00     0.010 A 
ENDBRANCH   2   4
BRANCH   2   7
HETATM    7  C9  UNL     1     -34.619  17.184  -2.208  1.00 20.00    -0.024 C 
HETATM    8  C6  UNL     1     -36.054  17.643  -2.527  1.00 20.00     0.019 C 
HETATM    9  C7  UNL     1     -33.679  18.407  -2.235  1.00 20.00     0.019 C 
HETATM   10  C8  UNL     1     -34.601  16.622  -0.767  1.00 20.00     0.019 C 
ENDBRANCH   2   7
TORSDOF 2
ENDMDL
MODEL 9
REMARK VINA RESULT:      -4.1     12.062     12.895
REMARK  2 active torsions:
REMARK  status: ('A' for Active; 'I' for Inactive)
REMARK    1  A    between atoms: C2_2  and  C5_5 
REMARK    2  A    between atoms: C2_2  and  C9_9 
ROOT
HETATM    1  C1  UNL     1     -33.546   6.744   5.901  1.00 20.00     0.225 C 
HETATM    2  C2  UNL     1     -33.948   6.065   4.861  1.00 20.00    -0.014 C 
HETATM    3  O10 UNL     1     -33.183   7.357   6.836  1.00 20.00    -0.284 OA
ENDROOT
BRANCH   2   4
HETATM    4  C5  UNL     1     -35.064   5.124   5.114  1.00 20.00     0.019 A 
HETATM    5  C3  UNL     1     -34.733   3.690   5.356  1.00 20.00     0.010 A 
HETATM    6  C4  UNL     1     -35.205   4.554   6.485  1.00 20.00     0.010 A 
ENDBRANCH   2   4
BRANCH   2   7
HETATM    7  C9  UNL     1     -33.388   6.222   3.443  1.00 20.00    -0.024 C 
HETATM    8  C6  UNL     1     -34.346   5.556   2.438  1.00 20.00     0.019 C 
HETATM    9  C7  UNL     1     -31.995   5.570   3.322  1.00 20.00     0.019 C 
HETATM   10  C8  UNL     1     -33.234   7.710   3.052  1.00 20.00     0.019 C 
ENDBRANCH   2   7
TORSDOF 2
ENDMDL
