MODEL 1
REMARK VINA RESULT:      -5.3      0.000      0.000
REMARK  0 active torsions:
REMARK  status: ('A' for Active; 'I' for Inactive)
ROOT
HETATM    1  C1  UNL     1     -34.425  17.118  -0.420  1.00 20.00     0.013 C 
HETATM    2  C2  UNL     1     -34.514  16.678  -1.532  1.00 20.00    -0.104 C 
HETATM    3  C3  UNL     1     -33.504  14.043  -3.772  1.00 20.00     0.048 C 
HETATM    4  C4  UNL     1     -33.440  15.229  -3.154  1.00 20.00    -0.001 C 
HETATM    5  C5  UNL     1     -34.788  13.551  -4.325  1.00 20.00     0.149 C 
HETATM    6  C6  UNL     1     -35.998  14.455  -4.251  1.00 20.00     0.085 C 
HETATM    7  C7  UNL     1     -35.947  15.344  -3.016  1.00 20.00     0.034 C 
HETATM    8  C8  UNL     1     -34.625  16.134  -2.904  1.00 20.00     0.037 C 
HETATM    9  C9  UNL     1     -34.589  17.300  -3.904  1.00 20.00     0.034 C 
HETATM   10  O10 UNL     1     -34.833  12.457  -4.884  1.00 20.00    -0.293 OA
ENDROOT
TORSDOF 0
ENDMDL
MODEL 2
REMARK VINA RESULT:      -4.9      1.661      2.321
REMARK  0 active torsions:
REMARK  status: ('A' for Active; 'I' for Inactive)
ROOT
HETATM    1  C1  UNL     1     -34.664  16.358  -1.339  1.00 20.00     0.013 C 
HETATM    2  C2  UNL     1     -34.318  15.864  -2.375  1.00 20.00    -0.104 C 
HETATM    3  C3  UNL     1     -35.234  13.637  -5.055  1.00 20.00     0.048 C 
HETATM    4  C4  UNL     1     -34.705  14.002  -3.880  1.00 20.00    -0.001 C 
HETATM    5  C5  UNL     1     -34.993  14.447  -6.272  1.00 20.00     0.149 C 
HETATM    6  C6  UNL     1     -34.069  15.640  -6.174  1.00 20.00     0.085 C 
HETATM    7  C7  UNL     1     -34.135  16.274  -4.790  1.00 20.00     0.034 C 
HETATM    8  C8  UNL     1     -33.891  15.256  -3.655  1.00 20.00     0.037 C 
HETATM    9  C9  UNL     1     -32.405  14.882  -3.555  1.00 20.00     0.034 C 
HETATM   10  O10 UNL     1     -35.490  14.102  -7.342  1.00 20.00    -0.293 OA
ENDROOT
TORSDOF 0
ENDMDL
MODEL 3
REMARK VINA RESULT:      -4.8      0.720      2.298
REMARK  0 active torsions:
REMARK  status: ('A' for Active; 'I' for Inactive)
ROOT
HETATM    1  C1  UNL     1     -34.853  18.980  -3.602  1.00 20.00     0.013 C 
HETATM    2  C2  UNL     1     -34.795  17.829  -3.273  1.00 20.00    -0.104 C 
HETATM    3  C3  UNL     1     -36.092  14.513  -3.826  1.00 20.00     0.048 C 
HETATM    4  C4  UNL     1     -36.011  15.730  -3.273  1.00 20.00    -0.001 C 
HETATM    5  C5  UNL     1     -34.872  13.696  -4.027  1.00 20.00     0.149 C 
HETATM    6  C6  UNL     1     -33.553  14.232  -3.517  1.00 20.00     0.085 C 
HETATM    7  C7  UNL     1     -33.517  15.754  -3.577  1.00 20.00     0.034 C 
HETATM    8  C8  UNL     1     -34.722  16.407  -2.867  1.00 20.00     0.037 C 
HETATM    9  C9  UNL     1     -34.573  16.335  -1.340  1.00 20.00     0.034 C 
HETATM   10  O10 UNL     1     -34.961  12.583  -4.542  1.00 20.00    -0.293 OA
ENDROOT
TORSDOF 0
ENDMDL
MODEL 4
REMARK VINA RESULT:      -4.7      1.127      1.214
REMARK  0 active torsions:
REMARK  status: ('A' for Active; 'I' for Inactive)
ROOT
HETATM    1  C1  UNL     1     -33.755  18.227  -1.920  1.00 20.00     0.013 C 
HETATM    2  C2  UNL     1     -33.827  17.438  -2.821  1.00 20.00    -0.104 C 
HETATM    3  C3  UNL     1     -33.395  13.996  -3.794  1.00 20.00     0.048 C 
HETATM    4  C4  UNL     1     -33.050  15.273  -3.592  1.00 20.00    -0.001 C 
HETATM    5  C5  UNL     1     -34.683  13.660  -4.446  1.00 20.00     0.149 C 
HETATM    6  C6  UNL     1     -35.552  14.789  -4.953  1.00 20.00     0.085 C 
HETATM    7  C7  UNL     1     -35.392  16.036  -4.092  1.00 20.00     0.034 C 
HETATM    8  C8  UNL     1     -33.917  16.464  -3.931  1.00 20.00     0.037 C 
HETATM    9  C9  UNL     1     -33.389  17.125  -5.213  1.00 20.00     0.034 C 
HETATM   10  O10 UNL     1     -34.990  12.482  -4.619  1.00 20.00    -0.293 OA
ENDROOT
TORSDOF 0
ENDMDL
MODEL 5
REMARK VINA RESULT:      -4.5     11.593     13.287
REMARK  0 active torsions:
REMARK  status: ('A' for Active; 'I' for Inactive)
ROOT
HETATM    1  C1  UNL     1     -41.333   2.064  -3.703  1.00 20.00     0.013 C 
HETATM    2  C2  UNL     1     -41.704   2.915  -2.943  1.00 20.00    -0.104 C 
HETATM    3  C3  UNL     1     -40.691   5.618  -0.788  1.00 20.00     0.048 C 
HETATM    4  C4  UNL     1     -40.998   4.360  -1.127  1.00 20.00    -0.001 C 
HETATM    5  C5  UNL     1     -41.548   6.746  -1.225  1.00 20.00     0.149 C 
HETATM    6  C6  UNL     1     -42.817   6.434  -1.986  1.00 20.00     0.085 C 
HETATM    7  C7  UNL     1     -42.658   5.175  -2.829  1.00 20.00     0.034 C 
HETATM    8  C8  UNL     1     -42.162   3.966  -2.007  1.00 20.00     0.037 C 
HETATM    9  C9  UNL     1     -43.286   3.393  -1.130  1.00 20.00     0.034 C 
HETATM   10  O10 UNL     1     -41.250   7.896  -0.910  1.00 20.00    -0.293 OA
ENDROOT
TORSDOF 0
ENDMDL
MODEL 6
REMARK VINA RESULT:      -4.4      2.324      3.936
REMARK  0 active torsions:
REMARK  status: ('A' for Active; 'I' for Inactive)
ROOT
HETATM    1  C1  UNL     1     -34.384  15.155  -7.506  1.00 20.00     0.013 C 
HETATM    2  C2  UNL     1     -34.517  14.917  -6.338  1.00 20.00    -0.104 C 
HETATM    3  C3  UNL     1     -33.454  15.753  -2.998  1.00 20.00     0.048 C 
HETATM    4  C4  UNL     1     -33.446  15.104  -4.169  1.00 20.00    -0.001 C 
HETATM    5  C5  UNL     1     -34.729  15.998  -2.284  1.00 20.00     0.149 C 
HETATM    6  C6  UNL     1     -36.003  15.425  -2.863  1.00 20.00     0.085 C 
HETATM    7  C7  UNL     1     -35.936  15.363  -4.384  1.00 20.00     0.034 C 
HETATM    8  C8  UNL     1     -34.681  14.624  -4.897  1.00 20.00     0.037 C 
HETATM    9  C9  UNL     1     -34.817  13.105  -4.712  1.00 20.00     0.034 C 
HETATM   10  O10 UNL     1     -34.722  16.601  -1.212  1.00 20.00    -0.293 OA
ENDROOT
TORSDOF 0
ENDMDL
MODEL 7
REMARK VINA RESULT:      -4.3     11.219     11.997
REMARK  0 active torsions:
REMARK  status: ('A' for Active; 'I' for Inactive)
ROOT
HETATM    1  C1  UNL     1     -32.493   8.627   1.912  1.00 20.00     0.013 C 
HETATM    2  C2  UNL     1     -32.683   7.641   2.568  1.00 20.00    -0.104 C 
HETATM    3  C3  UNL     1     -33.676   6.363   5.788  1.00 20.00     0.048 C 
HETATM    4  C4  UNL     1     -32.839   6.803   4.839  1.00 20.00    -0.001 C 
HETATM    5  C5  UNL     1     -34.743   5.389   5.456  1.00 20.00     0.149 C 
HETATM    6  C6  UNL     1     -34.808   4.842   4.048  1.00 20.00     0.085 C 
HETATM    7  C7  UNL     1     -34.318   5.869   3.035  1.00 20.00     0.034 C 
HETATM    8  C8  UNL     1     -32.919   6.425   3.378  1.00 20.00     0.037 C 
HETATM    9  C9  UNL     1     -31.822   5.398   3.061  1.00 20.00     0.034 C 
HETATM   10  O10 UNL     1     -35.507   5.000   6.337  1.00 20.00    -0.293 OA
ENDROOT
TORSDOF 0
ENDMDL
MODEL 8
REMARK VINA RESULT:      -4.2      2.517      4.209
REMARK  0 active torsions:
REMARK  status: ('A' for Active; 'I' for Inactive)
ROOT
HETATM    1  C1  UNL     1     -35.001  13.286  -5.212  1.00 20.00     0.013 C 
HETATM    2  C2  UNL     1     -34.391  14.131  -4.619  1.00 20.00    -0.104 C 
HETATM    3  C3  UNL     1     -33.584  17.638  -4.443  1.00 20.00     0.048 C 
HETATM    4  C4  UNL     1     -33.446  16.357  -4.808  1.00 20.00    -0.001 C 
HETATM    5  C5  UNL     1     -33.889  17.990  -3.036  1.00 20.00     0.149 C 
HETATM    6  C6  UNL     1     -33.955  16.880  -2.012  1.00 20.00     0.085 C 
HETATM    7  C7  UNL     1     -34.451  15.582  -2.638  1.00 20.00     0.034 C 
HETATM    8  C8  UNL     1     -33.639  15.174  -3.886  1.00 20.00     0.037 C 
HETATM    9  C9  UNL     1     -32.265  14.611  -3.494  1.00 20.00     0.034 C 
HETATM   10  O10 UNL     1     -34.019  19.170  -2.717  1.00 20.00    -0.293 OA
ENDROOT
TORSDOF 0
ENDMDL
MODEL 9
REMARK VINA RESULT:      -4.2      2.152      3.676
REMARK  0 active torsions:
REMARK  status: ('A' for Active; 'I' for Inactive)
ROOT
HETATM    1  C1  UNL     1     -35.073  16.926  -7.918  1.00 20.00     0.013 C 
HETATM    2  C2  UNL     1     -34.953  16.482  -6.810  1.00 20.00    -0.104 C 
HETATM    3  C3  UNL     1     -34.516  13.498  -4.839  1.00 20.00     0.048 C 
HETATM    4  C4  UNL     1     -35.182  14.471  -5.474  1.00 20.00    -0.001 C 
HETATM    5  C5  UNL     1     -33.350  13.820  -3.982  1.00 20.00     0.149 C 
HETATM    6  C6  UNL     1     -32.987  15.274  -3.775  1.00 20.00     0.085 C 
HETATM    7  C7  UNL     1     -33.335  16.109  -5.001  1.00 20.00     0.034 C 
HETATM    8  C8  UNL     1     -34.804  15.935  -5.444  1.00 20.00     0.037 C 
HETATM    9  C9  UNL     1     -35.760  16.683  -4.503  1.00 20.00     0.034 C 
HETATM   10  O10 UNL     1     -32.745  12.916  -3.411  1.00 20.00    -0.293 OA
ENDROOT
TORSDOF 0
ENDMDL
