MODEL 1
REMARK VINA RESULT:      -4.7      0.000      0.000
REMARK  1 active torsions:
REMARK  status: ('A' for Active; 'I' for Inactive)
REMARK    1  A    between atoms: C7_7  and  O11_11 
ROOT
HETATM    1  C1  UNL     1     -33.244  13.424  -3.713  1.00 20.00    -0.029 C 
HETATM    2  C2  UNL     1     -34.099  16.237  -2.410  1.00 20.00    -0.022 C 
HETATM    3  C3  UNL     1     -35.428  16.133  -2.304  1.00 20.00     0.002 C 
HETATM    4  C4  UNL     1     -34.513  13.602  -4.094  1.00 20.00    -0.018 C 
HETATM    5  C5  UNL     1     -32.494  14.713  -3.640  1.00 20.00     0.036 C 
HETATM    6  C6  UNL     1     -33.597  15.774  -3.752  1.00 20.00     0.026 C 
HETATM    7  C7  UNL     1     -36.043  15.617  -3.565  1.00 20.00     0.155 C 
HETATM    8  C8  UNL     1     -34.838  15.055  -4.354  1.00 20.00     0.010 C 
HETATM    9  C9  UNL     1     -34.988  15.288  -5.858  1.00 20.00     0.023 C 
ENDROOT
BRANCH   7  10
HETATM   10  O11 UNL     1     -37.020  14.625  -3.305  1.00 20.00    -0.386 OA
HETATM   11  C10 UNL     1     -38.236  14.888  -3.997  1.00 20.00     0.202 C 
ENDBRANCH   7  10
TORSDOF 1
ENDMDL
MODEL 2
REMARK VINA RESULT:      -4.6      1.491      2.899
REMARK  1 active torsions:
REMARK  status: ('A' for Active; 'I' for Inactive)
REMARK    1  A    between atoms: C7_7  and  O11_11 
ROOT
HETATM    1  C1  UNL     1     -35.168  15.878  -2.512  1.00 20.00    -0.029 C 
HETATM    2  C2  UNL     1     -33.367  16.772  -5.022  1.00 20.00    -0.022 C 
HETATM    3  C3  UNL     1     -33.990  16.209  -6.062  1.00 20.00     0.002 C 
HETATM    4  C4  UNL     1     -35.385  14.937  -3.437  1.00 20.00    -0.018 C 
HETATM    5  C5  UNL     1     -33.766  16.388  -2.551  1.00 20.00     0.036 C 
HETATM    6  C6  UNL     1     -33.214  15.820  -3.866  1.00 20.00     0.026 C 
HETATM    7  C7  UNL     1     -34.330  14.778  -5.792  1.00 20.00     0.155 C 
HETATM    8  C8  UNL     1     -34.153  14.644  -4.262  1.00 20.00     0.010 C 
HETATM    9  C9  UNL     1     -33.588  13.277  -3.875  1.00 20.00     0.023 C 
ENDROOT
BRANCH   7  10
HETATM   10  O11 UNL     1     -35.648  14.464  -6.205  1.00 20.00    -0.386 OA
HETATM   11  C10 UNL     1     -35.794  14.555  -7.618  1.00 20.00     0.202 C 
ENDBRANCH   7  10
TORSDOF 1
ENDMDL
MODEL 3
REMARK VINA RESULT:      -4.5      2.036      3.552
REMARK  1 active torsions:
REMARK  status: ('A' for Active; 'I' for Inactive)
REMARK    1  A    between atoms: C7_7  and  O11_11 
ROOT
HETATM    1  C1  UNL     1     -33.339  13.749  -3.745  1.00 20.00    -0.029 C 
HETATM    2  C2  UNL     1     -34.618  14.694  -6.541  1.00 20.00    -0.022 C 
HETATM    3  C3  UNL     1     -34.159  15.942  -6.680  1.00 20.00     0.002 C 
HETATM    4  C4  UNL     1     -33.393  15.082  -3.660  1.00 20.00    -0.018 C 
HETATM    5  C5  UNL     1     -34.494  13.189  -4.508  1.00 20.00     0.036 C 
HETATM    6  C6  UNL     1     -35.132  14.428  -5.151  1.00 20.00     0.026 C 
HETATM    7  C7  UNL     1     -34.319  16.732  -5.421  1.00 20.00     0.155 C 
HETATM    8  C8  UNL     1     -34.609  15.655  -4.350  1.00 20.00     0.010 C 
HETATM    9  C9  UNL     1     -35.609  16.151  -3.305  1.00 20.00     0.023 C 
ENDROOT
BRANCH   7  10
HETATM   10  O11 UNL     1     -33.156  17.483  -5.120  1.00 20.00    -0.386 OA
HETATM   11  C10 UNL     1     -33.464  18.847  -4.853  1.00 20.00     0.202 C 
ENDBRANCH   7  10
TORSDOF 1
ENDMDL
MODEL 4
REMARK VINA RESULT:      -4.5      1.357      2.476
REMARK  1 active torsions:
REMARK  status: ('A' for Active; 'I' for Inactive)
REMARK    1  A    between atoms: C7_7  and  O11_11 
ROOT
HETATM    1  C1  UNL     1     -33.056  16.092  -4.398  1.00 20.00    -0.029 C 
HETATM    2  C2  UNL     1     -35.083  13.617  -4.070  1.00 20.00    -0.022 C 
HETATM    3  C3  UNL     1     -36.286  14.194  -4.155  1.00 20.00     0.002 C 
HETATM    4  C4  UNL     1     -34.180  16.637  -3.924  1.00 20.00    -0.018 C 
HETATM    5  C5  UNL     1     -32.817  14.726  -3.845  1.00 20.00     0.036 C 
HETATM    6  C6  UNL     1     -34.149  14.378  -3.167  1.00 20.00     0.026 C 
HETATM    7  C7  UNL     1     -36.373  15.417  -3.300  1.00 20.00     0.155 C 
HETATM    8  C8  UNL     1     -34.897  15.725  -2.954  1.00 20.00     0.010 C 
HETATM    9  C9  UNL     1     -34.751  16.269  -1.532  1.00 20.00     0.023 C 
ENDROOT
BRANCH   7  10
HETATM   10  O11 UNL     1     -36.996  16.492  -3.980  1.00 20.00    -0.386 OA
HETATM   11  C10 UNL     1     -37.716  16.044  -5.124  1.00 20.00     0.202 C 
ENDBRANCH   7  10
TORSDOF 1
ENDMDL
MODEL 5
REMARK VINA RESULT:      -4.5      2.014      3.308
REMARK  1 active torsions:
REMARK  status: ('A' for Active; 'I' for Inactive)
REMARK    1  A    between atoms: C7_7  and  O11_11 
ROOT
HETATM    1  C1  UNL     1     -33.348  13.937  -3.835  1.00 20.00    -0.029 C 
HETATM    2  C2  UNL     1     -35.911  15.420  -5.090  1.00 20.00    -0.022 C 
HETATM    3  C3  UNL     1     -35.489  16.679  -5.247  1.00 20.00     0.002 C 
HETATM    4  C4  UNL     1     -33.197  15.221  -3.494  1.00 20.00    -0.018 C 
HETATM    5  C5  UNL     1     -34.783  13.525  -3.845  1.00 20.00     0.036 C 
HETATM    6  C6  UNL     1     -35.538  14.857  -3.745  1.00 20.00     0.026 C 
HETATM    7  C7  UNL     1     -34.794  17.183  -4.023  1.00 20.00     0.155 C 
HETATM    8  C8  UNL     1     -34.516  15.900  -3.207  1.00 20.00     0.010 C 
HETATM    9  C9  UNL     1     -34.652  16.145  -1.703  1.00 20.00     0.023 C 
ENDROOT
BRANCH   7  10
HETATM   10  O11 UNL     1     -33.603  17.879  -4.345  1.00 20.00    -0.386 OA
HETATM   11  C10 UNL     1     -33.591  18.306  -5.703  1.00 20.00     0.202 C 
ENDBRANCH   7  10
TORSDOF 1
ENDMDL
MODEL 6
REMARK VINA RESULT:      -4.5      1.649      2.855
REMARK  1 active torsions:
REMARK  status: ('A' for Active; 'I' for Inactive)
REMARK    1  A    between atoms: C7_7  and  O11_11 
ROOT
HETATM    1  C1  UNL     1     -34.444  13.261  -4.815  1.00 20.00    -0.029 C 
HETATM    2  C2  UNL     1     -33.886  16.343  -5.549  1.00 20.00    -0.022 C 
HETATM    3  C3  UNL     1     -33.577  16.887  -4.368  1.00 20.00     0.002 C 
HETATM    4  C4  UNL     1     -34.685  13.928  -3.682  1.00 20.00    -0.018 C 
HETATM    5  C5  UNL     1     -34.840  14.045  -6.022  1.00 20.00     0.036 C 
HETATM    6  C6  UNL     1     -35.097  15.452  -5.466  1.00 20.00     0.026 C 
HETATM    7  C7  UNL     1     -34.546  16.482  -3.304  1.00 20.00     0.155 C 
HETATM    8  C8  UNL     1     -35.299  15.287  -3.933  1.00 20.00     0.010 C 
HETATM    9  C9  UNL     1     -36.773  15.269  -3.525  1.00 20.00     0.023 C 
ENDROOT
BRANCH   7  10
HETATM   10  O11 UNL     1     -33.887  16.124  -2.102  1.00 20.00    -0.386 OA
HETATM   11  C10 UNL     1     -34.547  16.659  -0.960  1.00 20.00     0.202 C 
ENDBRANCH   7  10
TORSDOF 1
ENDMDL
MODEL 7
REMARK VINA RESULT:      -4.5      1.431      3.092
REMARK  1 active torsions:
REMARK  status: ('A' for Active; 'I' for Inactive)
REMARK    1  A    between atoms: C7_7  and  O11_11 
ROOT
HETATM    1  C1  UNL     1     -34.204  15.555  -6.300  1.00 20.00    -0.029 C 
HETATM    2  C2  UNL     1     -36.626  14.576  -4.423  1.00 20.00    -0.022 C 
HETATM    3  C3  UNL     1     -36.452  15.287  -3.305  1.00 20.00     0.002 C 
HETATM    4  C4  UNL     1     -33.777  15.777  -5.053  1.00 20.00    -0.018 C 
HETATM    5  C5  UNL     1     -35.053  14.331  -6.393  1.00 20.00     0.036 C 
HETATM    6  C6  UNL     1     -35.337  13.981  -4.926  1.00 20.00     0.026 C 
HETATM    7  C7  UNL     1     -35.029  15.260  -2.850  1.00 20.00     0.155 C 
HETATM    8  C8  UNL     1     -34.263  14.725  -4.082  1.00 20.00     0.010 C 
HETATM    9  C9  UNL     1     -33.097  13.822  -3.676  1.00 20.00     0.023 C 
ENDROOT
BRANCH   7  10
HETATM   10  O11 UNL     1     -34.577  16.545  -2.460  1.00 20.00    -0.386 OA
HETATM   11  C10 UNL     1     -34.485  16.664  -1.044  1.00 20.00     0.202 C 
ENDBRANCH   7  10
TORSDOF 1
ENDMDL
MODEL 8
REMARK VINA RESULT:      -4.4      1.548      3.281
REMARK  1 active torsions:
REMARK  status: ('A' for Active; 'I' for Inactive)
REMARK    1  A    between atoms: C7_7  and  O11_11 
ROOT
HETATM    1  C1  UNL     1     -36.537  15.423  -6.258  1.00 20.00    -0.029 C 
HETATM    2  C2  UNL     1     -34.565  13.263  -4.919  1.00 20.00    -0.022 C 
HETATM    3  C3  UNL     1     -34.520  13.643  -3.638  1.00 20.00     0.002 C 
HETATM    4  C4  UNL     1     -36.028  16.045  -5.190  1.00 20.00    -0.018 C 
HETATM    5  C5  UNL     1     -35.548  14.504  -6.896  1.00 20.00     0.036 C 
HETATM    6  C6  UNL     1     -34.415  14.426  -5.863  1.00 20.00     0.026 C 
HETATM    7  C7  UNL     1     -34.300  15.116  -3.507  1.00 20.00     0.155 C 
HETATM    8  C8  UNL     1     -34.591  15.655  -4.926  1.00 20.00     0.010 C 
HETATM    9  C9  UNL     1     -33.667  16.818  -5.291  1.00 20.00     0.023 C 
ENDROOT
BRANCH   7  10
HETATM   10  O11 UNL     1     -35.152  15.690  -2.533  1.00 20.00    -0.386 OA
HETATM   11  C10 UNL     1     -34.417  16.404  -1.544  1.00 20.00     0.202 C 
ENDBRANCH   7  10
TORSDOF 1
ENDMDL
MODEL 9
REMARK VINA RESULT:      -4.4      2.002      3.207
REMARK  1 active torsions:
REMARK  status: ('A' for Active; 'I' for Inactive)
REMARK    1  A    between atoms: C7_7  and  O11_11 
ROOT
HETATM    1  C1  UNL     1     -36.407  14.364  -4.297  1.00 20.00    -0.029 C 
HETATM    2  C2  UNL     1     -33.246  14.662  -3.784  1.00 20.00    -0.022 C 
HETATM    3  C3  UNL     1     -32.998  15.929  -4.129  1.00 20.00     0.002 C 
HETATM    4  C4  UNL     1     -36.023  15.349  -5.114  1.00 20.00    -0.018 C 
HETATM    5  C5  UNL     1     -35.356  13.312  -4.155  1.00 20.00     0.036 C 
HETATM    6  C6  UNL     1     -34.117  13.957  -4.790  1.00 20.00     0.026 C 
HETATM    7  C7  UNL     1     -33.632  16.278  -5.438  1.00 20.00     0.155 C 
HETATM    8  C8  UNL     1     -34.636  15.127  -5.674  1.00 20.00     0.010 C 
HETATM    9  C9  UNL     1     -34.733  14.755  -7.155  1.00 20.00     0.023 C 
ENDROOT
BRANCH   7  10
HETATM   10  O11 UNL     1     -34.270  17.541  -5.393  1.00 20.00    -0.386 OA
HETATM   11  C10 UNL     1     -33.765  18.350  -4.335  1.00 20.00     0.202 C 
ENDBRANCH   7  10
TORSDOF 1
ENDMDL
