MODEL 1
REMARK VINA RESULT:      -5.6      0.000      0.000
REMARK  0 active torsions:
REMARK  status: ('A' for Active; 'I' for Inactive)
ROOT
HETATM    1  C1  UNL     1     -31.849   8.349   1.544  1.00 20.00     0.012 C 
HETATM    2  C2  UNL     1     -32.264   7.561   2.349  1.00 20.00    -0.112 C 
HETATM    3  C3  UNL     1     -34.548   4.859   3.736  1.00 20.00    -0.015 C 
HETATM    4  C4  UNL     1     -34.563   5.103   5.055  1.00 20.00    -0.020 C 
HETATM    5  C5  UNL     1     -33.897   6.339   5.567  1.00 20.00     0.156 C 
HETATM    6  C6  UNL     1     -33.853   5.708   2.714  1.00 20.00     0.045 C 
HETATM    7  C7  UNL     1     -33.321   7.318   4.565  1.00 20.00     0.101 C 
HETATM    8  C8  UNL     1     -32.773   6.595   3.336  1.00 20.00     0.075 C 
HETATM    9  C9  UNL     1     -35.240   4.214   6.050  1.00 20.00     0.052 C 
HETATM   10  O10 UNL     1     -33.875   6.584   6.772  1.00 20.00    -0.293 OA
ENDROOT
TORSDOF 0
ENDMDL
MODEL 2
REMARK VINA RESULT:      -5.1     11.438     12.832
REMARK  0 active torsions:
REMARK  status: ('A' for Active; 'I' for Inactive)
ROOT
HETATM    1  C1  UNL     1     -34.549  16.776  -0.659  1.00 20.00     0.012 C 
HETATM    2  C2  UNL     1     -34.406  16.348  -1.771  1.00 20.00    -0.112 C 
HETATM    3  C3  UNL     1     -34.810  16.228  -5.548  1.00 20.00    -0.015 C 
HETATM    4  C4  UNL     1     -34.791  14.916  -5.827  1.00 20.00    -0.020 C 
HETATM    5  C5  UNL     1     -34.794  13.939  -4.697  1.00 20.00     0.156 C 
HETATM    6  C6  UNL     1     -34.771  16.813  -4.168  1.00 20.00     0.045 C 
HETATM    7  C7  UNL     1     -34.921  14.468  -3.283  1.00 20.00     0.101 C 
HETATM    8  C8  UNL     1     -34.231  15.822  -3.135  1.00 20.00     0.075 C 
HETATM    9  C9  UNL     1     -34.797  14.370  -7.220  1.00 20.00     0.052 C 
HETATM   10  O10 UNL     1     -34.758  12.729  -4.916  1.00 20.00    -0.293 OA
ENDROOT
TORSDOF 0
ENDMDL
MODEL 3
REMARK VINA RESULT:      -4.8     11.735     12.190
REMARK  0 active torsions:
REMARK  status: ('A' for Active; 'I' for Inactive)
ROOT
HETATM    1  C1  UNL     1     -34.316  17.974  -0.252  1.00 20.00     0.012 C 
HETATM    2  C2  UNL     1     -34.392  17.044  -1.009  1.00 20.00    -0.112 C 
HETATM    3  C3  UNL     1     -33.569  14.962  -4.079  1.00 20.00    -0.015 C 
HETATM    4  C4  UNL     1     -34.727  14.348  -4.365  1.00 20.00    -0.020 C 
HETATM    5  C5  UNL     1     -35.953  14.729  -3.601  1.00 20.00     0.156 C 
HETATM    6  C6  UNL     1     -33.382  15.977  -2.991  1.00 20.00     0.045 C 
HETATM    7  C7  UNL     1     -35.859  15.866  -2.604  1.00 20.00     0.101 C 
HETATM    8  C8  UNL     1     -34.487  15.905  -1.936  1.00 20.00     0.075 C 
HETATM    9  C9  UNL     1     -34.868  13.314  -5.437  1.00 20.00     0.052 C 
HETATM   10  O10 UNL     1     -37.028  14.174  -3.824  1.00 20.00    -0.293 OA
ENDROOT
TORSDOF 0
ENDMDL
MODEL 4
REMARK VINA RESULT:      -4.5      1.518      2.204
REMARK  0 active torsions:
REMARK  status: ('A' for Active; 'I' for Inactive)
ROOT
HETATM    1  C1  UNL     1     -31.860   7.854   2.163  1.00 20.00     0.012 C 
HETATM    2  C2  UNL     1     -32.642   7.373   2.936  1.00 20.00    -0.112 C 
HETATM    3  C3  UNL     1     -33.986   6.275   6.316  1.00 20.00    -0.015 C 
HETATM    4  C4  UNL     1     -34.728   5.195   6.027  1.00 20.00    -0.020 C 
HETATM    5  C5  UNL     1     -34.699   4.654   4.634  1.00 20.00     0.156 C 
HETATM    6  C6  UNL     1     -33.159   7.039   5.326  1.00 20.00     0.045 C 
HETATM    7  C7  UNL     1     -33.755   5.286   3.632  1.00 20.00     0.101 C 
HETATM    8  C8  UNL     1     -33.601   6.783   3.884  1.00 20.00     0.075 C 
HETATM    9  C9  UNL     1     -35.567   4.478   7.036  1.00 20.00     0.052 C 
HETATM   10  O10 UNL     1     -35.381   3.676   4.329  1.00 20.00    -0.293 OA
ENDROOT
TORSDOF 0
ENDMDL
MODEL 5
REMARK VINA RESULT:      -4.4     12.124     13.450
REMARK  0 active torsions:
REMARK  status: ('A' for Active; 'I' for Inactive)
ROOT
HETATM    1  C1  UNL     1     -34.421  17.010  -0.417  1.00 20.00     0.012 C 
HETATM    2  C2  UNL     1     -34.585  16.733  -1.573  1.00 20.00    -0.112 C 
HETATM    3  C3  UNL     1     -34.634  14.519  -4.662  1.00 20.00    -0.015 C 
HETATM    4  C4  UNL     1     -34.345  15.365  -5.662  1.00 20.00    -0.020 C 
HETATM    5  C5  UNL     1     -33.947  16.767  -5.329  1.00 20.00     0.156 C 
HETATM    6  C6  UNL     1     -34.653  14.884  -3.208  1.00 20.00     0.045 C 
HETATM    7  C7  UNL     1     -33.789  17.146  -3.871  1.00 20.00     0.101 C 
HETATM    8  C8  UNL     1     -34.784  16.393  -2.991  1.00 20.00     0.075 C 
HETATM    9  C9  UNL     1     -34.369  14.972  -7.106  1.00 20.00     0.052 C 
HETATM   10  O10 UNL     1     -33.693  17.574  -6.222  1.00 20.00    -0.293 OA
ENDROOT
TORSDOF 0
ENDMDL
MODEL 6
REMARK VINA RESULT:      -4.4     11.683     13.035
REMARK  0 active torsions:
REMARK  status: ('A' for Active; 'I' for Inactive)
ROOT
HETATM    1  C1  UNL     1     -35.169  17.677   1.134  1.00 20.00     0.012 C 
HETATM    2  C2  UNL     1     -34.681  17.408   0.071  1.00 20.00    -0.112 C 
HETATM    3  C3  UNL     1     -33.725  17.936  -3.569  1.00 20.00    -0.015 C 
HETATM    4  C4  UNL     1     -33.730  16.696  -4.081  1.00 20.00    -0.020 C 
HETATM    5  C5  UNL     1     -34.226  15.569  -3.234  1.00 20.00     0.156 C 
HETATM    6  C6  UNL     1     -34.125  18.288  -2.167  1.00 20.00     0.045 C 
HETATM    7  C7  UNL     1     -34.797  15.888  -1.868  1.00 20.00     0.101 C 
HETATM    8  C8  UNL     1     -34.082  17.077  -1.232  1.00 20.00     0.075 C 
HETATM    9  C9  UNL     1     -33.292  16.379  -5.476  1.00 20.00     0.052 C 
HETATM   10  O10 UNL     1     -34.227  14.417  -3.665  1.00 20.00    -0.293 OA
ENDROOT
TORSDOF 0
ENDMDL
MODEL 7
REMARK VINA RESULT:      -4.4      9.810     10.932
REMARK  0 active torsions:
REMARK  status: ('A' for Active; 'I' for Inactive)
ROOT
HETATM    1  C1  UNL     1     -41.620   1.415  -3.690  1.00 20.00     0.012 C 
HETATM    2  C2  UNL     1     -41.871   2.422  -3.086  1.00 20.00    -0.112 C 
HETATM    3  C3  UNL     1     -43.020   6.012  -2.605  1.00 20.00    -0.015 C 
HETATM    4  C4  UNL     1     -42.285   6.443  -1.569  1.00 20.00    -0.020 C 
HETATM    5  C5  UNL     1     -41.199   5.564  -1.039  1.00 20.00     0.156 C 
HETATM    6  C6  UNL     1     -42.883   4.667  -3.253  1.00 20.00     0.045 C 
HETATM    7  C7  UNL     1     -40.906   4.264  -1.760  1.00 20.00     0.101 C 
HETATM    8  C8  UNL     1     -42.178   3.656  -2.346  1.00 20.00     0.075 C 
HETATM    9  C9  UNL     1     -42.474   7.781  -0.926  1.00 20.00     0.052 C 
HETATM   10  O10 UNL     1     -40.519   5.920  -0.078  1.00 20.00    -0.293 OA
ENDROOT
TORSDOF 0
ENDMDL
MODEL 8
REMARK VINA RESULT:      -4.3     11.832     13.042
REMARK  0 active torsions:
REMARK  status: ('A' for Active; 'I' for Inactive)
ROOT
HETATM    1  C1  UNL     1     -34.778  14.781  -7.575  1.00 20.00     0.012 C 
HETATM    2  C2  UNL     1     -34.527  15.065  -6.436  1.00 20.00    -0.112 C 
HETATM    3  C3  UNL     1     -35.010  15.144  -2.668  1.00 20.00    -0.015 C 
HETATM    4  C4  UNL     1     -34.499  16.331  -2.307  1.00 20.00    -0.020 C 
HETATM    5  C5  UNL     1     -34.079  17.288  -3.375  1.00 20.00     0.156 C 
HETATM    6  C6  UNL     1     -35.142  14.659  -4.080  1.00 20.00     0.045 C 
HETATM    7  C7  UNL     1     -34.341  16.920  -4.821  1.00 20.00     0.101 C 
HETATM    8  C8  UNL     1     -34.220  15.414  -5.040  1.00 20.00     0.075 C 
HETATM    9  C9  UNL     1     -34.352  16.767  -0.884  1.00 20.00     0.052 C 
HETATM   10  O10 UNL     1     -33.590  18.378  -3.081  1.00 20.00    -0.293 OA
ENDROOT
TORSDOF 0
ENDMDL
MODEL 9
REMARK VINA RESULT:      -4.3     11.893     12.903
REMARK  0 active torsions:
REMARK  status: ('A' for Active; 'I' for Inactive)
ROOT
HETATM    1  C1  UNL     1     -34.760  14.789  -7.569  1.00 20.00     0.012 C 
HETATM    2  C2  UNL     1     -34.678  15.277  -6.475  1.00 20.00    -0.112 C 
HETATM    3  C3  UNL     1     -33.649  15.517  -2.825  1.00 20.00    -0.015 C 
HETATM    4  C4  UNL     1     -34.648  16.211  -2.259  1.00 20.00    -0.020 C 
HETATM    5  C5  UNL     1     -35.859  16.526  -3.075  1.00 20.00     0.156 C 
HETATM    6  C6  UNL     1     -33.616  15.073  -4.256  1.00 20.00     0.045 C 
HETATM    7  C7  UNL     1     -35.953  15.960  -4.477  1.00 20.00     0.101 C 
HETATM    8  C8  UNL     1     -34.578  15.875  -5.134  1.00 20.00     0.075 C 
HETATM    9  C9  UNL     1     -34.630  16.667  -0.834  1.00 20.00     0.052 C 
HETATM   10  O10 UNL     1     -36.786  17.176  -2.594  1.00 20.00    -0.293 OA
ENDROOT
TORSDOF 0
ENDMDL
