MODEL 1
REMARK VINA RESULT:      -4.8      0.000      0.000
REMARK  1 active torsions:
REMARK  status: ('A' for Active; 'I' for Inactive)
REMARK    1  A    between atoms: C3_3  and  C6_6 
ROOT
HETATM    1  C1  UNL     1     -34.429  13.863  -3.482  1.00 20.00    -0.023 C 
HETATM    2  C2  UNL     1     -34.691  15.172  -3.353  1.00 20.00    -0.071 C 
HETATM    3  C4  UNL     1     -34.412  13.432  -4.912  1.00 20.00     0.033 C 
HETATM    4  C5  UNL     1     -35.134  14.597  -5.603  1.00 20.00     0.005 C 
HETATM    5  C6  UNL     1     -34.879  15.832  -4.701  1.00 20.00     0.043 C 
HETATM    6  C7  UNL     1     -34.753  15.923  -2.069  1.00 20.00     0.044 C 
HETATM    7  C9  UNL     1     -34.753  14.745  -7.071  1.00 20.00     0.011 C 
HETATM    8  C10 UNL     1     -36.038  16.825  -4.766  1.00 20.00     0.029 C 
ENDROOT
BRANCH   5   9
HETATM    9  C3  UNL     1     -33.580  16.535  -5.006  1.00 20.00     0.136 C 
HETATM   10  C8  UNL     1     -33.680  17.890  -5.654  1.00 20.00     0.092 C 
HETATM   11  O11 UNL     1     -32.493  16.027  -4.738  1.00 20.00    -0.297 OA
ENDBRANCH   5   9
TORSDOF 1
ENDMDL
MODEL 2
REMARK VINA RESULT:      -4.6      1.413      3.111
REMARK  1 active torsions:
REMARK  status: ('A' for Active; 'I' for Inactive)
REMARK    1  A    between atoms: C3_3  and  C6_6 
ROOT
HETATM    1  C1  UNL     1     -34.457  13.615  -5.016  1.00 20.00    -0.023 C 
HETATM    2  C2  UNL     1     -34.426  14.771  -5.695  1.00 20.00    -0.071 C 
HETATM    3  C4  UNL     1     -34.422  13.833  -3.538  1.00 20.00     0.033 C 
HETATM    4  C5  UNL     1     -33.926  15.282  -3.442  1.00 20.00     0.005 C 
HETATM    5  C6  UNL     1     -34.378  15.960  -4.761  1.00 20.00     0.043 C 
HETATM    6  C7  UNL     1     -34.476  14.908  -7.177  1.00 20.00     0.044 C 
HETATM    7  C9  UNL     1     -34.351  15.971  -2.151  1.00 20.00     0.011 C 
HETATM    8  C10 UNL     1     -33.413  17.064  -5.186  1.00 20.00     0.029 C 
ENDROOT
BRANCH   5   9
HETATM    9  C3  UNL     1     -35.786  16.501  -4.702  1.00 20.00     0.136 C 
HETATM   10  C8  UNL     1     -35.937  17.997  -4.739  1.00 20.00     0.092 C 
HETATM   11  O11 UNL     1     -36.760  15.755  -4.628  1.00 20.00    -0.297 OA
ENDBRANCH   5   9
TORSDOF 1
ENDMDL
MODEL 3
REMARK VINA RESULT:      -4.5      1.816      3.453
REMARK  1 active torsions:
REMARK  status: ('A' for Active; 'I' for Inactive)
REMARK    1  A    between atoms: C3_3  and  C6_6 
ROOT
HETATM    1  C1  UNL     1     -34.322  13.478  -4.875  1.00 20.00    -0.023 C 
HETATM    2  C2  UNL     1     -35.067  14.401  -5.502  1.00 20.00    -0.071 C 
HETATM    3  C4  UNL     1     -34.065  13.840  -3.449  1.00 20.00     0.033 C 
HETATM    4  C5  UNL     1     -34.405  15.337  -3.435  1.00 20.00     0.005 C 
HETATM    5  C6  UNL     1     -35.439  15.534  -4.573  1.00 20.00     0.043 C 
HETATM    6  C7  UNL     1     -35.525  14.331  -6.918  1.00 20.00     0.044 C 
HETATM    7  C9  UNL     1     -34.816  15.840  -2.057  1.00 20.00     0.011 C 
HETATM    8  C10 UNL     1     -35.335  16.925  -5.194  1.00 20.00     0.029 C 
ENDROOT
BRANCH   5   9
HETATM    9  C3  UNL     1     -36.860  15.269  -4.140  1.00 20.00     0.136 C 
HETATM   10  C8  UNL     1     -37.787  16.454  -4.098  1.00 20.00     0.092 C 
HETATM   11  O11 UNL     1     -37.242  14.140  -3.837  1.00 20.00    -0.297 OA
ENDBRANCH   5   9
TORSDOF 1
ENDMDL
MODEL 4
REMARK VINA RESULT:      -4.5      1.670      2.668
REMARK  1 active torsions:
REMARK  status: ('A' for Active; 'I' for Inactive)
REMARK    1  A    between atoms: C3_3  and  C6_6 
ROOT
HETATM    1  C1  UNL     1     -36.791  15.576  -3.590  1.00 20.00    -0.023 C 
HETATM    2  C2  UNL     1     -35.495  15.641  -3.252  1.00 20.00    -0.071 C 
HETATM    3  C4  UNL     1     -36.981  15.078  -4.985  1.00 20.00     0.033 C 
HETATM    4  C5  UNL     1     -35.580  15.266  -5.584  1.00 20.00     0.005 C 
HETATM    5  C6  UNL     1     -34.605  15.176  -4.382  1.00 20.00     0.043 C 
HETATM    6  C7  UNL     1     -34.964  16.069  -1.927  1.00 20.00     0.044 C 
HETATM    7  C9  UNL     1     -35.301  14.326  -6.750  1.00 20.00     0.011 C 
HETATM    8  C10 UNL     1     -33.359  16.031  -4.603  1.00 20.00     0.029 C 
ENDROOT
BRANCH   5   9
HETATM    9  C3  UNL     1     -34.204  13.761  -4.044  1.00 20.00     0.136 C 
HETATM   10  C8  UNL     1     -32.803  13.558  -3.534  1.00 20.00     0.092 C 
HETATM   11  O11 UNL     1     -34.986  12.821  -4.177  1.00 20.00    -0.297 OA
ENDBRANCH   5   9
TORSDOF 1
ENDMDL
MODEL 5
REMARK VINA RESULT:      -4.4      1.516      2.972
REMARK  1 active torsions:
REMARK  status: ('A' for Active; 'I' for Inactive)
REMARK    1  A    between atoms: C3_3  and  C6_6 
ROOT
HETATM    1  C1  UNL     1     -35.633  16.169  -2.375  1.00 20.00    -0.023 C 
HETATM    2  C2  UNL     1     -36.085  15.353  -3.338  1.00 20.00    -0.071 C 
HETATM    3  C4  UNL     1     -34.140  16.196  -2.318  1.00 20.00     0.033 C 
HETATM    4  C5  UNL     1     -33.769  14.936  -3.112  1.00 20.00     0.005 C 
HETATM    5  C6  UNL     1     -34.946  14.709  -4.096  1.00 20.00     0.043 C 
HETATM    6  C7  UNL     1     -37.516  15.120  -3.678  1.00 20.00     0.044 C 
HETATM    7  C9  UNL     1     -32.378  15.011  -3.730  1.00 20.00     0.011 C 
HETATM    8  C10 UNL     1     -35.144  13.226  -4.403  1.00 20.00     0.029 C 
ENDROOT
BRANCH   5   9
HETATM    9  C3  UNL     1     -34.806  15.487  -5.381  1.00 20.00     0.136 C 
HETATM   10  C8  UNL     1     -34.618  14.684  -6.640  1.00 20.00     0.092 C 
HETATM   11  O11 UNL     1     -34.845  16.716  -5.398  1.00 20.00    -0.297 OA
ENDBRANCH   5   9
TORSDOF 1
ENDMDL
MODEL 6
REMARK VINA RESULT:      -4.4      1.753      2.901
REMARK  1 active torsions:
REMARK  status: ('A' for Active; 'I' for Inactive)
REMARK    1  A    between atoms: C3_3  and  C6_6 
ROOT
HETATM    1  C1  UNL     1     -33.370  16.615  -5.090  1.00 20.00    -0.023 C 
HETATM    2  C2  UNL     1     -33.961  15.903  -4.119  1.00 20.00    -0.071 C 
HETATM    3  C4  UNL     1     -33.843  16.212  -6.448  1.00 20.00     0.033 C 
HETATM    4  C5  UNL     1     -34.488  14.847  -6.167  1.00 20.00     0.005 C 
HETATM    5  C6  UNL     1     -34.946  14.907  -4.687  1.00 20.00     0.043 C 
HETATM    6  C7  UNL     1     -33.735  16.075  -2.657  1.00 20.00     0.044 C 
HETATM    7  C9  UNL     1     -35.557  14.474  -7.188  1.00 20.00     0.011 C 
HETATM    8  C10 UNL     1     -34.906  13.529  -4.030  1.00 20.00     0.029 C 
ENDROOT
BRANCH   5   9
HETATM    9  C3  UNL     1     -36.312  15.523  -4.509  1.00 20.00     0.136 C 
HETATM   10  C8  UNL     1     -37.397  14.623  -3.982  1.00 20.00     0.092 C 
HETATM   11  O11 UNL     1     -36.528  16.702  -4.781  1.00 20.00    -0.297 OA
ENDBRANCH   5   9
TORSDOF 1
ENDMDL
MODEL 7
REMARK VINA RESULT:      -4.4      1.604      3.613
REMARK  1 active torsions:
REMARK  status: ('A' for Active; 'I' for Inactive)
REMARK    1  A    between atoms: C3_3  and  C6_6 
ROOT
HETATM    1  C1  UNL     1     -33.414  16.486  -5.454  1.00 20.00    -0.023 C 
HETATM    2  C2  UNL     1     -34.295  15.540  -5.812  1.00 20.00    -0.071 C 
HETATM    3  C4  UNL     1     -33.494  16.805  -3.998  1.00 20.00     0.033 C 
HETATM    4  C5  UNL     1     -34.860  16.216  -3.618  1.00 20.00     0.005 C 
HETATM    5  C6  UNL     1     -35.105  15.064  -4.627  1.00 20.00     0.043 C 
HETATM    6  C7  UNL     1     -34.455  14.975  -7.180  1.00 20.00     0.044 C 
HETATM    7  C9  UNL     1     -34.960  15.851  -2.142  1.00 20.00     0.011 C 
HETATM    8  C10 UNL     1     -36.593  14.871  -4.909  1.00 20.00     0.029 C 
ENDROOT
BRANCH   5   9
HETATM    9  C3  UNL     1     -34.488  13.755  -4.198  1.00 20.00     0.136 C 
HETATM   10  C8  UNL     1     -33.070  13.807  -3.697  1.00 20.00     0.092 C 
HETATM   11  O11 UNL     1     -35.114  12.698  -4.256  1.00 20.00    -0.297 OA
ENDBRANCH   5   9
TORSDOF 1
ENDMDL
MODEL 8
REMARK VINA RESULT:      -4.4      1.584      2.535
REMARK  1 active torsions:
REMARK  status: ('A' for Active; 'I' for Inactive)
REMARK    1  A    between atoms: C3_3  and  C6_6 
ROOT
HETATM    1  C1  UNL     1     -35.334  13.538  -4.197  1.00 20.00    -0.023 C 
HETATM    2  C2  UNL     1     -34.334  14.265  -3.676  1.00 20.00    -0.071 C 
HETATM    3  C4  UNL     1     -36.621  14.295  -4.225  1.00 20.00     0.033 C 
HETATM    4  C5  UNL     1     -36.339  15.438  -3.240  1.00 20.00     0.005 C 
HETATM    5  C6  UNL     1     -34.804  15.647  -3.282  1.00 20.00     0.043 C 
HETATM    6  C7  UNL     1     -32.921  13.818  -3.530  1.00 20.00     0.044 C 
HETATM    7  C9  UNL     1     -37.195  16.672  -3.501  1.00 20.00     0.011 C 
HETATM    8  C10 UNL     1     -34.267  16.143  -1.941  1.00 20.00     0.029 C 
ENDROOT
BRANCH   5   9
HETATM    9  C3  UNL     1     -34.358  16.571  -4.388  1.00 20.00     0.136 C 
HETATM   10  C8  UNL     1     -33.797  17.904  -3.972  1.00 20.00     0.092 C 
HETATM   11  O11 UNL     1     -34.447  16.250  -5.572  1.00 20.00    -0.297 OA
ENDBRANCH   5   9
TORSDOF 1
ENDMDL
MODEL 9
REMARK VINA RESULT:      -4.3      1.495      3.125
REMARK  1 active torsions:
REMARK  status: ('A' for Active; 'I' for Inactive)
REMARK    1  A    between atoms: C3_3  and  C6_6 
ROOT
HETATM    1  C1  UNL     1     -34.662  15.896  -6.819  1.00 20.00    -0.023 C 
HETATM    2  C2  UNL     1     -34.089  16.456  -5.743  1.00 20.00    -0.071 C 
HETATM    3  C4  UNL     1     -35.148  14.512  -6.538  1.00 20.00     0.033 C 
HETATM    4  C5  UNL     1     -34.389  14.163  -5.251  1.00 20.00     0.005 C 
HETATM    5  C6  UNL     1     -34.116  15.521  -4.554  1.00 20.00     0.043 C 
HETATM    6  C7  UNL     1     -33.528  17.833  -5.676  1.00 20.00     0.044 C 
HETATM    7  C9  UNL     1     -35.097  13.106  -4.412  1.00 20.00     0.011 C 
HETATM    8  C10 UNL     1     -32.823  15.487  -3.743  1.00 20.00     0.029 C 
ENDROOT
BRANCH   5   9
HETATM    9  C3  UNL     1     -35.258  15.985  -3.684  1.00 20.00     0.136 C 
HETATM   10  C8  UNL     1     -35.003  16.035  -2.202  1.00 20.00     0.092 C 
HETATM   11  O11 UNL     1     -36.344  16.307  -4.163  1.00 20.00    -0.297 OA
ENDBRANCH   5   9
TORSDOF 1
ENDMDL
