MODEL 1
REMARK VINA RESULT:      -5.8      0.000      0.000
REMARK  1 active torsions:
REMARK  status: ('A' for Active; 'I' for Inactive)
REMARK    1  A    between atoms: C1_1  and  C6_6 
ROOT
HETATM    1  C2  UNL     1     -33.134   6.598   5.328  1.00 20.00     0.019 C 
HETATM    2  C3  UNL     1     -34.329   5.246   3.551  1.00 20.00     0.019 C 
HETATM    3  C4  UNL     1     -34.217   6.230   6.337  1.00 20.00     0.080 C 
HETATM    4  C5  UNL     1     -35.411   4.877   4.562  1.00 20.00     0.080 C 
HETATM    5  C6  UNL     1     -33.669   6.585   3.893  1.00 20.00     0.072 C 
HETATM    6  C7  UNL     1     -34.879   4.908   5.985  1.00 20.00     0.243 C 
HETATM    7  F9  UNL     1     -35.892   4.665   6.852  1.00 20.00    -0.206 F 
HETATM    8  F10 UNL     1     -33.982   3.901   6.148  1.00 20.00    -0.206 F 
ENDROOT
BRANCH   5   9
HETATM    9  C1  UNL     1     -32.555   6.865   2.929  1.00 20.00     0.223 C 
HETATM   10  O8  UNL     1     -31.745   6.000   2.610  1.00 20.00    -0.279 OA
HETATM   11 CL11 UNL     1     -32.579   8.506   2.362  1.00 20.00    -0.043 Cl
ENDBRANCH   5   9
TORSDOF 1
ENDMDL
MODEL 2
REMARK VINA RESULT:      -5.0     12.481     13.056
REMARK  1 active torsions:
REMARK  status: ('A' for Active; 'I' for Inactive)
REMARK    1  A    between atoms: C1_1  and  C6_6 
ROOT
HETATM    1  C2  UNL     1     -35.378  15.946  -3.166  1.00 20.00     0.019 C 
HETATM    2  C3  UNL     1     -35.295  13.880  -4.628  1.00 20.00     0.019 C 
HETATM    3  C4  UNL     1     -33.932  15.708  -2.746  1.00 20.00     0.080 C 
HETATM    4  C5  UNL     1     -33.847  13.643  -4.208  1.00 20.00     0.080 C 
HETATM    5  C6  UNL     1     -36.078  14.640  -3.554  1.00 20.00     0.072 C 
HETATM    6  C7  UNL     1     -33.163  14.941  -3.809  1.00 20.00     0.243 C 
HETATM    7  F9  UNL     1     -31.913  14.673  -3.357  1.00 20.00    -0.206 F 
HETATM    8  F10 UNL     1     -33.016  15.724  -4.908  1.00 20.00    -0.206 F 
ENDROOT
BRANCH   5   9
HETATM    9  C1  UNL     1     -37.466  14.929  -4.043  1.00 20.00     0.223 C 
HETATM   10  O8  UNL     1     -38.413  14.199  -3.765  1.00 20.00    -0.279 OA
HETATM   11 CL11 UNL     1     -37.532  16.371  -5.007  1.00 20.00    -0.043 Cl
ENDBRANCH   5   9
TORSDOF 1
ENDMDL
MODEL 3
REMARK VINA RESULT:      -4.9     12.293     12.808
REMARK  1 active torsions:
REMARK  status: ('A' for Active; 'I' for Inactive)
REMARK    1  A    between atoms: C1_1  and  C6_6 
ROOT
HETATM    1  C2  UNL     1     -33.413  15.371  -3.135  1.00 20.00     0.019 C 
HETATM    2  C3  UNL     1     -35.928  15.374  -3.424  1.00 20.00     0.019 C 
HETATM    3  C4  UNL     1     -33.338  14.002  -3.804  1.00 20.00     0.080 C 
HETATM    4  C5  UNL     1     -35.852  14.005  -4.094  1.00 20.00     0.080 C 
HETATM    5  C6  UNL     1     -34.766  15.593  -2.452  1.00 20.00     0.072 C 
HETATM    6  C7  UNL     1     -34.502  13.783  -4.755  1.00 20.00     0.243 C 
HETATM    7  F9  UNL     1     -34.446  12.525  -5.257  1.00 20.00    -0.206 F 
HETATM    8  F10 UNL     1     -34.380  14.625  -5.813  1.00 20.00    -0.206 F 
ENDROOT
BRANCH   5   9
HETATM    9  C1  UNL     1     -34.829  16.980  -1.885  1.00 20.00     0.223 C 
HETATM   10  O8  UNL     1     -34.924  17.969  -2.606  1.00 20.00    -0.279 OA
HETATM   11 CL11 UNL     1     -34.754  16.981  -0.150  1.00 20.00    -0.043 Cl
ENDBRANCH   5   9
TORSDOF 1
ENDMDL
MODEL 4
REMARK VINA RESULT:      -4.8     12.894     13.730
REMARK  1 active torsions:
REMARK  status: ('A' for Active; 'I' for Inactive)
REMARK    1  A    between atoms: C1_1  and  C6_6 
ROOT
HETATM    1  C2  UNL     1     -34.526  15.078  -3.099  1.00 20.00     0.019 C 
HETATM    2  C3  UNL     1     -34.094  16.094  -5.378  1.00 20.00     0.019 C 
HETATM    3  C4  UNL     1     -33.864  16.282  -2.437  1.00 20.00     0.080 C 
HETATM    4  C5  UNL     1     -33.433  17.299  -4.714  1.00 20.00     0.080 C 
HETATM    5  C6  UNL     1     -33.980  14.838  -4.510  1.00 20.00     0.072 C 
HETATM    6  C7  UNL     1     -33.966  17.522  -3.308  1.00 20.00     0.243 C 
HETATM    7  F9  UNL     1     -33.288  18.541  -2.725  1.00 20.00    -0.206 F 
HETATM    8  F10 UNL     1     -35.264  17.913  -3.380  1.00 20.00    -0.206 F 
ENDROOT
BRANCH   5   9
HETATM    9  C1  UNL     1     -34.718  13.703  -5.157  1.00 20.00     0.223 C 
HETATM   10  O8  UNL     1     -34.881  12.630  -4.583  1.00 20.00    -0.279 OA
HETATM   11 CL11 UNL     1     -35.277  14.110  -6.750  1.00 20.00    -0.043 Cl
ENDBRANCH   5   9
TORSDOF 1
ENDMDL
MODEL 5
REMARK VINA RESULT:      -4.7      9.973     10.805
REMARK  1 active torsions:
REMARK  status: ('A' for Active; 'I' for Inactive)
REMARK    1  A    between atoms: C1_1  and  C6_6 
ROOT
HETATM    1  C2  UNL     1     -41.413   4.656  -0.608  1.00 20.00     0.019 C 
HETATM    2  C3  UNL     1     -42.528   5.581  -2.684  1.00 20.00     0.019 C 
HETATM    3  C4  UNL     1     -40.786   6.019  -0.336  1.00 20.00     0.080 C 
HETATM    4  C5  UNL     1     -41.902   6.946  -2.411  1.00 20.00     0.080 C 
HETATM    5  C6  UNL     1     -41.685   4.445  -2.101  1.00 20.00     0.072 C 
HETATM    6  C7  UNL     1     -41.619   7.143  -0.931  1.00 20.00     0.243 C 
HETATM    7  F9  UNL     1     -40.981   8.324  -0.745  1.00 20.00    -0.206 F 
HETATM    8  F10 UNL     1     -42.796   7.230  -0.259  1.00 20.00    -0.206 F 
ENDROOT
BRANCH   5   9
HETATM    9  C1  UNL     1     -42.379   3.133  -2.313  1.00 20.00     0.223 C 
HETATM   10  O8  UNL     1     -43.417   2.849  -1.723  1.00 20.00    -0.279 OA
HETATM   11 CL11 UNL     1     -41.543   2.128  -3.456  1.00 20.00    -0.043 Cl
ENDBRANCH   5   9
TORSDOF 1
ENDMDL
MODEL 6
REMARK VINA RESULT:      -4.7      1.688      2.391
REMARK  1 active torsions:
REMARK  status: ('A' for Active; 'I' for Inactive)
REMARK    1  A    between atoms: C1_1  and  C6_6 
ROOT
HETATM    1  C2  UNL     1     -33.333   5.915   2.635  1.00 20.00     0.019 C 
HETATM    2  C3  UNL     1     -33.435   6.731   5.030  1.00 20.00     0.019 C 
HETATM    3  C4  UNL     1     -34.228   4.735   2.999  1.00 20.00     0.080 C 
HETATM    4  C5  UNL     1     -34.332   5.550   5.393  1.00 20.00     0.080 C 
HETATM    5  C6  UNL     1     -32.527   6.406   3.842  1.00 20.00     0.072 C 
HETATM    6  C7  UNL     1     -35.117   5.056   4.189  1.00 20.00     0.243 C 
HETATM    7  F9  UNL     1     -35.827   3.954   4.533  1.00 20.00    -0.206 F 
HETATM    8  F10 UNL     1     -36.022   6.002   3.828  1.00 20.00    -0.206 F 
ENDROOT
BRANCH   5   9
HETATM    9  C1  UNL     1     -31.729   7.618   3.463  1.00 20.00     0.223 C 
HETATM   10  O8  UNL     1     -30.893   8.102   4.220  1.00 20.00    -0.279 OA
HETATM   11 CL11 UNL     1     -32.140   8.204   1.881  1.00 20.00    -0.043 Cl
ENDBRANCH   5   9
TORSDOF 1
ENDMDL
MODEL 7
REMARK VINA RESULT:      -4.5     12.693     13.533
REMARK  1 active torsions:
REMARK  status: ('A' for Active; 'I' for Inactive)
REMARK    1  A    between atoms: C1_1  and  C6_6 
ROOT
HETATM    1  C2  UNL     1     -33.738  17.034  -4.185  1.00 20.00     0.019 C 
HETATM    2  C3  UNL     1     -34.742  15.290  -2.650  1.00 20.00     0.019 C 
HETATM    3  C4  UNL     1     -33.658  16.003  -5.306  1.00 20.00     0.080 C 
HETATM    4  C5  UNL     1     -34.663  14.258  -3.772  1.00 20.00     0.080 C 
HETATM    5  C6  UNL     1     -33.674  16.375  -2.804  1.00 20.00     0.072 C 
HETATM    6  C7  UNL     1     -34.710  14.919  -5.140  1.00 20.00     0.243 C 
HETATM    7  F9  UNL     1     -34.545  13.978  -6.102  1.00 20.00    -0.206 F 
HETATM    8  F10 UNL     1     -35.941  15.457  -5.334  1.00 20.00    -0.206 F 
ENDROOT
BRANCH   5   9
HETATM    9  C1  UNL     1     -33.844  17.414  -1.735  1.00 20.00     0.223 C 
HETATM   10  O8  UNL     1     -33.413  18.555  -1.869  1.00 20.00    -0.279 OA
HETATM   11 CL11 UNL     1     -34.695  16.796  -0.353  1.00 20.00    -0.043 Cl
ENDBRANCH   5   9
TORSDOF 1
ENDMDL
MODEL 8
REMARK VINA RESULT:      -4.5     12.462     13.239
REMARK  1 active torsions:
REMARK  status: ('A' for Active; 'I' for Inactive)
REMARK    1  A    between atoms: C1_1  and  C6_6 
ROOT
HETATM    1  C2  UNL     1     -35.109  15.362  -2.717  1.00 20.00     0.019 C 
HETATM    2  C3  UNL     1     -33.447  16.431  -4.301  1.00 20.00     0.019 C 
HETATM    3  C4  UNL     1     -35.576  14.434  -3.834  1.00 20.00     0.080 C 
HETATM    4  C5  UNL     1     -33.915  15.501  -5.417  1.00 20.00     0.080 C 
HETATM    5  C6  UNL     1     -34.553  16.677  -3.271  1.00 20.00     0.072 C 
HETATM    6  C7  UNL     1     -34.481  14.205  -4.862  1.00 20.00     0.243 C 
HETATM    7  F9  UNL     1     -34.966  13.451  -5.878  1.00 20.00    -0.206 F 
HETATM    8  F10 UNL     1     -33.478  13.487  -4.294  1.00 20.00    -0.206 F 
ENDROOT
BRANCH   5   9
HETATM    9  C1  UNL     1     -34.026  17.522  -2.149  1.00 20.00     0.223 C 
HETATM   10  O8  UNL     1     -33.415  18.565  -2.358  1.00 20.00    -0.279 OA
HETATM   11 CL11 UNL     1     -34.388  16.840  -0.593  1.00 20.00    -0.043 Cl
ENDBRANCH   5   9
TORSDOF 1
ENDMDL
MODEL 9
REMARK VINA RESULT:      -4.5     12.357     13.383
REMARK  1 active torsions:
REMARK  status: ('A' for Active; 'I' for Inactive)
REMARK    1  A    between atoms: C1_1  and  C6_6 
ROOT
HETATM    1  C2  UNL     1     -35.402  13.840  -4.135  1.00 20.00     0.019 C 
HETATM    2  C3  UNL     1     -34.931  16.176  -4.990  1.00 20.00     0.019 C 
HETATM    3  C4  UNL     1     -33.913  13.634  -3.876  1.00 20.00     0.080 C 
HETATM    4  C5  UNL     1     -33.441  15.970  -4.729  1.00 20.00     0.080 C 
HETATM    5  C6  UNL     1     -35.646  14.850  -5.260  1.00 20.00     0.072 C 
HETATM    6  C7  UNL     1     -33.205  14.955  -3.624  1.00 20.00     0.243 C 
HETATM    7  F9  UNL     1     -31.874  14.735  -3.489  1.00 20.00    -0.206 F 
HETATM    8  F10 UNL     1     -33.632  15.473  -2.443  1.00 20.00    -0.206 F 
ENDROOT
BRANCH   5   9
HETATM    9  C1  UNL     1     -37.119  15.088  -5.422  1.00 20.00     0.223 C 
HETATM   10  O8  UNL     1     -37.592  15.507  -6.474  1.00 20.00    -0.279 OA
HETATM   11 CL11 UNL     1     -38.006  14.701  -3.980  1.00 20.00    -0.043 Cl
ENDBRANCH   5   9
TORSDOF 1
ENDMDL
