MODEL 1
REMARK VINA RESULT:      -4.9      0.000      0.000
REMARK  2 active torsions:
REMARK  status: ('A' for Active; 'I' for Inactive)
REMARK    1  A    between atoms: C3_3  and  C6_6 
REMARK    2  A    between atoms: C3_3  and  O10_10 
ROOT
HETATM    1  C1  UNL     1     -34.000   5.970   6.180  1.00 20.00    -0.023 C 
HETATM    2  C2  UNL     1     -34.594   5.084   5.372  1.00 20.00    -0.087 C 
HETATM    3  C4  UNL     1     -33.580   7.202   5.449  1.00 20.00     0.042 C 
HETATM    4  C5  UNL     1     -34.669   5.580   3.962  1.00 20.00     0.048 C 
HETATM    5  C6  UNL     1     -33.773   6.823   3.978  1.00 20.00     0.093 C 
HETATM    6  C7  UNL     1     -35.164   3.768   5.757  1.00 20.00     0.043 C 
ENDROOT
BRANCH   5   7
HETATM    7  C3  UNL     1     -32.443   6.528   3.344  1.00 20.00     0.263 C 
HETATM    8  O9  UNL     1     -32.058   5.404   3.051  1.00 20.00    -0.265 OA
BRANCH   7   9
HETATM    9  O10 UNL     1     -31.758   7.691   3.157  1.00 20.00    -0.326 OA
HETATM   10  C8  UNL     1     -32.066   8.400   1.953  1.00 20.00     0.213 C 
ENDBRANCH   7   9
ENDBRANCH   5   7
TORSDOF 2
ENDMDL
MODEL 2
REMARK VINA RESULT:      -4.5     11.402     12.091
REMARK  2 active torsions:
REMARK  status: ('A' for Active; 'I' for Inactive)
REMARK    1  A    between atoms: C3_3  and  C6_6 
REMARK    2  A    between atoms: C3_3  and  O10_10 
ROOT
HETATM    1  C1  UNL     1     -33.709  17.472  -2.484  1.00 20.00    -0.023 C 
HETATM    2  C2  UNL     1     -34.447  16.746  -1.636  1.00 20.00    -0.087 C 
HETATM    3  C4  UNL     1     -33.692  16.887  -3.857  1.00 20.00     0.042 C 
HETATM    4  C5  UNL     1     -35.047  15.549  -2.306  1.00 20.00     0.048 C 
HETATM    5  C6  UNL     1     -34.333  15.509  -3.662  1.00 20.00     0.093 C 
HETATM    6  C7  UNL     1     -34.713  17.042  -0.206  1.00 20.00     0.043 C 
ENDROOT
BRANCH   5   7
HETATM    7  C3  UNL     1     -33.274  14.444  -3.673  1.00 20.00     0.263 C 
HETATM    8  O9  UNL     1     -32.081  14.661  -3.515  1.00 20.00    -0.265 OA
BRANCH   7   9
HETATM    9  O10 UNL     1     -33.853  13.228  -3.883  1.00 20.00    -0.326 OA
HETATM   10  C8  UNL     1     -34.768  13.163  -4.982  1.00 20.00     0.213 C 
ENDBRANCH   7   9
ENDBRANCH   5   7
TORSDOF 2
ENDMDL
MODEL 3
REMARK VINA RESULT:      -4.3     11.706     12.418
REMARK  2 active torsions:
REMARK  status: ('A' for Active; 'I' for Inactive)
REMARK    1  A    between atoms: C3_3  and  C6_6 
REMARK    2  A    between atoms: C3_3  and  O10_10 
ROOT
HETATM    1  C1  UNL     1     -33.596  15.666  -2.939  1.00 20.00    -0.023 C 
HETATM    2  C2  UNL     1     -34.559  16.223  -2.194  1.00 20.00    -0.087 C 
HETATM    3  C4  UNL     1     -34.082  15.301  -4.303  1.00 20.00     0.042 C 
HETATM    4  C5  UNL     1     -35.853  16.321  -2.940  1.00 20.00     0.048 C 
HETATM    5  C6  UNL     1     -35.600  15.479  -4.196  1.00 20.00     0.093 C 
HETATM    6  C7  UNL     1     -34.429  16.735  -0.806  1.00 20.00     0.043 C 
ENDROOT
BRANCH   5   7
HETATM    7  C3  UNL     1     -36.268  14.139  -4.081  1.00 20.00     0.263 C 
HETATM    8  O9  UNL     1     -35.739  13.080  -4.392  1.00 20.00    -0.265 OA
BRANCH   7   9
HETATM    9  O10 UNL     1     -37.528  14.299  -3.585  1.00 20.00    -0.326 OA
HETATM   10  C8  UNL     1     -38.522  14.679  -4.542  1.00 20.00     0.213 C 
ENDBRANCH   7   9
ENDBRANCH   5   7
TORSDOF 2
ENDMDL
MODEL 4
REMARK VINA RESULT:      -4.2     11.474     12.902
REMARK  2 active torsions:
REMARK  status: ('A' for Active; 'I' for Inactive)
REMARK    1  A    between atoms: C3_3  and  C6_6 
REMARK    2  A    between atoms: C3_3  and  O10_10 
ROOT
HETATM    1  C1  UNL     1     -34.796  16.629  -3.200  1.00 20.00    -0.023 C 
HETATM    2  C2  UNL     1     -33.828  16.880  -4.089  1.00 20.00    -0.087 C 
HETATM    3  C4  UNL     1     -34.746  15.225  -2.697  1.00 20.00     0.042 C 
HETATM    4  C5  UNL     1     -32.967  15.679  -4.328  1.00 20.00     0.048 C 
HETATM    5  C6  UNL     1     -33.736  14.551  -3.631  1.00 20.00     0.093 C 
HETATM    6  C7  UNL     1     -33.555  18.171  -4.770  1.00 20.00     0.043 C 
ENDROOT
BRANCH   5   7
HETATM    7  C3  UNL     1     -34.454  13.698  -4.637  1.00 20.00     0.263 C 
HETATM    8  O9  UNL     1     -35.050  12.666  -4.359  1.00 20.00    -0.265 OA
BRANCH   7   9
HETATM    9  O10 UNL     1     -34.332  14.252  -5.876  1.00 20.00    -0.326 OA
HETATM   10  C8  UNL     1     -35.563  14.513  -6.558  1.00 20.00     0.213 C 
ENDBRANCH   7   9
ENDBRANCH   5   7
TORSDOF 2
ENDMDL
MODEL 5
REMARK VINA RESULT:      -4.1     11.286     12.644
REMARK  2 active torsions:
REMARK  status: ('A' for Active; 'I' for Inactive)
REMARK    1  A    between atoms: C3_3  and  C6_6 
REMARK    2  A    between atoms: C3_3  and  O10_10 
ROOT
HETATM    1  C1  UNL     1     -34.743  13.330  -5.393  1.00 20.00    -0.023 C 
HETATM    2  C2  UNL     1     -34.921  14.484  -6.046  1.00 20.00    -0.087 C 
HETATM    3  C4  UNL     1     -34.842  13.502  -3.913  1.00 20.00     0.042 C 
HETATM    4  C5  UNL     1     -35.167  15.624  -5.107  1.00 20.00     0.048 C 
HETATM    5  C6  UNL     1     -34.844  15.023  -3.733  1.00 20.00     0.093 C 
HETATM    6  C7  UNL     1     -34.922  14.685  -7.517  1.00 20.00     0.043 C 
ENDROOT
BRANCH   5   7
HETATM    7  C3  UNL     1     -33.499  15.487  -3.254  1.00 20.00     0.263 C 
HETATM    8  O9  UNL     1     -32.444  14.934  -3.533  1.00 20.00    -0.265 OA
BRANCH   7   9
HETATM    9  O10 UNL     1     -33.649  16.597  -2.478  1.00 20.00    -0.326 OA
HETATM   10  C8  UNL     1     -34.516  16.446  -1.349  1.00 20.00     0.213 C 
ENDBRANCH   7   9
ENDBRANCH   5   7
TORSDOF 2
ENDMDL
MODEL 6
REMARK VINA RESULT:      -4.1     11.733     12.614
REMARK  2 active torsions:
REMARK  status: ('A' for Active; 'I' for Inactive)
REMARK    1  A    between atoms: C3_3  and  C6_6 
REMARK    2  A    between atoms: C3_3  and  O10_10 
ROOT
HETATM    1  C1  UNL     1     -35.357  13.732  -4.245  1.00 20.00    -0.023 C 
HETATM    2  C2  UNL     1     -36.212  14.638  -3.754  1.00 20.00    -0.087 C 
HETATM    3  C4  UNL     1     -33.968  13.939  -3.739  1.00 20.00     0.042 C 
HETATM    4  C5  UNL     1     -35.532  15.604  -2.836  1.00 20.00     0.048 C 
HETATM    5  C6  UNL     1     -34.043  15.306  -3.050  1.00 20.00     0.093 C 
HETATM    6  C7  UNL     1     -37.672  14.719  -4.014  1.00 20.00     0.043 C 
ENDROOT
BRANCH   5   7
HETATM    7  C3  UNL     1     -33.411  16.355  -3.918  1.00 20.00     0.263 C 
HETATM    8  O9  UNL     1     -32.687  16.109  -4.873  1.00 20.00    -0.265 OA
BRANCH   7   9
HETATM    9  O10 UNL     1     -33.770  17.592  -3.474  1.00 20.00    -0.326 OA
HETATM   10  C8  UNL     1     -33.718  18.637  -4.451  1.00 20.00     0.213 C 
ENDBRANCH   7   9
ENDBRANCH   5   7
TORSDOF 2
ENDMDL
MODEL 7
REMARK VINA RESULT:      -4.1     11.835     13.073
REMARK  2 active torsions:
REMARK  status: ('A' for Active; 'I' for Inactive)
REMARK    1  A    between atoms: C3_3  and  C6_6 
REMARK    2  A    between atoms: C3_3  and  O10_10 
ROOT
HETATM    1  C1  UNL     1     -33.963  16.105  -6.180  1.00 20.00    -0.023 C 
HETATM    2  C2  UNL     1     -34.584  14.922  -6.246  1.00 20.00    -0.087 C 
HETATM    3  C4  UNL     1     -33.172  16.255  -4.922  1.00 20.00     0.042 C 
HETATM    4  C5  UNL     1     -34.310  14.081  -5.038  1.00 20.00     0.048 C 
HETATM    5  C6  UNL     1     -33.623  15.058  -4.078  1.00 20.00     0.093 C 
HETATM    6  C7  UNL     1     -35.429  14.419  -7.359  1.00 20.00     0.043 C 
ENDROOT
BRANCH   5   7
HETATM    7  C3  UNL     1     -34.576  15.512  -3.010  1.00 20.00     0.263 C 
HETATM    8  O9  UNL     1     -35.771  15.249  -3.001  1.00 20.00    -0.265 OA
BRANCH   7   9
HETATM    9  O10 UNL     1     -33.903  16.246  -2.079  1.00 20.00    -0.326 OA
HETATM   10  C8  UNL     1     -34.656  16.608  -0.917  1.00 20.00     0.213 C 
ENDBRANCH   7   9
ENDBRANCH   5   7
TORSDOF 2
ENDMDL
MODEL 8
REMARK VINA RESULT:      -4.1     12.276     13.021
REMARK  2 active torsions:
REMARK  status: ('A' for Active; 'I' for Inactive)
REMARK    1  A    between atoms: C3_3  and  C6_6 
REMARK    2  A    between atoms: C3_3  and  O10_10 
ROOT
HETATM    1  C1  UNL     1     -35.743  15.360  -3.043  1.00 20.00    -0.023 C 
HETATM    2  C2  UNL     1     -34.644  15.804  -2.422  1.00 20.00    -0.087 C 
HETATM    3  C4  UNL     1     -35.419  14.634  -4.307  1.00 20.00     0.042 C 
HETATM    4  C5  UNL     1     -33.398  15.448  -3.172  1.00 20.00     0.048 C 
HETATM    5  C6  UNL     1     -33.930  14.934  -4.514  1.00 20.00     0.093 C 
HETATM    6  C7  UNL     1     -34.584  16.536  -1.131  1.00 20.00     0.043 C 
ENDROOT
BRANCH   5   7
HETATM    7  C3  UNL     1     -33.759  15.972  -5.586  1.00 20.00     0.263 C 
HETATM    8  O9  UNL     1     -34.214  15.871  -6.717  1.00 20.00    -0.265 OA
BRANCH   7   9
HETATM    9  O10 UNL     1     -33.031  17.015  -5.097  1.00 20.00    -0.326 OA
HETATM   10  C8  UNL     1     -33.568  18.316  -5.357  1.00 20.00     0.213 C 
ENDBRANCH   7   9
ENDBRANCH   5   7
TORSDOF 2
ENDMDL
MODEL 9
REMARK VINA RESULT:      -4.0     11.965     13.202
REMARK  2 active torsions:
REMARK  status: ('A' for Active; 'I' for Inactive)
REMARK    1  A    between atoms: C3_3  and  C6_6 
REMARK    2  A    between atoms: C3_3  and  O10_10 
ROOT
HETATM    1  C1  UNL     1     -33.856  15.781  -5.362  1.00 20.00    -0.023 C 
HETATM    2  C2  UNL     1     -34.520  14.926  -6.149  1.00 20.00    -0.087 C 
HETATM    3  C4  UNL     1     -34.017  15.453  -3.914  1.00 20.00     0.042 C 
HETATM    4  C5  UNL     1     -35.239  13.882  -5.353  1.00 20.00     0.048 C 
HETATM    5  C6  UNL     1     -35.126  14.396  -3.914  1.00 20.00     0.093 C 
HETATM    6  C7  UNL     1     -34.560  14.928  -7.633  1.00 20.00     0.043 C 
ENDROOT
BRANCH   5   7
HETATM    7  C3  UNL     1     -36.421  15.009  -3.465  1.00 20.00     0.263 C 
HETATM    8  O9  UNL     1     -36.513  16.112  -2.943  1.00 20.00    -0.265 OA
BRANCH   7   9
HETATM    9  O10 UNL     1     -37.448  14.152  -3.731  1.00 20.00    -0.326 OA
HETATM   10  C8  UNL     1     -38.711  14.769  -4.000  1.00 20.00     0.213 C 
ENDBRANCH   7   9
ENDBRANCH   5   7
TORSDOF 2
ENDMDL
