MODEL 1
REMARK VINA RESULT:      -3.9      0.000      0.000
REMARK  2 active torsions:
REMARK  status: ('A' for Active; 'I' for Inactive)
REMARK    1  A    between atoms: C2_2  and  C5_5 
REMARK    2  A    between atoms: C3_3  and  C6_6 
REMARK       I    between atoms: C3_3  and  N9_9 
ROOT
HETATM    1  C4  UNL     1     -34.046  13.466  -4.623  1.00 20.00     0.024 A 
HETATM    2  C5  UNL     1     -35.292  13.807  -3.852  1.00 20.00     0.021 A 
HETATM    3  C6  UNL     1     -33.978  14.388  -3.461  1.00 20.00     0.086 A 
ENDROOT
BRANCH   3   4
HETATM    4  C3  UNL     1     -33.684  15.842  -3.729  1.00 20.00     0.224 C 
HETATM    5  N9  UNL     1     -34.016  16.745  -2.718  1.00 20.00    -0.360 N 
HETATM    6  C7  UNL     1     -33.787  18.179  -2.847  1.00 20.00     0.152 C 
HETATM    7  C8  UNL     1     -34.619  16.319  -1.458  1.00 20.00     0.152 C 
HETATM    8  O10 UNL     1     -33.175  16.165  -4.806  1.00 20.00    -0.273 OA
ENDBRANCH   3   4
BRANCH   2   9
HETATM    9  C2  UNL     1     -36.324  14.602  -4.501  1.00 20.00    -0.031 C 
HETATM   10  C1  UNL     1     -37.495  14.913  -3.935  1.00 20.00     0.007 C 
ENDBRANCH   2   9
TORSDOF 2
ENDMDL
MODEL 2
REMARK VINA RESULT:      -3.9      2.274      3.680
REMARK  2 active torsions:
REMARK  status: ('A' for Active; 'I' for Inactive)
REMARK    1  A    between atoms: C2_2  and  C5_5 
REMARK    2  A    between atoms: C3_3  and  C6_6 
REMARK       I    between atoms: C3_3  and  N9_9 
ROOT
HETATM    1  C4  UNL     1     -34.350  13.867  -3.528  1.00 20.00     0.024 A 
HETATM    2  C5  UNL     1     -34.210  15.333  -3.223  1.00 20.00     0.021 A 
HETATM    3  C6  UNL     1     -35.014  14.877  -4.390  1.00 20.00     0.086 A 
ENDROOT
BRANCH   3   4
HETATM    4  C3  UNL     1     -36.519  14.961  -4.350  1.00 20.00     0.224 C 
HETATM    5  N9  UNL     1     -37.100  16.082  -4.946  1.00 20.00    -0.360 N 
HETATM    6  C7  UNL     1     -38.542  16.288  -4.978  1.00 20.00     0.152 C 
HETATM    7  C8  UNL     1     -36.304  17.129  -5.582  1.00 20.00     0.152 C 
HETATM    8  O10 UNL     1     -37.158  14.058  -3.804  1.00 20.00    -0.273 OA
ENDBRANCH   3   4
BRANCH   2   9
HETATM    9  C2  UNL     1     -34.830  15.862  -2.018  1.00 20.00    -0.031 C 
HETATM   10  C1  UNL     1     -34.259  16.771  -1.220  1.00 20.00     0.007 C 
ENDBRANCH   2   9
TORSDOF 2
ENDMDL
MODEL 3
REMARK VINA RESULT:      -3.8      2.036      3.098
REMARK  2 active torsions:
REMARK  status: ('A' for Active; 'I' for Inactive)
REMARK    1  A    between atoms: C2_2  and  C5_5 
REMARK    2  A    between atoms: C3_3  and  C6_6 
REMARK       I    between atoms: C3_3  and  N9_9 
ROOT
HETATM    1  C4  UNL     1     -33.829  16.286  -2.410  1.00 20.00     0.024 A 
HETATM    2  C5  UNL     1     -34.803  15.244  -2.889  1.00 20.00     0.021 A 
HETATM    3  C6  UNL     1     -34.744  16.581  -3.542  1.00 20.00     0.086 A 
ENDROOT
BRANCH   3   4
HETATM    4  C3  UNL     1     -34.142  16.724  -4.917  1.00 20.00     0.224 C 
HETATM    5  N9  UNL     1     -35.032  16.738  -5.992  1.00 20.00    -0.360 N 
HETATM    6  C7  UNL     1     -34.585  16.869  -7.373  1.00 20.00     0.152 C 
HETATM    7  C8  UNL     1     -36.477  16.621  -5.811  1.00 20.00     0.152 C 
HETATM    8  O10 UNL     1     -32.917  16.819  -5.032  1.00 20.00    -0.273 OA
ENDBRANCH   3   4
BRANCH   2   9
HETATM    9  C2  UNL     1     -34.289  14.046  -3.535  1.00 20.00    -0.031 C 
HETATM   10  C1  UNL     1     -35.020  13.247  -4.319  1.00 20.00     0.007 C 
ENDBRANCH   2   9
TORSDOF 2
ENDMDL
MODEL 4
REMARK VINA RESULT:      -3.8      1.983      2.856
REMARK  2 active torsions:
REMARK  status: ('A' for Active; 'I' for Inactive)
REMARK    1  A    between atoms: C2_2  and  C5_5 
REMARK    2  A    between atoms: C3_3  and  C6_6 
REMARK       I    between atoms: C3_3  and  N9_9 
ROOT
HETATM    1  C4  UNL     1     -33.656  13.637  -3.991  1.00 20.00     0.024 A 
HETATM    2  C5  UNL     1     -34.583  13.722  -5.173  1.00 20.00     0.021 A 
HETATM    3  C6  UNL     1     -35.096  13.941  -3.793  1.00 20.00     0.086 A 
ENDROOT
BRANCH   3   4
HETATM    4  C3  UNL     1     -35.469  15.330  -3.337  1.00 20.00     0.224 C 
HETATM    5  N9  UNL     1     -36.813  15.686  -3.450  1.00 20.00    -0.360 N 
HETATM    6  C7  UNL     1     -37.309  16.996  -3.047  1.00 20.00     0.152 C 
HETATM    7  C8  UNL     1     -37.822  14.773  -3.981  1.00 20.00     0.152 C 
HETATM    8  O10 UNL     1     -34.590  16.074  -2.895  1.00 20.00    -0.273 OA
ENDBRANCH   3   4
BRANCH   2   9
HETATM    9  C2  UNL     1     -34.417  14.817  -6.118  1.00 20.00    -0.031 C 
HETATM   10  C1  UNL     1     -34.805  14.766  -7.397  1.00 20.00     0.007 C 
ENDBRANCH   2   9
TORSDOF 2
ENDMDL
MODEL 5
REMARK VINA RESULT:      -3.7      2.152      3.167
REMARK  2 active torsions:
REMARK  status: ('A' for Active; 'I' for Inactive)
REMARK    1  A    between atoms: C2_2  and  C5_5 
REMARK    2  A    between atoms: C3_3  and  C6_6 
REMARK       I    between atoms: C3_3  and  N9_9 
ROOT
HETATM    1  C4  UNL     1     -33.794  13.954  -3.675  1.00 20.00     0.024 A 
HETATM    2  C5  UNL     1     -33.580  15.303  -3.043  1.00 20.00     0.021 A 
HETATM    3  C6  UNL     1     -33.666  15.166  -4.524  1.00 20.00     0.086 A 
ENDROOT
BRANCH   3   4
HETATM    4  C3  UNL     1     -34.893  15.647  -5.257  1.00 20.00     0.224 C 
HETATM    5  N9  UNL     1     -34.842  16.940  -5.780  1.00 20.00    -0.360 N 
HETATM    6  C7  UNL     1     -35.957  17.530  -6.511  1.00 20.00     0.152 C 
HETATM    7  C8  UNL     1     -33.668  17.797  -5.634  1.00 20.00     0.152 C 
HETATM    8  O10 UNL     1     -35.866  14.897  -5.360  1.00 20.00    -0.273 OA
ENDBRANCH   3   4
BRANCH   2   9
HETATM    9  C2  UNL     1     -34.656  15.890  -2.259  1.00 20.00    -0.031 C 
HETATM   10  C1  UNL     1     -34.464  16.638  -1.167  1.00 20.00     0.007 C 
ENDBRANCH   2   9
TORSDOF 2
ENDMDL
MODEL 6
REMARK VINA RESULT:      -3.7      1.402      1.429
REMARK  2 active torsions:
REMARK  status: ('A' for Active; 'I' for Inactive)
REMARK    1  A    between atoms: C2_2  and  C5_5 
REMARK    2  A    between atoms: C3_3  and  C6_6 
REMARK       I    between atoms: C3_3  and  N9_9 
ROOT
HETATM    1  C4  UNL     1     -33.520  13.506  -3.809  1.00 20.00     0.024 A 
HETATM    2  C5  UNL     1     -34.891  13.827  -4.337  1.00 20.00     0.021 A 
HETATM    3  C6  UNL     1     -34.194  14.770  -3.419  1.00 20.00     0.086 A 
ENDROOT
BRANCH   3   4
HETATM    4  C3  UNL     1     -33.631  16.064  -3.950  1.00 20.00     0.224 C 
HETATM    5  N9  UNL     1     -34.379  17.218  -3.709  1.00 20.00    -0.360 N 
HETATM    6  C7  UNL     1     -33.951  18.534  -4.167  1.00 20.00     0.152 C 
HETATM    7  C8  UNL     1     -35.645  17.191  -2.982  1.00 20.00     0.152 C 
HETATM    8  O10 UNL     1     -32.559  16.049  -4.560  1.00 20.00    -0.273 OA
ENDBRANCH   3   4
BRANCH   2   9
HETATM    9  C2  UNL     1     -35.049  14.108  -5.756  1.00 20.00    -0.031 C 
HETATM   10  C1  UNL     1     -36.056  14.822  -6.269  1.00 20.00     0.007 C 
ENDBRANCH   2   9
TORSDOF 2
ENDMDL
MODEL 7
REMARK VINA RESULT:      -3.7      2.056      3.899
REMARK  2 active torsions:
REMARK  status: ('A' for Active; 'I' for Inactive)
REMARK    1  A    between atoms: C2_2  and  C5_5 
REMARK    2  A    between atoms: C3_3  and  C6_6 
REMARK       I    between atoms: C3_3  and  N9_9 
ROOT
HETATM    1  C4  UNL     1     -34.349  16.711  -1.488  1.00 20.00     0.024 A 
HETATM    2  C5  UNL     1     -33.641  16.223  -2.721  1.00 20.00     0.021 A 
HETATM    3  C6  UNL     1     -34.917  15.593  -2.282  1.00 20.00     0.086 A 
ENDROOT
BRANCH   3   4
HETATM    4  C3  UNL     1     -36.189  15.846  -3.052  1.00 20.00     0.224 C 
HETATM    5  N9  UNL     1     -36.532  14.905  -4.023  1.00 20.00    -0.360 N 
HETATM    6  C7  UNL     1     -37.734  15.028  -4.838  1.00 20.00     0.152 C 
HETATM    7  C8  UNL     1     -35.711  13.727  -4.293  1.00 20.00     0.152 C 
HETATM    8  O10 UNL     1     -36.856  16.852  -2.797  1.00 20.00    -0.273 OA
ENDBRANCH   3   4
BRANCH   2   9
HETATM    9  C2  UNL     1     -33.571  17.096  -3.884  1.00 20.00    -0.031 C 
HETATM   10  C1  UNL     1     -33.284  16.673  -5.120  1.00 20.00     0.007 C 
ENDBRANCH   2   9
TORSDOF 2
ENDMDL
MODEL 8
REMARK VINA RESULT:      -3.6      2.386      4.487
REMARK  2 active torsions:
REMARK  status: ('A' for Active; 'I' for Inactive)
REMARK    1  A    between atoms: C2_2  and  C5_5 
REMARK    2  A    between atoms: C3_3  and  C6_6 
REMARK       I    between atoms: C3_3  and  N9_9 
ROOT
HETATM    1  C4  UNL     1     -35.294  17.428  -0.697  1.00 20.00     0.024 A 
HETATM    2  C5  UNL     1     -33.798  17.385  -0.547  1.00 20.00     0.021 A 
HETATM    3  C6  UNL     1     -34.467  16.663  -1.664  1.00 20.00     0.086 A 
ENDROOT
BRANCH   3   4
HETATM    4  C3  UNL     1     -34.361  17.187  -3.074  1.00 20.00     0.224 C 
HETATM    5  N9  UNL     1     -33.596  16.434  -3.966  1.00 20.00    -0.360 N 
HETATM    6  C7  UNL     1     -33.410  16.827  -5.357  1.00 20.00     0.152 C 
HETATM    7  C8  UNL     1     -32.925  15.199  -3.570  1.00 20.00     0.152 C 
HETATM    8  O10 UNL     1     -34.940  18.235  -3.371  1.00 20.00    -0.273 OA
ENDBRANCH   3   4
BRANCH   2   9
HETATM    9  C2  UNL     1     -33.034  18.605  -0.764  1.00 20.00    -0.031 C 
HETATM   10  C1  UNL     1     -32.105  19.067   0.079  1.00 20.00     0.007 C 
ENDBRANCH   2   9
TORSDOF 2
ENDMDL
MODEL 9
REMARK VINA RESULT:      -3.6      1.759      2.046
REMARK  2 active torsions:
REMARK  status: ('A' for Active; 'I' for Inactive)
REMARK    1  A    between atoms: C2_2  and  C5_5 
REMARK    2  A    between atoms: C3_3  and  C6_6 
REMARK       I    between atoms: C3_3  and  N9_9 
ROOT
HETATM    1  C4  UNL     1     -34.531  13.079  -4.895  1.00 20.00     0.024 A 
HETATM    2  C5  UNL     1     -35.196  14.217  -5.619  1.00 20.00     0.021 A 
HETATM    3  C6  UNL     1     -35.083  14.228  -4.134  1.00 20.00     0.086 A 
ENDROOT
BRANCH   3   4
HETATM    4  C3  UNL     1     -34.110  15.160  -3.457  1.00 20.00     0.224 C 
HETATM    5  N9  UNL     1     -34.646  16.311  -2.876  1.00 20.00    -0.360 N 
HETATM    6  C7  UNL     1     -33.818  17.296  -2.191  1.00 20.00     0.152 C 
HETATM    7  C8  UNL     1     -36.074  16.612  -2.912  1.00 20.00     0.152 C 
HETATM    8  O10 UNL     1     -32.910  14.874  -3.447  1.00 20.00    -0.273 OA
ENDBRANCH   3   4
BRANCH   2   9
HETATM    9  C2  UNL     1     -34.385  15.084  -6.461  1.00 20.00    -0.031 C 
HETATM   10  C1  UNL     1     -34.806  16.253  -6.955  1.00 20.00     0.007 C 
ENDBRANCH   2   9
TORSDOF 2
ENDMDL
