MODEL 1
REMARK VINA RESULT:      -5.4      0.000      0.000
REMARK  1 active torsions:
REMARK  status: ('A' for Active; 'I' for Inactive)
REMARK    1  A    between atoms: C2_2  and  C9_9 
ROOT
HETATM    1  C1  UNL     1     -34.529  13.708  -4.375  1.00 20.00     0.144 C 
HETATM    2  C3  UNL     1     -33.188  13.886  -3.694  1.00 20.00     0.084 C 
HETATM    3  C4  UNL     1     -35.227  15.788  -2.478  1.00 20.00     0.002 C 
HETATM    4  C5  UNL     1     -33.732  16.122  -2.575  1.00 20.00     0.005 C 
HETATM    5  C6  UNL     1     -35.921  15.704  -3.846  1.00 20.00     0.027 C 
HETATM    6  C7  UNL     1     -33.721  15.787  -5.050  1.00 20.00     0.031 C 
HETATM    7  C8  UNL     1     -33.019  15.414  -3.743  1.00 20.00    -0.006 C 
HETATM    8  C9  UNL     1     -35.046  15.031  -4.914  1.00 20.00     0.097 C 
HETATM    9  O10 UNL     1     -35.116  12.638  -4.461  1.00 20.00    -0.297 OA
ENDROOT
BRANCH   8  10
HETATM   10  C2  UNL     1     -35.743  14.938  -6.233  1.00 20.00     0.234 C 
HETATM   11  O11 UNL     1     -36.966  14.994  -6.322  1.00 20.00    -0.279 OA
HETATM   12 CL12 UNL     1     -34.628  14.745  -7.551  1.00 20.00    -0.043 Cl
ENDBRANCH   8  10
TORSDOF 1
ENDMDL
MODEL 2
REMARK VINA RESULT:      -5.1      1.351      2.208
REMARK  1 active torsions:
REMARK  status: ('A' for Active; 'I' for Inactive)
REMARK    1  A    between atoms: C2_2  and  C9_9 
ROOT
HETATM    1  C1  UNL     1     -35.709  15.134  -3.320  1.00 20.00     0.144 C 
HETATM    2  C3  UNL     1     -35.028  15.782  -2.133  1.00 20.00     0.084 C 
HETATM    3  C4  UNL     1     -34.801  17.590  -4.568  1.00 20.00     0.002 C 
HETATM    4  C5  UNL     1     -33.730  17.535  -3.470  1.00 20.00     0.005 C 
HETATM    5  C6  UNL     1     -34.909  16.288  -5.377  1.00 20.00     0.027 C 
HETATM    6  C7  UNL     1     -33.422  15.073  -3.763  1.00 20.00     0.031 C 
HETATM    7  C8  UNL     1     -33.671  16.181  -2.737  1.00 20.00    -0.006 C 
HETATM    8  C9  UNL     1     -34.761  15.033  -4.504  1.00 20.00     0.097 C 
HETATM    9  O10 UNL     1     -36.873  14.759  -3.320  1.00 20.00    -0.297 OA
ENDROOT
BRANCH   8  10
HETATM   10  C2  UNL     1     -34.891  13.776  -5.302  1.00 20.00     0.234 C 
HETATM   11  O11 UNL     1     -34.737  12.670  -4.793  1.00 20.00    -0.279 OA
HETATM   12 CL12 UNL     1     -35.270  14.094  -6.967  1.00 20.00    -0.043 Cl
ENDBRANCH   8  10
TORSDOF 1
ENDMDL
MODEL 3
REMARK VINA RESULT:      -5.1      2.820      3.721
REMARK  1 active torsions:
REMARK  status: ('A' for Active; 'I' for Inactive)
REMARK    1  A    between atoms: C2_2  and  C9_9 
ROOT
HETATM    1  C1  UNL     1     -33.273  14.649  -3.784  1.00 20.00     0.144 C 
HETATM    2  C3  UNL     1     -33.957  13.348  -4.148  1.00 20.00     0.084 C 
HETATM    3  C4  UNL     1     -34.310  15.365  -6.397  1.00 20.00     0.002 C 
HETATM    4  C5  UNL     1     -35.356  14.288  -6.073  1.00 20.00     0.005 C 
HETATM    5  C6  UNL     1     -34.164  16.421  -5.291  1.00 20.00     0.027 C 
HETATM    6  C7  UNL     1     -35.565  15.068  -3.709  1.00 20.00     0.031 C 
HETATM    7  C8  UNL     1     -35.341  13.843  -4.598  1.00 20.00    -0.006 C 
HETATM    8  C9  UNL     1     -34.240  15.818  -3.881  1.00 20.00     0.097 C 
HETATM    9  O10 UNL     1     -32.095  14.738  -3.470  1.00 20.00    -0.297 OA
ENDROOT
BRANCH   8  10
HETATM   10  C2  UNL     1     -34.074  16.855  -2.817  1.00 20.00     0.234 C 
HETATM   11  O11 UNL     1     -33.600  17.960  -3.062  1.00 20.00    -0.279 OA
HETATM   12 CL12 UNL     1     -34.618  16.294  -1.265  1.00 20.00    -0.043 Cl
ENDBRANCH   8  10
TORSDOF 1
ENDMDL
MODEL 4
REMARK VINA RESULT:      -5.1      2.120      3.031
REMARK  1 active torsions:
REMARK  status: ('A' for Active; 'I' for Inactive)
REMARK    1  A    between atoms: C2_2  and  C9_9 
ROOT
HETATM    1  C1  UNL     1     -35.216  15.881  -4.968  1.00 20.00     0.144 C 
HETATM    2  C3  UNL     1     -33.819  16.353  -4.622  1.00 20.00     0.084 C 
HETATM    3  C4  UNL     1     -33.944  13.316  -4.502  1.00 20.00     0.002 C 
HETATM    4  C5  UNL     1     -33.016  14.147  -3.604  1.00 20.00     0.005 C 
HETATM    5  C6  UNL     1     -35.434  13.524  -4.192  1.00 20.00     0.027 C 
HETATM    6  C7  UNL     1     -34.928  15.470  -2.692  1.00 20.00     0.031 C 
HETATM    7  C8  UNL     1     -33.541  15.569  -3.329  1.00 20.00    -0.006 C 
HETATM    8  C9  UNL     1     -35.775  14.987  -3.873  1.00 20.00     0.097 C 
HETATM    9  O10 UNL     1     -35.801  16.174  -6.001  1.00 20.00    -0.297 OA
ENDROOT
BRANCH   8  10
HETATM   10  C2  UNL     1     -37.232  15.176  -3.597  1.00 20.00     0.234 C 
HETATM   11  O11 UNL     1     -38.033  14.251  -3.696  1.00 20.00    -0.279 OA
HETATM   12 CL12 UNL     1     -37.605  16.811  -3.140  1.00 20.00    -0.043 Cl
ENDBRANCH   8  10
TORSDOF 1
ENDMDL
MODEL 5
REMARK VINA RESULT:      -4.8      1.916      3.405
REMARK  1 active torsions:
REMARK  status: ('A' for Active; 'I' for Inactive)
REMARK    1  A    between atoms: C2_2  and  C9_9 
ROOT
HETATM    1  C1  UNL     1     -35.791  15.591  -4.766  1.00 20.00     0.144 C 
HETATM    2  C3  UNL     1     -35.573  17.089  -4.829  1.00 20.00     0.084 C 
HETATM    3  C4  UNL     1     -35.270  15.882  -7.605  1.00 20.00     0.002 C 
HETATM    4  C5  UNL     1     -34.490  17.122  -7.147  1.00 20.00     0.005 C 
HETATM    5  C6  UNL     1     -34.868  14.601  -6.857  1.00 20.00     0.027 C 
HETATM    6  C7  UNL     1     -33.521  15.907  -5.191  1.00 20.00     0.031 C 
HETATM    7  C8  UNL     1     -34.260  17.175  -5.625  1.00 20.00    -0.006 C 
HETATM    8  C9  UNL     1     -34.609  14.844  -5.362  1.00 20.00     0.097 C 
HETATM    9  O10 UNL     1     -36.794  15.065  -4.307  1.00 20.00    -0.297 OA
ENDROOT
BRANCH   8  10
HETATM   10  C2  UNL     1     -34.242  13.585  -4.645  1.00 20.00     0.234 C 
HETATM   11  O11 UNL     1     -34.855  12.537  -4.826  1.00 20.00    -0.279 OA
HETATM   12 CL12 UNL     1     -32.892  13.811  -3.575  1.00 20.00    -0.043 Cl
ENDBRANCH   8  10
TORSDOF 1
ENDMDL
MODEL 6
REMARK VINA RESULT:      -4.7      2.204      3.804
REMARK  1 active torsions:
REMARK  status: ('A' for Active; 'I' for Inactive)
REMARK    1  A    between atoms: C2_2  and  C9_9 
ROOT
HETATM    1  C1  UNL     1     -36.699  14.891  -4.519  1.00 20.00     0.144 C 
HETATM    2  C3  UNL     1     -37.288  16.065  -5.273  1.00 20.00     0.084 C 
HETATM    3  C4  UNL     1     -35.543  14.410  -7.135  1.00 20.00     0.002 C 
HETATM    4  C5  UNL     1     -35.717  15.927  -7.287  1.00 20.00     0.005 C 
HETATM    5  C6  UNL     1     -34.792  14.009  -5.856  1.00 20.00     0.027 C 
HETATM    6  C7  UNL     1     -34.931  16.347  -4.953  1.00 20.00     0.031 C 
HETATM    7  C8  UNL     1     -36.042  16.644  -5.963  1.00 20.00    -0.006 C 
HETATM    8  C9  UNL     1     -35.185  14.868  -4.644  1.00 20.00     0.097 C 
HETATM    9  O10 UNL     1     -37.364  14.069  -3.905  1.00 20.00    -0.297 OA
ENDROOT
BRANCH   8  10
HETATM   10  C2  UNL     1     -34.462  14.452  -3.404  1.00 20.00     0.234 C 
HETATM   11  O11 UNL     1     -33.949  13.342  -3.298  1.00 20.00    -0.279 OA
HETATM   12 CL12 UNL     1     -34.457  15.703  -2.198  1.00 20.00    -0.043 Cl
ENDBRANCH   8  10
TORSDOF 1
ENDMDL
MODEL 7
REMARK VINA RESULT:      -4.7      2.338      3.770
REMARK  1 active torsions:
REMARK  status: ('A' for Active; 'I' for Inactive)
REMARK    1  A    between atoms: C2_2  and  C9_9 
ROOT
HETATM    1  C1  UNL     1     -34.032  15.741  -5.648  1.00 20.00     0.144 C 
HETATM    2  C3  UNL     1     -34.194  15.397  -7.114  1.00 20.00     0.084 C 
HETATM    3  C4  UNL     1     -36.889  16.159  -5.926  1.00 20.00     0.002 C 
HETATM    4  C5  UNL     1     -36.740  15.143  -7.067  1.00 20.00     0.005 C 
HETATM    5  C6  UNL     1     -36.290  15.672  -4.598  1.00 20.00     0.027 C 
HETATM    6  C7  UNL     1     -35.189  13.719  -5.724  1.00 20.00     0.031 C 
HETATM    7  C8  UNL     1     -35.380  14.419  -7.070  1.00 20.00    -0.006 C 
HETATM    8  C9  UNL     1     -34.969  14.910  -4.787  1.00 20.00     0.097 C 
HETATM    9  O10 UNL     1     -33.257  16.587  -5.225  1.00 20.00    -0.297 OA
ENDROOT
BRANCH   8  10
HETATM   10  C2  UNL     1     -34.388  14.463  -3.484  1.00 20.00     0.234 C 
HETATM   11  O11 UNL     1     -33.872  13.357  -3.354  1.00 20.00    -0.279 OA
HETATM   12 CL12 UNL     1     -34.545  15.673  -2.248  1.00 20.00    -0.043 Cl
ENDBRANCH   8  10
TORSDOF 1
ENDMDL
MODEL 8
REMARK VINA RESULT:      -4.7      1.956      3.229
REMARK  1 active torsions:
REMARK  status: ('A' for Active; 'I' for Inactive)
REMARK    1  A    between atoms: C2_2  and  C9_9 
ROOT
HETATM    1  C1  UNL     1     -34.912  15.920  -4.941  1.00 20.00     0.144 C 
HETATM    2  C3  UNL     1     -36.159  16.756  -5.140  1.00 20.00     0.084 C 
HETATM    3  C4  UNL     1     -35.126  17.100  -2.300  1.00 20.00     0.002 C 
HETATM    4  C5  UNL     1     -36.616  17.182  -2.659  1.00 20.00     0.005 C 
HETATM    5  C6  UNL     1     -34.531  15.696  -2.490  1.00 20.00     0.027 C 
HETATM    6  C7  UNL     1     -36.591  14.904  -3.684  1.00 20.00     0.031 C 
HETATM    7  C8  UNL     1     -36.992  16.363  -3.909  1.00 20.00    -0.006 C 
HETATM    8  C9  UNL     1     -35.064  14.992  -3.747  1.00 20.00     0.097 C 
HETATM    9  O10 UNL     1     -33.916  16.000  -5.645  1.00 20.00    -0.297 OA
ENDROOT
BRANCH   8  10
HETATM   10  C2  UNL     1     -34.459  13.637  -3.929  1.00 20.00     0.234 C 
HETATM   11  O11 UNL     1     -35.119  12.686  -4.337  1.00 20.00    -0.279 OA
HETATM   12 CL12 UNL     1     -32.776  13.608  -3.499  1.00 20.00    -0.043 Cl
ENDBRANCH   8  10
TORSDOF 1
ENDMDL
MODEL 9
REMARK VINA RESULT:      -4.7      1.659      2.659
REMARK  1 active torsions:
REMARK  status: ('A' for Active; 'I' for Inactive)
REMARK    1  A    between atoms: C2_2  and  C9_9 
ROOT
HETATM    1  C1  UNL     1     -33.703  16.275  -4.649  1.00 20.00     0.144 C 
HETATM    2  C3  UNL     1     -34.300  17.660  -4.515  1.00 20.00     0.084 C 
HETATM    3  C4  UNL     1     -34.742  16.089  -1.948  1.00 20.00     0.002 C 
HETATM    4  C5  UNL     1     -35.724  17.157  -2.449  1.00 20.00     0.005 C 
HETATM    5  C6  UNL     1     -34.677  14.850  -2.854  1.00 20.00     0.027 C 
HETATM    6  C7  UNL     1     -36.017  15.995  -4.641  1.00 20.00     0.031 C 
HETATM    7  C8  UNL     1     -35.705  17.338  -3.979  1.00 20.00    -0.006 C 
HETATM    8  C9  UNL     1     -34.738  15.204  -4.348  1.00 20.00     0.097 C 
HETATM    9  O10 UNL     1     -32.537  16.059  -4.948  1.00 20.00    -0.297 OA
ENDROOT
BRANCH   8  10
HETATM   10  C2  UNL     1     -34.652  13.990  -5.216  1.00 20.00     0.234 C 
HETATM   11  O11 UNL     1     -34.472  12.871  -4.744  1.00 20.00    -0.279 OA
HETATM   12 CL12 UNL     1     -34.831  14.376  -6.900  1.00 20.00    -0.043 Cl
ENDBRANCH   8  10
TORSDOF 1
ENDMDL
