MODEL 1
REMARK VINA RESULT:      -4.9      0.000      0.000
REMARK  1 active torsions:
REMARK  status: ('A' for Active; 'I' for Inactive)
REMARK    1  A    between atoms: C9_9  and  O10_10 
ROOT
HETATM    1  C1  UNL     1     -33.636  18.216  -5.834  1.00 20.00     0.012 C 
HETATM    2  C2  UNL     1     -33.500  17.146  -5.308  1.00 20.00    -0.112 C 
HETATM    3  C3  UNL     1     -36.005  15.232  -3.514  1.00 20.00     0.007 C 
HETATM    4  C4  UNL     1     -35.784  15.226  -5.033  1.00 20.00     0.009 C 
HETATM    5  C5  UNL     1     -33.612  15.863  -3.148  1.00 20.00     0.024 C 
HETATM    6  C6  UNL     1     -33.334  15.838  -4.666  1.00 20.00     0.071 C 
HETATM    7  C7  UNL     1     -34.652  14.738  -2.970  1.00 20.00     0.016 C 
HETATM    8  C8  UNL     1     -34.319  14.757  -5.171  1.00 20.00     0.030 C 
HETATM    9  C9  UNL     1     -34.205  13.732  -4.034  1.00 20.00     0.127 C 
ENDROOT
BRANCH   9  10
HETATM   10  O10 UNL     1     -35.088  12.638  -4.164  1.00 20.00    -0.395 OA
HETATM   11  H22 UNL     1     -35.156  12.431  -5.113  1.00 20.00     0.210 HD
ENDBRANCH   9  10
TORSDOF 1
ENDMDL
MODEL 2
REMARK VINA RESULT:      -4.8      1.351      2.697
REMARK  1 active torsions:
REMARK  status: ('A' for Active; 'I' for Inactive)
REMARK    1  A    between atoms: C9_9  and  O10_10 
ROOT
HETATM    1  C1  UNL     1     -33.763  17.386  -1.324  1.00 20.00     0.012 C 
HETATM    2  C2  UNL     1     -34.381  16.509  -1.860  1.00 20.00    -0.112 C 
HETATM    3  C3  UNL     1     -34.116  15.405  -5.305  1.00 20.00     0.007 C 
HETATM    4  C4  UNL     1     -33.232  14.938  -4.139  1.00 20.00     0.009 C 
HETATM    5  C5  UNL     1     -35.976  15.925  -3.715  1.00 20.00     0.024 C 
HETATM    6  C6  UNL     1     -35.137  15.436  -2.514  1.00 20.00     0.071 C 
HETATM    7  C7  UNL     1     -35.528  14.986  -4.853  1.00 20.00     0.016 C 
HETATM    8  C8  UNL     1     -34.253  14.335  -3.148  1.00 20.00     0.030 C 
HETATM    9  C9  UNL     1     -35.267  13.681  -4.095  1.00 20.00     0.127 C 
ENDROOT
BRANCH   9  10
HETATM   10  O10 UNL     1     -34.716  12.670  -4.911  1.00 20.00    -0.395 OA
HETATM   11  H22 UNL     1     -33.822  12.959  -5.167  1.00 20.00     0.210 HD
ENDBRANCH   9  10
TORSDOF 1
ENDMDL
MODEL 3
REMARK VINA RESULT:      -4.7      1.760      2.573
REMARK  1 active torsions:
REMARK  status: ('A' for Active; 'I' for Inactive)
REMARK    1  A    between atoms: C9_9  and  O10_10 
ROOT
HETATM    1  C1  UNL     1     -34.520  16.508  -1.164  1.00 20.00     0.012 C 
HETATM    2  C2  UNL     1     -34.213  16.164  -2.272  1.00 20.00    -0.112 C 
HETATM    3  C3  UNL     1     -35.525  13.358  -4.159  1.00 20.00     0.007 C 
HETATM    4  C4  UNL     1     -36.149  14.759  -4.077  1.00 20.00     0.009 C 
HETATM    5  C5  UNL     1     -33.262  14.315  -3.686  1.00 20.00     0.024 C 
HETATM    6  C6  UNL     1     -33.839  15.746  -3.626  1.00 20.00     0.071 C 
HETATM    7  C7  UNL     1     -34.136  13.637  -4.762  1.00 20.00     0.016 C 
HETATM    8  C8  UNL     1     -35.026  15.673  -4.616  1.00 20.00     0.030 C 
HETATM    9  C9  UNL     1     -34.409  14.801  -5.719  1.00 20.00     0.127 C 
ENDROOT
BRANCH   9  10
HETATM   10  O10 UNL     1     -35.311  14.466  -6.751  1.00 20.00    -0.395 OA
HETATM   11  H22 UNL     1     -36.211  14.552  -6.390  1.00 20.00     0.210 HD
ENDBRANCH   9  10
TORSDOF 1
ENDMDL
MODEL 4
REMARK VINA RESULT:      -4.6      1.761      3.060
REMARK  1 active torsions:
REMARK  status: ('A' for Active; 'I' for Inactive)
REMARK    1  A    between atoms: C9_9  and  O10_10 
ROOT
HETATM    1  C1  UNL     1     -34.431  17.021  -0.665  1.00 20.00     0.012 C 
HETATM    2  C2  UNL     1     -34.460  16.280  -1.609  1.00 20.00    -0.112 C 
HETATM    3  C3  UNL     1     -35.368  17.086  -5.026  1.00 20.00     0.007 C 
HETATM    4  C4  UNL     1     -33.978  17.261  -4.398  1.00 20.00     0.009 C 
HETATM    5  C5  UNL     1     -35.894  15.256  -3.403  1.00 20.00     0.024 C 
HETATM    6  C6  UNL     1     -34.495  15.373  -2.760  1.00 20.00     0.071 C 
HETATM    7  C7  UNL     1     -35.618  15.573  -4.888  1.00 20.00     0.016 C 
HETATM    8  C8  UNL     1     -33.615  15.828  -3.949  1.00 20.00     0.030 C 
HETATM    9  C9  UNL     1     -34.219  14.980  -5.077  1.00 20.00     0.127 C 
ENDROOT
BRANCH   9  10
HETATM   10  O10 UNL     1     -33.672  15.251  -6.349  1.00 20.00    -0.395 OA
HETATM   11  H22 UNL     1     -33.962  16.144  -6.605  1.00 20.00     0.210 HD
ENDBRANCH   9  10
TORSDOF 1
ENDMDL
MODEL 5
REMARK VINA RESULT:      -4.5      1.770      3.191
REMARK  1 active torsions:
REMARK  status: ('A' for Active; 'I' for Inactive)
REMARK    1  A    between atoms: C9_9  and  O10_10 
ROOT
HETATM    1  C1  UNL     1     -38.227  14.766  -3.920  1.00 20.00     0.012 C 
HETATM    2  C2  UNL     1     -37.176  15.340  -3.851  1.00 20.00    -0.112 C 
HETATM    3  C3  UNL     1     -33.862  13.876  -3.700  1.00 20.00     0.007 C 
HETATM    4  C4  UNL     1     -34.662  14.164  -4.979  1.00 20.00     0.009 C 
HETATM    5  C5  UNL     1     -35.087  15.696  -2.498  1.00 20.00     0.024 C 
HETATM    6  C6  UNL     1     -35.893  16.044  -3.768  1.00 20.00     0.071 C 
HETATM    7  C7  UNL     1     -33.717  15.271  -3.065  1.00 20.00     0.016 C 
HETATM    8  C8  UNL     1     -34.903  15.688  -4.903  1.00 20.00     0.030 C 
HETATM    9  C9  UNL     1     -33.589  16.187  -4.286  1.00 20.00     0.127 C 
ENDROOT
BRANCH   9  10
HETATM   10  O10 UNL     1     -32.449  15.906  -5.069  1.00 20.00    -0.395 OA
HETATM   11  H22 UNL     1     -32.568  15.016  -5.445  1.00 20.00     0.210 HD
ENDBRANCH   9  10
TORSDOF 1
ENDMDL
MODEL 6
REMARK VINA RESULT:      -4.4      1.784      2.856
REMARK  1 active torsions:
REMARK  status: ('A' for Active; 'I' for Inactive)
REMARK    1  A    between atoms: C9_9  and  O10_10 
ROOT
HETATM    1  C1  UNL     1     -34.757  14.896  -7.821  1.00 20.00     0.012 C 
HETATM    2  C2  UNL     1     -35.047  14.760  -6.665  1.00 20.00    -0.112 C 
HETATM    3  C3  UNL     1     -32.819  14.828  -3.804  1.00 20.00     0.007 C 
HETATM    4  C4  UNL     1     -33.454  16.051  -4.480  1.00 20.00     0.009 C 
HETATM    5  C5  UNL     1     -34.710  13.387  -4.585  1.00 20.00     0.024 C 
HETATM    6  C6  UNL     1     -35.403  14.595  -5.252  1.00 20.00     0.071 C 
HETATM    7  C7  UNL     1     -34.044  14.016  -3.344  1.00 20.00     0.016 C 
HETATM    8  C8  UNL     1     -34.969  15.774  -4.349  1.00 20.00     0.030 C 
HETATM    9  C9  UNL     1     -35.052  15.107  -2.970  1.00 20.00     0.127 C 
ENDROOT
BRANCH   9  10
HETATM   10  O10 UNL     1     -34.608  15.929  -1.911  1.00 20.00    -0.395 OA
HETATM   11  H22 UNL     1     -35.344  16.520  -1.676  1.00 20.00     0.210 HD
ENDBRANCH   9  10
TORSDOF 1
ENDMDL
MODEL 7
REMARK VINA RESULT:      -4.4      1.945      3.414
REMARK  1 active torsions:
REMARK  status: ('A' for Active; 'I' for Inactive)
REMARK    1  A    between atoms: C9_9  and  O10_10 
ROOT
HETATM    1  C1  UNL     1     -38.495  14.990  -3.962  1.00 20.00     0.012 C 
HETATM    2  C2  UNL     1     -37.313  14.888  -3.784  1.00 20.00    -0.112 C 
HETATM    3  C3  UNL     1     -34.713  14.634  -6.300  1.00 20.00     0.007 C 
HETATM    4  C4  UNL     1     -35.326  15.936  -5.767  1.00 20.00     0.009 C 
HETATM    5  C5  UNL     1     -35.270  13.470  -4.156  1.00 20.00     0.024 C 
HETATM    6  C6  UNL     1     -35.869  14.764  -3.565  1.00 20.00     0.071 C 
HETATM    7  C7  UNL     1     -34.114  13.994  -5.033  1.00 20.00     0.016 C 
HETATM    8  C8  UNL     1     -35.029  15.868  -4.252  1.00 20.00     0.030 C 
HETATM    9  C9  UNL     1     -33.642  15.210  -4.230  1.00 20.00     0.127 C 
ENDROOT
BRANCH   9  10
HETATM   10  O10 UNL     1     -32.646  15.957  -4.895  1.00 20.00    -0.395 OA
HETATM   11  H22 UNL     1     -32.774  15.823  -5.851  1.00 20.00     0.210 HD
ENDBRANCH   9  10
TORSDOF 1
ENDMDL
MODEL 8
REMARK VINA RESULT:      -4.3      1.413      2.557
REMARK  1 active torsions:
REMARK  status: ('A' for Active; 'I' for Inactive)
REMARK    1  A    between atoms: C9_9  and  O10_10 
ROOT
HETATM    1  C1  UNL     1     -36.313  18.021  -3.437  1.00 20.00     0.012 C 
HETATM    2  C2  UNL     1     -35.989  16.878  -3.270  1.00 20.00    -0.112 C 
HETATM    3  C3  UNL     1     -34.561  14.606  -5.711  1.00 20.00     0.007 C 
HETATM    4  C4  UNL     1     -33.782  15.619  -4.860  1.00 20.00     0.009 C 
HETATM    5  C5  UNL     1     -36.354  14.490  -3.970  1.00 20.00     0.024 C 
HETATM    6  C6  UNL     1     -35.591  15.482  -3.065  1.00 20.00     0.071 C 
HETATM    7  C7  UNL     1     -35.217  13.701  -4.651  1.00 20.00     0.016 C 
HETATM    8  C8  UNL     1     -34.113  15.187  -3.414  1.00 20.00     0.030 C 
HETATM    9  C9  UNL     1     -34.161  13.659  -3.542  1.00 20.00     0.127 C 
ENDROOT
BRANCH   9  10
HETATM   10  O10 UNL     1     -32.943  13.083  -3.962  1.00 20.00    -0.395 OA
HETATM   11  H22 UNL     1     -32.616  12.531  -3.230  1.00 20.00     0.210 HD
ENDBRANCH   9  10
TORSDOF 1
ENDMDL
MODEL 9
REMARK VINA RESULT:      -4.3      1.179      1.592
REMARK  1 active torsions:
REMARK  status: ('A' for Active; 'I' for Inactive)
REMARK    1  A    between atoms: C9_9  and  O10_10 
ROOT
HETATM    1  C1  UNL     1     -35.971  18.225  -5.895  1.00 20.00     0.012 C 
HETATM    2  C2  UNL     1     -35.454  17.143  -5.863  1.00 20.00    -0.112 C 
HETATM    3  C3  UNL     1     -34.684  15.147  -2.933  1.00 20.00     0.007 C 
HETATM    4  C4  UNL     1     -36.032  15.186  -3.668  1.00 20.00     0.009 C 
HETATM    5  C5  UNL     1     -33.496  15.799  -5.036  1.00 20.00     0.024 C 
HETATM    6  C6  UNL     1     -34.823  15.820  -5.824  1.00 20.00     0.071 C 
HETATM    7  C7  UNL     1     -33.714  14.656  -4.024  1.00 20.00     0.016 C 
HETATM    8  C8  UNL     1     -35.662  14.740  -5.100  1.00 20.00     0.030 C 
HETATM    9  C9  UNL     1     -34.579  13.686  -4.834  1.00 20.00     0.127 C 
ENDROOT
BRANCH   9  10
HETATM   10  O10 UNL     1     -35.030  12.584  -4.076  1.00 20.00    -0.395 OA
HETATM   11  H22 UNL     1     -35.335  11.905  -4.704  1.00 20.00     0.210 HD
ENDBRANCH   9  10
TORSDOF 1
ENDMDL
