MODEL 1
REMARK VINA RESULT:      -4.3      0.000      0.000
REMARK  0 active torsions:
REMARK  status: ('A' for Active; 'I' for Inactive)
ROOT
HETATM    1  C1  UNL     1     -35.048  13.652  -4.819  1.00 20.00     0.459 C 
HETATM    2  C2  UNL     1     -34.534  15.869  -4.821  1.00 20.00     0.090 C 
HETATM    3  C3  UNL     1     -34.045  15.218  -3.510  1.00 20.00     0.090 C 
HETATM    4  C4  UNL     1     -33.547  16.838  -5.469  1.00 20.00     0.049 C 
HETATM    5  C5  UNL     1     -35.907  16.553  -4.708  1.00 20.00     0.049 C 
HETATM    6  C6  UNL     1     -32.564  14.799  -3.530  1.00 20.00     0.049 C 
HETATM    7  C7  UNL     1     -34.313  16.035  -2.246  1.00 20.00     0.049 C 
HETATM    8  O8  UNL     1     -34.702  14.731  -5.688  1.00 20.00    -0.322 OA
HETATM    9  O9  UNL     1     -34.830  14.012  -3.454  1.00 20.00    -0.322 OA
HETATM   10  F10 UNL     1     -34.235  12.606  -5.111  1.00 20.00    -0.189 F 
ENDROOT
TORSDOF 0
ENDMDL
MODEL 2
REMARK VINA RESULT:      -4.3      2.313      3.054
REMARK  0 active torsions:
REMARK  status: ('A' for Active; 'I' for Inactive)
ROOT
HETATM    1  C1  UNL     1     -33.401  17.032  -5.303  1.00 20.00     0.459 C 
HETATM    2  C2  UNL     1     -34.921  15.374  -4.961  1.00 20.00     0.090 C 
HETATM    3  C3  UNL     1     -33.773  15.253  -3.936  1.00 20.00     0.090 C 
HETATM    4  C4  UNL     1     -36.323  15.174  -4.388  1.00 20.00     0.049 C 
HETATM    5  C5  UNL     1     -34.753  14.476  -6.199  1.00 20.00     0.049 C 
HETATM    6  C6  UNL     1     -34.074  15.909  -2.576  1.00 20.00     0.049 C 
HETATM    7  C7  UNL     1     -33.267  13.830  -3.699  1.00 20.00     0.049 C 
HETATM    8  O8  UNL     1     -34.794  16.736  -5.410  1.00 20.00    -0.322 OA
HETATM    9  O9  UNL     1     -32.725  16.018  -4.558  1.00 20.00    -0.322 OA
HETATM   10  F10 UNL     1     -33.276  18.202  -4.627  1.00 20.00    -0.189 F 
ENDROOT
TORSDOF 0
ENDMDL
MODEL 3
REMARK VINA RESULT:      -4.2     12.020     13.291
REMARK  0 active torsions:
REMARK  status: ('A' for Active; 'I' for Inactive)
ROOT
HETATM    1  C1  UNL     1     -40.483   5.484  -0.444  1.00 20.00     0.459 C 
HETATM    2  C2  UNL     1     -42.159   4.886  -1.861  1.00 20.00     0.090 C 
HETATM    3  C3  UNL     1     -42.628   4.731  -0.398  1.00 20.00     0.090 C 
HETATM    4  C4  UNL     1     -43.178   5.527  -2.801  1.00 20.00     0.049 C 
HETATM    5  C5  UNL     1     -41.642   3.584  -2.495  1.00 20.00     0.049 C 
HETATM    6  C6  UNL     1     -43.415   5.938   0.141  1.00 20.00     0.049 C 
HETATM    7  C7  UNL     1     -43.416   3.454  -0.105  1.00 20.00     0.049 C 
HETATM    8  O8  UNL     1     -41.029   5.768  -1.732  1.00 20.00    -0.322 OA
HETATM    9  O9  UNL     1     -41.381   4.677   0.320  1.00 20.00    -0.322 OA
HETATM   10  F10 UNL     1     -40.322   6.663   0.209  1.00 20.00    -0.189 F 
ENDROOT
TORSDOF 0
ENDMDL
MODEL 4
REMARK VINA RESULT:      -4.1      2.006      2.874
REMARK  0 active torsions:
REMARK  status: ('A' for Active; 'I' for Inactive)
ROOT
HETATM    1  C1  UNL     1     -35.390  16.096  -2.582  1.00 20.00     0.459 C 
HETATM    2  C2  UNL     1     -35.193  14.819  -4.455  1.00 20.00     0.090 C 
HETATM    3  C3  UNL     1     -33.964  15.743  -4.318  1.00 20.00     0.090 C 
HETATM    4  C4  UNL     1     -34.879  13.381  -4.860  1.00 20.00     0.049 C 
HETATM    5  C5  UNL     1     -36.293  15.371  -5.379  1.00 20.00     0.049 C 
HETATM    6  C6  UNL     1     -32.749  15.077  -3.648  1.00 20.00     0.049 C 
HETATM    7  C7  UNL     1     -33.511  16.410  -5.617  1.00 20.00     0.049 C 
HETATM    8  O8  UNL     1     -35.730  14.817  -3.119  1.00 20.00    -0.322 OA
HETATM    9  O9  UNL     1     -34.444  16.761  -3.421  1.00 20.00    -0.322 OA
HETATM   10  F10 UNL     1     -34.809  15.898  -1.371  1.00 20.00    -0.189 F 
ENDROOT
TORSDOF 0
ENDMDL
MODEL 5
REMARK VINA RESULT:      -4.1      1.556      2.075
REMARK  0 active torsions:
REMARK  status: ('A' for Active; 'I' for Inactive)
ROOT
HETATM    1  C1  UNL     1     -34.204  13.430  -4.713  1.00 20.00     0.459 C 
HETATM    2  C2  UNL     1     -35.324  15.300  -5.365  1.00 20.00     0.090 C 
HETATM    3  C3  UNL     1     -35.912  14.772  -4.039  1.00 20.00     0.090 C 
HETATM    4  C4  UNL     1     -35.131  16.813  -5.428  1.00 20.00     0.049 C 
HETATM    5  C5  UNL     1     -36.088  14.838  -6.617  1.00 20.00     0.049 C 
HETATM    6  C6  UNL     1     -35.347  15.459  -2.783  1.00 20.00     0.049 C 
HETATM    7  C7  UNL     1     -37.438  14.777  -3.963  1.00 20.00     0.049 C 
HETATM    8  O8  UNL     1     -34.031  14.667  -5.405  1.00 20.00    -0.322 OA
HETATM    9  O9  UNL     1     -35.455  13.407  -4.022  1.00 20.00    -0.322 OA
HETATM   10  F10 UNL     1     -33.215  13.328  -3.790  1.00 20.00    -0.189 F 
ENDROOT
TORSDOF 0
ENDMDL
MODEL 6
REMARK VINA RESULT:      -4.1      1.994      3.064
REMARK  0 active torsions:
REMARK  status: ('A' for Active; 'I' for Inactive)
ROOT
HETATM    1  C1  UNL     1     -33.332  16.458  -5.294  1.00 20.00     0.459 C 
HETATM    2  C2  UNL     1     -34.461  14.823  -4.188  1.00 20.00     0.090 C 
HETATM    3  C3  UNL     1     -34.610  16.163  -3.436  1.00 20.00     0.090 C 
HETATM    4  C4  UNL     1     -35.745  14.004  -4.308  1.00 20.00     0.049 C 
HETATM    5  C5  UNL     1     -33.340  13.920  -3.645  1.00 20.00     0.049 C 
HETATM    6  C6  UNL     1     -35.901  16.930  -3.770  1.00 20.00     0.049 C 
HETATM    7  C7  UNL     1     -34.467  16.070  -1.918  1.00 20.00     0.049 C 
HETATM    8  O8  UNL     1     -34.058  15.247  -5.503  1.00 20.00    -0.322 OA
HETATM    9  O9  UNL     1     -33.509  16.930  -3.957  1.00 20.00    -0.322 OA
HETATM   10  F10 UNL     1     -33.833  17.395  -6.138  1.00 20.00    -0.189 F 
ENDROOT
TORSDOF 0
ENDMDL
MODEL 7
REMARK VINA RESULT:      -4.0      2.036      3.123
REMARK  0 active torsions:
REMARK  status: ('A' for Active; 'I' for Inactive)
ROOT
HETATM    1  C1  UNL     1     -34.119  16.948  -5.185  1.00 20.00     0.459 C 
HETATM    2  C2  UNL     1     -34.061  15.114  -3.841  1.00 20.00     0.090 C 
HETATM    3  C3  UNL     1     -35.294  15.046  -4.768  1.00 20.00     0.090 C 
HETATM    4  C4  UNL     1     -33.294  13.802  -3.689  1.00 20.00     0.049 C 
HETATM    5  C5  UNL     1     -34.357  15.686  -2.444  1.00 20.00     0.049 C 
HETATM    6  C6  UNL     1     -35.077  14.210  -6.042  1.00 20.00     0.049 C 
HETATM    7  C7  UNL     1     -36.586  14.591  -4.090  1.00 20.00     0.049 C 
HETATM    8  O8  UNL     1     -33.218  16.067  -4.515  1.00 20.00    -0.322 OA
HETATM    9  O9  UNL     1     -35.446  16.418  -5.176  1.00 20.00    -0.322 OA
HETATM   10  F10 UNL     1     -33.718  17.050  -6.477  1.00 20.00    -0.189 F 
ENDROOT
TORSDOF 0
ENDMDL
MODEL 8
REMARK VINA RESULT:      -4.0      1.523      2.013
REMARK  0 active torsions:
REMARK  status: ('A' for Active; 'I' for Inactive)
ROOT
HETATM    1  C1  UNL     1     -33.883  13.719  -3.419  1.00 20.00     0.459 C 
HETATM    2  C2  UNL     1     -35.359  14.646  -4.881  1.00 20.00     0.090 C 
HETATM    3  C3  UNL     1     -34.521  15.754  -4.209  1.00 20.00     0.090 C 
HETATM    4  C4  UNL     1     -35.563  14.814  -6.385  1.00 20.00     0.049 C 
HETATM    5  C5  UNL     1     -36.723  14.400  -4.214  1.00 20.00     0.049 C 
HETATM    6  C6  UNL     1     -33.304  16.209  -5.034  1.00 20.00     0.049 C 
HETATM    7  C7  UNL     1     -35.312  16.986  -3.771  1.00 20.00     0.049 C 
HETATM    8  O8  UNL     1     -34.561  13.470  -4.651  1.00 20.00    -0.322 OA
HETATM    9  O9  UNL     1     -34.017  15.089  -3.036  1.00 20.00    -0.322 OA
HETATM   10  F10 UNL     1     -32.564  13.465  -3.612  1.00 20.00    -0.189 F 
ENDROOT
TORSDOF 0
ENDMDL
MODEL 9
REMARK VINA RESULT:      -4.0      1.720      2.255
REMARK  0 active torsions:
REMARK  status: ('A' for Active; 'I' for Inactive)
ROOT
HETATM    1  C1  UNL     1     -36.091  15.664  -3.541  1.00 20.00     0.459 C 
HETATM    2  C2  UNL     1     -34.488  15.759  -5.152  1.00 20.00     0.090 C 
HETATM    3  C3  UNL     1     -34.119  14.682  -4.109  1.00 20.00     0.090 C 
HETATM    4  C4  UNL     1     -34.269  15.349  -6.607  1.00 20.00     0.049 C 
HETATM    5  C5  UNL     1     -33.819  17.123  -4.909  1.00 20.00     0.049 C 
HETATM    6  C6  UNL     1     -34.536  13.255  -4.505  1.00 20.00     0.049 C 
HETATM    7  C7  UNL     1     -32.651  14.671  -3.685  1.00 20.00     0.049 C 
HETATM    8  O8  UNL     1     -35.899  15.938  -4.929  1.00 20.00    -0.322 OA
HETATM    9  O9  UNL     1     -34.922  15.065  -2.977  1.00 20.00    -0.322 OA
HETATM   10  F10 UNL     1     -37.111  14.776  -3.429  1.00 20.00    -0.189 F 
ENDROOT
TORSDOF 0
ENDMDL
