MODEL 1
REMARK VINA RESULT:      -5.0      0.000      0.000
REMARK  2 active torsions:
REMARK  status: ('A' for Active; 'I' for Inactive)
REMARK    1  A    between atoms: C4_4  and  O11_11 
REMARK    2  A    between atoms: C10_10  and  O11_11 
ROOT
HETATM    1  C1  UNL     1     -34.671   5.062   4.586  1.00 20.00    -0.075 C 
HETATM    2  C2  UNL     1     -34.008   6.193   4.793  1.00 20.00    -0.049 C 
HETATM    3  C5  UNL     1     -35.177   4.447   5.826  1.00 20.00     0.034 C 
HETATM    4  C6  UNL     1     -34.837   4.735   3.158  1.00 20.00     0.037 C 
HETATM    5  C7  UNL     1     -33.934   6.573   6.216  1.00 20.00     0.037 C 
HETATM    6  C8  UNL     1     -34.467   5.297   6.900  1.00 20.00     0.009 C 
HETATM    7  C9  UNL     1     -33.896   5.765   2.497  1.00 20.00     0.041 C 
HETATM    8  C10 UNL     1     -33.600   6.863   3.544  1.00 20.00     0.157 C 
ENDROOT
BRANCH   8   9
HETATM    9  O11 UNL     1     -32.222   7.183   3.570  1.00 20.00    -0.354 OA
BRANCH   9  10
HETATM   10  C4  UNL     1     -31.730   7.667   2.434  1.00 20.00     0.125 C 
HETATM   11  C3  UNL     1     -32.122   8.803   1.852  1.00 20.00     0.037 C 
ENDBRANCH   9  10
ENDBRANCH   8   9
TORSDOF 2
ENDMDL
MODEL 2
REMARK VINA RESULT:      -4.9     11.146     13.059
REMARK  2 active torsions:
REMARK  status: ('A' for Active; 'I' for Inactive)
REMARK    1  A    between atoms: C4_4  and  O11_11 
REMARK    2  A    between atoms: C10_10  and  O11_11 
ROOT
HETATM    1  C1  UNL     1     -34.686  14.350  -5.689  1.00 20.00    -0.075 C 
HETATM    2  C2  UNL     1     -33.957  15.376  -5.265  1.00 20.00    -0.049 C 
HETATM    3  C5  UNL     1     -35.233  14.543  -7.043  1.00 20.00     0.034 C 
HETATM    4  C6  UNL     1     -34.696  13.212  -4.751  1.00 20.00     0.037 C 
HETATM    5  C7  UNL     1     -33.863  16.469  -6.250  1.00 20.00     0.037 C 
HETATM    6  C8  UNL     1     -34.912  16.031  -7.293  1.00 20.00     0.009 C 
HETATM    7  C9  UNL     1     -34.035  13.839  -3.504  1.00 20.00     0.041 C 
HETATM    8  C10 UNL     1     -33.320  15.132  -3.957  1.00 20.00     0.157 C 
ENDROOT
BRANCH   8   9
HETATM    9  O11 UNL     1     -33.581  16.198  -3.064  1.00 20.00    -0.354 OA
BRANCH   9  10
HETATM   10  C4  UNL     1     -34.568  15.984  -2.198  1.00 20.00     0.125 C 
HETATM   11  C3  UNL     1     -34.663  16.551  -0.992  1.00 20.00     0.037 C 
ENDBRANCH   9  10
ENDBRANCH   8   9
TORSDOF 2
ENDMDL
MODEL 3
REMARK VINA RESULT:      -4.5      9.407     11.113
REMARK  2 active torsions:
REMARK  status: ('A' for Active; 'I' for Inactive)
REMARK    1  A    between atoms: C4_4  and  O11_11 
REMARK    2  A    between atoms: C10_10  and  O11_11 
ROOT
HETATM    1  C1  UNL     1     -41.679   6.538  -1.545  1.00 20.00    -0.075 C 
HETATM    2  C2  UNL     1     -42.132   5.495  -2.229  1.00 20.00    -0.049 C 
HETATM    3  C5  UNL     1     -42.226   7.824  -2.012  1.00 20.00     0.034 C 
HETATM    4  C6  UNL     1     -40.814   6.163  -0.411  1.00 20.00     0.037 C 
HETATM    5  C7  UNL     1     -43.079   5.865  -3.296  1.00 20.00     0.037 C 
HETATM    6  C8  UNL     1     -42.929   7.401  -3.318  1.00 20.00     0.009 C 
HETATM    7  C9  UNL     1     -40.589   4.660  -0.682  1.00 20.00     0.041 C 
HETATM    8  C10 UNL     1     -41.670   4.203  -1.688  1.00 20.00     0.157 C 
ENDROOT
BRANCH   8   9
HETATM    9  O11 UNL     1     -41.108   3.401  -2.709  1.00 20.00    -0.354 OA
BRANCH   9  10
HETATM   10  C4  UNL     1     -41.855   2.373  -3.100  1.00 20.00     0.125 C 
HETATM   11  C3  UNL     1     -41.500   1.477  -4.024  1.00 20.00     0.037 C 
ENDBRANCH   9  10
ENDBRANCH   8   9
TORSDOF 2
ENDMDL
MODEL 4
REMARK VINA RESULT:      -4.5      1.009      2.192
REMARK  2 active torsions:
REMARK  status: ('A' for Active; 'I' for Inactive)
REMARK    1  A    between atoms: C4_4  and  O11_11 
REMARK    2  A    between atoms: C10_10  and  O11_11 
ROOT
HETATM    1  C1  UNL     1     -34.062   5.957   5.649  1.00 20.00    -0.075 C 
HETATM    2  C2  UNL     1     -33.747   5.810   4.368  1.00 20.00    -0.049 C 
HETATM    3  C5  UNL     1     -35.083   5.002   6.113  1.00 20.00     0.034 C 
HETATM    4  C6  UNL     1     -33.247   6.974   6.339  1.00 20.00     0.037 C 
HETATM    5  C7  UNL     1     -34.489   4.722   3.707  1.00 20.00     0.037 C 
HETATM    6  C8  UNL     1     -35.545   4.378   4.779  1.00 20.00     0.009 C 
HETATM    7  C9  UNL     1     -32.522   7.643   5.150  1.00 20.00     0.041 C 
HETATM    8  C10 UNL     1     -32.646   6.693   3.937  1.00 20.00     0.157 C 
ENDROOT
BRANCH   8   9
HETATM    9  O11 UNL     1     -33.000   7.406   2.768  1.00 20.00    -0.354 OA
BRANCH   9  10
HETATM   10  C4  UNL     1     -32.024   8.124   2.222  1.00 20.00     0.125 C 
HETATM   11  C3  UNL     1     -32.199   9.098   1.325  1.00 20.00     0.037 C 
ENDBRANCH   9  10
ENDBRANCH   8   9
TORSDOF 2
ENDMDL
MODEL 5
REMARK VINA RESULT:      -4.4      9.509     11.065
REMARK  2 active torsions:
REMARK  status: ('A' for Active; 'I' for Inactive)
REMARK    1  A    between atoms: C4_4  and  O11_11 
REMARK    2  A    between atoms: C10_10  and  O11_11 
ROOT
HETATM    1  C1  UNL     1     -41.973   6.330  -1.858  1.00 20.00    -0.075 C 
HETATM    2  C2  UNL     1     -41.674   5.040  -1.768  1.00 20.00    -0.049 C 
HETATM    3  C5  UNL     1     -41.204   7.173  -0.926  1.00 20.00     0.034 C 
HETATM    4  C6  UNL     1     -42.930   6.635  -2.937  1.00 20.00     0.037 C 
HETATM    5  C7  UNL     1     -40.640   4.750  -0.759  1.00 20.00     0.037 C 
HETATM    6  C8  UNL     1     -40.533   6.108  -0.033  1.00 20.00     0.009 C 
HETATM    7  C9  UNL     1     -43.390   5.219  -3.347  1.00 20.00     0.041 C 
HETATM    8  C10 UNL     1     -42.363   4.214  -2.778  1.00 20.00     0.157 C 
ENDROOT
BRANCH   8   9
HETATM    9  O11 UNL     1     -43.012   3.113  -2.171  1.00 20.00    -0.354 OA
BRANCH   9  10
HETATM   10  C4  UNL     1     -42.784   1.934  -2.742  1.00 20.00     0.125 C 
HETATM   11  C3  UNL     1     -41.756   1.660  -3.549  1.00 20.00     0.037 C 
ENDBRANCH   9  10
ENDBRANCH   8   9
TORSDOF 2
ENDMDL
MODEL 6
REMARK VINA RESULT:      -4.4     11.885     12.925
REMARK  2 active torsions:
REMARK  status: ('A' for Active; 'I' for Inactive)
REMARK    1  A    between atoms: C4_4  and  O11_11 
REMARK    2  A    between atoms: C10_10  and  O11_11 
ROOT
HETATM    1  C1  UNL     1     -33.083  18.187  -0.180  1.00 20.00    -0.075 C 
HETATM    2  C2  UNL     1     -33.924  18.134   0.845  1.00 20.00    -0.049 C 
HETATM    3  C5  UNL     1     -33.580  17.490  -1.379  1.00 20.00     0.034 C 
HETATM    4  C6  UNL     1     -31.892  19.016   0.082  1.00 20.00     0.037 C 
HETATM    5  C7  UNL     1     -35.162  17.392   0.545  1.00 20.00     0.037 C 
HETATM    6  C8  UNL     1     -34.813  16.753  -0.815  1.00 20.00     0.009 C 
HETATM    7  C9  UNL     1     -32.020  19.263   1.601  1.00 20.00     0.041 C 
HETATM    8  C10 UNL     1     -33.474  18.926   2.005  1.00 20.00     0.157 C 
ENDROOT
BRANCH   8   9
HETATM    9  O11 UNL     1     -33.506  18.151   3.188  1.00 20.00    -0.354 OA
BRANCH   9  10
HETATM   10  C4  UNL     1     -32.677  18.547   4.149  1.00 20.00     0.125 C 
HETATM   11  C3  UNL     1     -33.046  18.886   5.387  1.00 20.00     0.037 C 
ENDBRANCH   9  10
ENDBRANCH   8   9
TORSDOF 2
ENDMDL
MODEL 7
REMARK VINA RESULT:      -4.4     11.330     12.557
REMARK  2 active torsions:
REMARK  status: ('A' for Active; 'I' for Inactive)
REMARK    1  A    between atoms: C4_4  and  O11_11 
REMARK    2  A    between atoms: C10_10  and  O11_11 
ROOT
HETATM    1  C1  UNL     1     -34.350  15.057  -3.114  1.00 20.00    -0.075 C 
HETATM    2  C2  UNL     1     -35.534  15.121  -3.710  1.00 20.00    -0.049 C 
HETATM    3  C5  UNL     1     -34.152  16.103  -2.096  1.00 20.00     0.034 C 
HETATM    4  C6  UNL     1     -33.545  13.894  -3.533  1.00 20.00     0.037 C 
HETATM    5  C7  UNL     1     -36.377  16.223  -3.214  1.00 20.00     0.037 C 
HETATM    6  C8  UNL     1     -35.370  17.015  -2.354  1.00 20.00     0.009 C 
HETATM    7  C9  UNL     1     -34.363  13.374  -4.735  1.00 20.00     0.041 C 
HETATM    8  C10 UNL     1     -35.771  14.007  -4.647  1.00 20.00     0.157 C 
ENDROOT
BRANCH   8   9
HETATM    9  O11 UNL     1     -36.191  14.490  -5.909  1.00 20.00    -0.354 OA
BRANCH   9  10
HETATM   10  C4  UNL     1     -35.264  14.471  -6.862  1.00 20.00     0.125 C 
HETATM   11  C3  UNL     1     -34.876  15.533  -7.572  1.00 20.00     0.037 C 
ENDBRANCH   9  10
ENDBRANCH   8   9
TORSDOF 2
ENDMDL
MODEL 8
REMARK VINA RESULT:      -4.3     11.388     13.735
REMARK  2 active torsions:
REMARK  status: ('A' for Active; 'I' for Inactive)
REMARK    1  A    between atoms: C4_4  and  O11_11 
REMARK    2  A    between atoms: C10_10  and  O11_11 
ROOT
HETATM    1  C1  UNL     1     -33.987  15.511  -5.047  1.00 20.00    -0.075 C 
HETATM    2  C2  UNL     1     -34.482  14.495  -5.743  1.00 20.00    -0.049 C 
HETATM    3  C5  UNL     1     -33.681  15.166  -3.648  1.00 20.00     0.034 C 
HETATM    4  C6  UNL     1     -33.763  16.721  -5.858  1.00 20.00     0.037 C 
HETATM    5  C7  UNL     1     -34.607  13.255  -4.955  1.00 20.00     0.037 C 
HETATM    6  C8  UNL     1     -34.333  13.773  -3.527  1.00 20.00     0.009 C 
HETATM    7  C9  UNL     1     -34.479  16.345  -7.174  1.00 20.00     0.041 C 
HETATM    8  C10 UNL     1     -34.683  14.813  -7.169  1.00 20.00     0.157 C 
ENDROOT
BRANCH   8   9
HETATM    9  O11 UNL     1     -35.992  14.472  -7.582  1.00 20.00    -0.354 OA
BRANCH   9  10
HETATM   10  C4  UNL     1     -36.907  15.422  -7.412  1.00 20.00     0.125 C 
HETATM   11  C3  UNL     1     -37.983  15.316  -6.629  1.00 20.00     0.037 C 
ENDBRANCH   9  10
ENDBRANCH   8   9
TORSDOF 2
ENDMDL
MODEL 9
REMARK VINA RESULT:      -4.3     11.483     13.042
REMARK  2 active torsions:
REMARK  status: ('A' for Active; 'I' for Inactive)
REMARK    1  A    between atoms: C4_4  and  O11_11 
REMARK    2  A    between atoms: C10_10  and  O11_11 
ROOT
HETATM    1  C1  UNL     1     -34.446  15.506  -5.572  1.00 20.00    -0.075 C 
HETATM    2  C2  UNL     1     -34.497  15.455  -4.247  1.00 20.00    -0.049 C 
HETATM    3  C5  UNL     1     -34.772  14.223  -6.219  1.00 20.00     0.034 C 
HETATM    4  C6  UNL     1     -34.173  16.857  -6.095  1.00 20.00     0.037 C 
HETATM    5  C7  UNL     1     -34.872  14.126  -3.729  1.00 20.00     0.037 C 
HETATM    6  C8  UNL     1     -34.790  13.266  -5.008  1.00 20.00     0.009 C 
HETATM    7  C9  UNL     1     -33.790  17.613  -4.805  1.00 20.00     0.041 C 
HETATM    8  C10 UNL     1     -34.279  16.766  -3.608  1.00 20.00     0.157 C 
ENDROOT
BRANCH   8   9
HETATM    9  O11 UNL     1     -33.284  16.680  -2.606  1.00 20.00    -0.354 OA
BRANCH   9  10
HETATM   10  C4  UNL     1     -33.671  17.047  -1.388  1.00 20.00     0.125 C 
HETATM   11  C3  UNL     1     -34.793  16.645  -0.787  1.00 20.00     0.037 C 
ENDBRANCH   9  10
ENDBRANCH   8   9
TORSDOF 2
ENDMDL
