MODEL 1
REMARK VINA RESULT:      -4.3      0.000      0.000
REMARK  2 active torsions:
REMARK  status: ('A' for Active; 'I' for Inactive)
REMARK    1  A    between atoms: C1_1  and  N9_9 
REMARK    2  A    between atoms: C4_4  and  C8_8 
ROOT
HETATM    1  C2  UNL     1     -33.852  17.026  -3.915  1.00 20.00     0.031 C 
HETATM    2  C3  UNL     1     -33.673  14.709  -3.290  1.00 20.00     0.130 C 
HETATM    3  C4  UNL     1     -33.649  16.113  -2.696  1.00 20.00     0.005 C 
HETATM    4  C5  UNL     1     -34.668  16.202  -4.917  1.00 20.00     0.083 C 
HETATM    5  C6  UNL     1     -36.146  16.579  -4.934  1.00 20.00     0.032 C 
HETATM    6  N9  UNL     1     -34.451  14.818  -4.512  1.00 20.00    -0.355 N 
ENDROOT
BRANCH   3   7
HETATM    7  C8  UNL     1     -34.720  16.301  -1.625  1.00 20.00     0.002 C 
HETATM    8  C7  UNL     1     -34.278  17.241  -0.547  1.00 20.00     0.005 C 
ENDBRANCH   3   7
BRANCH   6   9
HETATM    9  C1  UNL     1     -34.810  13.725  -5.268  1.00 20.00     0.351 C 
HETATM   10  O10 UNL     1     -34.806  12.551  -4.915  1.00 20.00    -0.284 OA
ENDBRANCH   6   9
TORSDOF 2
ENDMDL
MODEL 2
REMARK VINA RESULT:      -4.2      2.100      2.834
REMARK  2 active torsions:
REMARK  status: ('A' for Active; 'I' for Inactive)
REMARK    1  A    between atoms: C1_1  and  N9_9 
REMARK    2  A    between atoms: C4_4  and  C8_8 
ROOT
HETATM    1  C2  UNL     1     -33.834  13.707  -4.125  1.00 20.00     0.031 C 
HETATM    2  C3  UNL     1     -35.275  15.331  -3.086  1.00 20.00     0.130 C 
HETATM    3  C4  UNL     1     -33.804  15.044  -3.369  1.00 20.00     0.005 C 
HETATM    4  C5  UNL     1     -35.185  13.672  -4.848  1.00 20.00     0.083 C 
HETATM    5  C6  UNL     1     -35.075  14.011  -6.331  1.00 20.00     0.032 C 
HETATM    6  N9  UNL     1     -36.013  14.626  -4.119  1.00 20.00    -0.355 N 
ENDROOT
BRANCH   3   7
HETATM    7  C8  UNL     1     -33.144  16.165  -4.167  1.00 20.00     0.002 C 
HETATM    8  C7  UNL     1     -33.777  17.494  -3.897  1.00 20.00     0.005 C 
ENDBRANCH   3   7
BRANCH   6   9
HETATM    9  C1  UNL     1     -37.375  14.751  -4.280  1.00 20.00     0.351 C 
HETATM   10  O10 UNL     1     -38.248  14.252  -3.580  1.00 20.00    -0.284 OA
ENDBRANCH   6   9
TORSDOF 2
ENDMDL
MODEL 3
REMARK VINA RESULT:      -4.1      1.600      1.640
REMARK  2 active torsions:
REMARK  status: ('A' for Active; 'I' for Inactive)
REMARK    1  A    between atoms: C1_1  and  N9_9 
REMARK    2  A    between atoms: C4_4  and  C8_8 
ROOT
HETATM    1  C2  UNL     1     -33.493  16.242  -4.486  1.00 20.00     0.031 C 
HETATM    2  C3  UNL     1     -34.878  14.891  -3.054  1.00 20.00     0.130 C 
HETATM    3  C4  UNL     1     -33.640  15.782  -3.027  1.00 20.00     0.005 C 
HETATM    4  C5  UNL     1     -34.912  16.241  -5.065  1.00 20.00     0.083 C 
HETATM    5  C6  UNL     1     -35.524  17.636  -5.142  1.00 20.00     0.032 C 
HETATM    6  N9  UNL     1     -35.663  15.353  -4.185  1.00 20.00    -0.355 N 
ENDROOT
BRANCH   3   7
HETATM    7  C8  UNL     1     -33.790  16.943  -2.049  1.00 20.00     0.002 C 
HETATM    8  C7  UNL     1     -34.627  16.575  -0.864  1.00 20.00     0.005 C 
ENDBRANCH   3   7
BRANCH   6   9
HETATM    9  C1  UNL     1     -36.926  14.878  -4.459  1.00 20.00     0.351 C 
HETATM   10  O10 UNL     1     -37.624  14.178  -3.734  1.00 20.00    -0.284 OA
ENDBRANCH   6   9
TORSDOF 2
ENDMDL
MODEL 4
REMARK VINA RESULT:      -4.1      2.152      3.961
REMARK  2 active torsions:
REMARK  status: ('A' for Active; 'I' for Inactive)
REMARK    1  A    between atoms: C1_1  and  N9_9 
REMARK    2  A    between atoms: C4_4  and  C8_8 
ROOT
HETATM    1  C2  UNL     1     -33.571  15.990  -4.854  1.00 20.00     0.031 C 
HETATM    2  C3  UNL     1     -35.883  16.153  -5.503  1.00 20.00     0.130 C 
HETATM    3  C4  UNL     1     -34.473  16.179  -6.083  1.00 20.00     0.005 C 
HETATM    4  C5  UNL     1     -34.401  15.178  -3.853  1.00 20.00     0.083 C 
HETATM    5  C6  UNL     1     -34.017  13.702  -3.821  1.00 20.00     0.032 C 
HETATM    6  N9  UNL     1     -35.782  15.385  -4.275  1.00 20.00    -0.355 N 
ENDROOT
BRANCH   3   7
HETATM    7  C8  UNL     1     -34.268  15.101  -7.144  1.00 20.00     0.002 C 
HETATM    8  C7  UNL     1     -35.566  14.528  -7.620  1.00 20.00     0.005 C 
ENDBRANCH   3   7
BRANCH   6   9
HETATM    9  C1  UNL     1     -36.882  15.027  -3.527  1.00 20.00     0.351 C 
HETATM   10  O10 UNL     1     -37.701  14.155  -3.792  1.00 20.00    -0.284 OA
ENDBRANCH   6   9
TORSDOF 2
ENDMDL
MODEL 5
REMARK VINA RESULT:      -4.1      1.703      1.892
REMARK  2 active torsions:
REMARK  status: ('A' for Active; 'I' for Inactive)
REMARK    1  A    between atoms: C1_1  and  N9_9 
REMARK    2  A    between atoms: C4_4  and  C8_8 
ROOT
HETATM    1  C2  UNL     1     -33.031  15.510  -3.632  1.00 20.00     0.031 C 
HETATM    2  C3  UNL     1     -35.066  14.371  -4.234  1.00 20.00     0.130 C 
HETATM    3  C4  UNL     1     -34.326  14.943  -3.029  1.00 20.00     0.005 C 
HETATM    4  C5  UNL     1     -33.384  15.900  -5.072  1.00 20.00     0.083 C 
HETATM    5  C6  UNL     1     -33.606  17.400  -5.243  1.00 20.00     0.032 C 
HETATM    6  N9  UNL     1     -34.578  15.122  -5.378  1.00 20.00    -0.355 N 
ENDROOT
BRANCH   3   7
HETATM    7  C8  UNL     1     -35.152  15.995  -2.294  1.00 20.00     0.002 C 
HETATM    8  C7  UNL     1     -34.361  16.684  -1.226  1.00 20.00     0.005 C 
ENDBRANCH   3   7
BRANCH   6   9
HETATM    9  C1  UNL     1     -35.110  14.986  -6.641  1.00 20.00     0.351 C 
HETATM   10  O10 UNL     1     -34.493  14.826  -7.688  1.00 20.00    -0.284 OA
ENDBRANCH   6   9
TORSDOF 2
ENDMDL
MODEL 6
REMARK VINA RESULT:      -4.0      1.645      2.337
REMARK  2 active torsions:
REMARK  status: ('A' for Active; 'I' for Inactive)
REMARK    1  A    between atoms: C1_1  and  N9_9 
REMARK    2  A    between atoms: C4_4  and  C8_8 
ROOT
HETATM    1  C2  UNL     1     -36.235  15.189  -3.363  1.00 20.00     0.031 C 
HETATM    2  C3  UNL     1     -34.807  16.775  -4.476  1.00 20.00     0.130 C 
HETATM    3  C4  UNL     1     -35.366  16.429  -3.100  1.00 20.00     0.005 C 
HETATM    4  C5  UNL     1     -35.600  14.488  -4.570  1.00 20.00     0.083 C 
HETATM    5  C6  UNL     1     -34.757  13.278  -4.178  1.00 20.00     0.032 C 
HETATM    6  N9  UNL     1     -34.813  15.528  -5.221  1.00 20.00    -0.355 N 
ENDROOT
BRANCH   3   7
HETATM    7  C8  UNL     1     -34.262  16.177  -2.078  1.00 20.00     0.002 C 
HETATM    8  C7  UNL     1     -34.623  16.696  -0.721  1.00 20.00     0.005 C 
ENDBRANCH   3   7
BRANCH   6   9
HETATM    9  C1  UNL     1     -34.253  15.405  -6.474  1.00 20.00     0.351 C 
HETATM   10  O10 UNL     1     -34.694  14.760  -7.418  1.00 20.00    -0.284 OA
ENDBRANCH   6   9
TORSDOF 2
ENDMDL
MODEL 7
REMARK VINA RESULT:      -4.0      2.263      3.979
REMARK  2 active torsions:
REMARK  status: ('A' for Active; 'I' for Inactive)
REMARK    1  A    between atoms: C1_1  and  N9_9 
REMARK    2  A    between atoms: C4_4  and  C8_8 
ROOT
HETATM    1  C2  UNL     1     -35.826  13.999  -4.249  1.00 20.00     0.031 C 
HETATM    2  C3  UNL     1     -33.603  14.765  -3.731  1.00 20.00     0.130 C 
HETATM    3  C4  UNL     1     -34.414  14.110  -4.845  1.00 20.00     0.005 C 
HETATM    4  C5  UNL     1     -35.946  15.157  -3.252  1.00 20.00     0.083 C 
HETATM    5  C6  UNL     1     -36.740  16.337  -3.803  1.00 20.00     0.032 C 
HETATM    6  N9  UNL     1     -34.566  15.512  -2.941  1.00 20.00    -0.355 N 
ENDROOT
BRANCH   3   7
HETATM    7  C8  UNL     1     -34.373  14.920  -6.137  1.00 20.00     0.002 C 
HETATM    8  C7  UNL     1     -35.341  14.403  -7.155  1.00 20.00     0.005 C 
ENDBRANCH   3   7
BRANCH   6   9
HETATM    9  C1  UNL     1     -34.196  16.352  -1.914  1.00 20.00     0.351 C 
HETATM   10  O10 UNL     1     -34.666  16.385  -0.783  1.00 20.00    -0.284 OA
ENDBRANCH   6   9
TORSDOF 2
ENDMDL
MODEL 8
REMARK VINA RESULT:      -3.9      0.899      1.204
REMARK  2 active torsions:
REMARK  status: ('A' for Active; 'I' for Inactive)
REMARK    1  A    between atoms: C1_1  and  N9_9 
REMARK    2  A    between atoms: C4_4  and  C8_8 
ROOT
HETATM    1  C2  UNL     1     -34.186  16.803  -5.451  1.00 20.00     0.031 C 
HETATM    2  C3  UNL     1     -33.352  15.268  -3.795  1.00 20.00     0.130 C 
HETATM    3  C4  UNL     1     -33.347  16.747  -4.165  1.00 20.00     0.005 C 
HETATM    4  C5  UNL     1     -35.173  15.634  -5.351  1.00 20.00     0.083 C 
HETATM    5  C6  UNL     1     -36.573  16.071  -4.934  1.00 20.00     0.032 C 
HETATM    6  N9  UNL     1     -34.563  14.726  -4.387  1.00 20.00    -0.355 N 
ENDROOT
BRANCH   3   7
HETATM    7  C8  UNL     1     -33.909  17.621  -3.047  1.00 20.00     0.002 C 
HETATM    8  C7  UNL     1     -33.874  16.927  -1.721  1.00 20.00     0.005 C 
ENDBRANCH   3   7
BRANCH   6   9
HETATM    9  C1  UNL     1     -34.991  13.436  -4.160  1.00 20.00     0.351 C 
HETATM   10  O10 UNL     1     -34.827  12.466  -4.890  1.00 20.00    -0.284 OA
ENDBRANCH   6   9
TORSDOF 2
ENDMDL
MODEL 9
REMARK VINA RESULT:      -3.9      1.214      2.648
REMARK  2 active torsions:
REMARK  status: ('A' for Active; 'I' for Inactive)
REMARK    1  A    between atoms: C1_1  and  N9_9 
REMARK    2  A    between atoms: C4_4  and  C8_8 
ROOT
HETATM    1  C2  UNL     1     -35.760  17.073  -4.089  1.00 20.00     0.031 C 
HETATM    2  C3  UNL     1     -34.711  15.429  -5.501  1.00 20.00     0.130 C 
HETATM    3  C4  UNL     1     -34.855  16.937  -5.324  1.00 20.00     0.005 C 
HETATM    4  C5  UNL     1     -35.493  15.823  -3.243  1.00 20.00     0.083 C 
HETATM    5  C6  UNL     1     -34.571  16.094  -2.058  1.00 20.00     0.032 C 
HETATM    6  N9  UNL     1     -34.926  14.862  -4.181  1.00 20.00    -0.355 N 
ENDROOT
BRANCH   3   7
HETATM    7  C8  UNL     1     -33.505  17.627  -5.151  1.00 20.00     0.002 C 
HETATM    8  C7  UNL     1     -33.629  18.932  -4.430  1.00 20.00     0.005 C 
ENDBRANCH   3   7
BRANCH   6   9
HETATM    9  C1  UNL     1     -34.746  13.525  -3.906  1.00 20.00     0.351 C 
HETATM   10  O10 UNL     1     -34.861  12.589  -4.689  1.00 20.00    -0.284 OA
ENDBRANCH   6   9
TORSDOF 2
ENDMDL
