MODEL 1
REMARK VINA RESULT:      -5.9      0.000      0.000
REMARK  1 active torsions:
REMARK  status: ('A' for Active; 'I' for Inactive)
REMARK    1  A    between atoms: C5_5  and  C8_8 
ROOT
HETATM    1  C1  UNL     1     -35.178   4.338   5.971  1.00 20.00    -0.004 C 
HETATM    2  C2  UNL     1     -34.769   5.519   6.730  1.00 20.00    -0.004 C 
HETATM    3  C3  UNL     1     -35.147   4.106   4.640  1.00 20.00    -0.026 C 
HETATM    4  C4  UNL     1     -33.904   6.464   6.312  1.00 20.00    -0.021 C 
HETATM    5  C6  UNL     1     -34.670   5.017   3.516  1.00 20.00     0.033 C 
HETATM    6  C7  UNL     1     -33.282   6.419   4.991  1.00 20.00     0.028 A 
HETATM    7  C8  UNL     1     -33.265   7.378   3.849  1.00 20.00     0.100 A 
HETATM    8  C9  UNL     1     -34.415   6.414   3.964  1.00 20.00     0.012 A 
ENDROOT
BRANCH   7   9
HETATM    9  C5  UNL     1     -32.319   7.156   2.774  1.00 20.00     0.178 C 
HETATM   10  O10 UNL     1     -32.164   8.127   1.983  1.00 20.00    -0.648 OA
HETATM   11  O11 UNL     1     -31.775   6.016   2.774  1.00 20.00    -0.648 OA
ENDBRANCH   7   9
TORSDOF 1
ENDMDL
MODEL 2
REMARK VINA RESULT:      -5.4     11.357     12.908
REMARK  1 active torsions:
REMARK  status: ('A' for Active; 'I' for Inactive)
REMARK    1  A    between atoms: C5_5  and  C8_8 
ROOT
HETATM    1  C1  UNL     1     -33.701  18.267  -3.456  1.00 20.00    -0.004 C 
HETATM    2  C2  UNL     1     -33.796  17.658  -2.130  1.00 20.00    -0.004 C 
HETATM    3  C3  UNL     1     -33.668  17.689  -4.678  1.00 20.00    -0.026 C 
HETATM    4  C4  UNL     1     -34.277  16.428  -1.861  1.00 20.00    -0.021 C 
HETATM    5  C6  UNL     1     -33.721  16.212  -5.045  1.00 20.00     0.033 C 
HETATM    6  C7  UNL     1     -34.745  15.528  -2.911  1.00 20.00     0.028 A 
HETATM    7  C8  UNL     1     -34.346  14.147  -3.311  1.00 20.00     0.100 A 
HETATM    8  C9  UNL     1     -33.572  15.311  -3.868  1.00 20.00     0.012 A 
ENDROOT
BRANCH   7   9
HETATM    9  C5  UNL     1     -35.200  13.419  -4.227  1.00 20.00     0.178 C 
HETATM   10  O10 UNL     1     -36.416  13.755  -4.214  1.00 20.00    -0.648 OA
HETATM   11  O11 UNL     1     -34.609  12.543  -4.920  1.00 20.00    -0.648 OA
ENDBRANCH   7   9
TORSDOF 1
ENDMDL
MODEL 3
REMARK VINA RESULT:      -5.3     11.402     12.938
REMARK  1 active torsions:
REMARK  status: ('A' for Active; 'I' for Inactive)
REMARK    1  A    between atoms: C5_5  and  C8_8 
ROOT
HETATM    1  C1  UNL     1     -33.707  18.239  -2.290  1.00 20.00    -0.004 C 
HETATM    2  C2  UNL     1     -33.613  18.369  -3.744  1.00 20.00    -0.004 C 
HETATM    3  C3  UNL     1     -34.152  17.209  -1.537  1.00 20.00    -0.026 C 
HETATM    4  C4  UNL     1     -33.568  17.351  -4.625  1.00 20.00    -0.021 C 
HETATM    5  C6  UNL     1     -34.696  15.857  -1.981  1.00 20.00     0.033 C 
HETATM    6  C7  UNL     1     -33.640  15.954  -4.205  1.00 20.00     0.028 A 
HETATM    7  C8  UNL     1     -34.570  14.841  -4.553  1.00 20.00     0.100 A 
HETATM    8  C9  UNL     1     -34.957  15.784  -3.446  1.00 20.00     0.012 A 
ENDROOT
BRANCH   7   9
HETATM    9  C5  UNL     1     -34.203  13.491  -4.175  1.00 20.00     0.178 C 
HETATM   10  O10 UNL     1     -33.035  13.358  -3.715  1.00 20.00    -0.648 OA
HETATM   11  O11 UNL     1     -35.106  12.626  -4.356  1.00 20.00    -0.648 OA
ENDBRANCH   7   9
TORSDOF 1
ENDMDL
MODEL 4
REMARK VINA RESULT:      -5.1      1.034      2.130
REMARK  1 active torsions:
REMARK  status: ('A' for Active; 'I' for Inactive)
REMARK    1  A    between atoms: C5_5  and  C8_8 
ROOT
HETATM    1  C1  UNL     1     -35.236   5.200   5.896  1.00 20.00    -0.004 C 
HETATM    2  C2  UNL     1     -35.345   4.596   4.568  1.00 20.00    -0.004 C 
HETATM    3  C3  UNL     1     -34.297   6.033   6.397  1.00 20.00    -0.026 C 
HETATM    4  C4  UNL     1     -34.764   5.057   3.443  1.00 20.00    -0.021 C 
HETATM    5  C6  UNL     1     -33.055   6.601   5.722  1.00 20.00     0.033 C 
HETATM    6  C7  UNL     1     -33.905   6.238   3.438  1.00 20.00     0.028 A 
HETATM    7  C8  UNL     1     -32.492   6.458   3.016  1.00 20.00     0.100 A 
HETATM    8  C9  UNL     1     -32.758   5.960   4.411  1.00 20.00     0.012 A 
ENDROOT
BRANCH   7   9
HETATM    9  C5  UNL     1     -32.016   7.820   2.878  1.00 20.00     0.178 C 
HETATM   10  O10 UNL     1     -32.555   8.489   1.953  1.00 20.00    -0.648 OA
HETATM   11  O11 UNL     1     -31.123   8.156   3.706  1.00 20.00    -0.648 OA
ENDBRANCH   7   9
TORSDOF 1
ENDMDL
MODEL 5
REMARK VINA RESULT:      -4.9     11.894     12.633
REMARK  1 active torsions:
REMARK  status: ('A' for Active; 'I' for Inactive)
REMARK    1  A    between atoms: C5_5  and  C8_8 
ROOT
HETATM    1  C1  UNL     1     -35.033  13.460  -4.378  1.00 20.00    -0.004 C 
HETATM    2  C2  UNL     1     -33.625  13.469  -3.981  1.00 20.00    -0.004 C 
HETATM    3  C3  UNL     1     -36.037  14.300  -4.042  1.00 20.00    -0.026 C 
HETATM    4  C4  UNL     1     -32.942  14.538  -3.527  1.00 20.00    -0.021 C 
HETATM    5  C6  UNL     1     -36.003  15.525  -3.137  1.00 20.00     0.033 C 
HETATM    6  C7  UNL     1     -33.570  15.845  -3.349  1.00 20.00     0.028 A 
HETATM    7  C8  UNL     1     -33.715  16.744  -2.168  1.00 20.00     0.100 A 
HETATM    8  C9  UNL     1     -34.731  15.653  -2.373  1.00 20.00     0.012 A 
ENDROOT
BRANCH   7   9
HETATM    9  C5  UNL     1     -34.154  18.108  -2.388  1.00 20.00     0.178 C 
HETATM   10  O10 UNL     1     -33.726  18.648  -3.445  1.00 20.00    -0.648 OA
HETATM   11  O11 UNL     1     -34.909  18.573  -1.489  1.00 20.00    -0.648 OA
ENDBRANCH   7   9
TORSDOF 1
ENDMDL
MODEL 6
REMARK VINA RESULT:      -4.8     11.581     12.495
REMARK  1 active torsions:
REMARK  status: ('A' for Active; 'I' for Inactive)
REMARK    1  A    between atoms: C5_5  and  C8_8 
ROOT
HETATM    1  C1  UNL     1     -34.712  13.311  -4.187  1.00 20.00    -0.004 C 
HETATM    2  C2  UNL     1     -36.007  13.989  -4.172  1.00 20.00    -0.004 C 
HETATM    3  C3  UNL     1     -33.481  13.781  -3.884  1.00 20.00    -0.026 C 
HETATM    4  C4  UNL     1     -36.308  15.099  -3.468  1.00 20.00    -0.021 C 
HETATM    5  C6  UNL     1     -33.069  15.175  -3.429  1.00 20.00     0.033 C 
HETATM    6  C7  UNL     1     -35.321  15.784  -2.638  1.00 20.00     0.028 A 
HETATM    7  C8  UNL     1     -34.800  17.182  -2.632  1.00 20.00     0.100 A 
HETATM    8  C9  UNL     1     -34.162  16.178  -3.554  1.00 20.00     0.012 A 
ENDROOT
BRANCH   7   9
HETATM    9  C5  UNL     1     -34.021  17.624  -1.493  1.00 20.00     0.178 C 
HETATM   10  O10 UNL     1     -34.222  16.988  -0.422  1.00 20.00    -0.648 OA
HETATM   11  O11 UNL     1     -33.242  18.591  -1.727  1.00 20.00    -0.648 OA
ENDBRANCH   7   9
TORSDOF 1
ENDMDL
MODEL 7
REMARK VINA RESULT:      -4.7     11.289     13.377
REMARK  1 active torsions:
REMARK  status: ('A' for Active; 'I' for Inactive)
REMARK    1  A    between atoms: C5_5  and  C8_8 
ROOT
HETATM    1  C1  UNL     1     -34.729  18.345  -5.138  1.00 20.00    -0.004 C 
HETATM    2  C2  UNL     1     -35.699  18.087  -4.075  1.00 20.00    -0.004 C 
HETATM    3  C3  UNL     1     -33.653  17.625  -5.525  1.00 20.00    -0.026 C 
HETATM    4  C4  UNL     1     -35.965  16.886  -3.524  1.00 20.00    -0.021 C 
HETATM    5  C6  UNL     1     -33.120  16.313  -4.964  1.00 20.00     0.033 C 
HETATM    6  C7  UNL     1     -35.262  15.672  -3.930  1.00 20.00     0.028 A 
HETATM    7  C8  UNL     1     -34.450  14.675  -3.174  1.00 20.00     0.100 A 
HETATM    8  C9  UNL     1     -33.772  15.917  -3.685  1.00 20.00     0.012 A 
ENDROOT
BRANCH   7   9
HETATM    9  C5  UNL     1     -34.115  13.422  -3.822  1.00 20.00     0.178 C 
HETATM   10  O10 UNL     1     -35.079  12.830  -4.381  1.00 20.00    -0.648 OA
HETATM   11  O11 UNL     1     -32.899  13.092  -3.740  1.00 20.00    -0.648 OA
ENDBRANCH   7   9
TORSDOF 1
ENDMDL
MODEL 8
REMARK VINA RESULT:      -4.7     11.759     13.883
REMARK  1 active torsions:
REMARK  status: ('A' for Active; 'I' for Inactive)
REMARK    1  A    between atoms: C5_5  and  C8_8 
ROOT
HETATM    1  C1  UNL     1     -34.050  18.064  -6.272  1.00 20.00    -0.004 C 
HETATM    2  C2  UNL     1     -33.751  18.188  -4.846  1.00 20.00    -0.004 C 
HETATM    3  C3  UNL     1     -34.315  16.965  -7.012  1.00 20.00    -0.026 C 
HETATM    4  C4  UNL     1     -34.073  17.291  -3.892  1.00 20.00    -0.021 C 
HETATM    5  C6  UNL     1     -34.383  15.506  -6.578  1.00 20.00     0.033 C 
HETATM    6  C7  UNL     1     -34.756  16.038  -4.201  1.00 20.00     0.028 A 
HETATM    7  C8  UNL     1     -34.404  14.609  -3.959  1.00 20.00     0.100 A 
HETATM    8  C9  UNL     1     -33.874  15.283  -5.196  1.00 20.00     0.012 A 
ENDROOT
BRANCH   7   9
HETATM    9  C5  UNL     1     -35.432  13.604  -4.141  1.00 20.00     0.178 C 
HETATM   10  O10 UNL     1     -36.604  13.975  -3.859  1.00 20.00    -0.648 OA
HETATM   11  O11 UNL     1     -35.014  12.488  -4.560  1.00 20.00    -0.648 OA
ENDBRANCH   7   9
TORSDOF 1
ENDMDL
MODEL 9
REMARK VINA RESULT:      -4.6     11.720     12.817
REMARK  1 active torsions:
REMARK  status: ('A' for Active; 'I' for Inactive)
REMARK    1  A    between atoms: C5_5  and  C8_8 
ROOT
HETATM    1  C1  UNL     1     -36.172  17.913  -2.098  1.00 20.00    -0.004 C 
HETATM    2  C2  UNL     1     -35.097  17.320  -1.303  1.00 20.00    -0.004 C 
HETATM    3  C3  UNL     1     -36.505  17.715  -3.392  1.00 20.00    -0.026 C 
HETATM    4  C4  UNL     1     -34.468  16.158  -1.570  1.00 20.00    -0.021 C 
HETATM    5  C6  UNL     1     -35.855  16.804  -4.425  1.00 20.00     0.033 C 
HETATM    6  C7  UNL     1     -34.788  15.353  -2.745  1.00 20.00     0.028 A 
HETATM    7  C8  UNL     1     -33.963  14.857  -3.885  1.00 20.00     0.100 A 
HETATM    8  C9  UNL     1     -34.555  16.238  -3.970  1.00 20.00     0.012 A 
ENDROOT
BRANCH   7   9
HETATM    9  C5  UNL     1     -34.525  13.842  -4.753  1.00 20.00     0.178 C 
HETATM   10  O10 UNL     1     -34.963  12.813  -4.168  1.00 20.00    -0.648 OA
HETATM   11  O11 UNL     1     -34.500  14.124  -5.984  1.00 20.00    -0.648 OA
ENDBRANCH   7   9
TORSDOF 1
ENDMDL
