MODEL 1
REMARK VINA RESULT:      -4.3      0.000      0.000
REMARK  1 active torsions:
REMARK  status: ('A' for Active; 'I' for Inactive)
REMARK    1  A    between atoms: C2_2  and  C4_4 
ROOT
HETATM    1  C1  UNL     1     -36.877  14.650  -3.655  1.00 20.00     0.065 C 
HETATM    2  C3  UNL     1     -35.485  14.960  -3.493  1.00 20.00     0.113 A 
HETATM    3  C4  UNL     1     -34.763  15.661  -4.623  1.00 20.00     0.082 A 
HETATM    4  C5  UNL     1     -34.426  14.219  -4.292  1.00 20.00    -0.019 A 
HETATM    5  C7  UNL     1     -33.134  13.897  -3.580  1.00 20.00     0.017 C 
HETATM    6  C8  UNL     1     -34.827  13.170  -5.300  1.00 20.00     0.017 C 
HETATM    7  N9  UNL     1     -38.002  14.399  -3.784  1.00 20.00    -0.197 NA
ENDROOT
BRANCH   3   8
HETATM    8  C2  UNL     1     -33.824  16.747  -4.310  1.00 20.00     0.129 C 
HETATM    9  C6  UNL     1     -33.969  17.400  -2.962  1.00 20.00     0.091 C 
HETATM   10  O10 UNL     1     -32.961  17.105  -5.111  1.00 20.00    -0.298 OA
ENDBRANCH   3   8
TORSDOF 1
ENDMDL
MODEL 2
REMARK VINA RESULT:      -4.3      2.582      3.477
REMARK  1 active torsions:
REMARK  status: ('A' for Active; 'I' for Inactive)
REMARK    1  A    between atoms: C2_2  and  C4_4 
ROOT
HETATM    1  C1  UNL     1     -33.693  14.383  -3.520  1.00 20.00     0.065 C 
HETATM    2  C3  UNL     1     -33.989  15.727  -3.114  1.00 20.00     0.113 A 
HETATM    3  C4  UNL     1     -34.673  15.948  -1.782  1.00 20.00     0.082 A 
HETATM    4  C5  UNL     1     -35.423  16.229  -3.072  1.00 20.00    -0.019 A 
HETATM    5  C7  UNL     1     -35.661  17.655  -3.503  1.00 20.00     0.017 C 
HETATM    6  C8  UNL     1     -36.564  15.304  -3.418  1.00 20.00     0.017 C 
HETATM    7  N9  UNL     1     -33.454  13.297  -3.848  1.00 20.00    -0.197 NA
ENDROOT
BRANCH   3   8
HETATM    8  C2  UNL     1     -34.222  17.046  -0.917  1.00 20.00     0.129 C 
HETATM    9  C6  UNL     1     -35.064  17.345   0.293  1.00 20.00     0.091 C 
HETATM   10  O10 UNL     1     -33.204  17.690  -1.170  1.00 20.00    -0.298 OA
ENDBRANCH   3   8
TORSDOF 1
ENDMDL
MODEL 3
REMARK VINA RESULT:      -4.3      2.360      3.335
REMARK  1 active torsions:
REMARK  status: ('A' for Active; 'I' for Inactive)
REMARK    1  A    between atoms: C2_2  and  C4_4 
ROOT
HETATM    1  C1  UNL     1     -36.405  17.232  -3.972  1.00 20.00     0.065 C 
HETATM    2  C3  UNL     1     -35.383  16.270  -4.272  1.00 20.00     0.113 A 
HETATM    3  C4  UNL     1     -35.578  14.840  -3.818  1.00 20.00     0.082 A 
HETATM    4  C5  UNL     1     -34.506  15.699  -3.172  1.00 20.00    -0.019 A 
HETATM    5  C7  UNL     1     -33.053  15.462  -3.510  1.00 20.00     0.017 C 
HETATM    6  C8  UNL     1     -34.724  16.106  -1.735  1.00 20.00     0.017 C 
HETATM    7  N9  UNL     1     -37.231  18.009  -3.729  1.00 20.00    -0.197 NA
ENDROOT
BRANCH   3   8
HETATM    8  C2  UNL     1     -35.220  13.743  -4.727  1.00 20.00     0.129 C 
HETATM    9  C6  UNL     1     -35.115  14.082  -6.189  1.00 20.00     0.091 C 
HETATM   10  O10 UNL     1     -35.016  12.603  -4.313  1.00 20.00    -0.298 OA
ENDBRANCH   3   8
TORSDOF 1
ENDMDL
MODEL 4
REMARK VINA RESULT:      -4.2      2.005      3.063
REMARK  1 active torsions:
REMARK  status: ('A' for Active; 'I' for Inactive)
REMARK    1  A    between atoms: C2_2  and  C4_4 
ROOT
HETATM    1  C1  UNL     1     -38.025  14.861  -3.821  1.00 20.00     0.065 C 
HETATM    2  C3  UNL     1     -36.796  14.656  -4.532  1.00 20.00     0.113 A 
HETATM    3  C4  UNL     1     -35.509  14.566  -3.743  1.00 20.00     0.082 A 
HETATM    4  C5  UNL     1     -35.764  15.765  -4.637  1.00 20.00    -0.019 A 
HETATM    5  C7  UNL     1     -35.027  15.891  -5.949  1.00 20.00     0.017 C 
HETATM    6  C8  UNL     1     -36.000  17.092  -3.957  1.00 20.00     0.017 C 
HETATM    7  N9  UNL     1     -39.019  15.027  -3.247  1.00 20.00    -0.197 NA
ENDROOT
BRANCH   3   8
HETATM    8  C2  UNL     1     -34.512  13.551  -4.109  1.00 20.00     0.129 C 
HETATM    9  C6  UNL     1     -33.101  13.789  -3.644  1.00 20.00     0.091 C 
HETATM   10  O10 UNL     1     -34.816  12.554  -4.763  1.00 20.00    -0.298 OA
ENDBRANCH   3   8
TORSDOF 1
ENDMDL
MODEL 5
REMARK VINA RESULT:      -4.2      1.407      1.700
REMARK  1 active torsions:
REMARK  status: ('A' for Active; 'I' for Inactive)
REMARK    1  A    between atoms: C2_2  and  C4_4 
ROOT
HETATM    1  C1  UNL     1     -36.667  14.677  -3.580  1.00 20.00     0.065 C 
HETATM    2  C3  UNL     1     -35.377  15.089  -3.104  1.00 20.00     0.113 A 
HETATM    3  C4  UNL     1     -34.948  16.523  -3.322  1.00 20.00     0.082 A 
HETATM    4  C5  UNL     1     -34.253  15.404  -4.076  1.00 20.00    -0.019 A 
HETATM    5  C7  UNL     1     -32.861  14.980  -3.673  1.00 20.00     0.017 C 
HETATM    6  C8  UNL     1     -34.490  15.328  -5.565  1.00 20.00     0.017 C 
HETATM    7  N9  UNL     1     -37.709  14.345  -3.965  1.00 20.00    -0.197 NA
ENDROOT
BRANCH   3   8
HETATM    8  C2  UNL     1     -34.263  17.239  -2.237  1.00 20.00     0.129 C 
HETATM    9  C6  UNL     1     -34.501  16.739  -0.838  1.00 20.00     0.091 C 
HETATM   10  O10 UNL     1     -33.531  18.202  -2.461  1.00 20.00    -0.298 OA
ENDBRANCH   3   8
TORSDOF 1
ENDMDL
MODEL 6
REMARK VINA RESULT:      -4.1      2.533      3.017
REMARK  1 active torsions:
REMARK  status: ('A' for Active; 'I' for Inactive)
REMARK    1  A    between atoms: C2_2  and  C4_4 
ROOT
HETATM    1  C1  UNL     1     -35.131  13.568  -4.195  1.00 20.00     0.065 C 
HETATM    2  C3  UNL     1     -35.518  14.693  -3.392  1.00 20.00     0.113 A 
HETATM    3  C4  UNL     1     -35.514  16.068  -4.022  1.00 20.00     0.082 A 
HETATM    4  C5  UNL     1     -34.492  15.724  -2.954  1.00 20.00    -0.019 A 
HETATM    5  C7  UNL     1     -34.644  16.292  -1.563  1.00 20.00     0.017 C 
HETATM    6  C8  UNL     1     -33.053  15.602  -3.393  1.00 20.00     0.017 C 
HETATM    7  N9  UNL     1     -34.820  12.659  -4.843  1.00 20.00    -0.197 NA
ENDROOT
BRANCH   3   8
HETATM    8  C2  UNL     1     -36.621  16.991  -3.738  1.00 20.00     0.129 C 
HETATM    9  C6  UNL     1     -36.381  18.448  -4.030  1.00 20.00     0.091 C 
HETATM   10  O10 UNL     1     -37.693  16.593  -3.284  1.00 20.00    -0.298 OA
ENDBRANCH   3   8
TORSDOF 1
ENDMDL
MODEL 7
REMARK VINA RESULT:      -4.1      1.473      2.176
REMARK  1 active torsions:
REMARK  status: ('A' for Active; 'I' for Inactive)
REMARK    1  A    between atoms: C2_2  and  C4_4 
ROOT
HETATM    1  C1  UNL     1     -37.099  14.478  -4.143  1.00 20.00     0.065 C 
HETATM    2  C3  UNL     1     -35.819  14.550  -4.788  1.00 20.00     0.113 A 
HETATM    3  C4  UNL     1     -35.088  15.874  -4.801  1.00 20.00     0.082 A 
HETATM    4  C5  UNL     1     -35.648  15.309  -6.093  1.00 20.00    -0.019 A 
HETATM    5  C7  UNL     1     -34.713  14.709  -7.115  1.00 20.00     0.017 C 
HETATM    6  C8  UNL     1     -36.818  16.035  -6.711  1.00 20.00     0.017 C 
HETATM    7  N9  UNL     1     -38.133  14.419  -3.621  1.00 20.00    -0.197 NA
ENDROOT
BRANCH   3   8
HETATM    8  C2  UNL     1     -33.640  15.897  -4.553  1.00 20.00     0.129 C 
HETATM    9  C6  UNL     1     -33.081  14.786  -3.706  1.00 20.00     0.091 C 
HETATM   10  O10 UNL     1     -32.920  16.781  -5.015  1.00 20.00    -0.298 OA
ENDBRANCH   3   8
TORSDOF 1
ENDMDL
MODEL 8
REMARK VINA RESULT:      -4.1      2.616      3.556
REMARK  1 active torsions:
REMARK  status: ('A' for Active; 'I' for Inactive)
REMARK    1  A    between atoms: C2_2  and  C4_4 
ROOT
HETATM    1  C1  UNL     1     -34.675  16.811  -0.544  1.00 20.00     0.065 C 
HETATM    2  C3  UNL     1     -34.647  16.023  -1.743  1.00 20.00     0.113 A 
HETATM    3  C4  UNL     1     -34.243  16.691  -3.039  1.00 20.00     0.082 A 
HETATM    4  C5  UNL     1     -35.678  16.238  -2.838  1.00 20.00    -0.019 A 
HETATM    5  C7  UNL     1     -36.181  15.008  -3.554  1.00 20.00     0.017 C 
HETATM    6  C8  UNL     1     -36.725  17.316  -2.698  1.00 20.00     0.017 C 
HETATM    7  N9  UNL     1     -34.697  17.446   0.426  1.00 20.00    -0.197 NA
ENDROOT
BRANCH   3   8
HETATM    8  C2  UNL     1     -33.350  15.981  -3.964  1.00 20.00     0.129 C 
HETATM    9  C6  UNL     1     -33.304  16.484  -5.381  1.00 20.00     0.091 C 
HETATM   10  O10 UNL     1     -32.672  15.021  -3.598  1.00 20.00    -0.298 OA
ENDBRANCH   3   8
TORSDOF 1
ENDMDL
MODEL 9
REMARK VINA RESULT:      -4.1      2.140      2.831
REMARK  1 active torsions:
REMARK  status: ('A' for Active; 'I' for Inactive)
REMARK    1  A    between atoms: C2_2  and  C4_4 
ROOT
HETATM    1  C1  UNL     1     -34.630  13.747  -4.194  1.00 20.00     0.065 C 
HETATM    2  C3  UNL     1     -34.353  15.087  -3.761  1.00 20.00     0.113 A 
HETATM    3  C4  UNL     1     -35.516  16.016  -3.491  1.00 20.00     0.082 A 
HETATM    4  C5  UNL     1     -34.607  16.269  -4.681  1.00 20.00    -0.019 A 
HETATM    5  C7  UNL     1     -33.608  17.400  -4.632  1.00 20.00     0.017 C 
HETATM    6  C8  UNL     1     -35.197  16.054  -6.053  1.00 20.00     0.017 C 
HETATM    7  N9  UNL     1     -34.853  12.664  -4.544  1.00 20.00    -0.197 NA
ENDROOT
BRANCH   3   8
HETATM    8  C2  UNL     1     -35.476  16.891  -2.312  1.00 20.00     0.129 C 
HETATM    9  C6  UNL     1     -34.569  16.471  -1.187  1.00 20.00     0.091 C 
HETATM   10  O10 UNL     1     -36.151  17.918  -2.247  1.00 20.00    -0.298 OA
ENDBRANCH   3   8
TORSDOF 1
ENDMDL
