MODEL 1
REMARK VINA RESULT:      -4.6      0.000      0.000
REMARK  2 active torsions:
REMARK  status: ('A' for Active; 'I' for Inactive)
REMARK    1  A    between atoms: C3_3  and  C5_5 
REMARK    2  A    between atoms: C4_4  and  C9_9 
ROOT
HETATM    1  C1  UNL     1     -33.966  17.618  -3.974  1.00 20.00     0.005 C 
HETATM    2  C2  UNL     1     -33.407  17.259  -5.122  1.00 20.00     0.132 C 
HETATM    3  C4  UNL     1     -33.660  16.581  -2.955  1.00 20.00     0.050 C 
HETATM    4  C5  UNL     1     -33.025  15.489  -3.835  1.00 20.00     0.204 C 
HETATM    5  O11 UNL     1     -32.731  16.057  -5.129  1.00 20.00    -0.350 OA
ENDROOT
BRANCH   3   6
HETATM    6  C9  UNL     1     -34.868  16.156  -2.134  1.00 20.00    -0.012 C 
HETATM    7  C7  UNL     1     -34.719  16.600  -0.678  1.00 20.00     0.010 C 
HETATM    8  C8  UNL     1     -36.157  16.719  -2.733  1.00 20.00     0.010 C 
ENDBRANCH   3   6
BRANCH   4   9
HETATM    9  C3  UNL     1     -33.895  14.302  -4.119  1.00 20.00     0.152 C 
HETATM   10  C6  UNL     1     -34.702  14.343  -5.390  1.00 20.00     0.093 C 
HETATM   11  O10 UNL     1     -33.946  13.341  -3.354  1.00 20.00    -0.296 OA
ENDBRANCH   4   9
TORSDOF 2
ENDMDL
MODEL 2
REMARK VINA RESULT:      -4.5      1.482      3.556
REMARK  2 active torsions:
REMARK  status: ('A' for Active; 'I' for Inactive)
REMARK    1  A    between atoms: C3_3  and  C5_5 
REMARK    2  A    between atoms: C4_4  and  C9_9 
ROOT
HETATM    1  C1  UNL     1     -34.613  14.081  -5.733  1.00 20.00     0.005 C 
HETATM    2  C2  UNL     1     -34.802  13.109  -4.851  1.00 20.00     0.132 C 
HETATM    3  C4  UNL     1     -33.940  15.215  -5.050  1.00 20.00     0.050 C 
HETATM    4  C5  UNL     1     -34.010  14.753  -3.583  1.00 20.00     0.204 C 
HETATM    5  O11 UNL     1     -34.386  13.360  -3.560  1.00 20.00    -0.350 OA
ENDROOT
BRANCH   3   6
HETATM    6  C9  UNL     1     -34.564  16.569  -5.352  1.00 20.00    -0.012 C 
HETATM    7  C7  UNL     1     -33.505  17.672  -5.330  1.00 20.00     0.010 C 
HETATM    8  C8  UNL     1     -35.280  16.546  -6.703  1.00 20.00     0.010 C 
ENDBRANCH   3   6
BRANCH   4   9
HETATM    9  C3  UNL     1     -35.035  15.447  -2.737  1.00 20.00     0.152 C 
HETATM   10  C6  UNL     1     -34.516  16.307  -1.615  1.00 20.00     0.093 C 
HETATM   11  O10 UNL     1     -36.239  15.322  -2.950  1.00 20.00    -0.296 OA
ENDBRANCH   4   9
TORSDOF 2
ENDMDL
MODEL 3
REMARK VINA RESULT:      -4.4      1.854      3.114
REMARK  2 active torsions:
REMARK  status: ('A' for Active; 'I' for Inactive)
REMARK    1  A    between atoms: C3_3  and  C5_5 
REMARK    2  A    between atoms: C4_4  and  C9_9 
ROOT
HETATM    1  C1  UNL     1     -33.580  14.084  -3.819  1.00 20.00     0.005 C 
HETATM    2  C2  UNL     1     -34.014  13.223  -4.730  1.00 20.00     0.132 C 
HETATM    3  C4  UNL     1     -34.748  14.590  -3.054  1.00 20.00     0.050 C 
HETATM    4  C5  UNL     1     -35.910  14.008  -3.879  1.00 20.00     0.204 C 
HETATM    5  O11 UNL     1     -35.376  13.020  -4.787  1.00 20.00    -0.350 OA
ENDROOT
BRANCH   3   6
HETATM    6  C9  UNL     1     -34.753  16.100  -2.870  1.00 20.00    -0.012 C 
HETATM    7  C7  UNL     1     -34.660  16.467  -1.389  1.00 20.00     0.010 C 
HETATM    8  C8  UNL     1     -33.606  16.744  -3.652  1.00 20.00     0.010 C 
ENDBRANCH   3   6
BRANCH   4   9
HETATM    9  C3  UNL     1     -36.636  14.987  -4.751  1.00 20.00     0.152 C 
HETATM   10  C6  UNL     1     -37.967  15.483  -4.251  1.00 20.00     0.093 C 
HETATM   11  O10 UNL     1     -36.167  15.369  -5.821  1.00 20.00    -0.296 OA
ENDBRANCH   4   9
TORSDOF 2
ENDMDL
MODEL 4
REMARK VINA RESULT:      -4.4      2.011      2.796
REMARK  2 active torsions:
REMARK  status: ('A' for Active; 'I' for Inactive)
REMARK    1  A    between atoms: C3_3  and  C5_5 
REMARK    2  A    between atoms: C4_4  and  C9_9 
ROOT
HETATM    1  C1  UNL     1     -36.638  15.293  -6.169  1.00 20.00     0.005 C 
HETATM    2  C2  UNL     1     -35.936  14.650  -7.093  1.00 20.00     0.132 C 
HETATM    3  C4  UNL     1     -35.729  15.655  -5.052  1.00 20.00     0.050 C 
HETATM    4  C5  UNL     1     -34.458  14.883  -5.451  1.00 20.00     0.204 C 
HETATM    5  O11 UNL     1     -34.602  14.441  -6.818  1.00 20.00    -0.350 OA
ENDROOT
BRANCH   3   6
HETATM    6  C9  UNL     1     -36.294  15.338  -3.675  1.00 20.00    -0.012 C 
HETATM    7  C7  UNL     1     -36.045  16.496  -2.707  1.00 20.00     0.010 C 
HETATM    8  C8  UNL     1     -37.789  15.029  -3.762  1.00 20.00     0.010 C 
ENDBRANCH   3   6
BRANCH   4   9
HETATM    9  C3  UNL     1     -34.186  13.637  -4.665  1.00 20.00     0.152 C 
HETATM   10  C6  UNL     1     -33.109  13.719  -3.616  1.00 20.00     0.093 C 
HETATM   11  O10 UNL     1     -34.813  12.598  -4.865  1.00 20.00    -0.296 OA
ENDBRANCH   4   9
TORSDOF 2
ENDMDL
MODEL 5
REMARK VINA RESULT:      -4.2      1.382      2.868
REMARK  2 active torsions:
REMARK  status: ('A' for Active; 'I' for Inactive)
REMARK    1  A    between atoms: C3_3  and  C5_5 
REMARK    2  A    between atoms: C4_4  and  C9_9 
ROOT
HETATM    1  C1  UNL     1     -34.609  14.182  -3.313  1.00 20.00     0.005 C 
HETATM    2  C2  UNL     1     -34.050  13.611  -4.372  1.00 20.00     0.132 C 
HETATM    3  C4  UNL     1     -35.379  15.368  -3.767  1.00 20.00     0.050 C 
HETATM    4  C5  UNL     1     -34.939  15.452  -5.241  1.00 20.00     0.204 C 
HETATM    5  O11 UNL     1     -34.266  14.223  -5.588  1.00 20.00    -0.350 OA
ENDROOT
BRANCH   3   6
HETATM    6  C9  UNL     1     -35.138  16.613  -2.928  1.00 20.00    -0.012 C 
HETATM    7  C7  UNL     1     -36.415  17.447  -2.815  1.00 20.00     0.010 C 
HETATM    8  C8  UNL     1     -34.622  16.238  -1.538  1.00 20.00     0.010 C 
ENDBRANCH   3   6
BRANCH   4   9
HETATM    9  C3  UNL     1     -33.957  16.538  -5.559  1.00 20.00     0.152 C 
HETATM   10  C6  UNL     1     -34.454  17.672  -6.417  1.00 20.00     0.093 C 
HETATM   11  O10 UNL     1     -32.802  16.507  -5.138  1.00 20.00    -0.296 OA
ENDBRANCH   4   9
TORSDOF 2
ENDMDL
MODEL 6
REMARK VINA RESULT:      -4.2      2.479      4.104
REMARK  2 active torsions:
REMARK  status: ('A' for Active; 'I' for Inactive)
REMARK    1  A    between atoms: C3_3  and  C5_5 
REMARK    2  A    between atoms: C4_4  and  C9_9 
ROOT
HETATM    1  C1  UNL     1     -37.320  15.547  -5.367  1.00 20.00     0.005 C 
HETATM    2  C2  UNL     1     -37.792  15.083  -4.217  1.00 20.00     0.132 C 
HETATM    3  C4  UNL     1     -36.106  14.770  -5.726  1.00 20.00     0.050 C 
HETATM    4  C5  UNL     1     -35.890  13.956  -4.438  1.00 20.00     0.204 C 
HETATM    5  O11 UNL     1     -37.079  14.063  -3.625  1.00 20.00    -0.350 OA
ENDROOT
BRANCH   3   6
HETATM    6  C9  UNL     1     -34.935  15.634  -6.172  1.00 20.00    -0.012 C 
HETATM    7  C7  UNL     1     -34.338  15.108  -7.477  1.00 20.00     0.010 C 
HETATM    8  C8  UNL     1     -35.369  17.091  -6.333  1.00 20.00     0.010 C 
ENDBRANCH   3   6
BRANCH   4   9
HETATM    9  C3  UNL     1     -34.772  14.426  -3.557  1.00 20.00     0.152 C 
HETATM   10  C6  UNL     1     -33.439  13.750  -3.736  1.00 20.00     0.093 C 
HETATM   11  O10 UNL     1     -34.935  15.321  -2.731  1.00 20.00    -0.296 OA
ENDBRANCH   4   9
TORSDOF 2
ENDMDL
MODEL 7
REMARK VINA RESULT:      -4.1      2.454      4.065
REMARK  2 active torsions:
REMARK  status: ('A' for Active; 'I' for Inactive)
REMARK    1  A    between atoms: C3_3  and  C5_5 
REMARK    2  A    between atoms: C4_4  and  C9_9 
ROOT
HETATM    1  C1  UNL     1     -34.485  15.356  -3.387  1.00 20.00     0.005 C 
HETATM    2  C2  UNL     1     -35.252  15.854  -2.426  1.00 20.00     0.132 C 
HETATM    3  C4  UNL     1     -35.130  15.630  -4.697  1.00 20.00     0.050 C 
HETATM    4  C5  UNL     1     -36.498  16.169  -4.239  1.00 20.00     0.204 C 
HETATM    5  O11 UNL     1     -36.427  16.454  -2.825  1.00 20.00    -0.350 OA
ENDROOT
BRANCH   3   6
HETATM    6  C9  UNL     1     -35.166  14.426  -5.626  1.00 20.00    -0.012 C 
HETATM    7  C7  UNL     1     -34.484  14.747  -6.957  1.00 20.00     0.010 C 
HETATM    8  C8  UNL     1     -34.505  13.214  -4.967  1.00 20.00     0.010 C 
ENDBRANCH   3   6
BRANCH   4   9
HETATM    9  C3  UNL     1     -37.647  15.219  -4.387  1.00 20.00     0.152 C 
HETATM   10  C6  UNL     1     -38.595  15.475  -5.529  1.00 20.00     0.093 C 
HETATM   11  O10 UNL     1     -37.808  14.275  -3.616  1.00 20.00    -0.296 OA
ENDBRANCH   4   9
TORSDOF 2
ENDMDL
MODEL 8
REMARK VINA RESULT:      -4.1      1.750      3.398
REMARK  2 active torsions:
REMARK  status: ('A' for Active; 'I' for Inactive)
REMARK    1  A    between atoms: C3_3  and  C5_5 
REMARK    2  A    between atoms: C4_4  and  C9_9 
ROOT
HETATM    1  C1  UNL     1     -34.342  13.627  -4.352  1.00 20.00     0.005 C 
HETATM    2  C2  UNL     1     -33.204  13.615  -3.670  1.00 20.00     0.132 C 
HETATM    3  C4  UNL     1     -34.520  14.974  -4.950  1.00 20.00     0.050 C 
HETATM    4  C5  UNL     1     -33.375  15.748  -4.270  1.00 20.00     0.204 C 
HETATM    5  O11 UNL     1     -32.492  14.796  -3.640  1.00 20.00    -0.350 OA
ENDROOT
BRANCH   3   6
HETATM    6  C9  UNL     1     -35.916  15.549  -4.760  1.00 20.00    -0.012 C 
HETATM    7  C7  UNL     1     -36.548  15.898  -6.108  1.00 20.00     0.010 C 
HETATM    8  C8  UNL     1     -36.805  14.569  -3.993  1.00 20.00     0.010 C 
ENDBRANCH   3   6
BRANCH   4   9
HETATM    9  C3  UNL     1     -33.790  16.681  -3.173  1.00 20.00     0.152 C 
HETATM   10  C6  UNL     1     -33.877  18.143  -3.524  1.00 20.00     0.093 C 
HETATM   11  O10 UNL     1     -34.048  16.273  -2.042  1.00 20.00    -0.296 OA
ENDBRANCH   4   9
TORSDOF 2
ENDMDL
MODEL 9
REMARK VINA RESULT:      -4.1      1.650      2.987
REMARK  2 active torsions:
REMARK  status: ('A' for Active; 'I' for Inactive)
REMARK    1  A    between atoms: C3_3  and  C5_5 
REMARK    2  A    between atoms: C4_4  and  C9_9 
ROOT
HETATM    1  C1  UNL     1     -35.041  15.340  -6.151  1.00 20.00     0.005 C 
HETATM    2  C2  UNL     1     -33.912  15.988  -6.407  1.00 20.00     0.132 C 
HETATM    3  C4  UNL     1     -35.599  15.850  -4.874  1.00 20.00     0.050 C 
HETATM    4  C5  UNL     1     -34.438  16.732  -4.381  1.00 20.00     0.204 C 
HETATM    5  O11 UNL     1     -33.509  16.916  -5.471  1.00 20.00    -0.350 OA
ENDROOT
BRANCH   3   6
HETATM    6  C9  UNL     1     -36.053  14.753  -3.921  1.00 20.00    -0.012 C 
HETATM    7  C7  UNL     1     -37.578  14.712  -3.828  1.00 20.00     0.010 C 
HETATM    8  C8  UNL     1     -35.509  13.394  -4.364  1.00 20.00     0.010 C 
ENDBRANCH   3   6
BRANCH   4   9
HETATM    9  C3  UNL     1     -33.619  16.157  -3.265  1.00 20.00     0.152 C 
HETATM   10  C6  UNL     1     -33.928  16.648  -1.875  1.00 20.00     0.093 C 
HETATM   11  O10 UNL     1     -32.740  15.323  -3.473  1.00 20.00    -0.296 OA
ENDBRANCH   4   9
TORSDOF 2
ENDMDL
