MODEL 1
REMARK VINA RESULT:      -4.8      0.000      0.000
REMARK  1 active torsions:
REMARK  status: ('A' for Active; 'I' for Inactive)
REMARK    1  A    between atoms: C1_1  and  C4_4 
ROOT
HETATM    1  C1  UNL     1     -34.489  15.770  -2.362  1.00 20.00    -0.068 C 
HETATM    2  C2  UNL     1     -34.649  16.374  -1.336  1.00 20.00    -0.108 C 
HETATM    3  C6  UNL     1     -34.842  17.109  -0.087  1.00 20.00     0.112 C 
ENDROOT
BRANCH   1   4
HETATM    4  C4  UNL     1     -34.295  15.040  -3.601  1.00 20.00     0.129 C 
HETATM    5  C5  UNL     1     -35.598  14.713  -4.424  1.00 20.00     0.016 C 
HETATM    6  C3  UNL     1     -35.063  13.265  -4.360  1.00 20.00     0.182 C 
HETATM    7  C8  UNL     1     -35.695  15.284  -5.836  1.00 20.00     0.021 C 
HETATM    8  C9  UNL     1     -36.937  14.859  -3.692  1.00 20.00     0.021 C 
HETATM    9  O10 UNL     1     -34.130  13.620  -3.307  1.00 20.00    -0.366 OA
HETATM   10  C7  UNL     1     -33.063  15.555  -4.342  1.00 20.00     0.061 C 
ENDBRANCH   1   4
TORSDOF 1
ENDMDL
MODEL 2
REMARK VINA RESULT:      -4.5      1.312      2.496
REMARK  1 active torsions:
REMARK  status: ('A' for Active; 'I' for Inactive)
REMARK    1  A    between atoms: C1_1  and  C4_4 
ROOT
HETATM    1  C1  UNL     1     -35.091  16.078  -2.351  1.00 20.00    -0.068 C 
HETATM    2  C2  UNL     1     -34.889  16.581  -1.280  1.00 20.00    -0.108 C 
HETATM    3  C6  UNL     1     -34.642  17.196   0.024  1.00 20.00     0.112 C 
ENDROOT
BRANCH   1   4
HETATM    4  C4  UNL     1     -35.336  15.470  -3.646  1.00 20.00     0.129 C 
HETATM    5  C5  UNL     1     -34.131  14.676  -4.279  1.00 20.00     0.016 C 
HETATM    6  C3  UNL     1     -34.394  15.592  -5.494  1.00 20.00     0.182 C 
HETATM    7  C8  UNL     1     -34.341  13.190  -4.556  1.00 20.00     0.021 C 
HETATM    8  C9  UNL     1     -32.744  14.918  -3.671  1.00 20.00     0.021 C 
HETATM    9  O10 UNL     1     -35.210  16.483  -4.689  1.00 20.00    -0.366 OA
HETATM   10  C7  UNL     1     -36.733  14.855  -3.696  1.00 20.00     0.061 C 
ENDBRANCH   1   4
TORSDOF 1
ENDMDL
MODEL 3
REMARK VINA RESULT:      -4.5      1.296      1.632
REMARK  1 active torsions:
REMARK  status: ('A' for Active; 'I' for Inactive)
REMARK    1  A    between atoms: C1_1  and  C4_4 
ROOT
HETATM    1  C1  UNL     1     -34.753  15.673  -2.510  1.00 20.00    -0.068 C 
HETATM    2  C2  UNL     1     -34.699  16.296  -1.485  1.00 20.00    -0.108 C 
HETATM    3  C6  UNL     1     -34.634  17.055  -0.237  1.00 20.00     0.112 C 
ENDROOT
BRANCH   1   4
HETATM    4  C4  UNL     1     -34.819  14.920  -3.749  1.00 20.00     0.129 C 
HETATM    5  C5  UNL     1     -35.100  15.756  -5.054  1.00 20.00     0.016 C 
HETATM    6  C3  UNL     1     -36.247  14.739  -5.247  1.00 20.00     0.182 C 
HETATM    7  C8  UNL     1     -34.039  15.721  -6.150  1.00 20.00     0.021 C 
HETATM    8  C9  UNL     1     -35.630  17.183  -4.865  1.00 20.00     0.021 C 
HETATM    9  O10 UNL     1     -36.133  14.299  -3.869  1.00 20.00    -0.366 OA
HETATM   10  C7  UNL     1     -33.739  13.842  -3.781  1.00 20.00     0.061 C 
ENDBRANCH   1   4
TORSDOF 1
ENDMDL
MODEL 4
REMARK VINA RESULT:      -4.2     11.125     12.887
REMARK  1 active torsions:
REMARK  status: ('A' for Active; 'I' for Inactive)
REMARK    1  A    between atoms: C1_1  and  C4_4 
ROOT
HETATM    1  C1  UNL     1     -41.813   4.039  -1.870  1.00 20.00    -0.068 C 
HETATM    2  C2  UNL     1     -41.847   3.155  -2.683  1.00 20.00    -0.108 C 
HETATM    3  C6  UNL     1     -41.890   2.080  -3.673  1.00 20.00     0.112 C 
ENDROOT
BRANCH   1   4
HETATM    4  C4  UNL     1     -41.770   5.107  -0.889  1.00 20.00     0.129 C 
HETATM    5  C5  UNL     1     -42.218   6.530  -1.394  1.00 20.00     0.016 C 
HETATM    6  C3  UNL     1     -40.849   6.968  -0.828  1.00 20.00     0.182 C 
HETATM    7  C8  UNL     1     -43.417   7.173  -0.703  1.00 20.00     0.021 C 
HETATM    8  C9  UNL     1     -42.300   6.735  -2.912  1.00 20.00     0.021 C 
HETATM    9  O10 UNL     1     -40.400   5.590  -0.757  1.00 20.00    -0.366 OA
HETATM   10  C7  UNL     1     -42.271   4.612   0.466  1.00 20.00     0.061 C 
ENDBRANCH   1   4
TORSDOF 1
ENDMDL
MODEL 5
REMARK VINA RESULT:      -4.1      1.239      3.143
REMARK  1 active torsions:
REMARK  status: ('A' for Active; 'I' for Inactive)
REMARK    1  A    between atoms: C1_1  and  C4_4 
ROOT
HETATM    1  C1  UNL     1     -36.424  14.805  -3.740  1.00 20.00    -0.068 C 
HETATM    2  C2  UNL     1     -37.601  14.743  -3.972  1.00 20.00    -0.108 C 
HETATM    3  C6  UNL     1     -39.033  14.666  -4.255  1.00 20.00     0.112 C 
ENDROOT
BRANCH   1   4
HETATM    4  C4  UNL     1     -35.002  14.880  -3.461  1.00 20.00     0.129 C 
HETATM    5  C5  UNL     1     -34.054  14.996  -4.713  1.00 20.00     0.016 C 
HETATM    6  C3  UNL     1     -33.355  13.774  -4.077  1.00 20.00     0.182 C 
HETATM    7  C8  UNL     1     -33.176  16.240  -4.813  1.00 20.00     0.021 C 
HETATM    8  C9  UNL     1     -34.663  14.657  -6.080  1.00 20.00     0.021 C 
HETATM    9  O10 UNL     1     -34.488  13.539  -3.201  1.00 20.00    -0.366 OA
HETATM   10  C7  UNL     1     -34.738  15.771  -2.250  1.00 20.00     0.061 C 
ENDBRANCH   1   4
TORSDOF 1
ENDMDL
MODEL 6
REMARK VINA RESULT:      -3.9     11.608     13.393
REMARK  1 active torsions:
REMARK  status: ('A' for Active; 'I' for Inactive)
REMARK    1  A    between atoms: C1_1  and  C4_4 
ROOT
HETATM    1  C1  UNL     1     -42.099   3.801  -2.526  1.00 20.00    -0.068 C 
HETATM    2  C2  UNL     1     -41.695   2.825  -3.097  1.00 20.00    -0.108 C 
HETATM    3  C6  UNL     1     -41.203   1.637  -3.793  1.00 20.00     0.112 C 
ENDROOT
BRANCH   1   4
HETATM    4  C4  UNL     1     -42.586   4.982  -1.836  1.00 20.00     0.129 C 
HETATM    5  C5  UNL     1     -41.578   5.668  -0.840  1.00 20.00     0.016 C 
HETATM    6  C3  UNL     1     -42.741   5.517   0.165  1.00 20.00     0.182 C 
HETATM    7  C8  UNL     1     -41.182   7.114  -1.129  1.00 20.00     0.021 C 
HETATM    8  C9  UNL     1     -40.350   4.850  -0.419  1.00 20.00     0.021 C 
HETATM    9  O10 UNL     1     -43.417   4.575  -0.708  1.00 20.00    -0.366 OA
HETATM   10  C7  UNL     1     -43.402   5.859  -2.782  1.00 20.00     0.061 C 
ENDBRANCH   1   4
TORSDOF 1
ENDMDL
MODEL 7
REMARK VINA RESULT:      -3.9      1.990      4.183
REMARK  1 active torsions:
REMARK  status: ('A' for Active; 'I' for Inactive)
REMARK    1  A    between atoms: C1_1  and  C4_4 
ROOT
HETATM    1  C1  UNL     1     -34.330  15.381  -5.527  1.00 20.00    -0.068 C 
HETATM    2  C2  UNL     1     -34.831  14.938  -6.525  1.00 20.00    -0.108 C 
HETATM    3  C6  UNL     1     -35.439  14.397  -7.740  1.00 20.00     0.112 C 
ENDROOT
BRANCH   1   4
HETATM    4  C4  UNL     1     -33.725  15.917  -4.322  1.00 20.00     0.129 C 
HETATM    5  C5  UNL     1     -34.697  16.653  -3.325  1.00 20.00     0.016 C 
HETATM    6  C3  UNL     1     -33.675  17.804  -3.454  1.00 20.00     0.182 C 
HETATM    7  C8  UNL     1     -34.822  16.079  -1.917  1.00 20.00     0.021 C 
HETATM    8  C9  UNL     1     -36.076  17.051  -3.866  1.00 20.00     0.021 C 
HETATM    9  O10 UNL     1     -33.082  17.191  -4.628  1.00 20.00    -0.366 OA
HETATM   10  C7  UNL     1     -32.690  14.944  -3.762  1.00 20.00     0.061 C 
ENDBRANCH   1   4
TORSDOF 1
ENDMDL
MODEL 8
REMARK VINA RESULT:      -3.8     10.477     12.011
REMARK  1 active torsions:
REMARK  status: ('A' for Active; 'I' for Inactive)
REMARK    1  A    between atoms: C1_1  and  C4_4 
ROOT
HETATM    1  C1  UNL     1     -42.294   7.372  -2.842  1.00 20.00    -0.068 C 
HETATM    2  C2  UNL     1     -42.473   7.984  -3.859  1.00 20.00    -0.108 C 
HETATM    3  C6  UNL     1     -42.693   8.729  -5.098  1.00 20.00     0.112 C 
ENDROOT
BRANCH   1   4
HETATM    4  C4  UNL     1     -42.079   6.632  -1.612  1.00 20.00     0.129 C 
HETATM    5  C5  UNL     1     -42.115   5.062  -1.732  1.00 20.00     0.016 C 
HETATM    6  C3  UNL     1     -43.161   5.175  -0.601  1.00 20.00     0.182 C 
HETATM    7  C8  UNL     1     -40.851   4.300  -1.343  1.00 20.00     0.021 C 
HETATM    8  C9  UNL     1     -42.721   4.476  -3.013  1.00 20.00     0.021 C 
HETATM    9  O10 UNL     1     -43.318   6.598  -0.843  1.00 20.00    -0.366 OA
HETATM   10  C7  UNL     1     -40.978   7.284  -0.778  1.00 20.00     0.061 C 
ENDBRANCH   1   4
TORSDOF 1
ENDMDL
MODEL 9
REMARK VINA RESULT:      -3.8     11.247     12.554
REMARK  1 active torsions:
REMARK  status: ('A' for Active; 'I' for Inactive)
REMARK    1  A    between atoms: C1_1  and  C4_4 
ROOT
HETATM    1  C1  UNL     1     -42.445   6.294  -2.739  1.00 20.00    -0.068 C 
HETATM    2  C2  UNL     1     -42.838   7.107  -3.531  1.00 20.00    -0.108 C 
HETATM    3  C6  UNL     1     -43.318   8.097  -4.494  1.00 20.00     0.112 C 
ENDROOT
BRANCH   1   4
HETATM    4  C4  UNL     1     -41.970   5.312  -1.782  1.00 20.00     0.129 C 
HETATM    5  C5  UNL     1     -42.606   5.382  -0.343  1.00 20.00     0.016 C 
HETATM    6  C3  UNL     1     -41.131   5.439   0.114  1.00 20.00     0.182 C 
HETATM    7  C8  UNL     1     -43.367   4.154   0.147  1.00 20.00     0.021 C 
HETATM    8  C9  UNL     1     -43.365   6.665   0.020  1.00 20.00     0.021 C 
HETATM    9  O10 UNL     1     -40.690   5.748  -1.234  1.00 20.00    -0.366 OA
HETATM   10  C7  UNL     1     -41.802   3.949  -2.450  1.00 20.00     0.061 C 
ENDBRANCH   1   4
TORSDOF 1
ENDMDL
