MODEL 1
REMARK VINA RESULT:      -4.7      0.000      0.000
REMARK  2 active torsions:
REMARK  status: ('A' for Active; 'I' for Inactive)
REMARK    1  A    between atoms: C5_5  and  O10_10 
REMARK    2  A    between atoms: C9_9  and  O10_10 
ROOT
HETATM    1  C1  UNL     1     -32.372   9.230   1.660  1.00 20.00     0.012 C 
HETATM    2  C2  UNL     1     -32.210   8.203   2.259  1.00 20.00    -0.110 C 
HETATM    3  C3  UNL     1     -32.306   5.675   2.273  1.00 20.00     0.053 A 
HETATM    4  C4  UNL     1     -32.017   6.975   2.973  1.00 20.00     0.095 A 
HETATM    5  C5  UNL     1     -33.226   6.161   3.355  1.00 20.00     0.139 A 
ENDROOT
BRANCH   5   6
HETATM    6  O10 UNL     1     -33.148   5.472   4.593  1.00 20.00    -0.375 OA
BRANCH   6   7
HETATM    7  C9  UNL     1     -34.433   5.358   5.205  1.00 20.00     0.050 C 
HETATM    8  C6  UNL     1     -34.615   3.922   5.692  1.00 20.00     0.045 C 
HETATM    9  C7  UNL     1     -34.471   6.333   6.380  1.00 20.00     0.045 C 
HETATM   10  C8  UNL     1     -35.498   5.722   4.171  1.00 20.00     0.045 C 
ENDBRANCH   6   7
ENDBRANCH   5   6
TORSDOF 2
ENDMDL
MODEL 2
REMARK VINA RESULT:      -4.7      0.062      1.370
REMARK  2 active torsions:
REMARK  status: ('A' for Active; 'I' for Inactive)
REMARK    1  A    between atoms: C5_5  and  O10_10 
REMARK    2  A    between atoms: C9_9  and  O10_10 
ROOT
HETATM    1  C1  UNL     1     -32.340   9.234   1.650  1.00 20.00     0.012 C 
HETATM    2  C2  UNL     1     -32.182   8.209   2.254  1.00 20.00    -0.110 C 
HETATM    3  C3  UNL     1     -32.271   5.681   2.277  1.00 20.00     0.053 A 
HETATM    4  C4  UNL     1     -31.992   6.985   2.975  1.00 20.00     0.095 A 
HETATM    5  C5  UNL     1     -33.203   6.169   3.349  1.00 20.00     0.139 A 
ENDROOT
BRANCH   5   6
HETATM    6  O10 UNL     1     -33.134   5.486   4.590  1.00 20.00    -0.375 OA
BRANCH   6   7
HETATM    7  C9  UNL     1     -34.414   5.427   5.221  1.00 20.00     0.050 C 
HETATM    8  C6  UNL     1     -34.422   6.399   6.398  1.00 20.00     0.045 C 
HETATM    9  C7  UNL     1     -35.458   5.833   4.182  1.00 20.00     0.045 C 
HETATM   10  C8  UNL     1     -34.658   3.995   5.695  1.00 20.00     0.045 C 
ENDBRANCH   6   7
ENDBRANCH   5   6
TORSDOF 2
ENDMDL
MODEL 3
REMARK VINA RESULT:      -4.2     11.470     12.520
REMARK  2 active torsions:
REMARK  status: ('A' for Active; 'I' for Inactive)
REMARK    1  A    between atoms: C5_5  and  O10_10 
REMARK    2  A    between atoms: C9_9  and  O10_10 
ROOT
HETATM    1  C1  UNL     1     -32.139  18.845   0.206  1.00 20.00     0.012 C 
HETATM    2  C2  UNL     1     -33.031  18.393  -0.458  1.00 20.00    -0.110 C 
HETATM    3  C3  UNL     1     -34.719  16.547  -0.837  1.00 20.00     0.053 A 
HETATM    4  C4  UNL     1     -34.096  17.853  -1.252  1.00 20.00     0.095 A 
HETATM    5  C5  UNL     1     -33.840  16.603  -2.053  1.00 20.00     0.139 A 
ENDROOT
BRANCH   5   6
HETATM    6  O10 UNL     1     -34.504  16.518  -3.304  1.00 20.00    -0.375 OA
BRANCH   6   7
HETATM    7  C9  UNL     1     -34.060  15.384  -4.051  1.00 20.00     0.050 C 
HETATM    8  C6  UNL     1     -32.637  15.041  -3.615  1.00 20.00     0.045 C 
HETATM    9  C7  UNL     1     -35.011  14.229  -3.741  1.00 20.00     0.045 C 
HETATM   10  C8  UNL     1     -34.106  15.733  -5.538  1.00 20.00     0.045 C 
ENDBRANCH   6   7
ENDBRANCH   5   6
TORSDOF 2
ENDMDL
MODEL 4
REMARK VINA RESULT:      -4.1     11.456     12.727
REMARK  2 active torsions:
REMARK  status: ('A' for Active; 'I' for Inactive)
REMARK    1  A    between atoms: C5_5  and  O10_10 
REMARK    2  A    between atoms: C9_9  and  O10_10 
ROOT
HETATM    1  C1  UNL     1     -34.741  16.822  -0.418  1.00 20.00     0.012 C 
HETATM    2  C2  UNL     1     -34.260  16.667  -1.507  1.00 20.00    -0.110 C 
HETATM    3  C3  UNL     1     -33.785  17.600  -3.810  1.00 20.00     0.053 A 
HETATM    4  C4  UNL     1     -33.685  16.483  -2.806  1.00 20.00     0.095 A 
HETATM    5  C5  UNL     1     -34.604  16.355  -3.994  1.00 20.00     0.139 A 
ENDROOT
BRANCH   5   6
HETATM    6  O10 UNL     1     -34.174  15.477  -5.022  1.00 20.00    -0.375 OA
BRANCH   6   7
HETATM    7  C9  UNL     1     -35.187  14.522  -5.344  1.00 20.00     0.050 C 
HETATM    8  C6  UNL     1     -35.242  14.364  -6.863  1.00 20.00     0.045 C 
HETATM    9  C7  UNL     1     -34.803  13.202  -4.680  1.00 20.00     0.045 C 
HETATM   10  C8  UNL     1     -36.523  15.028  -4.801  1.00 20.00     0.045 C 
ENDBRANCH   6   7
ENDBRANCH   5   6
TORSDOF 2
ENDMDL
MODEL 5
REMARK VINA RESULT:      -4.1     11.390     12.698
REMARK  2 active torsions:
REMARK  status: ('A' for Active; 'I' for Inactive)
REMARK    1  A    between atoms: C5_5  and  O10_10 
REMARK    2  A    between atoms: C9_9  and  O10_10 
ROOT
HETATM    1  C1  UNL     1     -34.834  17.020  -0.097  1.00 20.00     0.012 C 
HETATM    2  C2  UNL     1     -34.297  16.836  -1.154  1.00 20.00    -0.110 C 
HETATM    3  C3  UNL     1     -33.805  17.654  -3.497  1.00 20.00     0.053 A 
HETATM    4  C4  UNL     1     -33.655  16.617  -2.417  1.00 20.00     0.095 A 
HETATM    5  C5  UNL     1     -34.510  16.335  -3.625  1.00 20.00     0.139 A 
ENDROOT
BRANCH   5   6
HETATM    6  O10 UNL     1     -33.968  15.431  -4.575  1.00 20.00    -0.375 OA
BRANCH   6   7
HETATM    7  C9  UNL     1     -34.991  14.636  -5.177  1.00 20.00     0.050 C 
HETATM    8  C6  UNL     1     -36.345  15.274  -4.872  1.00 20.00     0.045 C 
HETATM    9  C7  UNL     1     -34.733  14.616  -6.682  1.00 20.00     0.045 C 
HETATM   10  C8  UNL     1     -34.912  13.223  -4.599  1.00 20.00     0.045 C 
ENDBRANCH   6   7
ENDBRANCH   5   6
TORSDOF 2
ENDMDL
MODEL 6
REMARK VINA RESULT:      -4.1     11.555     13.227
REMARK  2 active torsions:
REMARK  status: ('A' for Active; 'I' for Inactive)
REMARK    1  A    between atoms: C5_5  and  O10_10 
REMARK    2  A    between atoms: C9_9  and  O10_10 
ROOT
HETATM    1  C1  UNL     1     -34.766  16.753  -1.104  1.00 20.00     0.012 C 
HETATM    2  C2  UNL     1     -34.536  15.967  -1.981  1.00 20.00    -0.110 C 
HETATM    3  C3  UNL     1     -32.912  15.056  -3.694  1.00 20.00     0.053 A 
HETATM    4  C4  UNL     1     -34.262  15.028  -3.029  1.00 20.00     0.095 A 
HETATM    5  C5  UNL     1     -34.122  15.537  -4.441  1.00 20.00     0.139 A 
ENDROOT
BRANCH   5   6
HETATM    6  O10 UNL     1     -34.603  14.678  -5.463  1.00 20.00    -0.375 OA
BRANCH   6   7
HETATM    7  C9  UNL     1     -35.284  15.414  -6.480  1.00 20.00     0.050 C 
HETATM    8  C6  UNL     1     -34.444  16.637  -6.842  1.00 20.00     0.045 C 
HETATM    9  C7  UNL     1     -35.441  14.492  -7.688  1.00 20.00     0.045 C 
HETATM   10  C8  UNL     1     -36.652  15.833  -5.943  1.00 20.00     0.045 C 
ENDBRANCH   6   7
ENDBRANCH   5   6
TORSDOF 2
ENDMDL
MODEL 7
REMARK VINA RESULT:      -4.1     11.113     12.455
REMARK  2 active torsions:
REMARK  status: ('A' for Active; 'I' for Inactive)
REMARK    1  A    between atoms: C5_5  and  O10_10 
REMARK    2  A    between atoms: C9_9  and  O10_10 
ROOT
HETATM    1  C1  UNL     1     -35.413  14.611  -7.622  1.00 20.00     0.012 C 
HETATM    2  C2  UNL     1     -34.950  14.420  -6.531  1.00 20.00    -0.110 C 
HETATM    3  C3  UNL     1     -35.087  13.222  -4.307  1.00 20.00     0.053 A 
HETATM    4  C4  UNL     1     -34.398  14.192  -5.228  1.00 20.00     0.095 A 
HETATM    5  C5  UNL     1     -35.151  14.694  -4.023  1.00 20.00     0.139 A 
ENDROOT
BRANCH   5   6
HETATM    6  O10 UNL     1     -34.359  15.153  -2.940  1.00 20.00    -0.375 OA
BRANCH   6   7
HETATM    7  C9  UNL     1     -34.761  16.457  -2.519  1.00 20.00     0.050 C 
HETATM    8  C6  UNL     1     -33.850  17.487  -3.184  1.00 20.00     0.045 C 
HETATM    9  C7  UNL     1     -36.210  16.657  -2.961  1.00 20.00     0.045 C 
HETATM   10  C8  UNL     1     -34.649  16.533  -0.996  1.00 20.00     0.045 C 
ENDBRANCH   6   7
ENDBRANCH   5   6
TORSDOF 2
ENDMDL
MODEL 8
REMARK VINA RESULT:      -4.1     11.058     12.370
REMARK  2 active torsions:
REMARK  status: ('A' for Active; 'I' for Inactive)
REMARK    1  A    between atoms: C5_5  and  O10_10 
REMARK    2  A    between atoms: C9_9  and  O10_10 
ROOT
HETATM    1  C1  UNL     1     -35.407  14.565  -7.539  1.00 20.00     0.012 C 
HETATM    2  C2  UNL     1     -34.929  14.401  -6.450  1.00 20.00    -0.110 C 
HETATM    3  C3  UNL     1     -35.024  13.245  -4.202  1.00 20.00     0.053 A 
HETATM    4  C4  UNL     1     -34.358  14.205  -5.150  1.00 20.00     0.095 A 
HETATM    5  C5  UNL     1     -35.102  14.722  -3.946  1.00 20.00     0.139 A 
ENDROOT
BRANCH   5   6
HETATM    6  O10 UNL     1     -34.301  15.211  -2.881  1.00 20.00    -0.375 OA
BRANCH   6   7
HETATM    7  C9  UNL     1     -34.739  16.501  -2.454  1.00 20.00     0.050 C 
HETATM    8  C6  UNL     1     -34.635  16.571  -0.931  1.00 20.00     0.045 C 
HETATM    9  C7  UNL     1     -33.822  17.537  -3.103  1.00 20.00     0.045 C 
HETATM   10  C8  UNL     1     -36.183  16.701  -2.911  1.00 20.00     0.045 C 
ENDBRANCH   6   7
ENDBRANCH   5   6
TORSDOF 2
ENDMDL
MODEL 9
REMARK VINA RESULT:      -3.7     11.052     12.456
REMARK  2 active torsions:
REMARK  status: ('A' for Active; 'I' for Inactive)
REMARK    1  A    between atoms: C5_5  and  O10_10 
REMARK    2  A    between atoms: C9_9  and  O10_10 
ROOT
HETATM    1  C1  UNL     1     -35.744  14.584  -6.908  1.00 20.00     0.012 C 
HETATM    2  C2  UNL     1     -34.981  14.671  -5.986  1.00 20.00    -0.110 C 
HETATM    3  C3  UNL     1     -34.122  13.733  -3.799  1.00 20.00     0.053 A 
HETATM    4  C4  UNL     1     -34.070  14.775  -4.885  1.00 20.00     0.095 A 
HETATM    5  C5  UNL     1     -34.614  15.124  -3.524  1.00 20.00     0.139 A 
ENDROOT
BRANCH   5   6
HETATM    6  O10 UNL     1     -33.779  15.929  -2.706  1.00 20.00    -0.375 OA
BRANCH   6   7
HETATM    7  C9  UNL     1     -34.511  17.003  -2.116  1.00 20.00     0.050 C 
HETATM    8  C6  UNL     1     -35.881  17.085  -2.786  1.00 20.00     0.045 C 
HETATM    9  C7  UNL     1     -34.658  16.697  -0.627  1.00 20.00     0.045 C 
HETATM   10  C8  UNL     1     -33.725  18.298  -2.322  1.00 20.00     0.045 C 
ENDBRANCH   6   7
ENDBRANCH   5   6
TORSDOF 2
ENDMDL
