MODEL 1
REMARK VINA RESULT:      -5.2      0.000      0.000
REMARK  4 active torsions:
REMARK  status: ('A' for Active; 'I' for Inactive)
REMARK    1  A    between atoms: C1_1  and  C4_4 
REMARK    2  A    between atoms: C5_5  and  C8_8 
REMARK    3  A    between atoms: C8_8  and  C10_10 
REMARK    4  A    between atoms: C9_9  and  C10_10 
ROOT
HETATM    1  C2  UNL     1     -34.064   5.323   3.089  1.00 20.00     0.016 C 
HETATM    2  C3  UNL     1     -33.675   6.480   4.837  1.00 20.00     0.016 C 
HETATM    3  C4  UNL     1     -34.848   5.565   4.403  1.00 20.00     0.055 C 
HETATM    4  C5  UNL     1     -33.375   6.690   3.331  1.00 20.00    -0.013 C 
ENDROOT
BRANCH   4   5
HETATM    5  C8  UNL     1     -31.915   6.793   2.938  1.00 20.00     0.005 C 
BRANCH   5   6
HETATM    6  C10 UNL     1     -31.524   8.231   2.585  1.00 20.00     0.000 C 
BRANCH   6   7
HETATM    7  C9  UNL     1     -31.841   8.556   1.125  1.00 20.00    -0.005 C 
HETATM    8  C7  UNL     1     -32.497   9.921   0.989  1.00 20.00     0.005 C 
ENDBRANCH   6   7
ENDBRANCH   5   6
ENDBRANCH   4   5
BRANCH   3   9
HETATM    9  C1  UNL     1     -35.071   4.364   5.247  1.00 20.00     0.127 C 
HETATM   10  C6  UNL     1     -35.189   4.593   6.730  1.00 20.00     0.091 C 
HETATM   11  O11 UNL     1     -35.155   3.239   4.759  1.00 20.00    -0.298 OA
ENDBRANCH   3   9
TORSDOF 4
ENDMDL
MODEL 2
REMARK VINA RESULT:      -4.9     10.996     12.021
REMARK  4 active torsions:
REMARK  status: ('A' for Active; 'I' for Inactive)
REMARK    1  A    between atoms: C1_1  and  C4_4 
REMARK    2  A    between atoms: C5_5  and  C8_8 
REMARK    3  A    between atoms: C8_8  and  C10_10 
REMARK    4  A    between atoms: C9_9  and  C10_10 
ROOT
HETATM    1  C2  UNL     1     -35.261  15.295  -3.092  1.00 20.00     0.016 C 
HETATM    2  C3  UNL     1     -33.158  15.166  -3.416  1.00 20.00     0.016 C 
HETATM    3  C4  UNL     1     -34.321  14.152  -3.547  1.00 20.00     0.055 C 
HETATM    4  C5  UNL     1     -34.033  15.929  -2.389  1.00 20.00    -0.013 C 
ENDROOT
BRANCH   4   5
HETATM    5  C8  UNL     1     -33.945  17.441  -2.412  1.00 20.00     0.005 C 
BRANCH   5   6
HETATM    6  C10 UNL     1     -33.952  18.030  -0.999  1.00 20.00     0.000 C 
BRANCH   6   7
HETATM    7  C9  UNL     1     -34.795  17.185  -0.043  1.00 20.00    -0.005 C 
HETATM    8  C7  UNL     1     -34.985  17.882   1.295  1.00 20.00     0.005 C 
ENDBRANCH   6   7
ENDBRANCH   5   6
ENDBRANCH   4   5
BRANCH   3   9
HETATM    9  C1  UNL     1     -34.564  13.628  -4.916  1.00 20.00     0.127 C 
HETATM   10  C6  UNL     1     -34.543  14.632  -6.037  1.00 20.00     0.091 C 
HETATM   11  O11 UNL     1     -34.772  12.434  -5.122  1.00 20.00    -0.298 OA
ENDBRANCH   3   9
TORSDOF 4
ENDMDL
MODEL 3
REMARK VINA RESULT:      -4.8      2.435      5.301
REMARK  4 active torsions:
REMARK  status: ('A' for Active; 'I' for Inactive)
REMARK    1  A    between atoms: C1_1  and  C4_4 
REMARK    2  A    between atoms: C5_5  and  C8_8 
REMARK    3  A    between atoms: C8_8  and  C10_10 
REMARK    4  A    between atoms: C9_9  and  C10_10 
ROOT
HETATM    1  C2  UNL     1     -32.519   6.091   2.399  1.00 20.00     0.016 C 
HETATM    2  C3  UNL     1     -33.540   7.580   3.532  1.00 20.00     0.016 C 
HETATM    3  C4  UNL     1     -32.162   7.536   2.826  1.00 20.00     0.055 C 
HETATM    4  C5  UNL     1     -33.460   6.035   3.630  1.00 20.00    -0.013 C 
ENDROOT
BRANCH   4   5
HETATM    5  C8  UNL     1     -34.759   5.276   3.456  1.00 20.00     0.005 C 
BRANCH   5   6
HETATM    6  C10 UNL     1     -35.176   4.565   4.746  1.00 20.00     0.000 C 
BRANCH   6   7
HETATM    7  C9  UNL     1     -34.150   4.776   5.859  1.00 20.00    -0.005 C 
HETATM    8  C7  UNL     1     -34.470   6.011   6.685  1.00 20.00     0.005 C 
ENDBRANCH   6   7
ENDBRANCH   5   6
ENDBRANCH   4   5
BRANCH   3   9
HETATM    9  C1  UNL     1     -31.979   8.506   1.716  1.00 20.00     0.127 C 
HETATM   10  C6  UNL     1     -32.663   9.839   1.863  1.00 20.00     0.091 C 
HETATM   11  O11 UNL     1     -31.301   8.234   0.726  1.00 20.00    -0.298 OA
ENDBRANCH   3   9
TORSDOF 4
ENDMDL
MODEL 4
REMARK VINA RESULT:      -4.8      1.381      1.593
REMARK  4 active torsions:
REMARK  status: ('A' for Active; 'I' for Inactive)
REMARK    1  A    between atoms: C1_1  and  C4_4 
REMARK    2  A    between atoms: C5_5  and  C8_8 
REMARK    3  A    between atoms: C8_8  and  C10_10 
REMARK    4  A    between atoms: C9_9  and  C10_10 
ROOT
HETATM    1  C2  UNL     1     -32.610   5.647   3.739  1.00 20.00     0.016 C 
HETATM    2  C3  UNL     1     -34.125   7.143   3.648  1.00 20.00     0.016 C 
HETATM    3  C4  UNL     1     -34.112   5.667   4.117  1.00 20.00     0.055 C 
HETATM    4  C5  UNL     1     -32.918   6.792   2.740  1.00 20.00    -0.013 C 
ENDROOT
BRANCH   4   5
HETATM    5  C8  UNL     1     -31.854   7.859   2.583  1.00 20.00     0.005 C 
BRANCH   5   6
HETATM    6  C10 UNL     1     -31.679   8.272   1.119  1.00 20.00     0.000 C 
BRANCH   6   7
HETATM    7  C9  UNL     1     -32.436   9.563   0.807  1.00 20.00    -0.005 C 
HETATM    8  C7  UNL     1     -32.767  10.335   2.075  1.00 20.00     0.005 C 
ENDBRANCH   6   7
ENDBRANCH   5   6
ENDBRANCH   4   5
BRANCH   3   9
HETATM    9  C1  UNL     1     -34.414   5.449   5.554  1.00 20.00     0.127 C 
HETATM   10  C6  UNL     1     -35.044   4.132   5.920  1.00 20.00     0.091 C 
HETATM   11  O11 UNL     1     -34.162   6.302   6.404  1.00 20.00    -0.298 OA
ENDBRANCH   3   9
TORSDOF 4
ENDMDL
MODEL 5
REMARK VINA RESULT:      -4.6      2.512      5.486
REMARK  4 active torsions:
REMARK  status: ('A' for Active; 'I' for Inactive)
REMARK    1  A    between atoms: C1_1  and  C4_4 
REMARK    2  A    between atoms: C5_5  and  C8_8 
REMARK    3  A    between atoms: C8_8  and  C10_10 
REMARK    4  A    between atoms: C9_9  and  C10_10 
ROOT
HETATM    1  C2  UNL     1     -33.047   6.519   2.526  1.00 20.00     0.016 C 
HETATM    2  C3  UNL     1     -32.173   7.864   3.930  1.00 20.00     0.016 C 
HETATM    3  C4  UNL     1     -31.798   7.432   2.490  1.00 20.00     0.055 C 
HETATM    4  C5  UNL     1     -32.906   6.505   4.070  1.00 20.00    -0.013 C 
ENDROOT
BRANCH   4   5
HETATM    5  C8  UNL     1     -34.193   6.508   4.869  1.00 20.00     0.005 C 
BRANCH   5   6
HETATM    6  C10 UNL     1     -34.017   5.827   6.229  1.00 20.00     0.000 C 
BRANCH   6   7
HETATM    7  C9  UNL     1     -34.898   4.584   6.352  1.00 20.00    -0.005 C 
HETATM    8  C7  UNL     1     -35.139   3.936   4.998  1.00 20.00     0.005 C 
ENDBRANCH   6   7
ENDBRANCH   5   6
ENDBRANCH   4   5
BRANCH   3   9
HETATM    9  C1  UNL     1     -31.822   8.512   1.471  1.00 20.00     0.127 C 
HETATM   10  C6  UNL     1     -32.579   9.763   1.828  1.00 20.00     0.091 C 
HETATM   11  O11 UNL     1     -31.250   8.390   0.389  1.00 20.00    -0.298 OA
ENDBRANCH   3   9
TORSDOF 4
ENDMDL
MODEL 6
REMARK VINA RESULT:      -4.5     11.258     12.028
REMARK  4 active torsions:
REMARK  status: ('A' for Active; 'I' for Inactive)
REMARK    1  A    between atoms: C1_1  and  C4_4 
REMARK    2  A    between atoms: C5_5  and  C8_8 
REMARK    3  A    between atoms: C8_8  and  C10_10 
REMARK    4  A    between atoms: C9_9  and  C10_10 
ROOT
HETATM    1  C2  UNL     1     -34.139  15.436  -2.532  1.00 20.00     0.016 C 
HETATM    2  C3  UNL     1     -36.062  16.353  -2.591  1.00 20.00     0.016 C 
HETATM    3  C4  UNL     1     -35.231  15.552  -3.624  1.00 20.00     0.055 C 
HETATM    4  C5  UNL     1     -34.722  16.732  -1.911  1.00 20.00    -0.013 C 
ENDROOT
BRANCH   4   5
HETATM    5  C8  UNL     1     -34.728  16.815  -0.399  1.00 20.00     0.005 C 
BRANCH   5   6
HETATM    6  C10 UNL     1     -34.194  18.162   0.096  1.00 20.00     0.000 C 
BRANCH   6   7
HETATM    7  C9  UNL     1     -32.881  18.532  -0.594  1.00 20.00    -0.005 C 
HETATM    8  C7  UNL     1     -31.822  18.952   0.414  1.00 20.00     0.005 C 
ENDBRANCH   6   7
ENDBRANCH   5   6
ENDBRANCH   4   5
BRANCH   3   9
HETATM    9  C1  UNL     1     -35.830  14.269  -4.071  1.00 20.00     0.127 C 
HETATM   10  C6  UNL     1     -34.903  13.284  -4.731  1.00 20.00     0.091 C 
HETATM   11  O11 UNL     1     -37.024  14.023  -3.911  1.00 20.00    -0.298 OA
ENDBRANCH   3   9
TORSDOF 4
ENDMDL
MODEL 7
REMARK VINA RESULT:      -4.3     11.206     12.266
REMARK  4 active torsions:
REMARK  status: ('A' for Active; 'I' for Inactive)
REMARK    1  A    between atoms: C1_1  and  C4_4 
REMARK    2  A    between atoms: C5_5  and  C8_8 
REMARK    3  A    between atoms: C8_8  and  C10_10 
REMARK    4  A    between atoms: C9_9  and  C10_10 
ROOT
HETATM    1  C2  UNL     1     -35.353  16.023  -2.474  1.00 20.00     0.016 C 
HETATM    2  C3  UNL     1     -33.266  15.959  -2.898  1.00 20.00     0.016 C 
HETATM    3  C4  UNL     1     -34.203  17.048  -2.319  1.00 20.00     0.055 C 
HETATM    4  C5  UNL     1     -34.513  15.354  -3.592  1.00 20.00    -0.013 C 
ENDROOT
BRANCH   4   5
HETATM    5  C8  UNL     1     -34.577  13.843  -3.677  1.00 20.00     0.005 C 
BRANCH   5   6
HETATM    6  C10 UNL     1     -34.770  13.365  -5.118  1.00 20.00     0.000 C 
BRANCH   6   7
HETATM    7  C9  UNL     1     -35.417  14.445  -5.985  1.00 20.00    -0.005 C 
HETATM    8  C7  UNL     1     -34.534  14.814  -7.167  1.00 20.00     0.005 C 
ENDBRANCH   6   7
ENDBRANCH   5   6
ENDBRANCH   4   5
BRANCH   3   9
HETATM    9  C1  UNL     1     -33.907  17.474  -0.927  1.00 20.00     0.127 C 
HETATM   10  C6  UNL     1     -34.922  17.109   0.122  1.00 20.00     0.091 C 
HETATM   11  O11 UNL     1     -32.882  18.093  -0.646  1.00 20.00    -0.298 OA
ENDBRANCH   3   9
TORSDOF 4
ENDMDL
MODEL 8
REMARK VINA RESULT:      -4.2     11.289     12.211
REMARK  4 active torsions:
REMARK  status: ('A' for Active; 'I' for Inactive)
REMARK    1  A    between atoms: C1_1  and  C4_4 
REMARK    2  A    between atoms: C5_5  and  C8_8 
REMARK    3  A    between atoms: C8_8  and  C10_10 
REMARK    4  A    between atoms: C9_9  and  C10_10 
ROOT
HETATM    1  C2  UNL     1     -33.633  17.828  -1.239  1.00 20.00     0.016 C 
HETATM    2  C3  UNL     1     -35.074  16.286  -1.533  1.00 20.00     0.016 C 
HETATM    3  C4  UNL     1     -34.522  17.003  -0.276  1.00 20.00     0.055 C 
HETATM    4  C5  UNL     1     -33.743  16.648  -2.239  1.00 20.00    -0.013 C 
ENDROOT
BRANCH   4   5
HETATM    5  C8  UNL     1     -33.829  17.009  -3.707  1.00 20.00     0.005 C 
BRANCH   5   6
HETATM    6  C10 UNL     1     -33.191  15.935  -4.592  1.00 20.00     0.000 C 
BRANCH   6   7
HETATM    7  C9  UNL     1     -34.195  14.843  -4.960  1.00 20.00    -0.005 C 
HETATM    8  C7  UNL     1     -33.916  13.553  -4.204  1.00 20.00     0.005 C 
ENDBRANCH   6   7
ENDBRANCH   5   6
ENDBRANCH   4   5
BRANCH   3   9
HETATM    9  C1  UNL     1     -35.515  17.783   0.506  1.00 20.00     0.127 C 
HETATM   10  C6  UNL     1     -35.458  17.642   2.003  1.00 20.00     0.091 C 
HETATM   11  O11 UNL     1     -36.343  18.508  -0.043  1.00 20.00    -0.298 OA
ENDBRANCH   3   9
TORSDOF 4
ENDMDL
MODEL 9
REMARK VINA RESULT:      -4.1     11.209     12.450
REMARK  4 active torsions:
REMARK  status: ('A' for Active; 'I' for Inactive)
REMARK    1  A    between atoms: C1_1  and  C4_4 
REMARK    2  A    between atoms: C5_5  and  C8_8 
REMARK    3  A    between atoms: C8_8  and  C10_10 
REMARK    4  A    between atoms: C9_9  and  C10_10 
ROOT
HETATM    1  C2  UNL     1     -34.809  17.040  -0.017  1.00 20.00     0.016 C 
HETATM    2  C3  UNL     1     -33.586  18.111  -1.394  1.00 20.00     0.016 C 
HETATM    3  C4  UNL     1     -34.163  18.447   0.003  1.00 20.00     0.055 C 
HETATM    4  C5  UNL     1     -34.764  17.118  -1.565  1.00 20.00    -0.013 C 
ENDROOT
BRANCH   4   5
HETATM    5  C8  UNL     1     -34.463  15.828  -2.300  1.00 20.00     0.005 C 
BRANCH   5   6
HETATM    6  C10 UNL     1     -35.684  15.319  -3.071  1.00 20.00     0.000 C 
BRANCH   6   7
HETATM    7  C9  UNL     1     -35.276  14.604  -4.359  1.00 20.00    -0.005 C 
HETATM    8  C7  UNL     1     -34.235  13.528  -4.092  1.00 20.00     0.005 C 
ENDBRANCH   6   7
ENDBRANCH   5   6
ENDBRANCH   4   5
BRANCH   3   9
HETATM    9  C1  UNL     1     -33.159  18.676   1.073  1.00 20.00     0.127 C 
HETATM   10  C6  UNL     1     -31.756  18.990   0.628  1.00 20.00     0.091 C 
HETATM   11  O11 UNL     1     -33.459  18.614   2.264  1.00 20.00    -0.298 OA
ENDBRANCH   3   9
TORSDOF 4
ENDMDL
