MODEL 1
REMARK VINA RESULT:      -4.6      0.000      0.000
REMARK  2 active torsions:
REMARK  status: ('A' for Active; 'I' for Inactive)
REMARK    1  A    between atoms: C1_1  and  C4_4 
REMARK    2  A    between atoms: C2_2  and  C5_5 
ROOT
HETATM    1  C5  UNL     1     -34.766  14.897  -3.407  1.00 20.00     0.235 A 
HETATM    2  C6  UNL     1     -34.095  15.148  -4.739  1.00 20.00     0.092 A 
HETATM    3  C8  UNL     1     -33.235  16.351  -4.979  1.00 20.00     0.049 C 
HETATM    4  C9  UNL     1     -34.657  14.479  -5.955  1.00 20.00     0.049 C 
HETATM    5  O10 UNL     1     -33.551  14.234  -3.777  1.00 20.00    -0.357 OA
ENDROOT
BRANCH   1   6
HETATM    6  C2  UNL     1     -34.590  15.801  -2.300  1.00 20.00    -0.066 C 
HETATM    7  C1  UNL     1     -34.443  16.554  -1.376  1.00 20.00    -0.070 C 
BRANCH   7   8
HETATM    8  C4  UNL     1     -34.263  17.446  -0.275  1.00 20.00    -0.018 C 
HETATM    9  C3  UNL     1     -35.148  17.434   0.731  1.00 20.00     0.028 C 
HETATM   10  C7  UNL     1     -33.083  18.373  -0.279  1.00 20.00     0.057 C 
ENDBRANCH   7   8
ENDBRANCH   1   6
TORSDOF 2
ENDMDL
MODEL 2
REMARK VINA RESULT:      -4.5      0.427      1.187
REMARK  2 active torsions:
REMARK  status: ('A' for Active; 'I' for Inactive)
REMARK    1  A    between atoms: C1_1  and  C4_4 
REMARK    2  A    between atoms: C2_2  and  C5_5 
ROOT
HETATM    1  C5  UNL     1     -35.083  15.076  -3.160  1.00 20.00     0.235 A 
HETATM    2  C6  UNL     1     -34.208  15.069  -4.393  1.00 20.00     0.092 A 
HETATM    3  C8  UNL     1     -33.031  15.985  -4.535  1.00 20.00     0.049 C 
HETATM    4  C9  UNL     1     -34.774  14.513  -5.663  1.00 20.00     0.049 C 
HETATM    5  O10 UNL     1     -34.058  14.094  -3.353  1.00 20.00    -0.357 OA
ENDROOT
BRANCH   1   6
HETATM    6  C2  UNL     1     -34.808  15.955  -2.053  1.00 20.00    -0.066 C 
HETATM    7  C1  UNL     1     -34.579  16.689  -1.130  1.00 20.00    -0.070 C 
BRANCH   7   8
HETATM    8  C4  UNL     1     -34.312  17.560  -0.031  1.00 20.00    -0.018 C 
HETATM    9  C3  UNL     1     -33.240  18.362  -0.074  1.00 20.00     0.028 C 
HETATM   10  C7  UNL     1     -35.246  17.552   1.144  1.00 20.00     0.057 C 
ENDBRANCH   7   8
ENDBRANCH   1   6
TORSDOF 2
ENDMDL
MODEL 3
REMARK VINA RESULT:      -4.5     10.990     11.909
REMARK  2 active torsions:
REMARK  status: ('A' for Active; 'I' for Inactive)
REMARK    1  A    between atoms: C1_1  and  C4_4 
REMARK    2  A    between atoms: C2_2  and  C5_5 
ROOT
HETATM    1  C5  UNL     1     -33.942   5.385   3.748  1.00 20.00     0.235 A 
HETATM    2  C6  UNL     1     -34.295   5.443   5.217  1.00 20.00     0.092 A 
HETATM    3  C8  UNL     1     -34.037   6.663   6.047  1.00 20.00     0.049 C 
HETATM    4  C9  UNL     1     -34.450   4.153   5.962  1.00 20.00     0.049 C 
HETATM    5  O10 UNL     1     -35.279   5.640   4.194  1.00 20.00    -0.357 OA
ENDROOT
BRANCH   1   6
HETATM    6  C2  UNL     1     -33.356   6.516   3.075  1.00 20.00    -0.066 C 
HETATM    7  C1  UNL     1     -32.868   7.459   2.514  1.00 20.00    -0.070 C 
BRANCH   7   8
HETATM    8  C4  UNL     1     -32.293   8.580   1.843  1.00 20.00    -0.018 C 
HETATM    9  C3  UNL     1     -31.382   8.374   0.881  1.00 20.00     0.028 C 
HETATM   10  C7  UNL     1     -32.729   9.961   2.236  1.00 20.00     0.057 C 
ENDBRANCH   7   8
ENDBRANCH   1   6
TORSDOF 2
ENDMDL
MODEL 4
REMARK VINA RESULT:      -4.4     10.987     11.888
REMARK  2 active torsions:
REMARK  status: ('A' for Active; 'I' for Inactive)
REMARK    1  A    between atoms: C1_1  and  C4_4 
REMARK    2  A    between atoms: C2_2  and  C5_5 
ROOT
HETATM    1  C5  UNL     1     -33.906   5.386   3.750  1.00 20.00     0.235 A 
HETATM    2  C6  UNL     1     -34.280   5.441   5.214  1.00 20.00     0.092 A 
HETATM    3  C8  UNL     1     -34.065   6.672   6.041  1.00 20.00     0.049 C 
HETATM    4  C9  UNL     1     -34.410   4.151   5.963  1.00 20.00     0.049 C 
HETATM    5  O10 UNL     1     -35.255   5.607   4.177  1.00 20.00    -0.357 OA
ENDROOT
BRANCH   1   6
HETATM    6  C2  UNL     1     -33.342   6.529   3.079  1.00 20.00    -0.066 C 
HETATM    7  C1  UNL     1     -32.872   7.482   2.519  1.00 20.00    -0.070 C 
BRANCH   7   8
HETATM    8  C4  UNL     1     -32.319   8.615   1.849  1.00 20.00    -0.018 C 
HETATM    9  C3  UNL     1     -32.671   9.847   2.243  1.00 20.00     0.028 C 
HETATM   10  C7  UNL     1     -31.356   8.392   0.720  1.00 20.00     0.057 C 
ENDBRANCH   7   8
ENDBRANCH   1   6
TORSDOF 2
ENDMDL
MODEL 5
REMARK VINA RESULT:      -4.3      2.118      5.322
REMARK  2 active torsions:
REMARK  status: ('A' for Active; 'I' for Inactive)
REMARK    1  A    between atoms: C1_1  and  C4_4 
REMARK    2  A    between atoms: C2_2  and  C5_5 
ROOT
HETATM    1  C5  UNL     1     -34.824  17.198  -0.043  1.00 20.00     0.235 A 
HETATM    2  C6  UNL     1     -33.928  18.237   0.592  1.00 20.00     0.092 A 
HETATM    3  C8  UNL     1     -32.608  18.619  -0.007  1.00 20.00     0.049 C 
HETATM    4  C9  UNL     1     -34.107  18.536   2.048  1.00 20.00     0.049 C 
HETATM    5  O10 UNL     1     -35.054  18.602  -0.215  1.00 20.00    -0.357 OA
ENDROOT
BRANCH   1   6
HETATM    6  C2  UNL     1     -34.454  16.542  -1.271  1.00 20.00    -0.066 C 
HETATM    7  C1  UNL     1     -34.146  15.995  -2.295  1.00 20.00    -0.070 C 
BRANCH   7   8
HETATM    8  C4  UNL     1     -33.776  15.350  -3.513  1.00 20.00    -0.018 C 
HETATM    9  C3  UNL     1     -33.174  16.061  -4.477  1.00 20.00     0.028 C 
HETATM   10  C7  UNL     1     -34.072  13.888  -3.679  1.00 20.00     0.057 C 
ENDBRANCH   7   8
ENDBRANCH   1   6
TORSDOF 2
ENDMDL
MODEL 6
REMARK VINA RESULT:      -4.2     10.834     11.459
REMARK  2 active torsions:
REMARK  status: ('A' for Active; 'I' for Inactive)
REMARK    1  A    between atoms: C1_1  and  C4_4 
REMARK    2  A    between atoms: C2_2  and  C5_5 
ROOT
HETATM    1  C5  UNL     1     -32.039   6.983   2.391  1.00 20.00     0.235 A 
HETATM    2  C6  UNL     1     -32.203   8.407   1.910  1.00 20.00     0.092 A 
HETATM    3  C8  UNL     1     -33.252   9.318   2.471  1.00 20.00     0.049 C 
HETATM    4  C9  UNL     1     -31.661   8.768   0.561  1.00 20.00     0.049 C 
HETATM    5  O10 UNL     1     -31.192   8.040   2.858  1.00 20.00    -0.357 OA
ENDROOT
BRANCH   1   6
HETATM    6  C2  UNL     1     -32.878   6.445   3.430  1.00 20.00    -0.066 C 
HETATM    7  C1  UNL     1     -33.578   5.995   4.297  1.00 20.00    -0.070 C 
BRANCH   7   8
HETATM    8  C4  UNL     1     -34.406   5.456   5.328  1.00 20.00    -0.018 C 
HETATM    9  C3  UNL     1     -34.416   6.039   6.534  1.00 20.00     0.028 C 
HETATM   10  C7  UNL     1     -35.243   4.247   5.027  1.00 20.00     0.057 C 
ENDBRANCH   7   8
ENDBRANCH   1   6
TORSDOF 2
ENDMDL
MODEL 7
REMARK VINA RESULT:      -4.0     13.325     15.204
REMARK  2 active torsions:
REMARK  status: ('A' for Active; 'I' for Inactive)
REMARK    1  A    between atoms: C1_1  and  C4_4 
REMARK    2  A    between atoms: C2_2  and  C5_5 
ROOT
HETATM    1  C5  UNL     1     -41.246   4.560  -1.397  1.00 20.00     0.235 A 
HETATM    2  C6  UNL     1     -41.712   5.987  -1.580  1.00 20.00     0.092 A 
HETATM    3  C8  UNL     1     -42.524   6.410  -2.766  1.00 20.00     0.049 C 
HETATM    4  C9  UNL     1     -40.979   7.073  -0.855  1.00 20.00     0.049 C 
HETATM    5  O10 UNL     1     -42.395   5.073  -0.712  1.00 20.00    -0.357 OA
ENDROOT
BRANCH   1   6
HETATM    6  C2  UNL     1     -41.581   3.536  -2.353  1.00 20.00    -0.066 C 
HETATM    7  C1  UNL     1     -41.860   2.682  -3.150  1.00 20.00    -0.070 C 
BRANCH   7   8
HETATM    8  C4  UNL     1     -42.192   1.662  -4.093  1.00 20.00    -0.018 C 
HETATM    9  C3  UNL     1     -43.076   1.928  -5.064  1.00 20.00     0.028 C 
HETATM   10  C7  UNL     1     -41.536   0.318  -3.967  1.00 20.00     0.057 C 
ENDBRANCH   7   8
ENDBRANCH   1   6
TORSDOF 2
ENDMDL
MODEL 8
REMARK VINA RESULT:      -3.9      1.596      1.965
REMARK  2 active torsions:
REMARK  status: ('A' for Active; 'I' for Inactive)
REMARK    1  A    between atoms: C1_1  and  C4_4 
REMARK    2  A    between atoms: C2_2  and  C5_5 
ROOT
HETATM    1  C5  UNL     1     -34.608  15.578  -2.641  1.00 20.00     0.235 A 
HETATM    2  C6  UNL     1     -35.789  15.591  -3.584  1.00 20.00     0.092 A 
HETATM    3  C8  UNL     1     -37.013  16.412  -3.312  1.00 20.00     0.049 C 
HETATM    4  C9  UNL     1     -35.958  14.440  -4.528  1.00 20.00     0.049 C 
HETATM    5  O10 UNL     1     -34.614  16.373  -3.833  1.00 20.00    -0.357 OA
ENDROOT
BRANCH   1   6
HETATM    6  C2  UNL     1     -34.601  16.376  -1.442  1.00 20.00    -0.066 C 
HETATM    7  C1  UNL     1     -34.595  17.043  -0.442  1.00 20.00    -0.070 C 
BRANCH   7   8
HETATM    8  C4  UNL     1     -34.593  17.837   0.744  1.00 20.00    -0.018 C 
HETATM    9  C3  UNL     1     -35.391  17.496   1.764  1.00 20.00     0.028 C 
HETATM   10  C7  UNL     1     -33.692  19.035   0.812  1.00 20.00     0.057 C 
ENDBRANCH   7   8
ENDBRANCH   1   6
TORSDOF 2
ENDMDL
MODEL 9
REMARK VINA RESULT:      -3.7     14.020     15.188
REMARK  2 active torsions:
REMARK  status: ('A' for Active; 'I' for Inactive)
REMARK    1  A    between atoms: C1_1  and  C4_4 
REMARK    2  A    between atoms: C2_2  and  C5_5 
ROOT
HETATM    1  C5  UNL     1     -41.464   2.409  -3.420  1.00 20.00     0.235 A 
HETATM    2  C6  UNL     1     -42.387   1.213  -3.363  1.00 20.00     0.092 A 
HETATM    3  C8  UNL     1     -43.417   1.057  -2.286  1.00 20.00     0.049 C 
HETATM    4  C9  UNL     1     -41.973  -0.040  -4.072  1.00 20.00     0.049 C 
HETATM    5  O10 UNL     1     -42.635   2.318  -4.241  1.00 20.00    -0.357 OA
ENDROOT
BRANCH   1   6
HETATM    6  C2  UNL     1     -41.550   3.466  -2.447  1.00 20.00    -0.066 C 
HETATM    7  C1  UNL     1     -41.622   4.348  -1.634  1.00 20.00    -0.070 C 
BRANCH   7   8
HETATM    8  C4  UNL     1     -41.700   5.396  -0.667  1.00 20.00    -0.018 C 
HETATM    9  C3  UNL     1     -42.413   5.205   0.452  1.00 20.00     0.028 C 
HETATM   10  C7  UNL     1     -40.978   6.684  -0.935  1.00 20.00     0.057 C 
ENDBRANCH   7   8
ENDBRANCH   1   6
TORSDOF 2
ENDMDL
