MODEL 1
REMARK VINA RESULT:      -4.5      0.000      0.000
REMARK  3 active torsions:
REMARK  status: ('A' for Active; 'I' for Inactive)
REMARK    1  A    between atoms: C2_2  and  C6_6 
REMARK    2  A    between atoms: C3_3  and  C5_5 
REMARK    3  A    between atoms: C3_3  and  O10_10 
ROOT
HETATM    1  C4  UNL     1     -36.005  16.301  -3.688  1.00 20.00     0.033 A 
HETATM    2  C5  UNL     1     -35.782  14.853  -3.346  1.00 20.00     0.101 A 
HETATM    3  C6  UNL     1     -34.724  15.887  -2.998  1.00 20.00     0.023 A 
HETATM    4  C7  UNL     1     -34.558  16.254  -1.547  1.00 20.00     0.023 C 
ENDROOT
BRANCH   2   5
HETATM    5  C3  UNL     1     -35.573  13.883  -4.430  1.00 20.00     0.263 C 
HETATM    6  O9  UNL     1     -35.047  12.788  -4.277  1.00 20.00    -0.265 OA
BRANCH   5   7
HETATM    7  O10 UNL     1     -36.051  14.395  -5.600  1.00 20.00    -0.326 OA
HETATM    8  C8  UNL     1     -35.187  14.250  -6.732  1.00 20.00     0.213 C 
ENDBRANCH   5   7
ENDBRANCH   2   5
BRANCH   3   9
HETATM    9  C2  UNL     1     -33.497  15.936  -3.801  1.00 20.00     0.093 C 
HETATM   10  C1  UNL     1     -33.258  16.781  -4.811  1.00 20.00     0.052 C 
HETATM   11  F11 UNL     1     -32.520  15.050  -3.491  1.00 20.00    -0.211 F 
ENDBRANCH   3   9
TORSDOF 3
ENDMDL
MODEL 2
REMARK VINA RESULT:      -4.3      1.348      2.238
REMARK  3 active torsions:
REMARK  status: ('A' for Active; 'I' for Inactive)
REMARK    1  A    between atoms: C2_2  and  C6_6 
REMARK    2  A    between atoms: C3_3  and  C5_5 
REMARK    3  A    between atoms: C3_3  and  O10_10 
ROOT
HETATM    1  C4  UNL     1     -34.189  15.115  -5.867  1.00 20.00     0.033 A 
HETATM    2  C5  UNL     1     -35.504  14.981  -5.150  1.00 20.00     0.101 A 
HETATM    3  C6  UNL     1     -34.488  16.010  -4.684  1.00 20.00     0.023 A 
HETATM    4  C7  UNL     1     -34.787  17.460  -4.959  1.00 20.00     0.023 C 
ENDROOT
BRANCH   2   5
HETATM    5  C3  UNL     1     -35.775  13.767  -4.368  1.00 20.00     0.263 C 
HETATM    6  O9  UNL     1     -35.061  12.773  -4.376  1.00 20.00    -0.265 OA
BRANCH   5   7
HETATM    7  O10 UNL     1     -36.925  13.931  -3.653  1.00 20.00    -0.326 OA
HETATM    8  C8  UNL     1     -37.887  14.817  -4.233  1.00 20.00     0.213 C 
ENDBRANCH   5   7
ENDBRANCH   2   5
BRANCH   3   9
HETATM    9  C2  UNL     1     -33.736  15.748  -3.452  1.00 20.00     0.093 C 
HETATM   10  C1  UNL     1     -33.980  16.299  -2.256  1.00 20.00     0.052 C 
HETATM   11  F11 UNL     1     -32.706  14.872  -3.531  1.00 20.00    -0.211 F 
ENDBRANCH   3   9
TORSDOF 3
ENDMDL
MODEL 3
REMARK VINA RESULT:      -4.0      2.304      3.503
REMARK  3 active torsions:
REMARK  status: ('A' for Active; 'I' for Inactive)
REMARK    1  A    between atoms: C2_2  and  C6_6 
REMARK    2  A    between atoms: C3_3  and  C5_5 
REMARK    3  A    between atoms: C3_3  and  O10_10 
ROOT
HETATM    1  C4  UNL     1     -34.817  13.376  -4.272  1.00 20.00     0.033 A 
HETATM    2  C5  UNL     1     -34.697  14.545  -3.333  1.00 20.00     0.101 A 
HETATM    3  C6  UNL     1     -35.570  14.653  -4.573  1.00 20.00     0.023 A 
HETATM    4  C7  UNL     1     -37.063  14.650  -4.378  1.00 20.00     0.023 C 
ENDROOT
BRANCH   2   5
HETATM    5  C3  UNL     1     -33.417  15.260  -3.236  1.00 20.00     0.263 C 
HETATM    6  O9  UNL     1     -32.354  14.820  -3.653  1.00 20.00    -0.265 OA
BRANCH   5   7
HETATM    7  O10 UNL     1     -33.610  16.461  -2.621  1.00 20.00    -0.326 OA
HETATM    8  C8  UNL     1     -34.484  16.437  -1.488  1.00 20.00     0.213 C 
ENDBRANCH   5   7
ENDBRANCH   2   5
BRANCH   3   9
HETATM    9  C2  UNL     1     -35.088  15.451  -5.706  1.00 20.00     0.093 C 
HETATM   10  C1  UNL     1     -34.523  14.966  -6.819  1.00 20.00     0.052 C 
HETATM   11  F11 UNL     1     -35.228  16.796  -5.619  1.00 20.00    -0.211 F 
ENDBRANCH   3   9
TORSDOF 3
ENDMDL
MODEL 4
REMARK VINA RESULT:      -3.9      2.130      3.824
REMARK  3 active torsions:
REMARK  status: ('A' for Active; 'I' for Inactive)
REMARK    1  A    between atoms: C2_2  and  C6_6 
REMARK    2  A    between atoms: C3_3  and  C5_5 
REMARK    3  A    between atoms: C3_3  and  O10_10 
ROOT
HETATM    1  C4  UNL     1     -35.067  16.545  -5.510  1.00 20.00     0.033 A 
HETATM    2  C5  UNL     1     -33.749  15.849  -5.311  1.00 20.00     0.101 A 
HETATM    3  C6  UNL     1     -34.970  15.053  -5.739  1.00 20.00     0.023 A 
HETATM    4  C7  UNL     1     -35.017  14.556  -7.159  1.00 20.00     0.023 C 
ENDROOT
BRANCH   2   5
HETATM    5  C3  UNL     1     -33.197  15.730  -3.954  1.00 20.00     0.263 C 
HETATM    6  O9  UNL     1     -32.445  14.833  -3.597  1.00 20.00    -0.265 OA
BRANCH   5   7
HETATM    7  O10 UNL     1     -33.652  16.759  -3.184  1.00 20.00    -0.326 OA
HETATM    8  C8  UNL     1     -34.212  16.381  -1.922  1.00 20.00     0.213 C 
ENDBRANCH   5   7
ENDBRANCH   2   5
BRANCH   3   9
HETATM    9  C2  UNL     1     -35.629  14.191  -4.751  1.00 20.00     0.093 C 
HETATM   10  C1  UNL     1     -36.729  14.502  -4.053  1.00 20.00     0.052 C 
HETATM   11  F11 UNL     1     -35.079  12.973  -4.528  1.00 20.00    -0.211 F 
ENDBRANCH   3   9
TORSDOF 3
ENDMDL
MODEL 5
REMARK VINA RESULT:      -3.9     11.932     12.843
REMARK  3 active torsions:
REMARK  status: ('A' for Active; 'I' for Inactive)
REMARK    1  A    between atoms: C2_2  and  C6_6 
REMARK    2  A    between atoms: C3_3  and  C5_5 
REMARK    3  A    between atoms: C3_3  and  O10_10 
ROOT
HETATM    1  C4  UNL     1     -35.329   6.184   3.869  1.00 20.00     0.033 A 
HETATM    2  C5  UNL     1     -34.085   5.463   3.427  1.00 20.00     0.101 A 
HETATM    3  C6  UNL     1     -34.711   5.141   4.774  1.00 20.00     0.023 A 
HETATM    4  C7  UNL     1     -35.425   3.822   4.914  1.00 20.00     0.023 C 
ENDROOT
BRANCH   2   5
HETATM    5  C3  UNL     1     -32.821   6.205   3.331  1.00 20.00     0.263 C 
HETATM    6  O9  UNL     1     -31.718   5.703   3.505  1.00 20.00    -0.265 OA
BRANCH   5   7
HETATM    7  O10 UNL     1     -33.077   7.508   3.024  1.00 20.00    -0.326 OA
HETATM    8  C8  UNL     1     -32.114   8.141   2.176  1.00 20.00     0.213 C 
ENDBRANCH   5   7
ENDBRANCH   2   5
BRANCH   3   9
HETATM    9  C2  UNL     1     -34.053   5.629   5.991  1.00 20.00     0.093 C 
HETATM   10  C1  UNL     1     -33.927   6.913   6.348  1.00 20.00     0.052 C 
HETATM   11  F11 UNL     1     -33.529   4.700   6.826  1.00 20.00    -0.211 F 
ENDBRANCH   3   9
TORSDOF 3
ENDMDL
MODEL 6
REMARK VINA RESULT:      -3.9      1.206      2.221
REMARK  3 active torsions:
REMARK  status: ('A' for Active; 'I' for Inactive)
REMARK    1  A    between atoms: C2_2  and  C6_6 
REMARK    2  A    between atoms: C3_3  and  C5_5 
REMARK    3  A    between atoms: C3_3  and  O10_10 
ROOT
HETATM    1  C4  UNL     1     -32.893  15.052  -3.675  1.00 20.00     0.033 A 
HETATM    2  C5  UNL     1     -33.852  14.906  -4.824  1.00 20.00     0.101 A 
HETATM    3  C6  UNL     1     -33.961  16.101  -3.891  1.00 20.00     0.023 A 
HETATM    4  C7  UNL     1     -33.530  17.443  -4.421  1.00 20.00     0.023 C 
ENDROOT
BRANCH   2   5
HETATM    5  C3  UNL     1     -34.846  13.824  -4.798  1.00 20.00     0.263 C 
HETATM    6  O9  UNL     1     -34.765  12.838  -4.077  1.00 20.00    -0.265 OA
BRANCH   5   7
HETATM    7  O10 UNL     1     -35.842  14.096  -5.687  1.00 20.00    -0.326 OA
HETATM    8  C8  UNL     1     -35.411  14.407  -7.016  1.00 20.00     0.213 C 
ENDBRANCH   5   7
ENDBRANCH   2   5
BRANCH   3   9
HETATM    9  C2  UNL     1     -35.058  16.135  -2.916  1.00 20.00     0.093 C 
HETATM   10  C1  UNL     1     -36.247  16.722  -3.100  1.00 20.00     0.052 C 
HETATM   11  F11 UNL     1     -34.850  15.516  -1.729  1.00 20.00    -0.211 F 
ENDBRANCH   3   9
TORSDOF 3
ENDMDL
MODEL 7
REMARK VINA RESULT:      -3.9      2.007      2.966
REMARK  3 active torsions:
REMARK  status: ('A' for Active; 'I' for Inactive)
REMARK    1  A    between atoms: C2_2  and  C6_6 
REMARK    2  A    between atoms: C3_3  and  C5_5 
REMARK    3  A    between atoms: C3_3  and  O10_10 
ROOT
HETATM    1  C4  UNL     1     -36.749  14.712  -4.696  1.00 20.00     0.033 A 
HETATM    2  C5  UNL     1     -35.386  14.657  -4.063  1.00 20.00     0.101 A 
HETATM    3  C6  UNL     1     -35.631  15.561  -5.260  1.00 20.00     0.023 A 
HETATM    4  C7  UNL     1     -35.685  17.046  -5.015  1.00 20.00     0.023 C 
ENDROOT
BRANCH   2   5
HETATM    5  C3  UNL     1     -34.586  13.430  -4.184  1.00 20.00     0.263 C 
HETATM    6  O9  UNL     1     -34.906  12.470  -4.873  1.00 20.00    -0.265 OA
BRANCH   5   7
HETATM    7  O10 UNL     1     -33.462  13.540  -3.420  1.00 20.00    -0.326 OA
HETATM    8  C8  UNL     1     -32.655  14.693  -3.678  1.00 20.00     0.213 C 
ENDBRANCH   5   7
ENDBRANCH   2   5
BRANCH   3   9
HETATM    9  C2  UNL     1     -35.094  15.161  -6.566  1.00 20.00     0.093 C 
HETATM   10  C1  UNL     1     -35.790  14.581  -7.552  1.00 20.00     0.052 C 
HETATM   11  F11 UNL     1     -33.781  15.401  -6.794  1.00 20.00    -0.211 F 
ENDBRANCH   3   9
TORSDOF 3
ENDMDL
MODEL 8
REMARK VINA RESULT:      -3.9      2.187      3.343
REMARK  3 active torsions:
REMARK  status: ('A' for Active; 'I' for Inactive)
REMARK    1  A    between atoms: C2_2  and  C6_6 
REMARK    2  A    between atoms: C3_3  and  C5_5 
REMARK    3  A    between atoms: C3_3  and  O10_10 
ROOT
HETATM    1  C4  UNL     1     -35.497  14.758  -3.391  1.00 20.00     0.033 A 
HETATM    2  C5  UNL     1     -34.736  15.903  -4.001  1.00 20.00     0.101 A 
HETATM    3  C6  UNL     1     -35.726  15.115  -4.843  1.00 20.00     0.023 A 
HETATM    4  C7  UNL     1     -37.025  15.786  -5.204  1.00 20.00     0.023 C 
ENDROOT
BRANCH   2   5
HETATM    5  C3  UNL     1     -33.287  15.775  -4.206  1.00 20.00     0.263 C 
HETATM    6  O9  UNL     1     -32.584  14.954  -3.631  1.00 20.00    -0.265 OA
BRANCH   5   7
HETATM    7  O10 UNL     1     -32.871  16.699  -5.118  1.00 20.00    -0.326 OA
HETATM    8  C8  UNL     1     -33.534  17.966  -5.054  1.00 20.00     0.213 C 
ENDBRANCH   5   7
ENDBRANCH   2   5
BRANCH   3   9
HETATM    9  C2  UNL     1     -35.207  14.175  -5.843  1.00 20.00     0.093 C 
HETATM   10  C1  UNL     1     -35.114  14.407  -7.158  1.00 20.00     0.052 C 
HETATM   11  F11 UNL     1     -34.783  12.969  -5.396  1.00 20.00    -0.211 F 
ENDBRANCH   3   9
TORSDOF 3
ENDMDL
MODEL 9
REMARK VINA RESULT:      -3.9      2.238      2.961
REMARK  3 active torsions:
REMARK  status: ('A' for Active; 'I' for Inactive)
REMARK    1  A    between atoms: C2_2  and  C6_6 
REMARK    2  A    between atoms: C3_3  and  C5_5 
REMARK    3  A    between atoms: C3_3  and  O10_10 
ROOT
HETATM    1  C4  UNL     1     -33.974  16.020  -3.379  1.00 20.00     0.033 A 
HETATM    2  C5  UNL     1     -35.160  15.150  -3.065  1.00 20.00     0.101 A 
HETATM    3  C6  UNL     1     -34.138  14.697  -4.094  1.00 20.00     0.023 A 
HETATM    4  C7  UNL     1     -33.213  13.572  -3.711  1.00 20.00     0.023 C 
ENDROOT
BRANCH   2   5
HETATM    5  C3  UNL     1     -36.503  15.593  -3.466  1.00 20.00     0.263 C 
HETATM    6  O9  UNL     1     -36.781  16.746  -3.769  1.00 20.00    -0.265 OA
BRANCH   5   7
HETATM    7  O10 UNL     1     -37.360  14.533  -3.443  1.00 20.00    -0.326 OA
HETATM    8  C8  UNL     1     -38.652  14.776  -4.007  1.00 20.00     0.213 C 
ENDBRANCH   5   7
ENDBRANCH   2   5
BRANCH   3   9
HETATM    9  C2  UNL     1     -34.497  14.756  -5.516  1.00 20.00     0.093 C 
HETATM   10  C1  UNL     1     -34.128  15.714  -6.375  1.00 20.00     0.052 C 
HETATM   11  F11 UNL     1     -35.266  13.752  -6.001  1.00 20.00    -0.211 F 
ENDBRANCH   3   9
TORSDOF 3
ENDMDL
