MODEL 1
REMARK VINA RESULT:      -4.8      0.000      0.000
REMARK  1 active torsions:
REMARK  status: ('A' for Active; 'I' for Inactive)
REMARK    1  A    between atoms: C3_3  and  C9_9 
ROOT
HETATM    1  C1  UNL     1     -34.453  13.265  -4.609  1.00 20.00    -0.030 C 
HETATM    2  C2  UNL     1     -33.435  13.594  -3.786  1.00 20.00    -0.029 C 
HETATM    3  C4  UNL     1     -35.107  14.232  -5.576  1.00 20.00     0.032 C 
HETATM    4  C5  UNL     1     -32.839  14.988  -3.683  1.00 20.00     0.044 C 
HETATM    5  C6  UNL     1     -34.530  16.902  -6.058  1.00 20.00     0.007 C 
HETATM    6  C7  UNL     1     -33.442  17.296  -5.007  1.00 20.00     0.018 C 
HETATM    7  C8  UNL     1     -34.197  15.441  -5.675  1.00 20.00     0.005 C 
HETATM    8  C9  UNL     1     -33.855  15.988  -4.245  1.00 20.00     0.027 C 
ENDROOT
BRANCH   8   9
HETATM    9  C3  UNL     1     -35.021  16.239  -3.217  1.00 20.00     0.132 C 
HETATM   10  C10 UNL     1     -34.645  16.257  -1.760  1.00 20.00     0.091 C 
HETATM   11  O11 UNL     1     -36.182  16.412  -3.586  1.00 20.00    -0.298 OA
ENDBRANCH   8   9
TORSDOF 1
ENDMDL
MODEL 2
REMARK VINA RESULT:      -4.8      1.813      3.054
REMARK  1 active torsions:
REMARK  status: ('A' for Active; 'I' for Inactive)
REMARK    1  A    between atoms: C3_3  and  C9_9 
ROOT
HETATM    1  C1  UNL     1     -34.639  15.302  -7.082  1.00 20.00    -0.030 C 
HETATM    2  C2  UNL     1     -33.853  15.988  -6.226  1.00 20.00    -0.029 C 
HETATM    3  C4  UNL     1     -35.964  14.674  -6.698  1.00 20.00     0.032 C 
HETATM    4  C5  UNL     1     -34.166  16.184  -4.752  1.00 20.00     0.044 C 
HETATM    5  C6  UNL     1     -37.271  14.677  -4.251  1.00 20.00     0.007 C 
HETATM    6  C7  UNL     1     -36.286  15.359  -3.246  1.00 20.00     0.018 C 
HETATM    7  C8  UNL     1     -36.356  15.258  -5.354  1.00 20.00     0.005 C 
HETATM    8  C9  UNL     1     -35.178  15.114  -4.329  1.00 20.00     0.027 C 
ENDROOT
BRANCH   8   9
HETATM    9  C3  UNL     1     -34.474  13.716  -4.156  1.00 20.00     0.132 C 
HETATM   10  C10 UNL     1     -33.070  13.727  -3.615  1.00 20.00     0.091 C 
HETATM   11  O11 UNL     1     -35.043  12.665  -4.449  1.00 20.00    -0.298 OA
ENDBRANCH   8   9
TORSDOF 1
ENDMDL
MODEL 3
REMARK VINA RESULT:      -4.6      1.416      3.207
REMARK  1 active torsions:
REMARK  status: ('A' for Active; 'I' for Inactive)
REMARK    1  A    between atoms: C3_3  and  C9_9 
ROOT
HETATM    1  C1  UNL     1     -32.894  14.830  -3.452  1.00 20.00    -0.030 C 
HETATM    2  C2  UNL     1     -33.386  13.647  -3.878  1.00 20.00    -0.029 C 
HETATM    3  C4  UNL     1     -33.755  16.023  -3.088  1.00 20.00     0.032 C 
HETATM    4  C5  UNL     1     -34.863  13.367  -4.096  1.00 20.00     0.044 C 
HETATM    5  C6  UNL     1     -36.517  16.277  -3.116  1.00 20.00     0.007 C 
HETATM    6  C7  UNL     1     -37.058  14.947  -3.735  1.00 20.00     0.018 C 
HETATM    7  C8  UNL     1     -35.180  15.517  -2.959  1.00 20.00     0.005 C 
HETATM    8  C9  UNL     1     -35.591  14.708  -4.238  1.00 20.00     0.027 C 
ENDROOT
BRANCH   8   9
HETATM    9  C3  UNL     1     -35.338  15.334  -5.660  1.00 20.00     0.132 C 
HETATM   10  C10 UNL     1     -35.342  14.385  -6.827  1.00 20.00     0.091 C 
HETATM   11  O11 UNL     1     -35.147  16.540  -5.811  1.00 20.00    -0.298 OA
ENDBRANCH   8   9
TORSDOF 1
ENDMDL
MODEL 4
REMARK VINA RESULT:      -4.6      1.407      2.991
REMARK  1 active torsions:
REMARK  status: ('A' for Active; 'I' for Inactive)
REMARK    1  A    between atoms: C3_3  and  C9_9 
ROOT
HETATM    1  C1  UNL     1     -34.491  13.292  -4.882  1.00 20.00    -0.030 C 
HETATM    2  C2  UNL     1     -35.508  13.926  -5.503  1.00 20.00    -0.029 C 
HETATM    3  C4  UNL     1     -33.787  13.823  -3.650  1.00 20.00     0.032 C 
HETATM    4  C5  UNL     1     -36.054  15.279  -5.078  1.00 20.00     0.044 C 
HETATM    5  C6  UNL     1     -34.258  16.152  -2.219  1.00 20.00     0.007 C 
HETATM    6  C7  UNL     1     -35.346  16.933  -3.026  1.00 20.00     0.018 C 
HETATM    7  C8  UNL     1     -34.651  14.940  -3.095  1.00 20.00     0.005 C 
HETATM    8  C9  UNL     1     -34.993  15.978  -4.220  1.00 20.00     0.027 C 
ENDROOT
BRANCH   8   9
HETATM    9  C3  UNL     1     -33.834  16.550  -5.120  1.00 20.00     0.132 C 
HETATM   10  C10 UNL     1     -34.246  17.312  -6.350  1.00 20.00     0.091 C 
HETATM   11  O11 UNL     1     -32.650  16.383  -4.831  1.00 20.00    -0.298 OA
ENDBRANCH   8   9
TORSDOF 1
ENDMDL
MODEL 5
REMARK VINA RESULT:      -4.4      1.291      2.028
REMARK  1 active torsions:
REMARK  status: ('A' for Active; 'I' for Inactive)
REMARK    1  A    between atoms: C3_3  and  C9_9 
ROOT
HETATM    1  C1  UNL     1     -34.071  14.023  -3.468  1.00 20.00    -0.030 C 
HETATM    2  C2  UNL     1     -33.304  15.129  -3.574  1.00 20.00    -0.029 C 
HETATM    3  C4  UNL     1     -34.954  13.494  -4.580  1.00 20.00     0.032 C 
HETATM    4  C5  UNL     1     -33.259  16.019  -4.805  1.00 20.00     0.044 C 
HETATM    5  C6  UNL     1     -35.340  14.481  -7.143  1.00 20.00     0.007 C 
HETATM    6  C7  UNL     1     -34.550  15.829  -7.202  1.00 20.00     0.018 C 
HETATM    7  C8  UNL     1     -34.534  14.205  -5.853  1.00 20.00     0.005 C 
HETATM    8  C9  UNL     1     -34.521  15.758  -5.634  1.00 20.00     0.027 C 
ENDROOT
BRANCH   8   9
HETATM    9  C3  UNL     1     -35.773  16.455  -4.982  1.00 20.00     0.132 C 
HETATM   10  C10 UNL     1     -35.567  17.842  -4.436  1.00 20.00     0.091 C 
HETATM   11  O11 UNL     1     -36.867  15.894  -4.922  1.00 20.00    -0.298 OA
ENDBRANCH   8   9
TORSDOF 1
ENDMDL
MODEL 6
REMARK VINA RESULT:      -4.4      1.286      2.366
REMARK  1 active torsions:
REMARK  status: ('A' for Active; 'I' for Inactive)
REMARK    1  A    between atoms: C3_3  and  C9_9 
ROOT
HETATM    1  C1  UNL     1     -34.416  14.650  -6.156  1.00 20.00    -0.030 C 
HETATM    2  C2  UNL     1     -34.812  13.658  -5.331  1.00 20.00    -0.029 C 
HETATM    3  C4  UNL     1     -33.975  16.021  -5.681  1.00 20.00     0.032 C 
HETATM    4  C5  UNL     1     -34.914  13.794  -3.821  1.00 20.00     0.044 C 
HETATM    5  C6  UNL     1     -33.782  17.013  -3.099  1.00 20.00     0.007 C 
HETATM    6  C7  UNL     1     -34.368  15.898  -2.172  1.00 20.00     0.018 C 
HETATM    7  C8  UNL     1     -33.738  15.916  -4.187  1.00 20.00     0.005 C 
HETATM    8  C9  UNL     1     -34.987  15.286  -3.477  1.00 20.00     0.027 C 
ENDROOT
BRANCH   8   9
HETATM    9  C3  UNL     1     -36.420  15.862  -3.785  1.00 20.00     0.132 C 
HETATM   10  C10 UNL     1     -37.564  14.886  -3.743  1.00 20.00     0.091 C 
HETATM   11  O11 UNL     1     -36.596  17.051  -4.047  1.00 20.00    -0.298 OA
ENDBRANCH   8   9
TORSDOF 1
ENDMDL
MODEL 7
REMARK VINA RESULT:      -4.4      1.527      3.089
REMARK  1 active torsions:
REMARK  status: ('A' for Active; 'I' for Inactive)
REMARK    1  A    between atoms: C3_3  and  C9_9 
ROOT
HETATM    1  C1  UNL     1     -36.911  15.943  -3.500  1.00 20.00    -0.030 C 
HETATM    2  C2  UNL     1     -35.960  16.434  -2.678  1.00 20.00    -0.029 C 
HETATM    3  C4  UNL     1     -36.716  14.734  -4.394  1.00 20.00     0.032 C 
HETATM    4  C5  UNL     1     -34.552  15.873  -2.571  1.00 20.00     0.044 C 
HETATM    5  C6  UNL     1     -34.490  13.107  -4.696  1.00 20.00     0.007 C 
HETATM    6  C7  UNL     1     -33.362  13.769  -3.838  1.00 20.00     0.018 C 
HETATM    7  C8  UNL     1     -35.455  14.035  -3.922  1.00 20.00     0.005 C 
HETATM    8  C9  UNL     1     -34.265  15.053  -3.834  1.00 20.00     0.027 C 
ENDROOT
BRANCH   8   9
HETATM    9  C3  UNL     1     -33.966  15.997  -5.058  1.00 20.00     0.132 C 
HETATM   10  C10 UNL     1     -33.421  17.363  -4.741  1.00 20.00     0.091 C 
HETATM   11  O11 UNL     1     -34.166  15.635  -6.217  1.00 20.00    -0.298 OA
ENDBRANCH   8   9
TORSDOF 1
ENDMDL
MODEL 8
REMARK VINA RESULT:      -4.4     11.662     13.183
REMARK  1 active torsions:
REMARK  status: ('A' for Active; 'I' for Inactive)
REMARK    1  A    between atoms: C3_3  and  C9_9 
ROOT
HETATM    1  C1  UNL     1     -43.008   5.048  -3.156  1.00 20.00    -0.030 C 
HETATM    2  C2  UNL     1     -42.285   4.022  -2.660  1.00 20.00    -0.029 C 
HETATM    3  C4  UNL     1     -42.864   6.485  -2.698  1.00 20.00     0.032 C 
HETATM    4  C5  UNL     1     -41.262   4.160  -1.545  1.00 20.00     0.044 C 
HETATM    5  C6  UNL     1     -41.160   7.565  -0.794  1.00 20.00     0.007 C 
HETATM    6  C7  UNL     1     -40.427   6.347  -0.142  1.00 20.00     0.018 C 
HETATM    7  C8  UNL     1     -41.576   6.567  -1.899  1.00 20.00     0.005 C 
HETATM    8  C9  UNL     1     -41.551   5.461  -0.788  1.00 20.00     0.027 C 
ENDROOT
BRANCH   8   9
HETATM    9  C3  UNL     1     -42.796   5.292   0.160  1.00 20.00     0.132 C 
HETATM   10  C10 UNL     1     -43.197   3.884   0.505  1.00 20.00     0.091 C 
HETATM   11  O11 UNL     1     -43.412   6.264   0.599  1.00 20.00    -0.298 OA
ENDBRANCH   8   9
TORSDOF 1
ENDMDL
MODEL 9
REMARK VINA RESULT:      -4.4      1.144      3.372
REMARK  1 active torsions:
REMARK  status: ('A' for Active; 'I' for Inactive)
REMARK    1  A    between atoms: C3_3  and  C9_9 
ROOT
HETATM    1  C1  UNL     1     -33.550  17.242  -4.627  1.00 20.00    -0.030 C 
HETATM    2  C2  UNL     1     -33.825  16.936  -5.913  1.00 20.00    -0.029 C 
HETATM    3  C4  UNL     1     -33.591  16.241  -3.491  1.00 20.00     0.032 C 
HETATM    4  C5  UNL     1     -34.258  15.559  -6.388  1.00 20.00     0.044 C 
HETATM    5  C6  UNL     1     -34.186  13.532  -3.550  1.00 20.00     0.007 C 
HETATM    6  C7  UNL     1     -34.628  13.228  -5.019  1.00 20.00     0.018 C 
HETATM    7  C8  UNL     1     -33.637  14.861  -4.119  1.00 20.00     0.005 C 
HETATM    8  C9  UNL     1     -34.790  14.780  -5.179  1.00 20.00     0.027 C 
ENDROOT
BRANCH   8   9
HETATM    9  C3  UNL     1     -36.233  15.273  -4.788  1.00 20.00     0.132 C 
HETATM   10  C10 UNL     1     -37.185  15.548  -5.921  1.00 20.00     0.091 C 
HETATM   11  O11 UNL     1     -36.567  15.426  -3.614  1.00 20.00    -0.298 OA
ENDBRANCH   8   9
TORSDOF 1
ENDMDL
