MODEL 1
REMARK VINA RESULT:      -4.9      0.000      0.000
REMARK  2 active torsions:
REMARK  status: ('A' for Active; 'I' for Inactive)
REMARK    1  A    between atoms: C1_1  and  C8_8 
REMARK    2  A    between atoms: C2_2  and  C9_9 
ROOT
HETATM    1  C3  UNL     1     -34.038   6.358   5.579  1.00 20.00     0.082 C 
HETATM    2  C6  UNL     1     -35.490   5.597   3.656  1.00 20.00     0.040 A 
HETATM    3  C7  UNL     1     -34.380   4.600   3.797  1.00 20.00     0.040 A 
HETATM    4  C9  UNL     1     -34.146   6.041   4.184  1.00 20.00     0.112 A 
HETATM    5  N10 UNL     1     -33.949   6.616   6.707  1.00 20.00    -0.195 NA
ENDROOT
BRANCH   4   6
HETATM    6  C2  UNL     1     -33.316   6.846   3.336  1.00 20.00    -0.081 C 
HETATM    7  C1  UNL     1     -32.621   7.520   2.626  1.00 20.00    -0.100 C 
BRANCH   7   8
HETATM    8  C8  UNL     1     -31.775   8.341   1.760  1.00 20.00     0.065 A 
HETATM    9  C4  UNL     1     -32.257   9.708   1.410  1.00 20.00     0.018 A 
HETATM   10  C5  UNL     1     -32.256   8.620   0.378  1.00 20.00     0.018 A 
ENDBRANCH   7   8
ENDBRANCH   4   6
TORSDOF 2
ENDMDL
MODEL 2
REMARK VINA RESULT:      -4.8     10.334     11.224
REMARK  2 active torsions:
REMARK  status: ('A' for Active; 'I' for Inactive)
REMARK    1  A    between atoms: C1_1  and  C8_8 
REMARK    2  A    between atoms: C2_2  and  C9_9 
ROOT
HETATM    1  C3  UNL     1     -36.792  14.488  -3.797  1.00 20.00     0.082 C 
HETATM    2  C6  UNL     1     -34.586  14.629  -5.022  1.00 20.00     0.040 A 
HETATM    3  C7  UNL     1     -34.500  13.464  -4.081  1.00 20.00     0.040 A 
HETATM    4  C9  UNL     1     -35.368  14.649  -3.730  1.00 20.00     0.112 A 
HETATM    5  N10 UNL     1     -37.944  14.359  -3.851  1.00 20.00    -0.195 NA
ENDROOT
BRANCH   4   6
HETATM    6  C2  UNL     1     -34.928  15.526  -2.684  1.00 20.00    -0.081 C 
HETATM    7  C1  UNL     1     -34.560  16.260  -1.808  1.00 20.00    -0.100 C 
BRANCH   7   8
HETATM    8  C8  UNL     1     -34.112  17.155  -0.741  1.00 20.00     0.065 A 
HETATM    9  C4  UNL     1     -35.012  17.343   0.433  1.00 20.00     0.018 A 
HETATM   10  C5  UNL     1     -34.835  18.446  -0.566  1.00 20.00     0.018 A 
ENDBRANCH   7   8
ENDBRANCH   4   6
TORSDOF 2
ENDMDL
MODEL 3
REMARK VINA RESULT:      -4.7     10.550     11.317
REMARK  2 active torsions:
REMARK  status: ('A' for Active; 'I' for Inactive)
REMARK    1  A    between atoms: C1_1  and  C8_8 
REMARK    2  A    between atoms: C2_2  and  C9_9 
ROOT
HETATM    1  C3  UNL     1     -35.356  13.636  -4.281  1.00 20.00     0.082 C 
HETATM    2  C6  UNL     1     -37.574  14.762  -3.837  1.00 20.00     0.040 A 
HETATM    3  C7  UNL     1     -36.861  15.577  -4.873  1.00 20.00     0.040 A 
HETATM    4  C9  UNL     1     -36.064  14.806  -3.848  1.00 20.00     0.112 A 
HETATM    5  N10 UNL     1     -34.782  12.690  -4.630  1.00 20.00    -0.195 NA
ENDROOT
BRANCH   4   6
HETATM    6  C2  UNL     1     -35.400  15.541  -2.812  1.00 20.00    -0.081 C 
HETATM    7  C1  UNL     1     -34.844  16.157  -1.944  1.00 20.00    -0.100 C 
BRANCH   7   8
HETATM    8  C8  UNL     1     -34.166  16.907  -0.887  1.00 20.00     0.065 A 
HETATM    9  C4  UNL     1     -34.969  17.312   0.303  1.00 20.00     0.018 A 
HETATM   10  C5  UNL     1     -34.539  18.338  -0.701  1.00 20.00     0.018 A 
ENDBRANCH   7   8
ENDBRANCH   4   6
TORSDOF 2
ENDMDL
MODEL 4
REMARK VINA RESULT:      -4.6     10.489     11.582
REMARK  2 active torsions:
REMARK  status: ('A' for Active; 'I' for Inactive)
REMARK    1  A    between atoms: C1_1  and  C8_8 
REMARK    2  A    between atoms: C2_2  and  C9_9 
ROOT
HETATM    1  C3  UNL     1     -33.924  15.786  -4.935  1.00 20.00     0.082 C 
HETATM    2  C6  UNL     1     -33.363  13.635  -3.731  1.00 20.00     0.040 A 
HETATM    3  C7  UNL     1     -34.839  13.625  -3.996  1.00 20.00     0.040 A 
HETATM    4  C9  UNL     1     -34.123  14.940  -3.793  1.00 20.00     0.112 A 
HETATM    5  N10 UNL     1     -33.764  16.471  -5.856  1.00 20.00    -0.195 NA
ENDROOT
BRANCH   4   6
HETATM    6  C2  UNL     1     -34.348  15.652  -2.569  1.00 20.00    -0.081 C 
HETATM    7  C1  UNL     1     -34.536  16.248  -1.544  1.00 20.00    -0.100 C 
BRANCH   7   8
HETATM    8  C8  UNL     1     -34.766  16.975  -0.296  1.00 20.00     0.065 A 
HETATM    9  C4  UNL     1     -35.236  18.387  -0.389  1.00 20.00     0.018 A 
HETATM   10  C5  UNL     1     -33.833  18.086   0.045  1.00 20.00     0.018 A 
ENDBRANCH   7   8
ENDBRANCH   4   6
TORSDOF 2
ENDMDL
MODEL 5
REMARK VINA RESULT:      -4.6     10.343     11.614
REMARK  2 active torsions:
REMARK  status: ('A' for Active; 'I' for Inactive)
REMARK    1  A    between atoms: C1_1  and  C8_8 
REMARK    2  A    between atoms: C2_2  and  C9_9 
ROOT
HETATM    1  C3  UNL     1     -33.646  14.217  -3.750  1.00 20.00     0.082 C 
HETATM    2  C6  UNL     1     -34.736  16.185  -4.903  1.00 20.00     0.040 A 
HETATM    3  C7  UNL     1     -33.288  16.524  -4.717  1.00 20.00     0.040 A 
HETATM    4  C9  UNL     1     -33.977  15.613  -3.729  1.00 20.00     0.112 A 
HETATM    5  N10 UNL     1     -33.379  13.089  -3.765  1.00 20.00    -0.195 NA
ENDROOT
BRANCH   4   6
HETATM    6  C2  UNL     1     -34.265  16.126  -2.421  1.00 20.00    -0.081 C 
HETATM    7  C1  UNL     1     -34.506  16.556  -1.327  1.00 20.00    -0.100 C 
BRANCH   7   8
HETATM    8  C8  UNL     1     -34.800  17.079   0.008  1.00 20.00     0.065 A 
HETATM    9  C4  UNL     1     -35.365  18.455   0.107  1.00 20.00     0.018 A 
HETATM   10  C5  UNL     1     -33.950  18.190   0.522  1.00 20.00     0.018 A 
ENDBRANCH   7   8
ENDBRANCH   4   6
TORSDOF 2
ENDMDL
MODEL 6
REMARK VINA RESULT:      -4.6     10.329     11.497
REMARK  2 active torsions:
REMARK  status: ('A' for Active; 'I' for Inactive)
REMARK    1  A    between atoms: C1_1  and  C8_8 
REMARK    2  A    between atoms: C2_2  and  C9_9 
ROOT
HETATM    1  C3  UNL     1     -32.688  18.570  -0.259  1.00 20.00     0.082 C 
HETATM    2  C6  UNL     1     -35.214  18.604  -0.320  1.00 20.00     0.040 A 
HETATM    3  C7  UNL     1     -34.806  17.506   0.615  1.00 20.00     0.040 A 
HETATM    4  C9  UNL     1     -33.910  17.875  -0.543  1.00 20.00     0.112 A 
HETATM    5  N10 UNL     1     -31.699  19.131  -0.030  1.00 20.00    -0.195 NA
ENDROOT
BRANCH   4   6
HETATM    6  C2  UNL     1     -33.822  16.967  -1.650  1.00 20.00    -0.081 C 
HETATM    7  C1  UNL     1     -33.749  16.206  -2.575  1.00 20.00    -0.100 C 
BRANCH   7   8
HETATM    8  C8  UNL     1     -33.659  15.278  -3.703  1.00 20.00     0.065 A 
HETATM    9  C4  UNL     1     -34.371  13.973  -3.589  1.00 20.00     0.018 A 
HETATM   10  C5  UNL     1     -32.875  14.025  -3.513  1.00 20.00     0.018 A 
ENDBRANCH   7   8
ENDBRANCH   4   6
TORSDOF 2
ENDMDL
MODEL 7
REMARK VINA RESULT:      -4.3     10.626     11.573
REMARK  2 active torsions:
REMARK  status: ('A' for Active; 'I' for Inactive)
REMARK    1  A    between atoms: C1_1  and  C8_8 
REMARK    2  A    between atoms: C2_2  and  C9_9 
ROOT
HETATM    1  C3  UNL     1     -35.723  18.182  -2.025  1.00 20.00     0.082 C 
HETATM    2  C6  UNL     1     -34.802  17.059   0.044  1.00 20.00     0.040 A 
HETATM    3  C7  UNL     1     -33.670  17.803  -0.601  1.00 20.00     0.040 A 
HETATM    4  C9  UNL     1     -34.789  17.254  -1.454  1.00 20.00     0.112 A 
HETATM    5  N10 UNL     1     -36.478  18.931  -2.487  1.00 20.00    -0.195 NA
ENDROOT
BRANCH   4   6
HETATM    6  C2  UNL     1     -34.514  16.117  -2.284  1.00 20.00    -0.081 C 
HETATM    7  C1  UNL     1     -34.284  15.165  -2.978  1.00 20.00    -0.100 C 
BRANCH   7   8
HETATM    8  C8  UNL     1     -34.004  14.005  -3.824  1.00 20.00     0.065 A 
HETATM    9  C4  UNL     1     -34.402  14.078  -5.259  1.00 20.00     0.018 A 
HETATM   10  C5  UNL     1     -35.162  13.202  -4.310  1.00 20.00     0.018 A 
ENDBRANCH   7   8
ENDBRANCH   4   6
TORSDOF 2
ENDMDL
MODEL 8
REMARK VINA RESULT:      -4.2     10.152     11.304
REMARK  2 active torsions:
REMARK  status: ('A' for Active; 'I' for Inactive)
REMARK    1  A    between atoms: C1_1  and  C8_8 
REMARK    2  A    between atoms: C2_2  and  C9_9 
ROOT
HETATM    1  C3  UNL     1     -34.930  17.540   0.708  1.00 20.00     0.082 C 
HETATM    2  C6  UNL     1     -32.806  18.361  -0.389  1.00 20.00     0.040 A 
HETATM    3  C7  UNL     1     -33.945  19.121  -1.000  1.00 20.00     0.040 A 
HETATM    4  C9  UNL     1     -34.168  17.715  -0.495  1.00 20.00     0.112 A 
HETATM    5  N10 UNL     1     -35.547  17.398   1.680  1.00 20.00    -0.195 NA
ENDROOT
BRANCH   4   6
HETATM    6  C2  UNL     1     -34.349  16.668  -1.458  1.00 20.00    -0.081 C 
HETATM    7  C1  UNL     1     -34.500  15.792  -2.265  1.00 20.00    -0.100 C 
BRANCH   7   8
HETATM    8  C8  UNL     1     -34.684  14.725  -3.249  1.00 20.00     0.065 A 
HETATM    9  C4  UNL     1     -33.473  13.990  -3.713  1.00 20.00     0.018 A 
HETATM   10  C5  UNL     1     -34.168  14.953  -4.628  1.00 20.00     0.018 A 
ENDBRANCH   7   8
ENDBRANCH   4   6
TORSDOF 2
ENDMDL
MODEL 9
REMARK VINA RESULT:      -4.2      9.677     11.336
REMARK  2 active torsions:
REMARK  status: ('A' for Active; 'I' for Inactive)
REMARK    1  A    between atoms: C1_1  and  C8_8 
REMARK    2  A    between atoms: C2_2  and  C9_9 
ROOT
HETATM    1  C3  UNL     1     -42.040   6.872  -2.596  1.00 20.00     0.082 C 
HETATM    2  C6  UNL     1     -42.195   6.082  -0.200  1.00 20.00     0.040 A 
HETATM    3  C7  UNL     1     -40.744   6.076  -0.578  1.00 20.00     0.040 A 
HETATM    4  C9  UNL     1     -41.795   5.835  -1.635  1.00 20.00     0.112 A 
HETATM    5  N10 UNL     1     -42.238   7.710  -3.373  1.00 20.00    -0.195 NA
ENDROOT
BRANCH   4   6
HETATM    6  C2  UNL     1     -41.937   4.507  -2.160  1.00 20.00    -0.081 C 
HETATM    7  C1  UNL     1     -42.057   3.397  -2.598  1.00 20.00    -0.100 C 
BRANCH   7   8
HETATM    8  C8  UNL     1     -42.202   2.043  -3.132  1.00 20.00     0.065 A 
HETATM    9  C4  UNL     1     -41.181   1.566  -4.109  1.00 20.00     0.018 A 
HETATM   10  C5  UNL     1     -42.569   1.897  -4.570  1.00 20.00     0.018 A 
ENDBRANCH   7   8
ENDBRANCH   4   6
TORSDOF 2
ENDMDL
