MODEL 1
REMARK VINA RESULT:      -5.1      0.000      0.000
REMARK  2 active torsions:
REMARK  status: ('A' for Active; 'I' for Inactive)
REMARK    1  A    between atoms: C3_3  and  C7_7 
REMARK    2  A    between atoms: C8_8  and  C10_10 
ROOT
HETATM    1  C1  UNL     1     -34.809  17.078   0.013  1.00 20.00     0.012 C 
HETATM    2  C2  UNL     1     -34.371  16.810  -1.073  1.00 20.00    -0.117 C 
HETATM    3  C10 UNL     1     -33.834  16.489  -2.399  1.00 20.00     0.098 C 
ENDROOT
BRANCH   3   4
HETATM    4  C8  UNL     1     -34.415  15.186  -2.929  1.00 20.00     0.008 C 
HETATM    5  C6  UNL     1     -35.906  15.276  -3.241  1.00 20.00     0.006 C 
HETATM    6  C4  UNL     1     -36.167  14.028  -4.074  1.00 20.00     0.001 C 
HETATM    7  C5  UNL     1     -34.857  13.727  -4.808  1.00 20.00     0.013 C 
HETATM    8  C7  UNL     1     -33.806  14.682  -4.236  1.00 20.00     0.060 C 
BRANCH   8   9
HETATM    9  C3  UNL     1     -33.582  15.768  -5.278  1.00 20.00     0.127 C 
HETATM   10  C9  UNL     1     -34.296  15.604  -6.592  1.00 20.00     0.091 C 
HETATM   11  O11 UNL     1     -32.855  16.735  -5.055  1.00 20.00    -0.298 OA
ENDBRANCH   8   9
ENDBRANCH   3   4
TORSDOF 2
ENDMDL
MODEL 2
REMARK VINA RESULT:      -4.9     12.229     14.306
REMARK  2 active torsions:
REMARK  status: ('A' for Active; 'I' for Inactive)
REMARK    1  A    between atoms: C3_3  and  C7_7 
REMARK    2  A    between atoms: C8_8  and  C10_10 
ROOT
HETATM    1  C1  UNL     1     -41.205   1.771  -3.816  1.00 20.00     0.012 C 
HETATM    2  C2  UNL     1     -41.792   2.632  -3.220  1.00 20.00    -0.117 C 
HETATM    3  C10 UNL     1     -42.515   3.682  -2.493  1.00 20.00     0.098 C 
ENDROOT
BRANCH   3   4
HETATM    4  C8  UNL     1     -41.554   4.689  -1.878  1.00 20.00     0.008 C 
HETATM    5  C6  UNL     1     -41.953   6.138  -2.140  1.00 20.00     0.006 C 
HETATM    6  C4  UNL     1     -41.097   6.923  -1.155  1.00 20.00     0.001 C 
HETATM    7  C5  UNL     1     -40.866   5.993   0.041  1.00 20.00     0.013 C 
HETATM    8  C7  UNL     1     -41.422   4.624  -0.358  1.00 20.00     0.060 C 
BRANCH   8   9
HETATM    9  C3  UNL     1     -42.745   4.452   0.374  1.00 20.00     0.127 C 
HETATM   10  C9  UNL     1     -43.260   5.647   1.129  1.00 20.00     0.091 C 
HETATM   11  O11 UNL     1     -43.363   3.389   0.348  1.00 20.00    -0.298 OA
ENDBRANCH   8   9
ENDBRANCH   3   4
TORSDOF 2
ENDMDL
MODEL 3
REMARK VINA RESULT:      -4.8      2.081      2.859
REMARK  2 active torsions:
REMARK  status: ('A' for Active; 'I' for Inactive)
REMARK    1  A    between atoms: C3_3  and  C7_7 
REMARK    2  A    between atoms: C8_8  and  C10_10 
ROOT
HETATM    1  C1  UNL     1     -33.310  17.768  -1.089  1.00 20.00     0.012 C 
HETATM    2  C2  UNL     1     -34.038  16.889  -1.461  1.00 20.00    -0.117 C 
HETATM    3  C10 UNL     1     -34.930  15.813  -1.909  1.00 20.00     0.098 C 
ENDROOT
BRANCH   3   4
HETATM    4  C8  UNL     1     -34.607  15.388  -3.334  1.00 20.00     0.008 C 
HETATM    5  C6  UNL     1     -34.322  13.894  -3.465  1.00 20.00     0.006 C 
HETATM    6  C4  UNL     1     -34.396  13.652  -4.967  1.00 20.00     0.001 C 
HETATM    7  C5  UNL     1     -35.388  14.684  -5.514  1.00 20.00     0.013 C 
HETATM    8  C7  UNL     1     -35.716  15.631  -4.356  1.00 20.00     0.060 C 
BRANCH   8   9
HETATM    9  C3  UNL     1     -37.108  15.262  -3.864  1.00 20.00     0.127 C 
HETATM   10  C9  UNL     1     -38.010  16.400  -3.472  1.00 20.00     0.091 C 
HETATM   11  O11 UNL     1     -37.477  14.091  -3.792  1.00 20.00    -0.298 OA
ENDBRANCH   8   9
ENDBRANCH   3   4
TORSDOF 2
ENDMDL
MODEL 4
REMARK VINA RESULT:      -4.7      1.746      2.251
REMARK  2 active torsions:
REMARK  status: ('A' for Active; 'I' for Inactive)
REMARK    1  A    between atoms: C3_3  and  C7_7 
REMARK    2  A    between atoms: C8_8  and  C10_10 
ROOT
HETATM    1  C1  UNL     1     -34.796  17.280   0.104  1.00 20.00     0.012 C 
HETATM    2  C2  UNL     1     -34.664  16.644  -0.906  1.00 20.00    -0.117 C 
HETATM    3  C10 UNL     1     -34.497  15.865  -2.138  1.00 20.00     0.098 C 
ENDROOT
BRANCH   3   4
HETATM    4  C8  UNL     1     -35.741  15.939  -3.010  1.00 20.00     0.008 C 
HETATM    5  C6  UNL     1     -35.581  16.874  -4.206  1.00 20.00     0.006 C 
HETATM    6  C4  UNL     1     -36.761  16.510  -5.098  1.00 20.00     0.001 C 
HETATM    7  C5  UNL     1     -37.056  15.030  -4.828  1.00 20.00     0.013 C 
HETATM    8  C7  UNL     1     -36.177  14.620  -3.644  1.00 20.00     0.060 C 
BRANCH   8   9
HETATM    9  C3  UNL     1     -35.030  13.794  -4.211  1.00 20.00     0.127 C 
HETATM   10  C9  UNL     1     -34.915  13.735  -5.709  1.00 20.00     0.091 C 
HETATM   11  O11 UNL     1     -34.236  13.206  -3.478  1.00 20.00    -0.298 OA
ENDBRANCH   8   9
ENDBRANCH   3   4
TORSDOF 2
ENDMDL
MODEL 5
REMARK VINA RESULT:      -4.7      1.823      2.715
REMARK  2 active torsions:
REMARK  status: ('A' for Active; 'I' for Inactive)
REMARK    1  A    between atoms: C3_3  and  C7_7 
REMARK    2  A    between atoms: C8_8  and  C10_10 
ROOT
HETATM    1  C1  UNL     1     -34.043  17.693  -0.136  1.00 20.00     0.012 C 
HETATM    2  C2  UNL     1     -34.442  16.894  -0.938  1.00 20.00    -0.117 C 
HETATM    3  C10 UNL     1     -34.930  15.913  -1.915  1.00 20.00     0.098 C 
ENDROOT
BRANCH   3   4
HETATM    4  C8  UNL     1     -34.660  16.373  -3.340  1.00 20.00     0.008 C 
HETATM    5  C6  UNL     1     -33.292  15.942  -3.861  1.00 20.00     0.006 C 
HETATM    6  C4  UNL     1     -33.397  16.177  -5.362  1.00 20.00     0.001 C 
HETATM    7  C5  UNL     1     -34.875  15.983  -5.719  1.00 20.00     0.013 C 
HETATM    8  C7  UNL     1     -35.628  15.839  -4.394  1.00 20.00     0.060 C 
BRANCH   8   9
HETATM    9  C3  UNL     1     -35.968  14.364  -4.237  1.00 20.00     0.127 C 
HETATM   10  C9  UNL     1     -34.922  13.378  -4.679  1.00 20.00     0.091 C 
HETATM   11  O11 UNL     1     -37.044  13.997  -3.768  1.00 20.00    -0.298 OA
ENDBRANCH   8   9
ENDBRANCH   3   4
TORSDOF 2
ENDMDL
MODEL 6
REMARK VINA RESULT:      -4.6      1.324      1.442
REMARK  2 active torsions:
REMARK  status: ('A' for Active; 'I' for Inactive)
REMARK    1  A    between atoms: C3_3  and  C7_7 
REMARK    2  A    between atoms: C8_8  and  C10_10 
ROOT
HETATM    1  C1  UNL     1     -34.799  17.043  -0.009  1.00 20.00     0.012 C 
HETATM    2  C2  UNL     1     -34.305  17.076  -1.102  1.00 20.00    -0.117 C 
HETATM    3  C10 UNL     1     -33.701  17.123  -2.438  1.00 20.00     0.098 C 
ENDROOT
BRANCH   3   4
HETATM    4  C8  UNL     1     -33.733  15.756  -3.106  1.00 20.00     0.008 C 
HETATM    5  C6  UNL     1     -35.037  15.000  -2.864  1.00 20.00     0.006 C 
HETATM    6  C4  UNL     1     -34.990  13.878  -3.893  1.00 20.00     0.001 C 
HETATM    7  C5  UNL     1     -34.180  14.422  -5.076  1.00 20.00     0.013 C 
HETATM    8  C7  UNL     1     -33.605  15.768  -4.628  1.00 20.00     0.060 C 
BRANCH   8   9
HETATM    9  C3  UNL     1     -34.429  16.850  -5.313  1.00 20.00     0.127 C 
HETATM   10  C9  UNL     1     -33.677  18.044  -5.835  1.00 20.00     0.091 C 
HETATM   11  O11 UNL     1     -35.648  16.751  -5.436  1.00 20.00    -0.298 OA
ENDBRANCH   8   9
ENDBRANCH   3   4
TORSDOF 2
ENDMDL
MODEL 7
REMARK VINA RESULT:      -4.5      1.571      4.091
REMARK  2 active torsions:
REMARK  status: ('A' for Active; 'I' for Inactive)
REMARK    1  A    between atoms: C3_3  and  C7_7 
REMARK    2  A    between atoms: C8_8  and  C10_10 
ROOT
HETATM    1  C1  UNL     1     -34.409  15.122  -7.030  1.00 20.00     0.012 C 
HETATM    2  C2  UNL     1     -34.504  14.451  -6.038  1.00 20.00    -0.117 C 
HETATM    3  C10 UNL     1     -34.622  13.627  -4.830  1.00 20.00     0.098 C 
ENDROOT
BRANCH   3   4
HETATM    4  C8  UNL     1     -34.261  14.421  -3.584  1.00 20.00     0.008 C 
HETATM    5  C6  UNL     1     -33.385  15.637  -3.878  1.00 20.00     0.006 C 
HETATM    6  C4  UNL     1     -33.466  16.448  -2.591  1.00 20.00     0.001 C 
HETATM    7  C5  UNL     1     -34.838  16.141  -1.982  1.00 20.00     0.013 C 
HETATM    8  C7  UNL     1     -35.443  15.010  -2.817  1.00 20.00     0.060 C 
BRANCH   8   9
HETATM    9  C3  UNL     1     -36.510  15.636  -3.703  1.00 20.00     0.127 C 
HETATM   10  C9  UNL     1     -37.751  14.821  -3.948  1.00 20.00     0.091 C 
HETATM   11  O11 UNL     1     -36.365  16.755  -4.193  1.00 20.00    -0.298 OA
ENDBRANCH   8   9
ENDBRANCH   3   4
TORSDOF 2
ENDMDL
MODEL 8
REMARK VINA RESULT:      -4.5      1.669      3.940
REMARK  2 active torsions:
REMARK  status: ('A' for Active; 'I' for Inactive)
REMARK    1  A    between atoms: C3_3  and  C7_7 
REMARK    2  A    between atoms: C8_8  and  C10_10 
ROOT
HETATM    1  C1  UNL     1     -35.141  13.180  -4.334  1.00 20.00     0.012 C 
HETATM    2  C2  UNL     1     -34.185  13.846  -4.044  1.00 20.00    -0.117 C 
HETATM    3  C10 UNL     1     -33.015  14.655  -3.686  1.00 20.00     0.098 C 
ENDROOT
BRANCH   3   4
HETATM    4  C8  UNL     1     -33.053  16.013  -4.370  1.00 20.00     0.008 C 
HETATM    5  C6  UNL     1     -33.918  16.030  -5.627  1.00 20.00     0.006 C 
HETATM    6  C4  UNL     1     -34.100  17.515  -5.910  1.00 20.00     0.001 C 
HETATM    7  C5  UNL     1     -34.039  18.217  -4.549  1.00 20.00     0.013 C 
HETATM    8  C7  UNL     1     -33.624  17.153  -3.529  1.00 20.00     0.060 C 
BRANCH   8   9
HETATM    9  C3  UNL     1     -34.874  16.782  -2.744  1.00 20.00     0.127 C 
HETATM   10  C9  UNL     1     -34.684  16.441  -1.291  1.00 20.00     0.091 C 
HETATM   11  O11 UNL     1     -35.985  16.764  -3.271  1.00 20.00    -0.298 OA
ENDBRANCH   8   9
ENDBRANCH   3   4
TORSDOF 2
ENDMDL
MODEL 9
REMARK VINA RESULT:      -4.4      1.476      3.210
REMARK  2 active torsions:
REMARK  status: ('A' for Active; 'I' for Inactive)
REMARK    1  A    between atoms: C3_3  and  C7_7 
REMARK    2  A    between atoms: C8_8  and  C10_10 
ROOT
HETATM    1  C1  UNL     1     -39.342  15.297  -3.464  1.00 20.00     0.012 C 
HETATM    2  C2  UNL     1     -38.175  15.578  -3.481  1.00 20.00    -0.117 C 
HETATM    3  C10 UNL     1     -36.751  15.928  -3.501  1.00 20.00     0.098 C 
ENDROOT
BRANCH   3   4
HETATM    4  C8  UNL     1     -35.883  14.694  -3.702  1.00 20.00     0.008 C 
HETATM    5  C6  UNL     1     -35.546  14.429  -5.167  1.00 20.00     0.006 C 
HETATM    6  C4  UNL     1     -34.412  13.416  -5.090  1.00 20.00     0.001 C 
HETATM    7  C5  UNL     1     -33.677  13.702  -3.776  1.00 20.00     0.013 C 
HETATM    8  C7  UNL     1     -34.515  14.738  -3.024  1.00 20.00     0.060 C 
BRANCH   8   9
HETATM    9  C3  UNL     1     -33.796  16.072  -3.161  1.00 20.00     0.127 C 
HETATM   10  C9  UNL     1     -33.807  16.974  -1.957  1.00 20.00     0.091 C 
HETATM   11  O11 UNL     1     -33.230  16.396  -4.204  1.00 20.00    -0.298 OA
ENDBRANCH   8   9
ENDBRANCH   3   4
TORSDOF 2
ENDMDL
