MODEL 1
REMARK VINA RESULT:      -4.9      0.000      0.000
REMARK  1 active torsions:
REMARK  status: ('A' for Active; 'I' for Inactive)
REMARK    1  A    between atoms: C3_3  and  C4_4 
ROOT
HETATM    1  C1  UNL     1     -35.062  13.390  -4.261  1.00 20.00     0.061 C 
HETATM    2  C2  UNL     1     -33.901  13.699  -3.676  1.00 20.00     0.087 C 
HETATM    3  C4  UNL     1     -35.771  14.633  -4.693  1.00 20.00     0.376 C 
HETATM    4  C5  UNL     1     -33.718  15.178  -3.664  1.00 20.00     0.463 C 
HETATM    5  C6  UNL     1     -35.195  17.043  -4.327  1.00 20.00     0.324 C 
HETATM    6  N7  UNL     1     -34.753  15.687  -4.572  1.00 20.00     0.211 N 
HETATM    7  F9  UNL     1     -36.189  14.548  -5.983  1.00 20.00    -0.195 F 
HETATM    8  F10 UNL     1     -33.860  15.676  -2.410  1.00 20.00    -0.169 F 
HETATM    9  F11 UNL     1     -32.489  15.544  -4.107  1.00 20.00    -0.169 F 
ENDROOT
BRANCH   3  10
HETATM   10  C3  UNL     1     -36.918  14.829  -3.755  1.00 20.00     0.312 C 
HETATM   11  O8  UNL     1     -37.937  14.149  -3.782  1.00 20.00    -0.301 OA
ENDBRANCH   3  10
TORSDOF 1
ENDMDL
MODEL 2
REMARK VINA RESULT:      -4.7      1.440      1.477
REMARK  1 active torsions:
REMARK  status: ('A' for Active; 'I' for Inactive)
REMARK    1  A    between atoms: C3_3  and  C4_4 
ROOT
HETATM    1  C1  UNL     1     -34.613  13.486  -4.983  1.00 20.00     0.061 C 
HETATM    2  C2  UNL     1     -33.881  13.495  -3.865  1.00 20.00     0.087 C 
HETATM    3  C4  UNL     1     -34.521  14.810  -5.672  1.00 20.00     0.376 C 
HETATM    4  C5  UNL     1     -33.224  14.822  -3.700  1.00 20.00     0.463 C 
HETATM    5  C6  UNL     1     -33.405  16.936  -4.962  1.00 20.00     0.324 C 
HETATM    6  N7  UNL     1     -33.407  15.490  -4.993  1.00 20.00     0.211 N 
HETATM    7  F9  UNL     1     -34.233  14.668  -6.992  1.00 20.00    -0.195 F 
HETATM    8  F10 UNL     1     -33.792  15.523  -2.687  1.00 20.00    -0.169 F 
HETATM    9  F11 UNL     1     -31.902  14.705  -3.419  1.00 20.00    -0.169 F 
ENDROOT
BRANCH   3  10
HETATM   10  C3  UNL     1     -35.830  15.501  -5.466  1.00 20.00     0.312 C 
HETATM   11  O8  UNL     1     -36.855  14.922  -5.126  1.00 20.00    -0.301 OA
ENDBRANCH   3  10
TORSDOF 1
ENDMDL
MODEL 3
REMARK VINA RESULT:      -4.6     11.020     12.055
REMARK  1 active torsions:
REMARK  status: ('A' for Active; 'I' for Inactive)
REMARK    1  A    between atoms: C3_3  and  C4_4 
ROOT
HETATM    1  C1  UNL     1     -40.746   6.120  -0.420  1.00 20.00     0.061 C 
HETATM    2  C2  UNL     1     -41.190   7.245  -0.989  1.00 20.00     0.087 C 
HETATM    3  C4  UNL     1     -41.310   4.928  -1.123  1.00 20.00     0.376 C 
HETATM    4  C5  UNL     1     -42.089   6.915  -2.130  1.00 20.00     0.463 C 
HETATM    5  C6  UNL     1     -42.994   4.776  -2.970  1.00 20.00     0.324 C 
HETATM    6  N7  UNL     1     -41.888   5.479  -2.357  1.00 20.00     0.211 N 
HETATM    7  F9  UNL     1     -40.342   4.027  -1.434  1.00 20.00    -0.195 F 
HETATM    8  F10 UNL     1     -43.382   7.199  -1.829  1.00 20.00    -0.169 F 
HETATM    9  F11 UNL     1     -41.772   7.613  -3.249  1.00 20.00    -0.169 F 
ENDROOT
BRANCH   3  10
HETATM   10  C3  UNL     1     -42.341   4.336  -0.218  1.00 20.00     0.312 C 
HETATM   11  O8  UNL     1     -42.572   4.755   0.911  1.00 20.00    -0.301 OA
ENDBRANCH   3  10
TORSDOF 1
ENDMDL
MODEL 4
REMARK VINA RESULT:      -4.6      2.071      3.509
REMARK  1 active torsions:
REMARK  status: ('A' for Active; 'I' for Inactive)
REMARK    1  A    between atoms: C3_3  and  C4_4 
ROOT
HETATM    1  C1  UNL     1     -33.221  16.459  -4.608  1.00 20.00     0.061 C 
HETATM    2  C2  UNL     1     -33.806  16.466  -5.809  1.00 20.00     0.087 C 
HETATM    3  C4  UNL     1     -33.484  15.163  -3.912  1.00 20.00     0.376 C 
HETATM    4  C5  UNL     1     -34.512  15.173  -6.036  1.00 20.00     0.463 C 
HETATM    5  C6  UNL     1     -34.921  13.223  -4.577  1.00 20.00     0.324 C 
HETATM    6  N7  UNL     1     -34.029  14.294  -4.965  1.00 20.00     0.211 N 
HETATM    7  F9  UNL     1     -32.341  14.620  -3.417  1.00 20.00    -0.195 F 
HETATM    8  F10 UNL     1     -35.859  15.339  -5.981  1.00 20.00    -0.169 F 
HETATM    9  F11 UNL     1     -34.221  14.638  -7.247  1.00 20.00    -0.169 F 
ENDROOT
BRANCH   3  10
HETATM   10  C3  UNL     1     -34.473  15.443  -2.826  1.00 20.00     0.312 C 
HETATM   11  O8  UNL     1     -34.234  16.160  -1.861  1.00 20.00    -0.301 OA
ENDBRANCH   3  10
TORSDOF 1
ENDMDL
MODEL 5
REMARK VINA RESULT:      -4.5      1.807      2.259
REMARK  1 active torsions:
REMARK  status: ('A' for Active; 'I' for Inactive)
REMARK    1  A    between atoms: C3_3  and  C4_4 
ROOT
HETATM    1  C1  UNL     1     -34.929  14.910  -6.057  1.00 20.00     0.061 C 
HETATM    2  C2  UNL     1     -33.858  15.707  -6.105  1.00 20.00     0.087 C 
HETATM    3  C4  UNL     1     -35.449  14.826  -4.659  1.00 20.00     0.376 C 
HETATM    4  C5  UNL     1     -33.560  16.238  -4.745  1.00 20.00     0.463 C 
HETATM    5  C6  UNL     1     -34.535  15.767  -2.526  1.00 20.00     0.324 C 
HETATM    6  N7  UNL     1     -34.748  15.907  -3.950  1.00 20.00     0.211 N 
HETATM    7  F9  UNL     1     -36.790  15.042  -4.609  1.00 20.00    -0.195 F 
HETATM    8  F10 UNL     1     -32.439  15.668  -4.235  1.00 20.00    -0.169 F 
HETATM    9  F11 UNL     1     -33.363  17.580  -4.753  1.00 20.00    -0.169 F 
ENDROOT
BRANCH   3  10
HETATM   10  C3  UNL     1     -35.092  13.470  -4.140  1.00 20.00     0.312 C 
HETATM   11  O8  UNL     1     -34.749  12.539  -4.861  1.00 20.00    -0.301 OA
ENDBRANCH   3  10
TORSDOF 1
ENDMDL
MODEL 6
REMARK VINA RESULT:      -4.5      1.630      2.012
REMARK  1 active torsions:
REMARK  status: ('A' for Active; 'I' for Inactive)
REMARK    1  A    between atoms: C3_3  and  C4_4 
ROOT
HETATM    1  C1  UNL     1     -34.580  15.185  -2.752  1.00 20.00     0.061 C 
HETATM    2  C2  UNL     1     -33.822  16.182  -3.217  1.00 20.00     0.087 C 
HETATM    3  C4  UNL     1     -35.284  14.503  -3.879  1.00 20.00     0.376 C 
HETATM    4  C5  UNL     1     -33.940  16.260  -4.700  1.00 20.00     0.463 C 
HETATM    5  C6  UNL     1     -35.365  15.058  -6.320  1.00 20.00     0.324 C 
HETATM    6  N7  UNL     1     -34.614  15.014  -5.084  1.00 20.00     0.211 N 
HETATM    7  F9  UNL     1     -35.141  13.153  -3.815  1.00 20.00    -0.195 F 
HETATM    8  F10 UNL     1     -34.653  17.353  -5.075  1.00 20.00    -0.169 F 
HETATM    9  F11 UNL     1     -32.729  16.341  -5.306  1.00 20.00    -0.169 F 
ENDROOT
BRANCH   3  10
HETATM   10  C3  UNL     1     -36.722  14.906  -3.804  1.00 20.00     0.312 C 
HETATM   11  O8  UNL     1     -37.648  14.105  -3.763  1.00 20.00    -0.301 OA
ENDBRANCH   3  10
TORSDOF 1
ENDMDL
MODEL 7
REMARK VINA RESULT:      -4.5      1.951      2.772
REMARK  1 active torsions:
REMARK  status: ('A' for Active; 'I' for Inactive)
REMARK    1  A    between atoms: C3_3  and  C4_4 
ROOT
HETATM    1  C1  UNL     1     -34.146  15.430  -2.646  1.00 20.00     0.061 C 
HETATM    2  C2  UNL     1     -34.366  16.717  -2.929  1.00 20.00     0.087 C 
HETATM    3  C4  UNL     1     -33.926  14.654  -3.905  1.00 20.00     0.376 C 
HETATM    4  C5  UNL     1     -34.311  16.929  -4.403  1.00 20.00     0.463 C 
HETATM    5  C6  UNL     1     -34.088  15.365  -6.301  1.00 20.00     0.324 C 
HETATM    6  N7  UNL     1     -33.738  15.687  -4.935  1.00 20.00     0.211 N 
HETATM    7  F9  UNL     1     -32.814  13.878  -3.827  1.00 20.00    -0.195 F 
HETATM    8  F10 UNL     1     -35.548  17.168  -4.907  1.00 20.00    -0.169 F 
HETATM    9  F11 UNL     1     -33.528  17.985  -4.738  1.00 20.00    -0.169 F 
ENDROOT
BRANCH   3  10
HETATM   10  C3  UNL     1     -35.155  13.833  -4.131  1.00 20.00     0.312 C 
HETATM   11  O8  UNL     1     -35.133  12.623  -4.330  1.00 20.00    -0.301 OA
ENDBRANCH   3  10
TORSDOF 1
ENDMDL
MODEL 8
REMARK VINA RESULT:      -4.4      2.275      3.284
REMARK  1 active torsions:
REMARK  status: ('A' for Active; 'I' for Inactive)
REMARK    1  A    between atoms: C3_3  and  C4_4 
ROOT
HETATM    1  C1  UNL     1     -34.498  13.537  -3.859  1.00 20.00     0.061 C 
HETATM    2  C2  UNL     1     -34.806  13.242  -5.125  1.00 20.00     0.087 C 
HETATM    3  C4  UNL     1     -34.514  15.017  -3.655  1.00 20.00     0.376 C 
HETATM    4  C5  UNL     1     -35.065  14.495  -5.890  1.00 20.00     0.463 C 
HETATM    5  C6  UNL     1     -34.840  16.881  -5.296  1.00 20.00     0.324 C 
HETATM    6  N7  UNL     1     -35.168  15.540  -4.865  1.00 20.00     0.211 N 
HETATM    7  F9  UNL     1     -35.238  15.363  -2.559  1.00 20.00    -0.195 F 
HETATM    8  F10 UNL     1     -34.058  14.747  -6.765  1.00 20.00    -0.169 F 
HETATM    9  F11 UNL     1     -36.215  14.428  -6.605  1.00 20.00    -0.169 F 
ENDROOT
BRANCH   3  10
HETATM   10  C3  UNL     1     -33.090  15.457  -3.534  1.00 20.00     0.312 C 
HETATM   11  O8  UNL     1     -32.141  14.682  -3.537  1.00 20.00    -0.301 OA
ENDBRANCH   3  10
TORSDOF 1
ENDMDL
MODEL 9
REMARK VINA RESULT:      -4.4      2.152      3.404
REMARK  1 active torsions:
REMARK  status: ('A' for Active; 'I' for Inactive)
REMARK    1  A    between atoms: C3_3  and  C4_4 
ROOT
HETATM    1  C1  UNL     1     -33.041  14.644  -3.488  1.00 20.00     0.061 C 
HETATM    2  C2  UNL     1     -33.679  13.692  -4.174  1.00 20.00     0.087 C 
HETATM    3  C4  UNL     1     -33.973  15.770  -3.176  1.00 20.00     0.376 C 
HETATM    4  C5  UNL     1     -35.101  14.084  -4.382  1.00 20.00     0.463 C 
HETATM    5  C6  UNL     1     -36.347  16.155  -3.876  1.00 20.00     0.324 C 
HETATM    6  N7  UNL     1     -35.305  15.230  -3.488  1.00 20.00     0.211 N 
HETATM    7  F9  UNL     1     -33.917  16.117  -1.864  1.00 20.00    -0.195 F 
HETATM    8  F10 UNL     1     -35.330  14.412  -5.680  1.00 20.00    -0.169 F 
HETATM    9  F11 UNL     1     -35.959  13.084  -4.061  1.00 20.00    -0.169 F 
ENDROOT
BRANCH   3  10
HETATM   10  C3  UNL     1     -33.592  16.911  -4.064  1.00 20.00     0.312 C 
HETATM   11  O8  UNL     1     -32.918  16.782  -5.080  1.00 20.00    -0.301 OA
ENDBRANCH   3  10
TORSDOF 1
ENDMDL
