MODEL 1
REMARK VINA RESULT:      -4.6      0.000      0.000
REMARK  2 active torsions:
REMARK  status: ('A' for Active; 'I' for Inactive)
REMARK    1  A    between atoms: C5_5  and  O9_9 
REMARK    2  A    between atoms: C8_8  and  O9_9 
ROOT
HETATM    1  C1  UNL     1     -35.032   4.376   4.120  1.00 20.00    -0.028 C 
HETATM    2  C2  UNL     1     -34.426   5.476   3.652  1.00 20.00     0.002 C 
HETATM    3  C3  UNL     1     -35.184   4.081   5.583  1.00 20.00     0.028 C 
HETATM    4  C4  UNL     1     -34.906   5.296   6.469  1.00 20.00     0.022 C 
HETATM    5  C5  UNL     1     -33.805   6.519   4.540  1.00 20.00     0.158 C 
HETATM    6  C6  UNL     1     -33.665   6.045   5.991  1.00 20.00     0.090 C 
HETATM    7 BR10 UNL     1     -33.379   7.597   7.158  1.00 20.00    -0.088 Br
ENDROOT
BRANCH   5   8
HETATM    8  O9  UNL     1     -32.501   6.827   4.045  1.00 20.00    -0.381 OA
BRANCH   8   9
HETATM    9  C8  UNL     1     -32.469   6.803   2.626  1.00 20.00     0.164 C 
HETATM   10  C7  UNL     1     -32.091   8.178   2.118  1.00 20.00     0.033 C 
ENDBRANCH   8   9
ENDBRANCH   5   8
TORSDOF 2
ENDMDL
MODEL 2
REMARK VINA RESULT:      -4.5     12.240     13.164
REMARK  2 active torsions:
REMARK  status: ('A' for Active; 'I' for Inactive)
REMARK    1  A    between atoms: C5_5  and  O9_9 
REMARK    2  A    between atoms: C8_8  and  O9_9 
ROOT
HETATM    1  C1  UNL     1     -34.312  13.273  -4.592  1.00 20.00    -0.028 C 
HETATM    2  C2  UNL     1     -33.478  13.970  -3.807  1.00 20.00     0.002 C 
HETATM    3  C3  UNL     1     -35.083  13.888  -5.721  1.00 20.00     0.028 C 
HETATM    4  C4  UNL     1     -34.571  15.276  -6.109  1.00 20.00     0.022 C 
HETATM    5  C5  UNL     1     -33.249  15.449  -3.953  1.00 20.00     0.158 C 
HETATM    6  C6  UNL     1     -34.283  16.115  -4.867  1.00 20.00     0.090 C 
HETATM    7 BR10 UNL     1     -33.613  17.870  -5.437  1.00 20.00    -0.088 Br
ENDROOT
BRANCH   5   8
HETATM    8  O9  UNL     1     -33.338  16.057  -2.662  1.00 20.00    -0.381 OA
BRANCH   8   9
HETATM    9  C8  UNL     1     -34.668  16.025  -2.169  1.00 20.00     0.164 C 
HETATM   10  C7  UNL     1     -34.696  16.644  -0.788  1.00 20.00     0.033 C 
ENDBRANCH   8   9
ENDBRANCH   5   8
TORSDOF 2
ENDMDL
MODEL 3
REMARK VINA RESULT:      -4.2     12.042     12.895
REMARK  2 active torsions:
REMARK  status: ('A' for Active; 'I' for Inactive)
REMARK    1  A    between atoms: C5_5  and  O9_9 
REMARK    2  A    between atoms: C8_8  and  O9_9 
ROOT
HETATM    1  C1  UNL     1     -32.961  14.843  -3.306  1.00 20.00    -0.028 C 
HETATM    2  C2  UNL     1     -33.540  13.839  -3.978  1.00 20.00     0.002 C 
HETATM    3  C3  UNL     1     -33.723  16.013  -2.758  1.00 20.00     0.028 C 
HETATM    4  C4  UNL     1     -35.235  15.780  -2.730  1.00 20.00     0.022 C 
HETATM    5  C5  UNL     1     -35.011  13.789  -4.284  1.00 20.00     0.158 C 
HETATM    6  C6  UNL     1     -35.709  15.129  -4.026  1.00 20.00     0.090 C 
HETATM    7 BR10 UNL     1     -37.648  14.842  -3.914  1.00 20.00    -0.088 Br
ENDROOT
BRANCH   5   8
HETATM    8  O9  UNL     1     -35.183  13.455  -5.663  1.00 20.00    -0.381 OA
BRANCH   8   9
HETATM    9  C8  UNL     1     -34.776  14.522  -6.506  1.00 20.00     0.164 C 
HETATM   10  C7  UNL     1     -35.588  14.478  -7.783  1.00 20.00     0.033 C 
ENDBRANCH   8   9
ENDBRANCH   5   8
TORSDOF 2
ENDMDL
MODEL 4
REMARK VINA RESULT:      -4.2     11.859     12.620
REMARK  2 active torsions:
REMARK  status: ('A' for Active; 'I' for Inactive)
REMARK    1  A    between atoms: C5_5  and  O9_9 
REMARK    2  A    between atoms: C8_8  and  O9_9 
ROOT
HETATM    1  C1  UNL     1     -32.752  14.828  -3.734  1.00 20.00    -0.028 C 
HETATM    2  C2  UNL     1     -33.342  16.023  -3.591  1.00 20.00     0.002 C 
HETATM    3  C3  UNL     1     -33.516  13.545  -3.868  1.00 20.00     0.028 C 
HETATM    4  C4  UNL     1     -34.999  13.762  -4.176  1.00 20.00     0.022 C 
HETATM    5  C5  UNL     1     -34.833  16.204  -3.518  1.00 20.00     0.158 C 
HETATM    6  C6  UNL     1     -35.575  14.879  -3.312  1.00 20.00     0.090 C 
HETATM    7 BR10 UNL     1     -37.469  15.116  -3.772  1.00 20.00    -0.088 Br
ENDROOT
BRANCH   5   8
HETATM    8  O9  UNL     1     -35.138  17.061  -2.415  1.00 20.00    -0.381 OA
BRANCH   8   9
HETATM    9  C8  UNL     1     -34.776  16.462  -1.181  1.00 20.00     0.164 C 
HETATM   10  C7  UNL     1     -34.250  17.532  -0.249  1.00 20.00     0.033 C 
ENDBRANCH   8   9
ENDBRANCH   5   8
TORSDOF 2
ENDMDL
MODEL 5
REMARK VINA RESULT:      -3.9     12.231     13.446
REMARK  2 active torsions:
REMARK  status: ('A' for Active; 'I' for Inactive)
REMARK    1  A    between atoms: C5_5  and  O9_9 
REMARK    2  A    between atoms: C8_8  and  O9_9 
ROOT
HETATM    1  C1  UNL     1     -34.514  16.722  -0.766  1.00 20.00    -0.028 C 
HETATM    2  C2  UNL     1     -35.104  16.259  -1.876  1.00 20.00     0.002 C 
HETATM    3  C3  UNL     1     -33.562  17.881  -0.763  1.00 20.00     0.028 C 
HETATM    4  C4  UNL     1     -33.604  18.690  -2.061  1.00 20.00     0.022 C 
HETATM    5  C5  UNL     1     -34.855  16.830  -3.244  1.00 20.00     0.158 C 
HETATM    6  C6  UNL     1     -33.643  17.768  -3.275  1.00 20.00     0.090 C 
HETATM    7 BR10 UNL     1     -33.714  18.869  -4.899  1.00 20.00    -0.088 Br
ENDROOT
BRANCH   5   8
HETATM    8  O9  UNL     1     -34.609  15.754  -4.153  1.00 20.00    -0.381 OA
BRANCH   8   9
HETATM    9  C8  UNL     1     -33.326  15.184  -3.942  1.00 20.00     0.164 C 
HETATM   10  C7  UNL     1     -33.468  13.681  -3.827  1.00 20.00     0.033 C 
ENDBRANCH   8   9
ENDBRANCH   5   8
TORSDOF 2
ENDMDL
MODEL 6
REMARK VINA RESULT:      -3.9     12.281     13.430
REMARK  2 active torsions:
REMARK  status: ('A' for Active; 'I' for Inactive)
REMARK    1  A    between atoms: C5_5  and  O9_9 
REMARK    2  A    between atoms: C8_8  and  O9_9 
ROOT
HETATM    1  C1  UNL     1     -34.554  14.724  -6.576  1.00 20.00    -0.028 C 
HETATM    2  C2  UNL     1     -35.130  13.917  -5.674  1.00 20.00     0.002 C 
HETATM    3  C3  UNL     1     -34.002  16.076  -6.236  1.00 20.00     0.028 C 
HETATM    4  C4  UNL     1     -33.841  16.293  -4.730  1.00 20.00     0.022 C 
HETATM    5  C5  UNL     1     -35.314  14.291  -4.229  1.00 20.00     0.158 C 
HETATM    6  C6  UNL     1     -35.063  15.782  -3.973  1.00 20.00     0.090 C 
HETATM    7 BR10 UNL     1     -34.781  16.073  -2.052  1.00 20.00    -0.088 Br
ENDROOT
BRANCH   5   8
HETATM    8  O9  UNL     1     -36.657  13.993  -3.844  1.00 20.00    -0.381 OA
BRANCH   8   9
HETATM    9  C8  UNL     1     -37.579  14.880  -4.460  1.00 20.00     0.164 C 
HETATM   10  C7  UNL     1     -38.767  15.071  -3.542  1.00 20.00     0.033 C 
ENDBRANCH   8   9
ENDBRANCH   5   8
TORSDOF 2
ENDMDL
MODEL 7
REMARK VINA RESULT:      -3.9     12.421     13.779
REMARK  2 active torsions:
REMARK  status: ('A' for Active; 'I' for Inactive)
REMARK    1  A    between atoms: C5_5  and  O9_9 
REMARK    2  A    between atoms: C8_8  and  O9_9 
ROOT
HETATM    1  C1  UNL     1     -33.509  13.797  -3.751  1.00 20.00    -0.028 C 
HETATM    2  C2  UNL     1     -32.944  15.012  -3.714  1.00 20.00     0.002 C 
HETATM    3  C3  UNL     1     -34.531  13.397  -4.773  1.00 20.00     0.028 C 
HETATM    4  C4  UNL     1     -34.604  14.364  -5.956  1.00 20.00     0.022 C 
HETATM    5  C5  UNL     1     -33.294  16.116  -4.673  1.00 20.00     0.158 C 
HETATM    6  C6  UNL     1     -34.564  15.812  -5.477  1.00 20.00     0.090 C 
HETATM    7 BR10 UNL     1     -34.640  16.994  -7.043  1.00 20.00    -0.088 Br
ENDROOT
BRANCH   5   8
HETATM    8  O9  UNL     1     -33.514  17.317  -3.930  1.00 20.00    -0.381 OA
BRANCH   8   9
HETATM    9  C8  UNL     1     -34.732  17.258  -3.203  1.00 20.00     0.164 C 
HETATM   10  C7  UNL     1     -35.325  18.648  -3.121  1.00 20.00     0.033 C 
ENDBRANCH   8   9
ENDBRANCH   5   8
TORSDOF 2
ENDMDL
MODEL 8
REMARK VINA RESULT:      -3.9     11.698     13.545
REMARK  2 active torsions:
REMARK  status: ('A' for Active; 'I' for Inactive)
REMARK    1  A    between atoms: C5_5  and  O9_9 
REMARK    2  A    between atoms: C8_8  and  O9_9 
ROOT
HETATM    1  C1  UNL     1     -33.405  17.517  -5.278  1.00 20.00    -0.028 C 
HETATM    2  C2  UNL     1     -33.243  16.326  -4.686  1.00 20.00     0.002 C 
HETATM    3  C3  UNL     1     -33.952  18.720  -4.571  1.00 20.00     0.028 C 
HETATM    4  C4  UNL     1     -33.975  18.559  -3.049  1.00 20.00     0.022 C 
HETATM    5  C5  UNL     1     -33.622  16.057  -3.255  1.00 20.00     0.158 C 
HETATM    6  C6  UNL     1     -34.483  17.175  -2.657  1.00 20.00     0.090 C 
HETATM    7 BR10 UNL     1     -34.467  17.031  -0.699  1.00 20.00    -0.088 Br
ENDROOT
BRANCH   5   8
HETATM    8  O9  UNL     1     -34.370  14.840  -3.199  1.00 20.00    -0.381 OA
BRANCH   8   9
HETATM    9  C8  UNL     1     -33.716  13.800  -3.908  1.00 20.00     0.164 C 
HETATM   10  C7  UNL     1     -34.714  13.124  -4.824  1.00 20.00     0.033 C 
ENDBRANCH   8   9
ENDBRANCH   5   8
TORSDOF 2
ENDMDL
MODEL 9
REMARK VINA RESULT:      -3.9      2.043      2.575
REMARK  2 active torsions:
REMARK  status: ('A' for Active; 'I' for Inactive)
REMARK    1  A    between atoms: C5_5  and  O9_9 
REMARK    2  A    between atoms: C8_8  and  O9_9 
ROOT
HETATM    1  C1  UNL     1     -34.220   6.060   6.476  1.00 20.00    -0.028 C 
HETATM    2  C2  UNL     1     -33.353   6.626   5.625  1.00 20.00     0.002 C 
HETATM    3  C3  UNL     1     -35.221   5.023   6.062  1.00 20.00     0.028 C 
HETATM    4  C4  UNL     1     -34.928   4.427   4.684  1.00 20.00     0.022 C 
HETATM    5  C5  UNL     1     -33.310   6.307   4.156  1.00 20.00     0.158 C 
HETATM    6  C6  UNL     1     -34.540   5.519   3.691  1.00 20.00     0.090 C 
HETATM    7 BR10 UNL     1     -34.160   4.684   1.955  1.00 20.00    -0.088 Br
ENDROOT
BRANCH   5   8
HETATM    8  O9  UNL     1     -33.261   7.531   3.421  1.00 20.00    -0.381 OA
BRANCH   8   9
HETATM    9  C8  UNL     1     -32.041   7.655   2.706  1.00 20.00     0.164 C 
HETATM   10  C7  UNL     1     -32.193   8.735   1.656  1.00 20.00     0.033 C 
ENDBRANCH   8   9
ENDBRANCH   5   8
TORSDOF 2
ENDMDL
