MODEL 1
REMARK VINA RESULT:      -3.9      0.000      0.000
REMARK  0 active torsions:
REMARK  status: ('A' for Active; 'I' for Inactive)
ROOT
HETATM    1  C1  UNL     1     -34.583  14.645  -4.328  1.00 20.00     0.036 C 
HETATM    2  C2  UNL     1     -33.675  17.078  -3.483  1.00 20.00     0.297 C 
HETATM    3  C3  UNL     1     -34.611  15.778  -5.351  1.00 20.00     0.263 C 
HETATM    4  C4  UNL     1     -34.767  16.311  -2.733  1.00 20.00     0.132 C 
HETATM    5  C5  UNL     1     -34.507  13.210  -4.780  1.00 20.00     0.067 C 
HETATM    6  C6  UNL     1     -34.278  15.358  -6.779  1.00 20.00     0.049 C 
HETATM    7  C7  UNL     1     -34.611  16.469  -1.225  1.00 20.00     0.036 C 
HETATM    8  N8  UNL     1     -34.669  14.881  -3.058  1.00 20.00    -0.290 NA
HETATM    9  N9  UNL     1     -33.657  16.807  -4.922  1.00 20.00     0.095 N 
HETATM   10  H23 UNL     1     -33.847  17.681  -5.438  1.00 20.00     0.316 HD
ENDROOT
TORSDOF 0
ENDMDL
MODEL 2
REMARK VINA RESULT:      -3.9     12.255     13.928
REMARK  0 active torsions:
REMARK  status: ('A' for Active; 'I' for Inactive)
ROOT
HETATM    1  C1  UNL     1     -42.310   5.725  -2.412  1.00 20.00     0.036 C 
HETATM    2  C2  UNL     1     -41.459   3.140  -2.624  1.00 20.00     0.297 C 
HETATM    3  C3  UNL     1     -41.659   5.116  -1.173  1.00 20.00     0.263 C 
HETATM    4  C4  UNL     1     -42.893   3.555  -2.961  1.00 20.00     0.132 C 
HETATM    5  C5  UNL     1     -42.303   7.216  -2.625  1.00 20.00     0.067 C 
HETATM    6  C6  UNL     1     -40.793   6.080  -0.368  1.00 20.00     0.049 C 
HETATM    7  C7  UNL     1     -43.417   2.784  -4.168  1.00 20.00     0.036 C 
HETATM    8  N8  UNL     1     -42.922   4.988  -3.283  1.00 20.00    -0.290 NA
HETATM    9  N9  UNL     1     -40.835   3.980  -1.600  1.00 20.00     0.095 N 
HETATM   10  H23 UNL     1     -40.604   3.401  -0.777  1.00 20.00     0.316 HD
ENDROOT
TORSDOF 0
ENDMDL
MODEL 3
REMARK VINA RESULT:      -3.8      1.331      1.484
REMARK  0 active torsions:
REMARK  status: ('A' for Active; 'I' for Inactive)
ROOT
HETATM    1  C1  UNL     1     -35.601  15.658  -4.779  1.00 20.00     0.036 C 
HETATM    2  C2  UNL     1     -33.280  15.491  -3.351  1.00 20.00     0.297 C 
HETATM    3  C3  UNL     1     -34.307  15.919  -5.545  1.00 20.00     0.263 C 
HETATM    4  C4  UNL     1     -34.442  16.386  -2.914  1.00 20.00     0.132 C 
HETATM    5  C5  UNL     1     -36.831  15.172  -5.500  1.00 20.00     0.067 C 
HETATM    6  C6  UNL     1     -34.294  15.391  -6.976  1.00 20.00     0.049 C 
HETATM    7  C7  UNL     1     -34.600  16.380  -1.398  1.00 20.00     0.036 C 
HETATM    8  N8  UNL     1     -35.690  15.889  -3.509  1.00 20.00    -0.290 NA
HETATM    9  N9  UNL     1     -33.202  15.305  -4.801  1.00 20.00     0.095 N 
HETATM   10  H23 UNL     1     -32.307  15.687  -5.147  1.00 20.00     0.316 HD
ENDROOT
TORSDOF 0
ENDMDL
MODEL 4
REMARK VINA RESULT:      -3.7      1.925      3.236
REMARK  0 active torsions:
REMARK  status: ('A' for Active; 'I' for Inactive)
ROOT
HETATM    1  C1  UNL     1     -34.820  15.469  -2.899  1.00 20.00     0.036 C 
HETATM    2  C2  UNL     1     -35.848  14.603  -5.275  1.00 20.00     0.297 C 
HETATM    3  C3  UNL     1     -33.972  14.475  -3.688  1.00 20.00     0.263 C 
HETATM    4  C4  UNL     1     -36.633  14.508  -3.965  1.00 20.00     0.132 C 
HETATM    5  C5  UNL     1     -34.173  16.418  -1.924  1.00 20.00     0.067 C 
HETATM    6  C6  UNL     1     -32.468  14.719  -3.618  1.00 20.00     0.049 C 
HETATM    7  C7  UNL     1     -38.112  14.801  -4.190  1.00 20.00     0.036 C 
HETATM    8  N8  UNL     1     -36.109  15.493  -3.010  1.00 20.00    -0.290 NA
HETATM    9  N9  UNL     1     -34.397  14.523  -5.091  1.00 20.00     0.095 N 
HETATM   10  H23 UNL     1     -34.036  13.690  -5.584  1.00 20.00     0.316 HD
ENDROOT
TORSDOF 0
ENDMDL
MODEL 5
REMARK VINA RESULT:      -3.7      1.748      3.942
REMARK  0 active torsions:
REMARK  status: ('A' for Active; 'I' for Inactive)
ROOT
HETATM    1  C1  UNL     1     -35.159  16.166  -2.264  1.00 20.00     0.036 C 
HETATM    2  C2  UNL     1     -36.931  14.718  -3.753  1.00 20.00     0.297 C 
HETATM    3  C3  UNL     1     -36.332  16.934  -2.867  1.00 20.00     0.263 C 
HETATM    4  C4  UNL     1     -35.426  14.704  -4.037  1.00 20.00     0.132 C 
HETATM    5  C5  UNL     1     -34.469  16.675  -1.026  1.00 20.00     0.067 C 
HETATM    6  C6  UNL     1     -36.895  18.040  -1.981  1.00 20.00     0.049 C 
HETATM    7  C7  UNL     1     -34.959  13.313  -4.449  1.00 20.00     0.036 C 
HETATM    8  N8  UNL     1     -34.698  15.092  -2.821  1.00 20.00    -0.290 NA
HETATM    9  N9  UNL     1     -37.401  15.975  -3.168  1.00 20.00     0.095 N 
HETATM   10  H23 UNL     1     -38.082  16.416  -3.806  1.00 20.00     0.316 HD
ENDROOT
TORSDOF 0
ENDMDL
MODEL 6
REMARK VINA RESULT:      -3.7      0.664      3.253
REMARK  0 active torsions:
REMARK  status: ('A' for Active; 'I' for Inactive)
ROOT
HETATM    1  C1  UNL     1     -34.289  16.117  -2.615  1.00 20.00     0.036 C 
HETATM    2  C2  UNL     1     -34.738  15.716  -5.278  1.00 20.00     0.297 C 
HETATM    3  C3  UNL     1     -33.732  17.171  -3.569  1.00 20.00     0.263 C 
HETATM    4  C4  UNL     1     -34.088  14.651  -4.393  1.00 20.00     0.132 C 
HETATM    5  C5  UNL     1     -34.608  16.472  -1.187  1.00 20.00     0.067 C 
HETATM    6  C6  UNL     1     -33.802  18.604  -3.049  1.00 20.00     0.049 C 
HETATM    7  C7  UNL     1     -34.561  13.254  -4.779  1.00 20.00     0.036 C 
HETATM    8  N8  UNL     1     -34.458  14.890  -2.991  1.00 20.00    -0.290 NA
HETATM    9  N9  UNL     1     -34.473  17.085  -4.831  1.00 20.00     0.095 N 
HETATM   10  H23 UNL     1     -33.952  17.590  -5.566  1.00 20.00     0.316 HD
ENDROOT
TORSDOF 0
ENDMDL
MODEL 7
REMARK VINA RESULT:      -3.7      1.302      2.334
REMARK  0 active torsions:
REMARK  status: ('A' for Active; 'I' for Inactive)
ROOT
HETATM    1  C1  UNL     1     -33.947  16.795  -4.742  1.00 20.00     0.036 C 
HETATM    2  C2  UNL     1     -35.537  15.216  -3.182  1.00 20.00     0.297 C 
HETATM    3  C3  UNL     1     -34.188  15.370  -5.233  1.00 20.00     0.263 C 
HETATM    4  C4  UNL     1     -34.311  15.943  -2.623  1.00 20.00     0.132 C 
HETATM    5  C5  UNL     1     -33.597  17.889  -5.716  1.00 20.00     0.067 C 
HETATM    6  C6  UNL     1     -34.322  15.229  -6.746  1.00 20.00     0.049 C 
HETATM    7  C7  UNL     1     -34.577  16.462  -1.214  1.00 20.00     0.036 C 
HETATM    8  N8  UNL     1     -33.991  17.090  -3.483  1.00 20.00    -0.290 NA
HETATM    9  N9  UNL     1     -35.410  14.866  -4.598  1.00 20.00     0.095 N 
HETATM   10  H23 UNL     1     -35.448  13.839  -4.701  1.00 20.00     0.316 HD
ENDROOT
TORSDOF 0
ENDMDL
MODEL 8
REMARK VINA RESULT:      -3.6      1.761      3.701
REMARK  0 active torsions:
REMARK  status: ('A' for Active; 'I' for Inactive)
ROOT
HETATM    1  C1  UNL     1     -34.379  15.540  -3.913  1.00 20.00     0.036 C 
HETATM    2  C2  UNL     1     -37.079  15.188  -4.116  1.00 20.00     0.297 C 
HETATM    3  C3  UNL     1     -35.240  16.242  -2.866  1.00 20.00     0.263 C 
HETATM    4  C4  UNL     1     -36.232  15.690  -5.289  1.00 20.00     0.132 C 
HETATM    5  C5  UNL     1     -32.947  15.185  -3.610  1.00 20.00     0.067 C 
HETATM    6  C6  UNL     1     -34.638  16.282  -1.465  1.00 20.00     0.049 C 
HETATM    7  C7  UNL     1     -36.724  15.106  -6.609  1.00 20.00     0.036 C 
HETATM    8  N8  UNL     1     -34.837  15.275  -5.094  1.00 20.00    -0.290 NA
HETATM    9  N9  UNL     1     -36.537  15.559  -2.807  1.00 20.00     0.095 N 
HETATM   10  H23 UNL     1     -37.216  16.162  -2.314  1.00 20.00     0.316 HD
ENDROOT
TORSDOF 0
ENDMDL
MODEL 9
REMARK VINA RESULT:      -3.6      1.042      3.924
REMARK  0 active torsions:
REMARK  status: ('A' for Active; 'I' for Inactive)
ROOT
HETATM    1  C1  UNL     1     -34.416  16.500  -4.413  1.00 20.00     0.036 C 
HETATM    2  C2  UNL     1     -34.594  13.815  -4.873  1.00 20.00     0.297 C 
HETATM    3  C3  UNL     1     -34.956  15.645  -3.269  1.00 20.00     0.263 C 
HETATM    4  C4  UNL     1     -35.232  14.845  -5.808  1.00 20.00     0.132 C 
HETATM    5  C5  UNL     1     -33.757  17.825  -4.131  1.00 20.00     0.067 C 
HETATM    6  C6  UNL     1     -34.526  16.095  -1.877  1.00 20.00     0.049 C 
HETATM    7  C7  UNL     1     -35.106  14.416  -7.265  1.00 20.00     0.036 C 
HETATM    8  N8  UNL     1     -34.550  16.137  -5.648  1.00 20.00    -0.290 NA
HETATM    9  N9  UNL     1     -34.512  14.263  -3.481  1.00 20.00     0.095 N 
HETATM   10  H23 UNL     1     -35.072  13.633  -2.885  1.00 20.00     0.316 HD
ENDROOT
TORSDOF 0
ENDMDL
