MODEL 1
REMARK VINA RESULT:      -4.8      0.000      0.000
REMARK  1 active torsions:
REMARK  status: ('A' for Active; 'I' for Inactive)
REMARK    1  A    between atoms: C1_1  and  C7_7 
ROOT
HETATM    1  C2  UNL     1     -33.717  17.306  -5.893  1.00 20.00     0.001 C 
HETATM    2  C3  UNL     1     -35.134  15.645  -2.510  1.00 20.00     0.014 C 
HETATM    3  C4  UNL     1     -33.723  17.914  -4.501  1.00 20.00     0.005 C 
HETATM    4  C5  UNL     1     -34.287  15.920  -5.648  1.00 20.00     0.006 C 
HETATM    5  C6  UNL     1     -34.051  16.690  -2.269  1.00 20.00     0.006 C 
HETATM    6  C7  UNL     1     -34.433  14.617  -3.390  1.00 20.00     0.076 C 
HETATM    7  C8  UNL     1     -33.280  16.768  -3.588  1.00 20.00    -0.010 C 
HETATM    8  C9  UNL     1     -33.598  15.464  -4.356  1.00 20.00     0.002 C 
ENDROOT
BRANCH   6   9
HETATM    9  C1  UNL     1     -35.386  13.685  -4.066  1.00 20.00     0.223 C 
HETATM   10  O10 UNL     1     -35.016  12.614  -4.539  1.00 20.00    -0.279 OA
HETATM   11 CL11 UNL     1     -37.008  14.307  -4.083  1.00 20.00    -0.043 Cl
ENDBRANCH   6   9
TORSDOF 1
ENDMDL
MODEL 2
REMARK VINA RESULT:      -4.7      1.869      2.655
REMARK  1 active torsions:
REMARK  status: ('A' for Active; 'I' for Inactive)
REMARK    1  A    between atoms: C1_1  and  C7_7 
ROOT
HETATM    1  C2  UNL     1     -33.251  13.677  -3.713  1.00 20.00     0.001 C 
HETATM    2  C3  UNL     1     -35.709  16.812  -4.291  1.00 20.00     0.014 C 
HETATM    3  C4  UNL     1     -32.883  15.151  -3.699  1.00 20.00     0.005 C 
HETATM    4  C5  UNL     1     -34.757  13.716  -3.908  1.00 20.00     0.006 C 
HETATM    5  C6  UNL     1     -34.475  17.150  -3.464  1.00 20.00     0.006 C 
HETATM    6  C7  UNL     1     -36.382  15.713  -3.477  1.00 20.00     0.076 C 
HETATM    7  C8  UNL     1     -34.005  15.810  -2.894  1.00 20.00    -0.010 C 
HETATM    8  C9  UNL     1     -35.216  14.851  -2.985  1.00 20.00     0.002 C 
ENDROOT
BRANCH   6   9
HETATM    9  C1  UNL     1     -37.410  14.959  -4.257  1.00 20.00     0.223 C 
HETATM   10  O10 UNL     1     -38.220  14.217  -3.709  1.00 20.00    -0.279 OA
HETATM   11 CL11 UNL     1     -37.295  15.270  -5.963  1.00 20.00    -0.043 Cl
ENDBRANCH   6   9
TORSDOF 1
ENDMDL
MODEL 3
REMARK VINA RESULT:      -4.6      1.667      2.799
REMARK  1 active torsions:
REMARK  status: ('A' for Active; 'I' for Inactive)
REMARK    1  A    between atoms: C1_1  and  C7_7 
ROOT
HETATM    1  C2  UNL     1     -34.721  17.110  -1.291  1.00 20.00     0.001 C 
HETATM    2  C3  UNL     1     -33.204  15.944  -4.834  1.00 20.00     0.014 C 
HETATM    3  C4  UNL     1     -34.056  17.984  -2.341  1.00 20.00     0.005 C 
HETATM    4  C5  UNL     1     -34.736  15.747  -1.961  1.00 20.00     0.006 C 
HETATM    5  C6  UNL     1     -33.631  17.406  -4.806  1.00 20.00     0.006 C 
HETATM    6  C7  UNL     1     -34.493  15.200  -4.502  1.00 20.00     0.076 C 
HETATM    7  C8  UNL     1     -34.648  17.496  -3.666  1.00 20.00    -0.010 C 
HETATM    8  C9  UNL     1     -35.141  16.053  -3.407  1.00 20.00     0.002 C 
ENDROOT
BRANCH   6   9
HETATM    9  C1  UNL     1     -34.258  13.778  -4.107  1.00 20.00     0.223 C 
HETATM   10  O10 UNL     1     -35.128  12.921  -4.230  1.00 20.00    -0.279 OA
HETATM   11 CL11 UNL     1     -32.657  13.530  -3.478  1.00 20.00    -0.043 Cl
ENDBRANCH   6   9
TORSDOF 1
ENDMDL
MODEL 4
REMARK VINA RESULT:      -4.5      1.713      1.873
REMARK  1 active torsions:
REMARK  status: ('A' for Active; 'I' for Inactive)
REMARK    1  A    between atoms: C1_1  and  C7_7 
ROOT
HETATM    1  C2  UNL     1     -34.108  16.042  -6.430  1.00 20.00     0.001 C 
HETATM    2  C3  UNL     1     -35.210  16.175  -2.559  1.00 20.00     0.014 C 
HETATM    3  C4  UNL     1     -33.256  16.457  -5.243  1.00 20.00     0.005 C 
HETATM    4  C5  UNL     1     -35.410  15.623  -5.768  1.00 20.00     0.006 C 
HETATM    5  C6  UNL     1     -33.711  15.990  -2.760  1.00 20.00     0.006 C 
HETATM    6  C7  UNL     1     -35.807  14.967  -3.273  1.00 20.00     0.076 C 
HETATM    7  C8  UNL     1     -33.572  15.412  -4.170  1.00 20.00    -0.010 C 
HETATM    8  C9  UNL     1     -34.956  14.827  -4.539  1.00 20.00     0.002 C 
ENDROOT
BRANCH   6   9
HETATM    9  C1  UNL     1     -37.271  15.111  -3.536  1.00 20.00     0.223 C 
HETATM   10  O10 UNL     1     -37.974  14.147  -3.821  1.00 20.00    -0.279 OA
HETATM   11 CL11 UNL     1     -37.802  16.759  -3.387  1.00 20.00    -0.043 Cl
ENDBRANCH   6   9
TORSDOF 1
ENDMDL
MODEL 5
REMARK VINA RESULT:      -4.5      1.915      2.630
REMARK  1 active torsions:
REMARK  status: ('A' for Active; 'I' for Inactive)
REMARK    1  A    between atoms: C1_1  and  C7_7 
ROOT
HETATM    1  C2  UNL     1     -33.702  16.702  -2.176  1.00 20.00     0.001 C 
HETATM    2  C3  UNL     1     -36.434  15.832  -5.003  1.00 20.00     0.014 C 
HETATM    3  C4  UNL     1     -34.945  17.500  -2.533  1.00 20.00     0.005 C 
HETATM    4  C5  UNL     1     -33.820  15.489  -3.083  1.00 20.00     0.006 C 
HETATM    5  C6  UNL     1     -36.981  16.694  -3.872  1.00 20.00     0.006 C 
HETATM    6  C7  UNL     1     -35.952  14.578  -4.282  1.00 20.00     0.076 C 
HETATM    7  C8  UNL     1     -36.038  16.440  -2.694  1.00 20.00    -0.010 C 
HETATM    8  C9  UNL     1     -35.304  15.114  -3.001  1.00 20.00     0.002 C 
ENDROOT
BRANCH   6   9
HETATM    9  C1  UNL     1     -35.043  13.739  -5.120  1.00 20.00     0.223 C 
HETATM   10  O10 UNL     1     -34.744  12.592  -4.799  1.00 20.00    -0.279 OA
HETATM   11 CL11 UNL     1     -34.498  14.582  -6.539  1.00 20.00    -0.043 Cl
ENDBRANCH   6   9
TORSDOF 1
ENDMDL
MODEL 6
REMARK VINA RESULT:      -4.4      2.702      3.577
REMARK  1 active torsions:
REMARK  status: ('A' for Active; 'I' for Inactive)
REMARK    1  A    between atoms: C1_1  and  C7_7 
ROOT
HETATM    1  C2  UNL     1     -36.700  15.493  -5.491  1.00 20.00     0.001 C 
HETATM    2  C3  UNL     1     -33.196  14.874  -3.607  1.00 20.00     0.014 C 
HETATM    3  C4  UNL     1     -35.673  14.414  -5.787  1.00 20.00     0.005 C 
HETATM    4  C5  UNL     1     -36.105  16.188  -4.279  1.00 20.00     0.006 C 
HETATM    5  C6  UNL     1     -33.763  13.622  -4.266  1.00 20.00     0.006 C 
HETATM    6  C7  UNL     1     -34.295  15.280  -2.631  1.00 20.00     0.076 C 
HETATM    7  C8  UNL     1     -35.262  13.897  -4.407  1.00 20.00    -0.010 C 
HETATM    8  C9  UNL     1     -35.591  15.034  -3.410  1.00 20.00     0.002 C 
ENDROOT
BRANCH   6   9
HETATM    9  C1  UNL     1     -34.141  16.680  -2.132  1.00 20.00     0.223 C 
HETATM   10  O10 UNL     1     -33.571  17.543  -2.794  1.00 20.00    -0.279 OA
HETATM   11 CL11 UNL     1     -34.848  16.895  -0.560  1.00 20.00    -0.043 Cl
ENDBRANCH   6   9
TORSDOF 1
ENDMDL
MODEL 7
REMARK VINA RESULT:      -4.4      2.442      3.286
REMARK  1 active torsions:
REMARK  status: ('A' for Active; 'I' for Inactive)
REMARK    1  A    between atoms: C1_1  and  C7_7 
ROOT
HETATM    1  C2  UNL     1     -34.790  16.256  -7.006  1.00 20.00     0.001 C 
HETATM    2  C3  UNL     1     -34.402  14.144  -3.600  1.00 20.00     0.014 C 
HETATM    3  C4  UNL     1     -34.360  14.806  -6.865  1.00 20.00     0.005 C 
HETATM    4  C5  UNL     1     -35.107  16.645  -5.572  1.00 20.00     0.006 C 
HETATM    5  C6  UNL     1     -34.674  13.280  -4.825  1.00 20.00     0.006 C 
HETATM    6  C7  UNL     1     -35.613  15.069  -3.553  1.00 20.00     0.076 C 
HETATM    7  C8  UNL     1     -35.330  14.225  -5.834  1.00 20.00    -0.010 C 
HETATM    8  C9  UNL     1     -35.861  15.429  -5.021  1.00 20.00     0.002 C 
ENDROOT
BRANCH   6   9
HETATM    9  C1  UNL     1     -35.406  16.252  -2.663  1.00 20.00     0.223 C 
HETATM   10  O10 UNL     1     -36.333  16.992  -2.347  1.00 20.00    -0.279 OA
HETATM   11 CL11 UNL     1     -33.748  16.417  -2.169  1.00 20.00    -0.043 Cl
ENDBRANCH   6   9
TORSDOF 1
ENDMDL
MODEL 8
REMARK VINA RESULT:      -4.3      2.293      3.199
REMARK  1 active torsions:
REMARK  status: ('A' for Active; 'I' for Inactive)
REMARK    1  A    between atoms: C1_1  and  C7_7 
ROOT
HETATM    1  C2  UNL     1     -35.305  15.049  -7.828  1.00 20.00     0.001 C 
HETATM    2  C3  UNL     1     -36.559  14.317  -4.072  1.00 20.00     0.014 C 
HETATM    3  C4  UNL     1     -36.731  15.098  -7.307  1.00 20.00     0.005 C 
HETATM    4  C5  UNL     1     -34.507  14.749  -6.570  1.00 20.00     0.006 C 
HETATM    5  C6  UNL     1     -37.491  15.231  -4.859  1.00 20.00     0.006 C 
HETATM    6  C7  UNL     1     -35.237  15.076  -4.086  1.00 20.00     0.076 C 
HETATM    7  C8  UNL     1     -36.617  15.825  -5.965  1.00 20.00    -0.010 C 
HETATM    8  C9  UNL     1     -35.151  15.644  -5.506  1.00 20.00     0.002 C 
ENDROOT
BRANCH   6   9
HETATM    9  C1  UNL     1     -34.074  14.222  -3.700  1.00 20.00     0.223 C 
HETATM   10  O10 UNL     1     -34.195  13.017  -3.498  1.00 20.00    -0.279 OA
HETATM   11 CL11 UNL     1     -32.601  15.137  -3.583  1.00 20.00    -0.043 Cl
ENDBRANCH   6   9
TORSDOF 1
ENDMDL
MODEL 9
REMARK VINA RESULT:      -4.3     12.134     13.052
REMARK  1 active torsions:
REMARK  status: ('A' for Active; 'I' for Inactive)
REMARK    1  A    between atoms: C1_1  and  C7_7 
ROOT
HETATM    1  C2  UNL     1     -43.169   7.671  -2.412  1.00 20.00     0.001 C 
HETATM    2  C3  UNL     1     -41.548   4.821  -0.075  1.00 20.00     0.014 C 
HETATM    3  C4  UNL     1     -42.308   7.872  -1.177  1.00 20.00     0.005 C 
HETATM    4  C5  UNL     1     -43.174   6.160  -2.566  1.00 20.00     0.006 C 
HETATM    5  C6  UNL     1     -40.791   6.143  -0.038  1.00 20.00     0.006 C 
HETATM    6  C7  UNL     1     -41.499   4.435  -1.549  1.00 20.00     0.076 C 
HETATM    7  C8  UNL     1     -41.178   6.853  -1.337  1.00 20.00    -0.010 C 
HETATM    8  C9  UNL     1     -41.721   5.759  -2.286  1.00 20.00     0.002 C 
ENDROOT
BRANCH   6   9
HETATM    9  C1  UNL     1     -42.484   3.368  -1.903  1.00 20.00     0.223 C 
HETATM   10  O10 UNL     1     -43.417   3.077  -1.160  1.00 20.00    -0.279 OA
HETATM   11 CL11 UNL     1     -42.133   2.638  -3.440  1.00 20.00    -0.043 Cl
ENDBRANCH   6   9
TORSDOF 1
ENDMDL
