MODEL 1
REMARK VINA RESULT:      -4.8      0.000      0.000
REMARK  2 active torsions:
REMARK  status: ('A' for Active; 'I' for Inactive)
REMARK    1  A    between atoms: C1_1  and  C4_4 
REMARK    2  A    between atoms: C3_3  and  C5_5 
ROOT
HETATM    1  C4  UNL     1     -33.389   6.824   3.746  1.00 20.00     0.029 A 
HETATM    2  C5  UNL     1     -33.571   5.615   4.636  1.00 20.00     0.089 A 
HETATM    3  C6  UNL     1     -34.358   5.728   3.343  1.00 20.00    -0.028 A 
HETATM    4  C8  UNL     1     -34.006   4.761   2.237  1.00 20.00     0.016 C 
HETATM    5  C9  UNL     1     -35.830   6.067   3.390  1.00 20.00     0.016 C 
ENDROOT
BRANCH   1   6
HETATM    6  C1  UNL     1     -32.123   6.999   3.047  1.00 20.00    -0.025 C 
HETATM    7  C2  UNL     1     -31.861   8.025   2.225  1.00 20.00    -0.034 C 
HETATM    8  C7  UNL     1     -32.832   9.116   1.922  1.00 20.00     0.036 C 
ENDBRANCH   1   6
BRANCH   2   9
HETATM    9  C3  UNL     1     -34.231   5.776   5.938  1.00 20.00     0.224 C 
HETATM   10  O10 UNL     1     -34.103   6.798   6.605  1.00 20.00    -0.279 OA
HETATM   11 CL11 UNL     1     -35.170   4.379   6.372  1.00 20.00    -0.043 Cl
ENDBRANCH   2   9
TORSDOF 2
ENDMDL
MODEL 2
REMARK VINA RESULT:      -4.7     11.393     12.167
REMARK  2 active torsions:
REMARK  status: ('A' for Active; 'I' for Inactive)
REMARK    1  A    between atoms: C1_1  and  C4_4 
REMARK    2  A    between atoms: C3_3  and  C5_5 
ROOT
HETATM    1  C4  UNL     1     -34.509  15.819  -2.445  1.00 20.00     0.029 A 
HETATM    2  C5  UNL     1     -34.333  15.382  -3.881  1.00 20.00     0.089 A 
HETATM    3  C6  UNL     1     -35.584  16.136  -3.468  1.00 20.00    -0.028 A 
HETATM    4  C8  UNL     1     -35.746  17.540  -3.999  1.00 20.00     0.016 C 
HETATM    5  C9  UNL     1     -36.894  15.396  -3.334  1.00 20.00     0.016 C 
ENDROOT
BRANCH   1   6
HETATM    6  C1  UNL     1     -33.645  16.866  -1.916  1.00 20.00    -0.025 C 
HETATM    7  C2  UNL     1     -33.859  17.491  -0.750  1.00 20.00    -0.034 C 
HETATM    8  C7  UNL     1     -35.008  17.193   0.155  1.00 20.00     0.036 C 
ENDBRANCH   1   6
BRANCH   2   9
HETATM    9  C3  UNL     1     -34.387  13.951  -4.208  1.00 20.00     0.224 C 
HETATM   10  O10 UNL     1     -34.080  13.090  -3.389  1.00 20.00    -0.279 OA
HETATM   11 CL11 UNL     1     -34.923  13.672  -5.838  1.00 20.00    -0.043 Cl
ENDBRANCH   2   9
TORSDOF 2
ENDMDL
MODEL 3
REMARK VINA RESULT:      -4.6     11.344     12.206
REMARK  2 active torsions:
REMARK  status: ('A' for Active; 'I' for Inactive)
REMARK    1  A    between atoms: C1_1  and  C4_4 
REMARK    2  A    between atoms: C3_3  and  C5_5 
ROOT
HETATM    1  C4  UNL     1     -34.686  15.996  -3.416  1.00 20.00     0.029 A 
HETATM    2  C5  UNL     1     -35.704  14.896  -3.218  1.00 20.00     0.089 A 
HETATM    3  C6  UNL     1     -34.572  14.709  -4.213  1.00 20.00    -0.028 A 
HETATM    4  C8  UNL     1     -33.517  13.685  -3.868  1.00 20.00     0.016 C 
HETATM    5  C9  UNL     1     -34.855  14.797  -5.694  1.00 20.00     0.016 C 
ENDROOT
BRANCH   1   6
HETATM    6  C1  UNL     1     -33.754  16.293  -2.336  1.00 20.00    -0.025 C 
HETATM    7  C2  UNL     1     -34.072  17.022  -1.257  1.00 20.00    -0.034 C 
HETATM    8  C7  UNL     1     -35.419  17.620  -1.025  1.00 20.00     0.036 C 
ENDBRANCH   1   6
BRANCH   2   9
HETATM    9  C3  UNL     1     -37.084  15.105  -3.677  1.00 20.00     0.224 C 
HETATM   10  O10 UNL     1     -37.876  14.173  -3.785  1.00 20.00    -0.279 OA
HETATM   11 CL11 UNL     1     -37.412  16.776  -4.023  1.00 20.00    -0.043 Cl
ENDBRANCH   2   9
TORSDOF 2
ENDMDL
MODEL 4
REMARK VINA RESULT:      -4.5     11.993     12.691
REMARK  2 active torsions:
REMARK  status: ('A' for Active; 'I' for Inactive)
REMARK    1  A    between atoms: C1_1  and  C4_4 
REMARK    2  A    between atoms: C3_3  and  C5_5 
ROOT
HETATM    1  C4  UNL     1     -34.614  15.410  -2.962  1.00 20.00     0.029 A 
HETATM    2  C5  UNL     1     -34.865  16.004  -4.330  1.00 20.00     0.089 A 
HETATM    3  C6  UNL     1     -35.408  14.627  -3.992  1.00 20.00    -0.028 A 
HETATM    4  C8  UNL     1     -36.907  14.492  -3.863  1.00 20.00     0.016 C 
HETATM    5  C9  UNL     1     -34.748  13.399  -4.573  1.00 20.00     0.016 C 
ENDROOT
BRANCH   1   6
HETATM    6  C1  UNL     1     -35.269  16.005  -1.805  1.00 20.00    -0.025 C 
HETATM    7  C2  UNL     1     -34.717  16.965  -1.049  1.00 20.00    -0.034 C 
HETATM    8  C7  UNL     1     -33.364  17.544  -1.296  1.00 20.00     0.036 C 
ENDBRANCH   1   6
BRANCH   2   9
HETATM    9  C3  UNL     1     -33.740  16.164  -5.261  1.00 20.00     0.224 C 
HETATM   10  O10 UNL     1     -32.584  16.273  -4.863  1.00 20.00    -0.279 OA
HETATM   11 CL11 UNL     1     -34.260  16.176  -6.919  1.00 20.00    -0.043 Cl
ENDBRANCH   2   9
TORSDOF 2
ENDMDL
MODEL 5
REMARK VINA RESULT:      -4.4     11.694     12.914
REMARK  2 active torsions:
REMARK  status: ('A' for Active; 'I' for Inactive)
REMARK    1  A    between atoms: C1_1  and  C4_4 
REMARK    2  A    between atoms: C3_3  and  C5_5 
ROOT
HETATM    1  C4  UNL     1     -34.820  16.268  -4.493  1.00 20.00     0.029 A 
HETATM    2  C5  UNL     1     -35.336  14.940  -3.988  1.00 20.00     0.089 A 
HETATM    3  C6  UNL     1     -34.143  15.593  -3.314  1.00 20.00    -0.028 A 
HETATM    4  C8  UNL     1     -34.346  16.114  -1.912  1.00 20.00     0.016 C 
HETATM    5  C9  UNL     1     -32.757  15.041  -3.549  1.00 20.00     0.016 C 
ENDROOT
BRANCH   1   6
HETATM    6  C1  UNL     1     -35.639  17.458  -4.305  1.00 20.00    -0.025 C 
HETATM    7  C2  UNL     1     -35.174  18.710  -4.425  1.00 20.00    -0.034 C 
HETATM    8  C7  UNL     1     -33.759  19.042  -4.764  1.00 20.00     0.036 C 
ENDBRANCH   1   6
BRANCH   2   9
HETATM    9  C3  UNL     1     -35.170  13.741  -4.821  1.00 20.00     0.224 C 
HETATM   10  O10 UNL     1     -35.124  12.617  -4.332  1.00 20.00    -0.279 OA
HETATM   11 CL11 UNL     1     -35.054  14.131  -6.511  1.00 20.00    -0.043 Cl
ENDBRANCH   2   9
TORSDOF 2
ENDMDL
MODEL 6
REMARK VINA RESULT:      -4.3      2.608      4.234
REMARK  2 active torsions:
REMARK  status: ('A' for Active; 'I' for Inactive)
REMARK    1  A    between atoms: C1_1  and  C4_4 
REMARK    2  A    between atoms: C3_3  and  C5_5 
ROOT
HETATM    1  C4  UNL     1     -33.350   6.141   4.670  1.00 20.00     0.029 A 
HETATM    2  C5  UNL     1     -33.323   7.267   3.660  1.00 20.00     0.089 A 
HETATM    3  C6  UNL     1     -33.966   5.940   3.297  1.00 20.00    -0.028 A 
HETATM    4  C8  UNL     1     -35.467   5.929   3.126  1.00 20.00     0.016 C 
HETATM    5  C9  UNL     1     -33.253   4.994   2.361  1.00 20.00     0.016 C 
ENDROOT
BRANCH   1   6
HETATM    6  C1  UNL     1     -34.186   6.279   5.854  1.00 20.00    -0.025 C 
HETATM    7  C2  UNL     1     -34.829   5.256   6.435  1.00 20.00    -0.034 C 
HETATM    8  C7  UNL     1     -34.769   3.848   5.942  1.00 20.00     0.036 C 
ENDBRANCH   1   6
BRANCH   2   9
HETATM    9  C3  UNL     1     -32.040   7.670   3.069  1.00 20.00     0.224 C 
HETATM   10  O10 UNL     1     -30.973   7.459   3.637  1.00 20.00    -0.279 OA
HETATM   11 CL11 UNL     1     -32.246   8.448   1.528  1.00 20.00    -0.043 Cl
ENDBRANCH   2   9
TORSDOF 2
ENDMDL
MODEL 7
REMARK VINA RESULT:      -4.3     11.689     12.920
REMARK  2 active torsions:
REMARK  status: ('A' for Active; 'I' for Inactive)
REMARK    1  A    between atoms: C1_1  and  C4_4 
REMARK    2  A    between atoms: C3_3  and  C5_5 
ROOT
HETATM    1  C4  UNL     1     -35.235  16.272  -4.325  1.00 20.00     0.029 A 
HETATM    2  C5  UNL     1     -35.509  14.864  -3.845  1.00 20.00     0.089 A 
HETATM    3  C6  UNL     1     -34.392  15.675  -3.213  1.00 20.00    -0.028 A 
HETATM    4  C8  UNL     1     -34.588  16.116  -1.782  1.00 20.00     0.016 C 
HETATM    5  C9  UNL     1     -32.954  15.353  -3.545  1.00 20.00     0.016 C 
ENDROOT
BRANCH   1   6
HETATM    6  C1  UNL     1     -36.214  17.314  -4.046  1.00 20.00    -0.025 C 
HETATM    7  C2  UNL     1     -37.186  17.670  -4.898  1.00 20.00    -0.034 C 
HETATM    8  C7  UNL     1     -37.387  17.046  -6.238  1.00 20.00     0.036 C 
ENDBRANCH   1   6
BRANCH   2   9
HETATM    9  C3  UNL     1     -35.212  13.732  -4.732  1.00 20.00     0.224 C 
HETATM   10  O10 UNL     1     -35.066  12.593  -4.299  1.00 20.00    -0.279 OA
HETATM   11 CL11 UNL     1     -35.102  14.218  -6.398  1.00 20.00    -0.043 Cl
ENDBRANCH   2   9
TORSDOF 2
ENDMDL
MODEL 8
REMARK VINA RESULT:      -4.3     11.332     12.703
REMARK  2 active torsions:
REMARK  status: ('A' for Active; 'I' for Inactive)
REMARK    1  A    between atoms: C1_1  and  C4_4 
REMARK    2  A    between atoms: C3_3  and  C5_5 
ROOT
HETATM    1  C4  UNL     1     -35.059  15.772  -5.094  1.00 20.00     0.029 A 
HETATM    2  C5  UNL     1     -34.549  15.749  -3.671  1.00 20.00     0.089 A 
HETATM    3  C6  UNL     1     -35.546  14.702  -4.134  1.00 20.00    -0.028 A 
HETATM    4  C8  UNL     1     -35.046  13.282  -4.252  1.00 20.00     0.016 C 
HETATM    5  C9  UNL     1     -36.986  14.791  -3.687  1.00 20.00     0.016 C 
ENDROOT
BRANCH   1   6
HETATM    6  C1  UNL     1     -34.140  15.446  -6.176  1.00 20.00    -0.025 C 
HETATM    7  C2  UNL     1     -34.531  14.976  -7.369  1.00 20.00    -0.034 C 
HETATM    8  C7  UNL     1     -35.955  14.728  -7.739  1.00 20.00     0.036 C 
ENDBRANCH   1   6
BRANCH   2   9
HETATM    9  C3  UNL     1     -34.951  16.818  -2.747  1.00 20.00     0.224 C 
HETATM   10  O10 UNL     1     -35.429  17.874  -3.150  1.00 20.00    -0.279 OA
HETATM   11 CL11 UNL     1     -34.666  16.389  -1.087  1.00 20.00    -0.043 Cl
ENDBRANCH   2   9
TORSDOF 2
ENDMDL
MODEL 9
REMARK VINA RESULT:      -4.3     12.127     13.021
REMARK  2 active torsions:
REMARK  status: ('A' for Active; 'I' for Inactive)
REMARK    1  A    between atoms: C1_1  and  C4_4 
REMARK    2  A    between atoms: C3_3  and  C5_5 
ROOT
HETATM    1  C4  UNL     1     -34.883  16.429  -3.218  1.00 20.00     0.029 A 
HETATM    2  C5  UNL     1     -35.248  15.364  -4.228  1.00 20.00     0.089 A 
HETATM    3  C6  UNL     1     -33.817  15.864  -4.139  1.00 20.00    -0.028 A 
HETATM    4  C8  UNL     1     -32.783  14.897  -3.613  1.00 20.00     0.016 C 
HETATM    5  C9  UNL     1     -33.279  16.787  -5.207  1.00 20.00     0.016 C 
ENDROOT
BRANCH   1   6
HETATM    6  C1  UNL     1     -34.904  16.091  -1.801  1.00 20.00    -0.025 C 
HETATM    7  C2  UNL     1     -34.328  16.838  -0.849  1.00 20.00    -0.034 C 
HETATM    8  C7  UNL     1     -33.591  18.107  -1.119  1.00 20.00     0.036 C 
ENDBRANCH   1   6
BRANCH   2   9
HETATM    9  C3  UNL     1     -36.102  15.720  -5.369  1.00 20.00     0.224 C 
HETATM   10  O10 UNL     1     -36.872  16.675  -5.325  1.00 20.00    -0.279 OA
HETATM   11 CL11 UNL     1     -35.873  14.648  -6.718  1.00 20.00    -0.043 Cl
ENDBRANCH   2   9
TORSDOF 2
ENDMDL
