MODEL 1
REMARK VINA RESULT:      -5.0      0.000      0.000
REMARK  1 active torsions:
REMARK  status: ('A' for Active; 'I' for Inactive)
REMARK    1  A    between atoms: C4_4  and  C5_5 
ROOT
HETATM    1  C1  UNL     1     -33.414  13.714  -3.780  1.00 20.00    -0.022 C 
HETATM    2  C2  UNL     1     -34.325  13.322  -4.693  1.00 20.00    -0.021 C 
HETATM    3  C3  UNL     1     -34.993  15.408  -2.921  1.00 20.00    -0.006 C 
HETATM    4  C4  UNL     1     -35.894  15.014  -3.840  1.00 20.00     0.009 C 
HETATM    5  C6  UNL     1     -33.359  16.007  -4.658  1.00 20.00     0.013 C 
HETATM    6  C7  UNL     1     -34.415  15.551  -5.718  1.00 20.00     0.014 C 
HETATM    7  C8  UNL     1     -33.549  15.174  -3.358  1.00 20.00     0.031 C 
HETATM    8  C9  UNL     1     -35.297  14.423  -5.109  1.00 20.00     0.045 C 
ENDROOT
BRANCH   4   9
HETATM    9  C5  UNL     1     -37.326  15.157  -3.630  1.00 20.00     0.248 C 
HETATM   10  O10 UNL     1     -38.058  14.160  -3.734  1.00 20.00    -0.274 OA
HETATM   11 CL11 UNL     1     -37.928  16.757  -3.236  1.00 20.00    -0.039 Cl
ENDBRANCH   4   9
TORSDOF 1
ENDMDL
MODEL 2
REMARK VINA RESULT:      -4.8      2.662      3.719
REMARK  1 active torsions:
REMARK  status: ('A' for Active; 'I' for Inactive)
REMARK    1  A    between atoms: C4_4  and  C5_5 
ROOT
HETATM    1  C1  UNL     1     -35.267  17.748  -3.818  1.00 20.00    -0.022 C 
HETATM    2  C2  UNL     1     -36.052  16.721  -3.438  1.00 20.00    -0.021 C 
HETATM    3  C3  UNL     1     -33.340  16.216  -4.009  1.00 20.00    -0.006 C 
HETATM    4  C4  UNL     1     -34.130  15.196  -3.622  1.00 20.00     0.009 C 
HETATM    5  C6  UNL     1     -33.749  17.435  -1.914  1.00 20.00     0.013 C 
HETATM    6  C7  UNL     1     -34.662  16.244  -1.472  1.00 20.00     0.014 C 
HETATM    7  C8  UNL     1     -33.794  17.567  -3.462  1.00 20.00     0.031 C 
HETATM    8  C9  UNL     1     -35.299  15.595  -2.735  1.00 20.00     0.045 C 
ENDROOT
BRANCH   4   9
HETATM    9  C5  UNL     1     -33.870  13.822  -4.022  1.00 20.00     0.248 C 
HETATM   10  O10 UNL     1     -32.945  13.196  -3.480  1.00 20.00    -0.274 OA
HETATM   11 CL11 UNL     1     -34.900  13.134  -5.264  1.00 20.00    -0.039 Cl
ENDBRANCH   4   9
TORSDOF 1
ENDMDL
MODEL 3
REMARK VINA RESULT:      -4.8      2.418      3.300
REMARK  1 active torsions:
REMARK  status: ('A' for Active; 'I' for Inactive)
REMARK    1  A    between atoms: C4_4  and  C5_5 
ROOT
HETATM    1  C1  UNL     1     -35.218  15.027  -5.548  1.00 20.00    -0.022 C 
HETATM    2  C2  UNL     1     -34.009  15.611  -5.439  1.00 20.00    -0.021 C 
HETATM    3  C3  UNL     1     -35.638  15.430  -3.148  1.00 20.00    -0.006 C 
HETATM    4  C4  UNL     1     -34.425  16.007  -3.047  1.00 20.00     0.009 C 
HETATM    5  C6  UNL     1     -34.656  13.303  -3.892  1.00 20.00     0.013 C 
HETATM    6  C7  UNL     1     -33.251  13.981  -3.768  1.00 20.00     0.014 C 
HETATM    7  C8  UNL     1     -35.713  14.383  -4.256  1.00 20.00     0.031 C 
HETATM    8  C9  UNL     1     -33.394  15.505  -4.046  1.00 20.00     0.045 C 
ENDROOT
BRANCH   4   9
HETATM    9  C5  UNL     1     -34.133  17.024  -2.049  1.00 20.00     0.248 C 
HETATM   10  O10 UNL     1     -33.528  18.053  -2.388  1.00 20.00    -0.274 OA
HETATM   11 CL11 UNL     1     -34.667  16.718  -0.406  1.00 20.00    -0.039 Cl
ENDBRANCH   4   9
TORSDOF 1
ENDMDL
MODEL 4
REMARK VINA RESULT:      -4.7      2.537      3.332
REMARK  1 active torsions:
REMARK  status: ('A' for Active; 'I' for Inactive)
REMARK    1  A    between atoms: C4_4  and  C5_5 
ROOT
HETATM    1  C1  UNL     1     -34.646  15.605  -2.782  1.00 20.00    -0.022 C 
HETATM    2  C2  UNL     1     -35.653  15.027  -3.466  1.00 20.00    -0.021 C 
HETATM    3  C3  UNL     1     -33.415  15.975  -4.891  1.00 20.00    -0.006 C 
HETATM    4  C4  UNL     1     -34.424  15.391  -5.566  1.00 20.00     0.009 C 
HETATM    5  C6  UNL     1     -33.015  13.944  -3.566  1.00 20.00     0.013 C 
HETATM    6  C7  UNL     1     -34.185  13.273  -4.358  1.00 20.00     0.014 C 
HETATM    7  C8  UNL     1     -33.283  15.472  -3.456  1.00 20.00     0.031 C 
HETATM    8  C9  UNL     1     -35.215  14.364  -4.770  1.00 20.00     0.045 C 
ENDROOT
BRANCH   4   9
HETATM    9  C5  UNL     1     -34.718  15.718  -6.952  1.00 20.00     0.248 C 
HETATM   10  O10 UNL     1     -34.397  16.832  -7.395  1.00 20.00    -0.274 OA
HETATM   11 CL11 UNL     1     -35.520  14.492  -7.918  1.00 20.00    -0.039 Cl
ENDBRANCH   4   9
TORSDOF 1
ENDMDL
MODEL 5
REMARK VINA RESULT:      -4.6      2.614      3.748
REMARK  1 active torsions:
REMARK  status: ('A' for Active; 'I' for Inactive)
REMARK    1  A    between atoms: C4_4  and  C5_5 
ROOT
HETATM    1  C1  UNL     1     -35.533  17.058  -6.563  1.00 20.00    -0.022 C 
HETATM    2  C2  UNL     1     -34.351  16.455  -6.801  1.00 20.00    -0.021 C 
HETATM    3  C3  UNL     1     -36.251  15.129  -5.198  1.00 20.00    -0.006 C 
HETATM    4  C4  UNL     1     -35.070  14.532  -5.446  1.00 20.00     0.009 C 
HETATM    5  C6  UNL     1     -36.800  15.223  -7.592  1.00 20.00     0.013 C 
HETATM    6  C7  UNL     1     -35.427  14.525  -7.869  1.00 20.00     0.014 C 
HETATM    7  C8  UNL     1     -36.682  16.088  -6.306  1.00 20.00     0.031 C 
HETATM    8  C9  UNL     1     -34.415  14.931  -6.760  1.00 20.00     0.045 C 
ENDROOT
BRANCH   4   9
HETATM    9  C5  UNL     1     -34.480  13.573  -4.525  1.00 20.00     0.248 C 
HETATM   10  O10 UNL     1     -35.035  12.476  -4.352  1.00 20.00    -0.274 OA
HETATM   11 CL11 UNL     1     -33.000  14.044  -3.708  1.00 20.00    -0.039 Cl
ENDBRANCH   4   9
TORSDOF 1
ENDMDL
MODEL 6
REMARK VINA RESULT:      -4.6      2.297      3.080
REMARK  1 active torsions:
REMARK  status: ('A' for Active; 'I' for Inactive)
REMARK    1  A    between atoms: C4_4  and  C5_5 
ROOT
HETATM    1  C1  UNL     1     -34.615  16.216  -1.879  1.00 20.00    -0.022 C 
HETATM    2  C2  UNL     1     -33.556  15.992  -2.683  1.00 20.00    -0.021 C 
HETATM    3  C3  UNL     1     -36.096  15.090  -3.504  1.00 20.00    -0.006 C 
HETATM    4  C4  UNL     1     -35.034  14.876  -4.303  1.00 20.00     0.009 C 
HETATM    5  C6  UNL     1     -35.780  17.526  -3.598  1.00 20.00     0.013 C 
HETATM    6  C7  UNL     1     -34.550  17.267  -4.530  1.00 20.00     0.014 C 
HETATM    7  C8  UNL     1     -35.943  16.327  -2.622  1.00 20.00     0.031 C 
HETATM    8  C9  UNL     1     -33.913  15.895  -4.164  1.00 20.00     0.045 C 
ENDROOT
BRANCH   4   9
HETATM    9  C5  UNL     1     -34.977  13.758  -5.231  1.00 20.00     0.248 C 
HETATM   10  O10 UNL     1     -34.769  12.615  -4.794  1.00 20.00    -0.274 OA
HETATM   11 CL11 UNL     1     -35.213  14.109  -6.934  1.00 20.00    -0.039 Cl
ENDBRANCH   4   9
TORSDOF 1
ENDMDL
MODEL 7
REMARK VINA RESULT:      -4.6      0.733      1.112
REMARK  1 active torsions:
REMARK  status: ('A' for Active; 'I' for Inactive)
REMARK    1  A    between atoms: C4_4  and  C5_5 
ROOT
HETATM    1  C1  UNL     1     -33.349  14.782  -3.793  1.00 20.00    -0.022 C 
HETATM    2  C2  UNL     1     -34.146  13.699  -3.720  1.00 20.00    -0.021 C 
HETATM    3  C3  UNL     1     -35.322  16.220  -4.163  1.00 20.00    -0.006 C 
HETATM    4  C4  UNL     1     -36.111  15.131  -4.094  1.00 20.00     0.009 C 
HETATM    5  C6  UNL     1     -34.083  15.304  -6.077  1.00 20.00     0.013 C 
HETATM    6  C7  UNL     1     -35.007  14.045  -5.993  1.00 20.00     0.014 C 
HETATM    7  C8  UNL     1     -33.911  15.908  -4.655  1.00 20.00     0.031 C 
HETATM    8  C9  UNL     1     -35.443  13.830  -4.514  1.00 20.00     0.045 C 
ENDROOT
BRANCH   4   9
HETATM    9  C5  UNL     1     -37.497  15.206  -3.660  1.00 20.00     0.248 C 
HETATM   10  O10 UNL     1     -38.197  14.181  -3.679  1.00 20.00    -0.274 OA
HETATM   11 CL11 UNL     1     -38.093  16.769  -3.130  1.00 20.00    -0.039 Cl
ENDBRANCH   4   9
TORSDOF 1
ENDMDL
MODEL 8
REMARK VINA RESULT:      -4.5      2.757      3.551
REMARK  1 active torsions:
REMARK  status: ('A' for Active; 'I' for Inactive)
REMARK    1  A    between atoms: C4_4  and  C5_5 
ROOT
HETATM    1  C1  UNL     1     -34.467  13.779  -3.629  1.00 20.00    -0.022 C 
HETATM    2  C2  UNL     1     -33.240  14.284  -3.870  1.00 20.00    -0.021 C 
HETATM    3  C3  UNL     1     -35.497  15.761  -4.682  1.00 20.00    -0.006 C 
HETATM    4  C4  UNL     1     -34.268  16.260  -4.914  1.00 20.00     0.009 C 
HETATM    5  C6  UNL     1     -35.111  15.710  -2.255  1.00 20.00     0.013 C 
HETATM    6  C7  UNL     1     -33.686  16.294  -2.534  1.00 20.00     0.014 C 
HETATM    7  C8  UNL     1     -35.551  14.840  -3.466  1.00 20.00     0.031 C 
HETATM    8  C9  UNL     1     -33.199  15.808  -3.929  1.00 20.00     0.045 C 
ENDROOT
BRANCH   4   9
HETATM    9  C5  UNL     1     -33.997  17.169  -6.016  1.00 20.00     0.248 C 
HETATM   10  O10 UNL     1     -33.400  18.234  -5.794  1.00 20.00    -0.274 OA
HETATM   11 CL11 UNL     1     -34.544  16.686  -7.612  1.00 20.00    -0.039 Cl
ENDBRANCH   4   9
TORSDOF 1
ENDMDL
MODEL 9
REMARK VINA RESULT:      -4.4      2.341      3.075
REMARK  1 active torsions:
REMARK  status: ('A' for Active; 'I' for Inactive)
REMARK    1  A    between atoms: C4_4  and  C5_5 
ROOT
HETATM    1  C1  UNL     1     -34.418  13.595  -5.206  1.00 20.00    -0.022 C 
HETATM    2  C2  UNL     1     -34.920  13.524  -3.957  1.00 20.00    -0.021 C 
HETATM    3  C3  UNL     1     -34.061  16.023  -4.933  1.00 20.00    -0.006 C 
HETATM    4  C4  UNL     1     -34.569  15.944  -3.688  1.00 20.00     0.009 C 
HETATM    5  C6  UNL     1     -36.145  15.184  -5.928  1.00 20.00     0.013 C 
HETATM    6  C7  UNL     1     -36.729  15.099  -4.479  1.00 20.00     0.014 C 
HETATM    7  C8  UNL     1     -34.609  14.954  -5.874  1.00 20.00     0.031 C 
HETATM    8  C9  UNL     1     -35.571  14.819  -3.478  1.00 20.00     0.045 C 
ENDROOT
BRANCH   4   9
HETATM    9  C5  UNL     1     -34.189  16.875  -2.638  1.00 20.00     0.248 C 
HETATM   10  O10 UNL     1     -33.566  17.907  -2.935  1.00 20.00    -0.274 OA
HETATM   11 CL11 UNL     1     -34.647  16.467  -0.994  1.00 20.00    -0.039 Cl
ENDBRANCH   4   9
TORSDOF 1
ENDMDL
