MODEL 1
REMARK VINA RESULT:      -4.7      0.000      0.000
REMARK  1 active torsions:
REMARK  status: ('A' for Active; 'I' for Inactive)
REMARK    1  A    between atoms: C3_3  and  C7_7 
ROOT
HETATM    1  C1  UNL     1     -33.554  13.718  -3.871  1.00 20.00    -0.025 C 
HETATM    2  C2  UNL     1     -34.880  13.583  -4.021  1.00 20.00    -0.020 C 
HETATM    3  C4  UNL     1     -33.545  15.972  -4.884  1.00 20.00     0.021 C 
HETATM    4  C5  UNL     1     -34.537  15.499  -2.772  1.00 20.00     0.022 C 
HETATM    5  C6  UNL     1     -33.281  15.175  -3.587  1.00 20.00     0.010 C 
HETATM    6  C7  UNL     1     -35.089  15.860  -5.051  1.00 20.00     0.067 C 
HETATM    7  C8  UNL     1     -35.495  14.960  -3.849  1.00 20.00    -0.016 C 
HETATM    8  C10 UNL     1     -36.955  14.984  -3.457  1.00 20.00     0.020 C 
ENDROOT
BRANCH   6   9
HETATM    9  C3  UNL     1     -35.476  15.299  -6.386  1.00 20.00     0.128 C 
HETATM   10  C9  UNL     1     -34.355  14.992  -7.341  1.00 20.00     0.091 C 
HETATM   11  O11 UNL     1     -36.652  15.098  -6.684  1.00 20.00    -0.298 OA
ENDBRANCH   6   9
TORSDOF 1
ENDMDL
MODEL 2
REMARK VINA RESULT:      -4.6      1.390      2.883
REMARK  1 active torsions:
REMARK  status: ('A' for Active; 'I' for Inactive)
REMARK    1  A    between atoms: C3_3  and  C7_7 
ROOT
HETATM    1  C1  UNL     1     -33.799  16.692  -4.799  1.00 20.00    -0.025 C 
HETATM    2  C2  UNL     1     -34.411  15.625  -5.335  1.00 20.00    -0.020 C 
HETATM    3  C4  UNL     1     -34.555  16.131  -2.514  1.00 20.00     0.021 C 
HETATM    4  C5  UNL     1     -32.965  14.827  -3.716  1.00 20.00     0.022 C 
HETATM    5  C6  UNL     1     -33.318  16.290  -3.427  1.00 20.00     0.010 C 
HETATM    6  C7  UNL     1     -35.255  14.869  -3.098  1.00 20.00     0.067 C 
HETATM    7  C8  UNL     1     -34.348  14.509  -4.309  1.00 20.00    -0.016 C 
HETATM    8  C10 UNL     1     -34.487  13.105  -4.855  1.00 20.00     0.020 C 
ENDROOT
BRANCH   6   9
HETATM    9  C3  UNL     1     -36.683  15.134  -3.468  1.00 20.00     0.128 C 
HETATM   10  C9  UNL     1     -37.162  16.555  -3.343  1.00 20.00     0.091 C 
HETATM   11  O11 UNL     1     -37.426  14.234  -3.858  1.00 20.00    -0.298 OA
ENDBRANCH   6   9
TORSDOF 1
ENDMDL
MODEL 3
REMARK VINA RESULT:      -4.6     11.198     12.575
REMARK  1 active torsions:
REMARK  status: ('A' for Active; 'I' for Inactive)
REMARK    1  A    between atoms: C3_3  and  C7_7 
ROOT
HETATM    1  C1  UNL     1     -42.561   5.735   0.415  1.00 20.00    -0.025 C 
HETATM    2  C2  UNL     1     -43.237   6.265  -0.615  1.00 20.00    -0.020 C 
HETATM    3  C4  UNL     1     -40.918   4.637  -1.069  1.00 20.00     0.021 C 
HETATM    4  C5  UNL     1     -41.051   6.999  -0.797  1.00 20.00     0.022 C 
HETATM    5  C6  UNL     1     -41.102   5.709   0.029  1.00 20.00     0.010 C 
HETATM    6  C7  UNL     1     -41.663   5.257  -2.287  1.00 20.00     0.067 C 
HETATM    7  C8  UNL     1     -42.225   6.583  -1.701  1.00 20.00    -0.016 C 
HETATM    8  C10 UNL     1     -42.645   7.634  -2.705  1.00 20.00     0.020 C 
ENDROOT
BRANCH   6   9
HETATM    9  C3  UNL     1     -42.716   4.341  -2.833  1.00 20.00     0.128 C 
HETATM   10  C9  UNL     1     -42.875   3.010  -2.150  1.00 20.00     0.091 C 
HETATM   11  O11 UNL     1     -43.417   4.663  -3.790  1.00 20.00    -0.298 OA
ENDBRANCH   6   9
TORSDOF 1
ENDMDL
MODEL 4
REMARK VINA RESULT:      -4.6      1.533      3.529
REMARK  1 active torsions:
REMARK  status: ('A' for Active; 'I' for Inactive)
REMARK    1  A    between atoms: C3_3  and  C7_7 
ROOT
HETATM    1  C1  UNL     1     -35.762  14.767  -7.340  1.00 20.00    -0.025 C 
HETATM    2  C2  UNL     1     -34.499  14.938  -6.921  1.00 20.00    -0.020 C 
HETATM    3  C4  UNL     1     -36.656  14.763  -5.037  1.00 20.00     0.021 C 
HETATM    4  C5  UNL     1     -35.733  16.699  -6.071  1.00 20.00     0.022 C 
HETATM    5  C6  UNL     1     -36.657  15.517  -6.385  1.00 20.00     0.010 C 
HETATM    6  C7  UNL     1     -35.206  14.987  -4.516  1.00 20.00     0.067 C 
HETATM    7  C8  UNL     1     -34.552  15.797  -5.671  1.00 20.00    -0.016 C 
HETATM    8  C10 UNL     1     -33.282  16.543  -5.330  1.00 20.00     0.020 C 
ENDROOT
BRANCH   6   9
HETATM    9  C3  UNL     1     -34.508  13.696  -4.211  1.00 20.00     0.128 C 
HETATM   10  C9  UNL     1     -33.135  13.797  -3.603  1.00 20.00     0.091 C 
HETATM   11  O11 UNL     1     -35.032  12.609  -4.443  1.00 20.00    -0.298 OA
ENDBRANCH   6   9
TORSDOF 1
ENDMDL
MODEL 5
REMARK VINA RESULT:      -4.6      2.070      3.698
REMARK  1 active torsions:
REMARK  status: ('A' for Active; 'I' for Inactive)
REMARK    1  A    between atoms: C3_3  and  C7_7 
ROOT
HETATM    1  C1  UNL     1     -33.551  13.872  -3.559  1.00 20.00    -0.025 C 
HETATM    2  C2  UNL     1     -32.918  15.005  -3.902  1.00 20.00    -0.020 C 
HETATM    3  C4  UNL     1     -35.689  15.045  -3.155  1.00 20.00     0.021 C 
HETATM    4  C5  UNL     1     -34.732  14.793  -5.321  1.00 20.00     0.022 C 
HETATM    5  C6  UNL     1     -34.978  13.994  -4.037  1.00 20.00     0.010 C 
HETATM    6  C7  UNL     1     -34.993  16.374  -3.572  1.00 20.00     0.067 C 
HETATM    7  C8  UNL     1     -33.931  15.892  -4.601  1.00 20.00    -0.016 C 
HETATM    8  C10 UNL     1     -33.358  16.951  -5.517  1.00 20.00     0.020 C 
ENDROOT
BRANCH   6   9
HETATM    9  C3  UNL     1     -34.412  17.101  -2.397  1.00 20.00     0.128 C 
HETATM   10  C9  UNL     1     -34.643  16.491  -1.042  1.00 20.00     0.091 C 
HETATM   11  O11 UNL     1     -33.775  18.144  -2.536  1.00 20.00    -0.298 OA
ENDBRANCH   6   9
TORSDOF 1
ENDMDL
MODEL 6
REMARK VINA RESULT:      -4.3      1.740      3.205
REMARK  1 active torsions:
REMARK  status: ('A' for Active; 'I' for Inactive)
REMARK    1  A    between atoms: C3_3  and  C7_7 
ROOT
HETATM    1  C1  UNL     1     -34.515  14.638  -5.903  1.00 20.00    -0.025 C 
HETATM    2  C2  UNL     1     -35.379  15.471  -5.301  1.00 20.00    -0.020 C 
HETATM    3  C4  UNL     1     -33.453  13.999  -3.765  1.00 20.00     0.021 C 
HETATM    4  C5  UNL     1     -35.680  13.386  -4.346  1.00 20.00     0.022 C 
HETATM    5  C6  UNL     1     -34.281  13.481  -4.963  1.00 20.00     0.010 C 
HETATM    6  C7  UNL     1     -34.456  14.937  -3.031  1.00 20.00     0.067 C 
HETATM    7  C8  UNL     1     -35.712  14.872  -3.947  1.00 20.00    -0.016 C 
HETATM    8  C10 UNL     1     -37.015  15.327  -3.329  1.00 20.00     0.020 C 
ENDROOT
BRANCH   6   9
HETATM    9  C3  UNL     1     -33.909  16.320  -2.850  1.00 20.00     0.128 C 
HETATM   10  C9  UNL     1     -34.110  16.956  -1.501  1.00 20.00     0.091 C 
HETATM   11  O11 UNL     1     -33.323  16.906  -3.759  1.00 20.00    -0.298 OA
ENDBRANCH   6   9
TORSDOF 1
ENDMDL
MODEL 7
REMARK VINA RESULT:      -4.3      1.586      2.488
REMARK  1 active torsions:
REMARK  status: ('A' for Active; 'I' for Inactive)
REMARK    1  A    between atoms: C3_3  and  C7_7 
ROOT
HETATM    1  C1  UNL     1     -36.400  14.270  -4.120  1.00 20.00    -0.025 C 
HETATM    2  C2  UNL     1     -35.963  15.374  -3.495  1.00 20.00    -0.020 C 
HETATM    3  C4  UNL     1     -34.564  14.328  -5.773  1.00 20.00     0.021 C 
HETATM    4  C5  UNL     1     -34.223  13.850  -3.465  1.00 20.00     0.022 C 
HETATM    5  C6  UNL     1     -35.185  13.521  -4.611  1.00 20.00     0.010 C 
HETATM    6  C7  UNL     1     -34.013  15.597  -5.058  1.00 20.00     0.067 C 
HETATM    7  C8  UNL     1     -34.447  15.368  -3.581  1.00 20.00    -0.016 C 
HETATM    8  C10 UNL     1     -33.726  16.190  -2.537  1.00 20.00     0.020 C 
ENDROOT
BRANCH   6   9
HETATM    9  C3  UNL     1     -34.547  16.862  -5.657  1.00 20.00     0.128 C 
HETATM   10  C9  UNL     1     -35.457  16.716  -6.846  1.00 20.00     0.091 C 
HETATM   11  O11 UNL     1     -34.257  17.966  -5.198  1.00 20.00    -0.298 OA
ENDBRANCH   6   9
TORSDOF 1
ENDMDL
MODEL 8
REMARK VINA RESULT:      -4.3     11.442     12.749
REMARK  1 active torsions:
REMARK  status: ('A' for Active; 'I' for Inactive)
REMARK    1  A    between atoms: C3_3  and  C7_7 
ROOT
HETATM    1  C1  UNL     1     -40.458   5.115  -0.636  1.00 20.00    -0.025 C 
HETATM    2  C2  UNL     1     -41.084   4.324  -1.521  1.00 20.00    -0.020 C 
HETATM    3  C4  UNL     1     -42.396   6.635  -0.437  1.00 20.00     0.021 C 
HETATM    4  C5  UNL     1     -42.412   4.396   0.372  1.00 20.00     0.022 C 
HETATM    5  C6  UNL     1     -41.503   5.629   0.323  1.00 20.00     0.010 C 
HETATM    6  C7  UNL     1     -43.162   5.727  -1.443  1.00 20.00     0.067 C 
HETATM    7  C8  UNL     1     -42.558   4.322  -1.158  1.00 20.00    -0.016 C 
HETATM    8  C10 UNL     1     -43.356   3.137  -1.655  1.00 20.00     0.020 C 
ENDROOT
BRANCH   6   9
HETATM    9  C3  UNL     1     -42.993   6.183  -2.861  1.00 20.00     0.128 C 
HETATM   10  C9  UNL     1     -42.275   7.489  -3.070  1.00 20.00     0.091 C 
HETATM   11  O11 UNL     1     -43.417   5.521  -3.806  1.00 20.00    -0.298 OA
ENDBRANCH   6   9
TORSDOF 1
ENDMDL
MODEL 9
REMARK VINA RESULT:      -4.3      1.642      3.405
REMARK  1 active torsions:
REMARK  status: ('A' for Active; 'I' for Inactive)
REMARK    1  A    between atoms: C3_3  and  C7_7 
ROOT
HETATM    1  C1  UNL     1     -35.804  17.094  -5.335  1.00 20.00    -0.025 C 
HETATM    2  C2  UNL     1     -36.280  15.946  -5.840  1.00 20.00    -0.020 C 
HETATM    3  C4  UNL     1     -33.511  16.197  -5.130  1.00 20.00     0.021 C 
HETATM    4  C5  UNL     1     -34.558  16.625  -7.226  1.00 20.00     0.022 C 
HETATM    5  C6  UNL     1     -34.390  17.252  -5.838  1.00 20.00     0.010 C 
HETATM    6  C7  UNL     1     -34.023  14.857  -5.736  1.00 20.00     0.067 C 
HETATM    7  C8  UNL     1     -35.173  15.327  -6.673  1.00 20.00    -0.016 C 
HETATM    8  C10 UNL     1     -35.617  14.344  -7.733  1.00 20.00     0.020 C 
ENDROOT
BRANCH   6   9
HETATM    9  C3  UNL     1     -34.460  13.888  -4.680  1.00 20.00     0.128 C 
HETATM   10  C9  UNL     1     -34.473  14.392  -3.263  1.00 20.00     0.091 C 
HETATM   11  O11 UNL     1     -34.794  12.737  -4.959  1.00 20.00    -0.298 OA
ENDBRANCH   6   9
TORSDOF 1
ENDMDL
