MODEL 1
REMARK VINA RESULT:      -4.1      0.000      0.000
REMARK  0 active torsions:
REMARK  status: ('A' for Active; 'I' for Inactive)
ROOT
HETATM    1  C1  UNL     1     -34.720  16.244  -1.992  1.00 20.00     0.026 C 
HETATM    2  C2  UNL     1     -35.663  15.277  -3.658  1.00 20.00     0.017 C 
HETATM    3  C3  UNL     1     -34.578  16.692  -0.740  1.00 20.00     0.040 C 
HETATM    4  C4  UNL     1     -33.583  16.068  -2.956  1.00 20.00     0.073 C 
HETATM    5  C5  UNL     1     -34.196  15.144  -4.019  1.00 20.00    -0.002 C 
HETATM    6  C6  UNL     1     -36.750  14.732  -4.532  1.00 20.00     0.066 C 
HETATM    7  C7  UNL     1     -33.894  15.637  -5.431  1.00 20.00     0.021 C 
HETATM    8  C8  UNL     1     -33.742  13.695  -3.832  1.00 20.00     0.021 C 
HETATM    9  N9  UNL     1     -35.923  15.864  -2.531  1.00 20.00    -0.263 NA
ENDROOT
TORSDOF 0
ENDMDL
MODEL 2
REMARK VINA RESULT:      -4.0      0.875      2.924
REMARK  0 active torsions:
REMARK  status: ('A' for Active; 'I' for Inactive)
ROOT
HETATM    1  C1  UNL     1     -36.708  14.806  -3.742  1.00 20.00     0.026 C 
HETATM    2  C2  UNL     1     -34.849  15.613  -3.042  1.00 20.00     0.017 C 
HETATM    3  C3  UNL     1     -38.024  14.753  -3.976  1.00 20.00     0.040 C 
HETATM    4  C4  UNL     1     -35.694  13.950  -4.443  1.00 20.00     0.073 C 
HETATM    5  C5  UNL     1     -34.383  14.696  -4.157  1.00 20.00    -0.002 C 
HETATM    6  C6  UNL     1     -33.890  16.432  -2.233  1.00 20.00     0.066 C 
HETATM    7  C7  UNL     1     -33.281  13.741  -3.707  1.00 20.00     0.021 C 
HETATM    8  C8  UNL     1     -33.934  15.525  -5.362  1.00 20.00     0.021 C 
HETATM    9  N9  UNL     1     -36.129  15.672  -2.849  1.00 20.00    -0.263 NA
ENDROOT
TORSDOF 0
ENDMDL
MODEL 3
REMARK VINA RESULT:      -3.9      1.281      2.954
REMARK  0 active torsions:
REMARK  status: ('A' for Active; 'I' for Inactive)
ROOT
HETATM    1  C1  UNL     1     -36.808  15.011  -3.888  1.00 20.00     0.026 C 
HETATM    2  C2  UNL     1     -34.721  14.553  -3.706  1.00 20.00     0.017 C 
HETATM    3  C3  UNL     1     -38.125  14.784  -3.925  1.00 20.00     0.040 C 
HETATM    4  C4  UNL     1     -36.193  16.363  -3.676  1.00 20.00     0.073 C 
HETATM    5  C5  UNL     1     -34.752  16.008  -3.279  1.00 20.00    -0.002 C 
HETATM    6  C6  UNL     1     -33.450  13.761  -3.737  1.00 20.00     0.066 C 
HETATM    7  C7  UNL     1     -33.737  16.861  -4.033  1.00 20.00     0.021 C 
HETATM    8  C8  UNL     1     -34.545  16.113  -1.767  1.00 20.00     0.021 C 
HETATM    9  N9  UNL     1     -35.863  14.023  -4.014  1.00 20.00    -0.263 NA
ENDROOT
TORSDOF 0
ENDMDL
MODEL 4
REMARK VINA RESULT:      -3.9      1.379      2.319
REMARK  0 active torsions:
REMARK  status: ('A' for Active; 'I' for Inactive)
ROOT
HETATM    1  C1  UNL     1     -33.979  16.183  -2.978  1.00 20.00     0.026 C 
HETATM    2  C2  UNL     1     -34.228  15.709  -5.054  1.00 20.00     0.017 C 
HETATM    3  C3  UNL     1     -33.764  16.946  -1.900  1.00 20.00     0.040 C 
HETATM    4  C4  UNL     1     -34.593  14.815  -2.930  1.00 20.00     0.073 C 
HETATM    5  C5  UNL     1     -35.015  14.595  -4.390  1.00 20.00    -0.002 C 
HETATM    6  C6  UNL     1     -34.108  15.820  -6.543  1.00 20.00     0.066 C 
HETATM    7  C7  UNL     1     -34.607  13.213  -4.889  1.00 20.00     0.021 C 
HETATM    8  C8  UNL     1     -36.515  14.830  -4.583  1.00 20.00     0.021 C 
HETATM    9  N9  UNL     1     -33.688  16.579  -4.259  1.00 20.00    -0.263 NA
ENDROOT
TORSDOF 0
ENDMDL
MODEL 5
REMARK VINA RESULT:      -3.9      1.857      3.265
REMARK  0 active torsions:
REMARK  status: ('A' for Active; 'I' for Inactive)
ROOT
HETATM    1  C1  UNL     1     -34.235  16.327  -6.053  1.00 20.00     0.026 C 
HETATM    2  C2  UNL     1     -34.551  14.597  -4.826  1.00 20.00     0.017 C 
HETATM    3  C3  UNL     1     -34.506  17.253  -6.980  1.00 20.00     0.040 C 
HETATM    4  C4  UNL     1     -33.187  16.483  -4.990  1.00 20.00     0.073 C 
HETATM    5  C5  UNL     1     -33.588  15.403  -3.975  1.00 20.00    -0.002 C 
HETATM    6  C6  UNL     1     -35.089  13.272  -4.380  1.00 20.00     0.066 C 
HETATM    7  C7  UNL     1     -32.383  14.585  -3.521  1.00 20.00     0.021 C 
HETATM    8  C8  UNL     1     -34.328  16.005  -2.778  1.00 20.00     0.021 C 
HETATM    9  N9  UNL     1     -34.907  15.135  -5.950  1.00 20.00    -0.263 NA
ENDROOT
TORSDOF 0
ENDMDL
MODEL 6
REMARK VINA RESULT:      -3.9      1.405      3.076
REMARK  0 active torsions:
REMARK  status: ('A' for Active; 'I' for Inactive)
ROOT
HETATM    1  C1  UNL     1     -35.047  14.260  -3.940  1.00 20.00     0.026 C 
HETATM    2  C2  UNL     1     -36.015  16.028  -3.210  1.00 20.00     0.017 C 
HETATM    3  C3  UNL     1     -34.819  13.217  -4.746  1.00 20.00     0.040 C 
HETATM    4  C4  UNL     1     -34.041  14.809  -2.971  1.00 20.00     0.073 C 
HETATM    5  C5  UNL     1     -34.612  16.199  -2.659  1.00 20.00    -0.002 C 
HETATM    6  C6  UNL     1     -37.092  17.041  -2.971  1.00 20.00     0.066 C 
HETATM    7  C7  UNL     1     -34.603  16.486  -1.161  1.00 20.00     0.021 C 
HETATM    8  C8  UNL     1     -33.877  17.295  -3.434  1.00 20.00     0.021 C 
HETATM    9  N9  UNL     1     -36.222  14.968  -3.927  1.00 20.00    -0.263 NA
ENDROOT
TORSDOF 0
ENDMDL
MODEL 7
REMARK VINA RESULT:      -3.9      1.486      2.330
REMARK  0 active torsions:
REMARK  status: ('A' for Active; 'I' for Inactive)
ROOT
HETATM    1  C1  UNL     1     -33.809  17.231  -3.319  1.00 20.00     0.026 C 
HETATM    2  C2  UNL     1     -34.106  15.901  -4.974  1.00 20.00     0.017 C 
HETATM    3  C3  UNL     1     -33.751  18.394  -2.662  1.00 20.00     0.040 C 
HETATM    4  C4  UNL     1     -33.905  15.891  -2.650  1.00 20.00     0.073 C 
HETATM    5  C5  UNL     1     -34.384  14.988  -3.795  1.00 20.00    -0.002 C 
HETATM    6  C6  UNL     1     -34.198  15.421  -6.390  1.00 20.00     0.066 C 
HETATM    7  C7  UNL     1     -33.584  13.691  -3.859  1.00 20.00     0.021 C 
HETATM    8  C8  UNL     1     -35.885  14.704  -3.697  1.00 20.00     0.021 C 
HETATM    9  N9  UNL     1     -33.815  17.131  -4.687  1.00 20.00    -0.263 NA
ENDROOT
TORSDOF 0
ENDMDL
MODEL 8
REMARK VINA RESULT:      -3.9      1.586      3.003
REMARK  0 active torsions:
REMARK  status: ('A' for Active; 'I' for Inactive)
ROOT
HETATM    1  C1  UNL     1     -33.889  17.330  -4.925  1.00 20.00     0.026 C 
HETATM    2  C2  UNL     1     -34.207  16.404  -3.018  1.00 20.00     0.017 C 
HETATM    3  C3  UNL     1     -33.579  18.299  -5.794  1.00 20.00     0.040 C 
HETATM    4  C4  UNL     1     -33.923  15.871  -5.271  1.00 20.00     0.073 C 
HETATM    5  C5  UNL     1     -33.878  15.206  -3.888  1.00 20.00    -0.002 C 
HETATM    6  C6  UNL     1     -34.506  16.267  -1.557  1.00 20.00     0.066 C 
HETATM    7  C7  UNL     1     -34.914  14.093  -3.767  1.00 20.00     0.021 C 
HETATM    8  C8  UNL     1     -32.476  14.691  -3.558  1.00 20.00     0.021 C 
HETATM    9  N9  UNL     1     -34.185  17.559  -3.606  1.00 20.00    -0.263 NA
ENDROOT
TORSDOF 0
ENDMDL
MODEL 9
REMARK VINA RESULT:      -3.9      1.958      3.467
REMARK  0 active torsions:
REMARK  status: ('A' for Active; 'I' for Inactive)
ROOT
HETATM    1  C1  UNL     1     -33.719  17.496  -4.959  1.00 20.00     0.026 C 
HETATM    2  C2  UNL     1     -33.355  15.667  -3.900  1.00 20.00     0.017 C 
HETATM    3  C3  UNL     1     -33.688  18.364  -5.976  1.00 20.00     0.040 C 
HETATM    4  C4  UNL     1     -34.661  17.597  -3.796  1.00 20.00     0.073 C 
HETATM    5  C5  UNL     1     -34.597  16.184  -3.199  1.00 20.00    -0.002 C 
HETATM    6  C6  UNL     1     -32.704  14.375  -3.515  1.00 20.00     0.066 C 
HETATM    7  C7  UNL     1     -34.438  16.222  -1.682  1.00 20.00     0.021 C 
HETATM    8  C8  UNL     1     -35.812  15.347  -3.604  1.00 20.00     0.021 C 
HETATM    9  N9  UNL     1     -32.906  16.393  -4.876  1.00 20.00    -0.263 NA
ENDROOT
TORSDOF 0
ENDMDL
