MODEL 1
REMARK VINA RESULT:      -4.9      0.000      0.000
REMARK  2 active torsions:
REMARK  status: ('A' for Active; 'I' for Inactive)
REMARK    1  A    between atoms: C1_1  and  C3_3 
REMARK    2  A    between atoms: C2_2  and  C7_7 
ROOT
HETATM    1  C4  UNL     1     -34.317   3.981   6.308  1.00 20.00     0.002 C 
HETATM    2  C5  UNL     1     -34.501   3.755   4.798  1.00 20.00     0.013 C 
HETATM    3  C6  UNL     1     -35.085   5.305   6.154  1.00 20.00     0.013 C 
HETATM    4  C7  UNL     1     -34.735   5.290   4.632  1.00 20.00    -0.026 C 
HETATM    5  C9  UNL     1     -35.898   5.684   3.680  1.00 20.00     0.019 C 
ENDROOT
BRANCH   4   6
HETATM    6  C2  UNL     1     -33.461   6.068   4.293  1.00 20.00    -0.014 C 
HETATM    7  C1  UNL     1     -33.328   6.820   3.193  1.00 20.00     0.046 C 
BRANCH   7   8
HETATM    8  C3  UNL     1     -32.061   7.552   2.921  1.00 20.00     0.145 C 
HETATM    9  C8  UNL     1     -31.967   8.286   1.610  1.00 20.00     0.096 C 
HETATM   10  O10 UNL     1     -31.122   7.551   3.715  1.00 20.00    -0.294 OA
ENDBRANCH   7   8
ENDBRANCH   4   6
TORSDOF 2
ENDMDL
MODEL 2
REMARK VINA RESULT:      -4.6     11.187     12.362
REMARK  2 active torsions:
REMARK  status: ('A' for Active; 'I' for Inactive)
REMARK    1  A    between atoms: C1_1  and  C3_3 
REMARK    2  A    between atoms: C2_2  and  C7_7 
ROOT
HETATM    1  C4  UNL     1     -33.462  17.822  -0.375  1.00 20.00     0.002 C 
HETATM    2  C5  UNL     1     -34.820  17.114  -0.234  1.00 20.00     0.013 C 
HETATM    3  C6  UNL     1     -33.873  18.218  -1.804  1.00 20.00     0.013 C 
HETATM    4  C7  UNL     1     -34.910  17.051  -1.791  1.00 20.00    -0.026 C 
HETATM    5  C9  UNL     1     -36.303  17.395  -2.388  1.00 20.00     0.019 C 
ENDROOT
BRANCH   4   6
HETATM    6  C2  UNL     1     -34.367  15.747  -2.381  1.00 20.00    -0.014 C 
HETATM    7  C1  UNL     1     -35.071  14.964  -3.209  1.00 20.00     0.046 C 
BRANCH   7   8
HETATM    8  C3  UNL     1     -34.484  13.707  -3.749  1.00 20.00     0.145 C 
HETATM    9  C8  UNL     1     -32.988  13.564  -3.667  1.00 20.00     0.096 C 
HETATM   10  O10 UNL     1     -35.178  12.826  -4.254  1.00 20.00    -0.294 OA
ENDBRANCH   7   8
ENDBRANCH   4   6
TORSDOF 2
ENDMDL
MODEL 3
REMARK VINA RESULT:      -4.5     11.397     12.445
REMARK  2 active torsions:
REMARK  status: ('A' for Active; 'I' for Inactive)
REMARK    1  A    between atoms: C1_1  and  C3_3 
REMARK    2  A    between atoms: C2_2  and  C7_7 
ROOT
HETATM    1  C4  UNL     1     -35.138  13.357  -4.161  1.00 20.00     0.002 C 
HETATM    2  C5  UNL     1     -33.665  13.748  -3.960  1.00 20.00     0.013 C 
HETATM    3  C6  UNL     1     -35.394  14.780  -4.685  1.00 20.00     0.013 C 
HETATM    4  C7  UNL     1     -34.101  15.247  -3.944  1.00 20.00    -0.026 C 
HETATM    5  C9  UNL     1     -33.188  16.212  -4.751  1.00 20.00     0.019 C 
ENDROOT
BRANCH   4   6
HETATM    6  C2  UNL     1     -34.367  15.790  -2.538  1.00 20.00    -0.014 C 
HETATM    7  C1  UNL     1     -33.726  16.846  -2.023  1.00 20.00     0.046 C 
BRANCH   7   8
HETATM    8  C3  UNL     1     -34.031  17.325  -0.647  1.00 20.00     0.145 C 
HETATM    9  C8  UNL     1     -33.152  18.416  -0.095  1.00 20.00     0.096 C 
HETATM   10  O10 UNL     1     -34.945  16.848   0.023  1.00 20.00    -0.294 OA
ENDBRANCH   7   8
ENDBRANCH   4   6
TORSDOF 2
ENDMDL
MODEL 4
REMARK VINA RESULT:      -4.2     11.473     12.552
REMARK  2 active torsions:
REMARK  status: ('A' for Active; 'I' for Inactive)
REMARK    1  A    between atoms: C1_1  and  C3_3 
REMARK    2  A    between atoms: C2_2  and  C7_7 
ROOT
HETATM    1  C4  UNL     1     -35.907  14.614  -5.427  1.00 20.00     0.002 C 
HETATM    2  C5  UNL     1     -35.585  13.672  -4.255  1.00 20.00     0.013 C 
HETATM    3  C6  UNL     1     -34.429  15.039  -5.429  1.00 20.00     0.013 C 
HETATM    4  C7  UNL     1     -34.320  14.536  -3.954  1.00 20.00    -0.026 C 
HETATM    5  C9  UNL     1     -33.032  13.733  -3.622  1.00 20.00     0.019 C 
ENDROOT
BRANCH   4   6
HETATM    6  C2  UNL     1     -34.564  15.635  -2.917  1.00 20.00    -0.014 C 
HETATM    7  C1  UNL     1     -33.580  16.351  -2.357  1.00 20.00     0.046 C 
BRANCH   7   8
HETATM    8  C3  UNL     1     -33.885  17.407  -1.352  1.00 20.00     0.145 C 
HETATM    9  C8  UNL     1     -34.793  17.022  -0.215  1.00 20.00     0.096 C 
HETATM   10  O10 UNL     1     -33.434  18.547  -1.445  1.00 20.00    -0.294 OA
ENDBRANCH   7   8
ENDBRANCH   4   6
TORSDOF 2
ENDMDL
MODEL 5
REMARK VINA RESULT:      -4.1     11.544     12.563
REMARK  2 active torsions:
REMARK  status: ('A' for Active; 'I' for Inactive)
REMARK    1  A    between atoms: C1_1  and  C3_3 
REMARK    2  A    between atoms: C2_2  and  C7_7 
ROOT
HETATM    1  C4  UNL     1     -32.869  15.138  -3.788  1.00 20.00     0.002 C 
HETATM    2  C5  UNL     1     -33.649  16.444  -4.008  1.00 20.00     0.013 C 
HETATM    3  C6  UNL     1     -34.139  14.543  -3.156  1.00 20.00     0.013 C 
HETATM    4  C7  UNL     1     -34.646  15.996  -2.893  1.00 20.00    -0.026 C 
HETATM    5  C9  UNL     1     -36.147  16.242  -3.208  1.00 20.00     0.019 C 
ENDROOT
BRANCH   4   6
HETATM    6  C2  UNL     1     -34.283  16.525  -1.503  1.00 20.00    -0.014 C 
HETATM    7  C1  UNL     1     -35.161  17.135  -0.695  1.00 20.00     0.046 C 
BRANCH   7   8
HETATM    8  C3  UNL     1     -34.744  17.627   0.647  1.00 20.00     0.145 C 
HETATM    9  C8  UNL     1     -33.480  18.443   0.710  1.00 20.00     0.096 C 
HETATM   10  O10 UNL     1     -35.385  17.372   1.664  1.00 20.00    -0.294 OA
ENDBRANCH   7   8
ENDBRANCH   4   6
TORSDOF 2
ENDMDL
MODEL 6
REMARK VINA RESULT:      -4.0     11.694     12.579
REMARK  2 active torsions:
REMARK  status: ('A' for Active; 'I' for Inactive)
REMARK    1  A    between atoms: C1_1  and  C3_3 
REMARK    2  A    between atoms: C2_2  and  C7_7 
ROOT
HETATM    1  C4  UNL     1     -36.412  18.311   0.694  1.00 20.00     0.002 C 
HETATM    2  C5  UNL     1     -35.603  18.940  -0.452  1.00 20.00     0.013 C 
HETATM    3  C6  UNL     1     -35.153  17.514   1.078  1.00 20.00     0.013 C 
HETATM    4  C7  UNL     1     -34.614  17.735  -0.370  1.00 20.00    -0.026 C 
HETATM    5  C9  UNL     1     -33.108  18.106  -0.467  1.00 20.00     0.019 C 
ENDROOT
BRANCH   4   6
HETATM    6  C2  UNL     1     -34.961  16.595  -1.330  1.00 20.00    -0.014 C 
HETATM    7  C1  UNL     1     -34.101  16.105  -2.233  1.00 20.00     0.046 C 
BRANCH   7   8
HETATM    8  C3  UNL     1     -34.502  14.994  -3.139  1.00 20.00     0.145 C 
HETATM    9  C8  UNL     1     -33.391  14.207  -3.784  1.00 20.00     0.096 C 
HETATM   10  O10 UNL     1     -35.680  14.731  -3.370  1.00 20.00    -0.294 OA
ENDBRANCH   7   8
ENDBRANCH   4   6
TORSDOF 2
ENDMDL
MODEL 7
REMARK VINA RESULT:      -4.0     11.332     12.907
REMARK  2 active torsions:
REMARK  status: ('A' for Active; 'I' for Inactive)
REMARK    1  A    between atoms: C1_1  and  C3_3 
REMARK    2  A    between atoms: C2_2  and  C7_7 
ROOT
HETATM    1  C4  UNL     1     -34.649  18.935  -3.345  1.00 20.00     0.002 C 
HETATM    2  C5  UNL     1     -33.621  18.506  -2.285  1.00 20.00     0.013 C 
HETATM    3  C6  UNL     1     -35.644  17.950  -2.708  1.00 20.00     0.013 C 
HETATM    4  C7  UNL     1     -34.434  17.189  -2.080  1.00 20.00    -0.026 C 
HETATM    5  C9  UNL     1     -34.622  16.751  -0.601  1.00 20.00     0.019 C 
ENDROOT
BRANCH   4   6
HETATM    6  C2  UNL     1     -33.935  16.024  -2.938  1.00 20.00    -0.014 C 
HETATM    7  C1  UNL     1     -34.569  14.848  -3.023  1.00 20.00     0.046 C 
BRANCH   7   8
HETATM    8  C3  UNL     1     -34.030  13.754  -3.877  1.00 20.00     0.145 C 
HETATM    9  C8  UNL     1     -34.833  13.382  -5.095  1.00 20.00     0.096 C 
HETATM   10  O10 UNL     1     -32.987  13.164  -3.602  1.00 20.00    -0.294 OA
ENDBRANCH   7   8
ENDBRANCH   4   6
TORSDOF 2
ENDMDL
MODEL 8
REMARK VINA RESULT:      -4.0      1.790      5.120
REMARK  2 active torsions:
REMARK  status: ('A' for Active; 'I' for Inactive)
REMARK    1  A    between atoms: C1_1  and  C3_3 
REMARK    2  A    between atoms: C2_2  and  C7_7 
ROOT
HETATM    1  C4  UNL     1     -32.572   9.142   0.738  1.00 20.00     0.002 C 
HETATM    2  C5  UNL     1     -31.646   7.959   1.068  1.00 20.00     0.013 C 
HETATM    3  C6  UNL     1     -32.554   9.510   2.231  1.00 20.00     0.013 C 
HETATM    4  C7  UNL     1     -32.127   8.042   2.551  1.00 20.00    -0.026 C 
HETATM    5  C9  UNL     1     -31.009   7.895   3.620  1.00 20.00     0.019 C 
ENDROOT
BRANCH   4   6
HETATM    6  C2  UNL     1     -33.307   7.118   2.861  1.00 20.00    -0.014 C 
HETATM    7  C1  UNL     1     -33.416   6.419   3.998  1.00 20.00     0.046 C 
BRANCH   7   8
HETATM    8  C3  UNL     1     -34.591   5.537   4.239  1.00 20.00     0.145 C 
HETATM    9  C8  UNL     1     -34.606   4.761   5.530  1.00 20.00     0.096 C 
HETATM   10  O10 UNL     1     -35.504   5.427   3.424  1.00 20.00    -0.294 OA
ENDBRANCH   7   8
ENDBRANCH   4   6
TORSDOF 2
ENDMDL
MODEL 9
REMARK VINA RESULT:      -3.9     11.625     13.150
REMARK  2 active torsions:
REMARK  status: ('A' for Active; 'I' for Inactive)
REMARK    1  A    between atoms: C1_1  and  C3_3 
REMARK    2  A    between atoms: C2_2  and  C7_7 
ROOT
HETATM    1  C4  UNL     1     -35.661  15.661  -6.788  1.00 20.00     0.002 C 
HETATM    2  C5  UNL     1     -36.449  15.022  -5.632  1.00 20.00     0.013 C 
HETATM    3  C6  UNL     1     -34.407  14.937  -6.269  1.00 20.00     0.013 C 
HETATM    4  C7  UNL     1     -35.100  14.811  -4.875  1.00 20.00    -0.026 C 
HETATM    5  C9  UNL     1     -34.940  13.431  -4.178  1.00 20.00     0.019 C 
ENDROOT
BRANCH   4   6
HETATM    6  C2  UNL     1     -34.753  15.953  -3.918  1.00 20.00    -0.014 C 
HETATM    7  C1  UNL     1     -34.528  15.775  -2.610  1.00 20.00     0.046 C 
BRANCH   7   8
HETATM    8  C3  UNL     1     -34.195  16.930  -1.731  1.00 20.00     0.145 C 
HETATM    9  C8  UNL     1     -34.712  16.881  -0.318  1.00 20.00     0.096 C 
HETATM   10  O10 UNL     1     -33.542  17.891  -2.134  1.00 20.00    -0.294 OA
ENDBRANCH   7   8
ENDBRANCH   4   6
TORSDOF 2
ENDMDL
