MODEL 1
REMARK VINA RESULT:      -4.9      0.000      0.000
REMARK  0 active torsions:
REMARK  status: ('A' for Active; 'I' for Inactive)
ROOT
HETATM    1  C1  UNL     1     -34.362  13.493  -4.166  1.00 20.00     0.095 C 
HETATM    2  C2  UNL     1     -33.842  17.467  -2.309  1.00 20.00     0.007 C 
HETATM    3  C3  UNL     1     -34.484  16.311  -1.535  1.00 20.00     0.008 C 
HETATM    4  C4  UNL     1     -33.280  16.379  -4.615  1.00 20.00     0.276 C 
HETATM    5  C5  UNL     1     -33.724  14.495  -3.298  1.00 20.00     0.330 C 
HETATM    6  C6  UNL     1     -34.340  16.836  -3.629  1.00 20.00     0.021 C 
HETATM    7  C7  UNL     1     -34.732  15.563  -2.864  1.00 20.00     0.038 C 
HETATM    8  N8  UNL     1     -34.866  12.702  -4.851  1.00 20.00    -0.195 NA
HETATM    9  N9  UNL     1     -32.650  15.186  -4.032  1.00 20.00     0.102 N 
HETATM   10  H19 UNL     1     -32.233  14.598  -4.750  1.00 20.00     0.317 HD
ENDROOT
TORSDOF 0
ENDMDL
MODEL 2
REMARK VINA RESULT:      -4.3      2.127      2.743
REMARK  0 active torsions:
REMARK  status: ('A' for Active; 'I' for Inactive)
ROOT
HETATM    1  C1  UNL     1     -37.125  14.483  -4.062  1.00 20.00     0.095 C 
HETATM    2  C2  UNL     1     -32.783  15.170  -3.631  1.00 20.00     0.007 C 
HETATM    3  C3  UNL     1     -33.345  13.756  -3.806  1.00 20.00     0.008 C 
HETATM    4  C4  UNL     1     -34.925  16.659  -3.708  1.00 20.00     0.276 C 
HETATM    5  C5  UNL     1     -35.736  14.621  -4.527  1.00 20.00     0.330 C 
HETATM    6  C6  UNL     1     -34.117  15.600  -2.980  1.00 20.00     0.021 C 
HETATM    7  C7  UNL     1     -34.748  14.268  -3.411  1.00 20.00     0.038 C 
HETATM    8  N8  UNL     1     -38.221  14.373  -3.696  1.00 20.00    -0.195 NA
HETATM    9  N9  UNL     1     -35.470  16.018  -4.912  1.00 20.00     0.102 N 
HETATM   10  H19 UNL     1     -36.309  16.494  -5.239  1.00 20.00     0.317 HD
ENDROOT
TORSDOF 0
ENDMDL
MODEL 3
REMARK VINA RESULT:      -4.2      1.727      3.443
REMARK  0 active torsions:
REMARK  status: ('A' for Active; 'I' for Inactive)
ROOT
HETATM    1  C1  UNL     1     -34.621  16.408  -1.666  1.00 20.00     0.095 C 
HETATM    2  C2  UNL     1     -34.484  13.651  -5.115  1.00 20.00     0.007 C 
HETATM    3  C3  UNL     1     -35.818  14.066  -4.488  1.00 20.00     0.008 C 
HETATM    4  C4  UNL     1     -32.738  14.956  -3.678  1.00 20.00     0.276 C 
HETATM    5  C5  UNL     1     -34.734  16.023  -3.082  1.00 20.00     0.330 C 
HETATM    6  C6  UNL     1     -33.795  13.869  -3.749  1.00 20.00     0.021 C 
HETATM    7  C7  UNL     1     -35.073  14.536  -3.219  1.00 20.00     0.038 C 
HETATM    8  N8  UNL     1     -34.532  16.711  -0.549  1.00 20.00    -0.195 NA
HETATM    9  N9  UNL     1     -33.449  16.239  -3.767  1.00 20.00     0.102 N 
HETATM   10  H19 UNL     1     -32.909  16.993  -3.346  1.00 20.00     0.317 HD
ENDROOT
TORSDOF 0
ENDMDL
MODEL 4
REMARK VINA RESULT:      -4.1      1.470      2.183
REMARK  0 active torsions:
REMARK  status: ('A' for Active; 'I' for Inactive)
ROOT
HETATM    1  C1  UNL     1     -35.060  13.896  -4.215  1.00 20.00     0.095 C 
HETATM    2  C2  UNL     1     -33.823  17.979  -3.069  1.00 20.00     0.007 C 
HETATM    3  C3  UNL     1     -33.697  17.492  -4.516  1.00 20.00     0.008 C 
HETATM    4  C4  UNL     1     -34.856  15.914  -1.851  1.00 20.00     0.276 C 
HETATM    5  C5  UNL     1     -35.197  15.356  -4.099  1.00 20.00     0.330 C 
HETATM    6  C6  UNL     1     -33.672  16.519  -2.584  1.00 20.00     0.021 C 
HETATM    7  C7  UNL     1     -33.823  16.030  -4.033  1.00 20.00     0.038 C 
HETATM    8  N8  UNL     1     -34.953  12.744  -4.307  1.00 20.00    -0.195 NA
HETATM    9  N9  UNL     1     -35.907  15.699  -2.855  1.00 20.00     0.102 N 
HETATM   10  H19 UNL     1     -36.553  14.967  -2.565  1.00 20.00     0.317 HD
ENDROOT
TORSDOF 0
ENDMDL
MODEL 5
REMARK VINA RESULT:      -4.1      1.857      3.476
REMARK  0 active torsions:
REMARK  status: ('A' for Active; 'I' for Inactive)
ROOT
HETATM    1  C1  UNL     1     -34.050  16.067  -2.569  1.00 20.00     0.095 C 
HETATM    2  C2  UNL     1     -34.321  14.931  -6.829  1.00 20.00     0.007 C 
HETATM    3  C3  UNL     1     -34.266  16.402  -6.406  1.00 20.00     0.008 C 
HETATM    4  C4  UNL     1     -34.184  13.666  -4.549  1.00 20.00     0.276 C 
HETATM    5  C5  UNL     1     -33.542  15.831  -3.929  1.00 20.00     0.330 C 
HETATM    6  C6  UNL     1     -34.970  14.583  -5.470  1.00 20.00     0.021 C 
HETATM    7  C7  UNL     1     -34.656  16.000  -4.966  1.00 20.00     0.038 C 
HETATM    8  N8  UNL     1     -34.451  16.254  -1.496  1.00 20.00    -0.195 NA
HETATM    9  N9  UNL     1     -33.046  14.449  -4.049  1.00 20.00     0.102 N 
HETATM   10  H19 UNL     1     -32.705  14.083  -3.162  1.00 20.00     0.317 HD
ENDROOT
TORSDOF 0
ENDMDL
MODEL 6
REMARK VINA RESULT:      -4.0      1.770      2.834
REMARK  0 active torsions:
REMARK  status: ('A' for Active; 'I' for Inactive)
ROOT
HETATM    1  C1  UNL     1     -35.025  13.774  -4.785  1.00 20.00     0.095 C 
HETATM    2  C2  UNL     1     -33.819  17.858  -5.961  1.00 20.00     0.007 C 
HETATM    3  C3  UNL     1     -34.494  16.914  -6.962  1.00 20.00     0.008 C 
HETATM    4  C4  UNL     1     -33.726  16.422  -3.782  1.00 20.00     0.276 C 
HETATM    5  C5  UNL     1     -35.232  15.198  -5.093  1.00 20.00     0.330 C 
HETATM    6  C6  UNL     1     -33.256  16.629  -5.211  1.00 20.00     0.021 C 
HETATM    7  C7  UNL     1     -34.155  15.712  -6.052  1.00 20.00     0.038 C 
HETATM    8  N8  UNL     1     -34.862  12.651  -4.543  1.00 20.00    -0.195 NA
HETATM    9  N9  UNL     1     -35.131  15.999  -3.861  1.00 20.00     0.102 N 
HETATM   10  H19 UNL     1     -35.407  15.473  -3.034  1.00 20.00     0.317 HD
ENDROOT
TORSDOF 0
ENDMDL
MODEL 7
REMARK VINA RESULT:      -4.0      1.566      3.496
REMARK  0 active torsions:
REMARK  status: ('A' for Active; 'I' for Inactive)
ROOT
HETATM    1  C1  UNL     1     -33.975  17.407  -3.134  1.00 20.00     0.095 C 
HETATM    2  C2  UNL     1     -34.625  13.270  -4.540  1.00 20.00     0.007 C 
HETATM    3  C3  UNL     1     -35.792  14.254  -4.416  1.00 20.00     0.008 C 
HETATM    4  C4  UNL     1     -32.575  14.703  -3.792  1.00 20.00     0.276 C 
HETATM    5  C5  UNL     1     -34.205  16.349  -4.130  1.00 20.00     0.330 C 
HETATM    6  C6  UNL     1     -33.885  14.034  -3.418  1.00 20.00     0.021 C 
HETATM    7  C7  UNL     1     -34.931  15.155  -3.502  1.00 20.00     0.038 C 
HETATM    8  N8  UNL     1     -33.794  18.241  -2.348  1.00 20.00    -0.195 NA
HETATM    9  N9  UNL     1     -32.918  15.851  -4.643  1.00 20.00     0.102 N 
HETATM   10  H19 UNL     1     -32.190  16.563  -4.617  1.00 20.00     0.317 HD
ENDROOT
TORSDOF 0
ENDMDL
MODEL 8
REMARK VINA RESULT:      -3.9     11.959     12.989
REMARK  0 active torsions:
REMARK  status: ('A' for Active; 'I' for Inactive)
ROOT
HETATM    1  C1  UNL     1     -32.975   6.646   3.293  1.00 20.00     0.095 C 
HETATM    2  C2  UNL     1     -35.292   4.859   6.603  1.00 20.00     0.007 C 
HETATM    3  C3  UNL     1     -34.477   6.139   6.810  1.00 20.00     0.008 C 
HETATM    4  C4  UNL     1     -34.881   4.312   4.083  1.00 20.00     0.276 C 
HETATM    5  C5  UNL     1     -34.111   6.519   4.221  1.00 20.00     0.330 C 
HETATM    6  C6  UNL     1     -34.311   4.438   5.485  1.00 20.00     0.021 C 
HETATM    7  C7  UNL     1     -33.679   5.837   5.522  1.00 20.00     0.038 C 
HETATM    8  N8  UNL     1     -32.080   6.747   2.562  1.00 20.00    -0.195 NA
HETATM    9  N9  UNL     1     -35.161   5.678   3.620  1.00 20.00     0.102 N 
HETATM   10  H19 UNL     1     -35.163   5.732   2.603  1.00 20.00     0.317 HD
ENDROOT
TORSDOF 0
ENDMDL
MODEL 9
REMARK VINA RESULT:      -3.9      2.133      2.779
REMARK  0 active torsions:
REMARK  status: ('A' for Active; 'I' for Inactive)
ROOT
HETATM    1  C1  UNL     1     -36.062  14.903  -6.341  1.00 20.00     0.095 C 
HETATM    2  C2  UNL     1     -32.540  14.754  -3.679  1.00 20.00     0.007 C 
HETATM    3  C3  UNL     1     -33.536  13.592  -3.737  1.00 20.00     0.008 C 
HETATM    4  C4  UNL     1     -33.519  16.444  -5.412  1.00 20.00     0.276 C 
HETATM    5  C5  UNL     1     -34.711  14.495  -5.925  1.00 20.00     0.330 C 
HETATM    6  C6  UNL     1     -33.674  15.723  -4.085  1.00 20.00     0.021 C 
HETATM    7  C7  UNL     1     -34.578  14.521  -4.400  1.00 20.00     0.038 C 
HETATM    8  N8  UNL     1     -37.128  15.224  -6.670  1.00 20.00    -0.195 NA
HETATM    9  N9  UNL     1     -33.713  15.436  -6.463  1.00 20.00     0.102 N 
HETATM   10  H19 UNL     1     -34.015  15.863  -7.336  1.00 20.00     0.317 HD
ENDROOT
TORSDOF 0
ENDMDL
