MODEL 1
REMARK VINA RESULT:      -5.0      0.000      0.000
REMARK  0 active torsions:
REMARK  status: ('A' for Active; 'I' for Inactive)
ROOT
HETATM    1  C1  UNL     1     -34.639  13.975  -4.337  1.00 20.00     0.100 C 
HETATM    2  C2  UNL     1     -33.896  15.903  -5.647  1.00 20.00     0.042 A 
HETATM    3  C3  UNL     1     -33.554  17.254  -5.695  1.00 20.00     0.118 A 
HETATM    4  C4  UNL     1     -34.267  15.350  -4.423  1.00 20.00     0.054 A 
HETATM    5  C5  UNL     1     -34.265  16.174  -3.315  1.00 20.00    -0.013 A 
HETATM    6  C6  UNL     1     -33.911  17.510  -3.467  1.00 20.00     0.042 A 
HETATM    7  C7  UNL     1     -34.645  15.867  -1.905  1.00 20.00     0.042 C 
HETATM    8  C8  UNL     1     -34.027  18.241  -2.160  1.00 20.00     0.060 C 
HETATM    9  C9  UNL     1     -34.029  17.069  -1.169  1.00 20.00     0.011 C 
HETATM   10  N10 UNL     1     -34.941  12.856  -4.267  1.00 20.00    -0.191 NA
HETATM   11  N11 UNL     1     -33.555  18.087  -4.626  1.00 20.00    -0.265 NA
ENDROOT
TORSDOF 0
ENDMDL
MODEL 2
REMARK VINA RESULT:      -4.8      2.092      2.620
REMARK  0 active torsions:
REMARK  status: ('A' for Active; 'I' for Inactive)
ROOT
HETATM    1  C1  UNL     1     -37.384  14.451  -3.869  1.00 20.00     0.100 C 
HETATM    2  C2  UNL     1     -35.162  13.572  -4.390  1.00 20.00     0.042 A 
HETATM    3  C3  UNL     1     -33.777  13.678  -4.268  1.00 20.00     0.118 A 
HETATM    4  C4  UNL     1     -35.963  14.517  -3.754  1.00 20.00     0.054 A 
HETATM    5  C5  UNL     1     -35.338  15.507  -3.022  1.00 20.00    -0.013 A 
HETATM    6  C6  UNL     1     -33.949  15.529  -2.963  1.00 20.00     0.042 A 
HETATM    7  C7  UNL     1     -35.933  16.653  -2.275  1.00 20.00     0.042 C 
HETATM    8  C8  UNL     1     -33.470  16.710  -2.168  1.00 20.00     0.060 C 
HETATM    9  C9  UNL     1     -34.745  17.079  -1.397  1.00 20.00     0.011 C 
HETATM   10  N10 UNL     1     -38.540  14.397  -3.962  1.00 20.00    -0.191 NA
HETATM   11  N11 UNL     1     -33.137  14.646  -3.567  1.00 20.00    -0.265 NA
ENDROOT
TORSDOF 0
ENDMDL
MODEL 3
REMARK VINA RESULT:      -4.8      0.975      2.915
REMARK  0 active torsions:
REMARK  status: ('A' for Active; 'I' for Inactive)
ROOT
HETATM    1  C1  UNL     1     -34.619  13.761  -4.316  1.00 20.00     0.100 C 
HETATM    2  C2  UNL     1     -34.214  15.502  -2.647  1.00 20.00     0.042 A 
HETATM    3  C3  UNL     1     -33.909  16.832  -2.359  1.00 20.00     0.118 A 
HETATM    4  C4  UNL     1     -34.324  15.116  -3.981  1.00 20.00     0.054 A 
HETATM    5  C5  UNL     1     -34.135  16.081  -4.951  1.00 20.00    -0.013 A 
HETATM    6  C6  UNL     1     -33.831  17.380  -4.562  1.00 20.00     0.042 A 
HETATM    7  C7  UNL     1     -34.158  15.948  -6.437  1.00 20.00     0.042 C 
HETATM    8  C8  UNL     1     -33.611  18.256  -5.762  1.00 20.00     0.060 C 
HETATM    9  C9  UNL     1     -34.285  17.421  -6.860  1.00 20.00     0.011 C 
HETATM   10  N10 UNL     1     -34.860  12.658  -4.589  1.00 20.00    -0.191 NA
HETATM   11  N11 UNL     1     -33.707  17.795  -3.290  1.00 20.00    -0.265 NA
ENDROOT
TORSDOF 0
ENDMDL
MODEL 4
REMARK VINA RESULT:      -4.5      1.721      3.633
REMARK  0 active torsions:
REMARK  status: ('A' for Active; 'I' for Inactive)
ROOT
HETATM    1  C1  UNL     1     -34.488  16.040  -1.973  1.00 20.00     0.100 C 
HETATM    2  C2  UNL     1     -34.517  14.078  -3.433  1.00 20.00     0.042 A 
HETATM    3  C3  UNL     1     -34.499  13.549  -4.724  1.00 20.00     0.118 A 
HETATM    4  C4  UNL     1     -34.457  15.460  -3.277  1.00 20.00     0.054 A 
HETATM    5  C5  UNL     1     -34.371  16.236  -4.416  1.00 20.00    -0.013 A 
HETATM    6  C6  UNL     1     -34.364  15.614  -5.659  1.00 20.00     0.042 A 
HETATM    7  C7  UNL     1     -34.328  17.722  -4.550  1.00 20.00     0.042 C 
HETATM    8  C8  UNL     1     -34.322  16.632  -6.763  1.00 20.00     0.060 C 
HETATM    9  C9  UNL     1     -33.833  17.871  -5.998  1.00 20.00     0.011 C 
HETATM   10  N10 UNL     1     -34.513  16.512  -0.912  1.00 20.00    -0.191 NA
HETATM   11  N11 UNL     1     -34.429  14.287  -5.857  1.00 20.00    -0.265 NA
ENDROOT
TORSDOF 0
ENDMDL
MODEL 5
REMARK VINA RESULT:      -4.5      2.007      3.948
REMARK  0 active torsions:
REMARK  status: ('A' for Active; 'I' for Inactive)
ROOT
HETATM    1  C1  UNL     1     -33.683  17.935  -5.387  1.00 20.00     0.100 C 
HETATM    2  C2  UNL     1     -34.638  16.661  -7.243  1.00 20.00     0.042 A 
HETATM    3  C3  UNL     1     -35.081  15.440  -7.751  1.00 20.00     0.118 A 
HETATM    4  C4  UNL     1     -34.158  16.707  -5.937  1.00 20.00     0.054 A 
HETATM    5  C5  UNL     1     -34.156  15.535  -5.207  1.00 20.00    -0.013 A 
HETATM    6  C6  UNL     1     -34.615  14.366  -5.804  1.00 20.00     0.042 A 
HETATM    7  C7  UNL     1     -33.675  15.284  -3.817  1.00 20.00     0.042 C 
HETATM    8  C8  UNL     1     -34.478  13.201  -4.866  1.00 20.00     0.060 C 
HETATM    9  C9  UNL     1     -34.333  13.926  -3.521  1.00 20.00     0.011 C 
HETATM   10  N10 UNL     1     -33.296  18.935  -4.939  1.00 20.00    -0.191 NA
HETATM   11  N11 UNL     1     -35.078  14.273  -7.062  1.00 20.00    -0.265 NA
ENDROOT
TORSDOF 0
ENDMDL
MODEL 6
REMARK VINA RESULT:      -4.5      2.225      2.635
REMARK  0 active torsions:
REMARK  status: ('A' for Active; 'I' for Inactive)
ROOT
HETATM    1  C1  UNL     1     -35.341  13.612  -4.254  1.00 20.00     0.100 C 
HETATM    2  C2  UNL     1     -37.373  14.964  -4.088  1.00 20.00     0.042 A 
HETATM    3  C3  UNL     1     -38.014  16.102  -3.599  1.00 20.00     0.118 A 
HETATM    4  C4  UNL     1     -36.027  14.772  -3.784  1.00 20.00     0.054 A 
HETATM    5  C5  UNL     1     -35.394  15.732  -3.020  1.00 20.00    -0.013 A 
HETATM    6  C6  UNL     1     -36.122  16.831  -2.576  1.00 20.00     0.042 A 
HETATM    7  C7  UNL     1     -33.989  15.771  -2.519  1.00 20.00     0.042 C 
HETATM    8  C8  UNL     1     -35.268  17.721  -1.719  1.00 20.00     0.060 C 
HETATM    9  C9  UNL     1     -33.863  17.249  -2.116  1.00 20.00     0.011 C 
HETATM   10  N10 UNL     1     -34.783  12.669  -4.636  1.00 20.00    -0.191 NA
HETATM   11  N11 UNL     1     -37.420  17.052  -2.837  1.00 20.00    -0.265 NA
ENDROOT
TORSDOF 0
ENDMDL
MODEL 7
REMARK VINA RESULT:      -4.5      2.123      2.809
REMARK  0 active torsions:
REMARK  status: ('A' for Active; 'I' for Inactive)
ROOT
HETATM    1  C1  UNL     1     -37.042  14.575  -3.863  1.00 20.00     0.100 C 
HETATM    2  C2  UNL     1     -34.696  13.906  -3.679  1.00 20.00     0.042 A 
HETATM    3  C3  UNL     1     -33.347  14.243  -3.780  1.00 20.00     0.118 A 
HETATM    4  C4  UNL     1     -35.651  14.886  -3.941  1.00 20.00     0.054 A 
HETATM    5  C5  UNL     1     -35.205  16.149  -4.278  1.00 20.00    -0.013 A 
HETATM    6  C6  UNL     1     -33.837  16.385  -4.355  1.00 20.00     0.042 A 
HETATM    7  C7  UNL     1     -35.989  17.366  -4.638  1.00 20.00     0.042 C 
HETATM    8  C8  UNL     1     -33.566  17.797  -4.788  1.00 20.00     0.060 C 
HETATM    9  C9  UNL     1     -34.918  18.459  -4.488  1.00 20.00     0.011 C 
HETATM   10  N10 UNL     1     -38.173  14.323  -3.799  1.00 20.00    -0.191 NA
HETATM   11  N11 UNL     1     -32.883  15.470  -4.120  1.00 20.00    -0.265 NA
ENDROOT
TORSDOF 0
ENDMDL
MODEL 8
REMARK VINA RESULT:      -4.4      2.092      3.074
REMARK  0 active torsions:
REMARK  status: ('A' for Active; 'I' for Inactive)
ROOT
HETATM    1  C1  UNL     1     -37.595  14.946  -3.698  1.00 20.00     0.100 C 
HETATM    2  C2  UNL     1     -36.401  17.058  -3.386  1.00 20.00     0.042 A 
HETATM    3  C3  UNL     1     -35.191  17.735  -3.241  1.00 20.00     0.118 A 
HETATM    4  C4  UNL     1     -36.377  15.676  -3.562  1.00 20.00     0.054 A 
HETATM    5  C5  UNL     1     -35.146  15.051  -3.594  1.00 20.00    -0.013 A 
HETATM    6  C6  UNL     1     -33.995  15.814  -3.437  1.00 20.00     0.042 A 
HETATM    7  C7  UNL     1     -34.823  13.600  -3.732  1.00 20.00     0.042 C 
HETATM    8  C8  UNL     1     -32.773  14.941  -3.446  1.00 20.00     0.060 C 
HETATM    9  C9  UNL     1     -33.331  13.666  -4.095  1.00 20.00     0.011 C 
HETATM   10  N10 UNL     1     -38.587  14.351  -3.810  1.00 20.00    -0.191 NA
HETATM   11  N11 UNL     1     -33.972  17.145  -3.256  1.00 20.00    -0.265 NA
ENDROOT
TORSDOF 0
ENDMDL
MODEL 9
REMARK VINA RESULT:      -4.4      1.476      4.530
REMARK  0 active torsions:
REMARK  status: ('A' for Active; 'I' for Inactive)
ROOT
HETATM    1  C1  UNL     1     -33.957  16.913  -3.483  1.00 20.00     0.100 C 
HETATM    2  C2  UNL     1     -34.231  14.489  -3.302  1.00 20.00     0.042 A 
HETATM    3  C3  UNL     1     -34.553  13.275  -3.908  1.00 20.00     0.118 A 
HETATM    4  C4  UNL     1     -34.266  15.650  -4.071  1.00 20.00     0.054 A 
HETATM    5  C5  UNL     1     -34.610  15.532  -5.403  1.00 20.00    -0.013 A 
HETATM    6  C6  UNL     1     -34.918  14.276  -5.913  1.00 20.00     0.042 A 
HETATM    7  C7  UNL     1     -34.761  16.594  -6.441  1.00 20.00     0.042 C 
HETATM    8  C8  UNL     1     -35.318  14.373  -7.358  1.00 20.00     0.060 C 
HETATM    9  C9  UNL     1     -34.747  15.750  -7.726  1.00 20.00     0.011 C 
HETATM   10  N10 UNL     1     -33.706  17.941  -3.005  1.00 20.00    -0.191 NA
HETATM   11  N11 UNL     1     -34.906  13.133  -5.208  1.00 20.00    -0.265 NA
ENDROOT
TORSDOF 0
ENDMDL
