MODEL 1
REMARK VINA RESULT:      -4.2      0.000      0.000
REMARK  3 active torsions:
REMARK  status: ('A' for Active; 'I' for Inactive)
REMARK    1  A    between atoms: C2_2  and  C5_5 
REMARK    2  A    between atoms: C3_3  and  C6_6 
REMARK    3  A    between atoms: C3_3  and  O10_10 
ROOT
HETATM    1  C4  UNL     1     -34.247  15.093  -5.923  1.00 20.00     0.025 A 
HETATM    2  C5  UNL     1     -34.429  15.938  -4.694  1.00 20.00     0.028 A 
HETATM    3  C6  UNL     1     -35.523  14.996  -5.134  1.00 20.00     0.094 A 
ENDROOT
BRANCH   3   4
HETATM    4  C3  UNL     1     -35.817  13.764  -4.390  1.00 20.00     0.263 C 
HETATM    5  O9  UNL     1     -35.143  12.745  -4.460  1.00 20.00    -0.265 OA
BRANCH   4   6
HETATM    6  O10 UNL     1     -36.935  13.944  -3.633  1.00 20.00    -0.326 OA
HETATM    7  C8  UNL     1     -37.944  14.779  -4.212  1.00 20.00     0.213 C 
ENDBRANCH   4   6
ENDBRANCH   3   4
BRANCH   2   8
HETATM    8  C2  UNL     1     -33.626  15.647  -3.515  1.00 20.00    -0.088 C 
HETATM    9  C1  UNL     1     -32.504  14.916  -3.584  1.00 20.00     0.014 C 
HETATM   10  C7  UNL     1     -34.124  16.215  -2.219  1.00 20.00     0.043 C 
ENDBRANCH   2   8
TORSDOF 3
ENDMDL
MODEL 2
REMARK VINA RESULT:      -4.1     11.719     12.606
REMARK  3 active torsions:
REMARK  status: ('A' for Active; 'I' for Inactive)
REMARK    1  A    between atoms: C2_2  and  C5_5 
REMARK    2  A    between atoms: C3_3  and  C6_6 
REMARK    3  A    between atoms: C3_3  and  O10_10 
ROOT
HETATM    1  C4  UNL     1     -35.503   6.213   3.527  1.00 20.00     0.025 A 
HETATM    2  C5  UNL     1     -35.038   4.992   4.270  1.00 20.00     0.028 A 
HETATM    3  C6  UNL     1     -34.290   5.465   3.048  1.00 20.00     0.094 A 
ENDROOT
BRANCH   3   4
HETATM    4  C3  UNL     1     -32.968   6.095   3.157  1.00 20.00     0.263 C 
HETATM    5  O9  UNL     1     -31.927   5.477   3.340  1.00 20.00    -0.265 OA
BRANCH   4   6
HETATM    6  O10 UNL     1     -33.093   7.445   3.024  1.00 20.00    -0.326 OA
HETATM    7  C8  UNL     1     -32.099   8.080   2.213  1.00 20.00     0.213 C 
ENDBRANCH   4   6
ENDBRANCH   3   4
BRANCH   2   8
HETATM    8  C2  UNL     1     -34.469   5.152   5.600  1.00 20.00    -0.088 C 
HETATM    9  C1  UNL     1     -34.294   6.360   6.156  1.00 20.00     0.014 C 
HETATM   10  C7  UNL     1     -34.091   3.888   6.314  1.00 20.00     0.043 C 
ENDBRANCH   2   8
TORSDOF 3
ENDMDL
MODEL 3
REMARK VINA RESULT:      -4.0      1.565      2.743
REMARK  3 active torsions:
REMARK  status: ('A' for Active; 'I' for Inactive)
REMARK    1  A    between atoms: C2_2  and  C5_5 
REMARK    2  A    between atoms: C3_3  and  C6_6 
REMARK    3  A    between atoms: C3_3  and  O10_10 
ROOT
HETATM    1  C4  UNL     1     -33.763  14.284  -3.893  1.00 20.00     0.025 A 
HETATM    2  C5  UNL     1     -34.382  13.775  -5.165  1.00 20.00     0.028 A 
HETATM    3  C6  UNL     1     -35.174  13.764  -3.880  1.00 20.00     0.094 A 
ENDROOT
BRANCH   3   4
HETATM    4  C3  UNL     1     -36.284  14.700  -3.658  1.00 20.00     0.263 C 
HETATM    5  O9  UNL     1     -36.137  15.872  -3.337  1.00 20.00    -0.265 OA
BRANCH   4   6
HETATM    6  O10 UNL     1     -37.469  14.060  -3.862  1.00 20.00    -0.326 OA
HETATM    7  C8  UNL     1     -38.573  14.904  -4.206  1.00 20.00     0.213 C 
ENDBRANCH   4   6
ENDBRANCH   3   4
BRANCH   2   8
HETATM    8  C2  UNL     1     -34.694  14.725  -6.223  1.00 20.00    -0.088 C 
HETATM    9  C1  UNL     1     -35.582  14.444  -7.189  1.00 20.00     0.014 C 
HETATM   10  C7  UNL     1     -33.967  16.036  -6.171  1.00 20.00     0.043 C 
ENDBRANCH   2   8
TORSDOF 3
ENDMDL
MODEL 4
REMARK VINA RESULT:      -4.0      1.071      2.238
REMARK  3 active torsions:
REMARK  status: ('A' for Active; 'I' for Inactive)
REMARK    1  A    between atoms: C2_2  and  C5_5 
REMARK    2  A    between atoms: C3_3  and  C6_6 
REMARK    3  A    between atoms: C3_3  and  O10_10 
ROOT
HETATM    1  C4  UNL     1     -33.673  16.020  -3.128  1.00 20.00     0.025 A 
HETATM    2  C5  UNL     1     -33.240  15.735  -4.539  1.00 20.00     0.028 A 
HETATM    3  C6  UNL     1     -33.656  14.603  -3.632  1.00 20.00     0.094 A 
ENDROOT
BRANCH   3   4
HETATM    4  C3  UNL     1     -34.927  13.894  -3.828  1.00 20.00     0.263 C 
HETATM    5  O9  UNL     1     -35.026  12.803  -4.374  1.00 20.00    -0.265 OA
BRANCH   4   6
HETATM    6  O10 UNL     1     -35.948  14.636  -3.314  1.00 20.00    -0.326 OA
HETATM    7  C8  UNL     1     -37.174  14.592  -4.051  1.00 20.00     0.213 C 
ENDBRANCH   4   6
ENDBRANCH   3   4
BRANCH   2   8
HETATM    8  C2  UNL     1     -34.095  16.163  -5.637  1.00 20.00    -0.088 C 
HETATM    9  C1  UNL     1     -34.110  15.522  -6.815  1.00 20.00     0.014 C 
HETATM   10  C7  UNL     1     -34.960  17.360  -5.374  1.00 20.00     0.043 C 
ENDBRANCH   2   8
TORSDOF 3
ENDMDL
MODEL 5
REMARK VINA RESULT:      -4.0      1.733      2.879
REMARK  3 active torsions:
REMARK  status: ('A' for Active; 'I' for Inactive)
REMARK    1  A    between atoms: C2_2  and  C5_5 
REMARK    2  A    between atoms: C3_3  and  C6_6 
REMARK    3  A    between atoms: C3_3  and  O10_10 
ROOT
HETATM    1  C4  UNL     1     -33.837  14.024  -4.006  1.00 20.00     0.025 A 
HETATM    2  C5  UNL     1     -34.464  13.640  -5.317  1.00 20.00     0.028 A 
HETATM    3  C6  UNL     1     -35.252  13.514  -4.037  1.00 20.00     0.094 A 
ENDROOT
BRANCH   3   4
HETATM    4  C3  UNL     1     -36.354  14.434  -3.724  1.00 20.00     0.263 C 
HETATM    5  O9  UNL     1     -37.530  14.205  -3.977  1.00 20.00    -0.265 OA
BRANCH   4   6
HETATM    6  O10 UNL     1     -35.860  15.552  -3.123  1.00 20.00    -0.326 OA
HETATM    7  C8  UNL     1     -36.528  16.774  -3.450  1.00 20.00     0.213 C 
ENDBRANCH   4   6
ENDBRANCH   3   4
BRANCH   2   8
HETATM    8  C2  UNL     1     -34.772  14.685  -6.282  1.00 20.00    -0.088 C 
HETATM    9  C1  UNL     1     -35.681  14.509  -7.253  1.00 20.00     0.014 C 
HETATM   10  C7  UNL     1     -34.016  15.971  -6.128  1.00 20.00     0.043 C 
ENDBRANCH   2   8
TORSDOF 3
ENDMDL
MODEL 6
REMARK VINA RESULT:      -3.9      1.395      2.099
REMARK  3 active torsions:
REMARK  status: ('A' for Active; 'I' for Inactive)
REMARK    1  A    between atoms: C2_2  and  C5_5 
REMARK    2  A    between atoms: C3_3  and  C6_6 
REMARK    3  A    between atoms: C3_3  and  O10_10 
ROOT
HETATM    1  C4  UNL     1     -35.912  16.013  -3.636  1.00 20.00     0.025 A 
HETATM    2  C5  UNL     1     -34.628  15.530  -3.023  1.00 20.00     0.028 A 
HETATM    3  C6  UNL     1     -35.665  14.537  -3.487  1.00 20.00     0.094 A 
ENDROOT
BRANCH   3   4
HETATM    4  C3  UNL     1     -35.456  13.718  -4.688  1.00 20.00     0.263 C 
HETATM    5  O9  UNL     1     -34.929  12.614  -4.681  1.00 20.00    -0.265 OA
BRANCH   4   6
HETATM    6  O10 UNL     1     -35.934  14.379  -5.780  1.00 20.00    -0.326 OA
HETATM    7  C8  UNL     1     -35.073  14.382  -6.924  1.00 20.00     0.213 C 
ENDBRANCH   4   6
ENDBRANCH   3   4
BRANCH   2   8
HETATM    8  C2  UNL     1     -33.385  15.709  -3.760  1.00 20.00    -0.088 C 
HETATM    9  C1  UNL     1     -32.342  14.881  -3.603  1.00 20.00     0.014 C 
HETATM   10  C7  UNL     1     -33.340  16.871  -4.708  1.00 20.00     0.043 C 
ENDBRANCH   2   8
TORSDOF 3
ENDMDL
MODEL 7
REMARK VINA RESULT:      -3.9      2.100      3.699
REMARK  3 active torsions:
REMARK  status: ('A' for Active; 'I' for Inactive)
REMARK    1  A    between atoms: C2_2  and  C5_5 
REMARK    2  A    between atoms: C3_3  and  C6_6 
REMARK    3  A    between atoms: C3_3  and  O10_10 
ROOT
HETATM    1  C4  UNL     1     -33.909  13.441  -4.238  1.00 20.00     0.025 A 
HETATM    2  C5  UNL     1     -35.301  14.004  -4.167  1.00 20.00     0.028 A 
HETATM    3  C6  UNL     1     -34.197  14.611  -3.337  1.00 20.00     0.094 A 
ENDROOT
BRANCH   3   4
HETATM    4  C3  UNL     1     -33.629  15.926  -3.663  1.00 20.00     0.263 C 
HETATM    5  O9  UNL     1     -32.776  16.110  -4.521  1.00 20.00    -0.265 OA
BRANCH   4   6
HETATM    6  O10 UNL     1     -34.197  16.877  -2.870  1.00 20.00    -0.326 OA
HETATM    7  C8  UNL     1     -34.421  16.492  -1.510  1.00 20.00     0.213 C 
ENDBRANCH   4   6
ENDBRANCH   3   4
BRANCH   2   8
HETATM    8  C2  UNL     1     -35.835  14.707  -5.325  1.00 20.00    -0.088 C 
HETATM    9  C1  UNL     1     -36.861  15.565  -5.223  1.00 20.00     0.014 C 
HETATM   10  C7  UNL     1     -35.170  14.419  -6.638  1.00 20.00     0.043 C 
ENDBRANCH   2   8
TORSDOF 3
ENDMDL
MODEL 8
REMARK VINA RESULT:      -3.8      2.323      3.401
REMARK  3 active torsions:
REMARK  status: ('A' for Active; 'I' for Inactive)
REMARK    1  A    between atoms: C2_2  and  C5_5 
REMARK    2  A    between atoms: C3_3  and  C6_6 
REMARK    3  A    between atoms: C3_3  and  O10_10 
ROOT
HETATM    1  C4  UNL     1     -33.837  16.298  -2.446  1.00 20.00     0.025 A 
HETATM    2  C5  UNL     1     -34.836  15.289  -2.940  1.00 20.00     0.028 A 
HETATM    3  C6  UNL     1     -34.745  16.646  -3.593  1.00 20.00     0.094 A 
ENDROOT
BRANCH   3   4
HETATM    4  C3  UNL     1     -34.175  16.811  -4.937  1.00 20.00     0.263 C 
HETATM    5  O9  UNL     1     -32.988  17.009  -5.158  1.00 20.00    -0.265 OA
BRANCH   4   6
HETATM    6  O10 UNL     1     -35.165  16.711  -5.868  1.00 20.00    -0.326 OA
HETATM    7  C8  UNL     1     -34.833  15.962  -7.042  1.00 20.00     0.213 C 
ENDBRANCH   4   6
ENDBRANCH   3   4
BRANCH   2   8
HETATM    8  C2  UNL     1     -34.354  14.099  -3.625  1.00 20.00    -0.088 C 
HETATM    9  C1  UNL     1     -35.171  13.312  -4.341  1.00 20.00     0.014 C 
HETATM   10  C7  UNL     1     -32.890  13.803  -3.487  1.00 20.00     0.043 C 
ENDBRANCH   2   8
TORSDOF 3
ENDMDL
MODEL 9
REMARK VINA RESULT:      -3.8     11.001     12.187
REMARK  3 active torsions:
REMARK  status: ('A' for Active; 'I' for Inactive)
REMARK    1  A    between atoms: C2_2  and  C5_5 
REMARK    2  A    between atoms: C3_3  and  C6_6 
REMARK    3  A    between atoms: C3_3  and  O10_10 
ROOT
HETATM    1  C4  UNL     1     -40.950   5.974   0.087  1.00 20.00     0.025 A 
HETATM    2  C5  UNL     1     -40.980   6.626  -1.267  1.00 20.00     0.028 A 
HETATM    3  C6  UNL     1     -40.997   5.121  -1.151  1.00 20.00     0.094 A 
ENDROOT
BRANCH   3   4
HETATM    4  C3  UNL     1     -42.210   4.346  -1.444  1.00 20.00     0.263 C 
HETATM    5  O9  UNL     1     -43.071   4.081  -0.616  1.00 20.00    -0.265 OA
BRANCH   4   6
HETATM    6  O10 UNL     1     -42.212   3.981  -2.757  1.00 20.00    -0.326 OA
HETATM    7  C8  UNL     1     -41.552   2.747  -3.055  1.00 20.00     0.213 C 
ENDBRANCH   4   6
ENDBRANCH   3   4
BRANCH   2   8
HETATM    8  C2  UNL     1     -42.173   7.356  -1.670  1.00 20.00    -0.088 C 
HETATM    9  C1  UNL     1     -43.059   7.816  -0.775  1.00 20.00     0.014 C 
HETATM   10  C7  UNL     1     -42.352   7.567  -3.144  1.00 20.00     0.043 C 
ENDBRANCH   2   8
TORSDOF 3
ENDMDL
