MODEL 1
REMARK VINA RESULT:      -5.0      0.000      0.000
REMARK  2 active torsions:
REMARK  status: ('A' for Active; 'I' for Inactive)
REMARK    1  A    between atoms: C4_4  and  C10_10 
REMARK    2  A    between atoms: C5_5  and  C10_10 
ROOT
HETATM    1  C1  UNL     1     -33.897  16.621  -2.230  1.00 20.00    -0.026 C 
HETATM    2  C2  UNL     1     -34.978  15.828  -2.238  1.00 20.00    -0.024 C 
HETATM    3  C6  UNL     1     -35.230  17.309  -3.987  1.00 20.00     0.018 C 
HETATM    4  C7  UNL     1     -33.297  16.036  -4.561  1.00 20.00     0.030 C 
HETATM    5  C8  UNL     1     -33.747  17.183  -3.623  1.00 20.00     0.010 C 
HETATM    6  C9  UNL     1     -35.536  15.842  -3.646  1.00 20.00     0.028 C 
HETATM    7  C10 UNL     1     -34.550  15.099  -4.592  1.00 20.00     0.044 C 
ENDROOT
BRANCH   7   8
HETATM    8  C4  UNL     1     -35.096  14.911  -5.975  1.00 20.00    -0.019 C 
HETATM    9  C3  UNL     1     -34.377  15.071  -7.090  1.00 20.00     0.008 C 
ENDBRANCH   7   8
BRANCH   7  10
HETATM   10  C5  UNL     1     -34.233  13.706  -4.123  1.00 20.00     0.136 C 
HETATM   11  C11 UNL     1     -32.858  13.480  -3.555  1.00 20.00     0.092 C 
HETATM   12  O12 UNL     1     -35.059  12.797  -4.198  1.00 20.00    -0.297 OA
ENDBRANCH   7  10
TORSDOF 2
ENDMDL
MODEL 2
REMARK VINA RESULT:      -4.9      1.635      3.782
REMARK  2 active torsions:
REMARK  status: ('A' for Active; 'I' for Inactive)
REMARK    1  A    between atoms: C4_4  and  C10_10 
REMARK    2  A    between atoms: C5_5  and  C10_10 
ROOT
HETATM    1  C1  UNL     1     -34.993  13.743  -5.662  1.00 20.00    -0.026 C 
HETATM    2  C2  UNL     1     -35.399  14.987  -5.955  1.00 20.00    -0.024 C 
HETATM    3  C6  UNL     1     -36.544  14.346  -4.060  1.00 20.00     0.018 C 
HETATM    4  C7  UNL     1     -34.257  14.387  -3.386  1.00 20.00     0.030 C 
HETATM    5  C8  UNL     1     -35.259  13.524  -4.192  1.00 20.00     0.010 C 
HETATM    6  C9  UNL     1     -35.914  15.607  -4.672  1.00 20.00     0.028 C 
HETATM    7  C10 UNL     1     -34.718  15.847  -3.708  1.00 20.00     0.044 C 
ENDROOT
BRANCH   7   8
HETATM    8  C4  UNL     1     -35.103  16.614  -2.479  1.00 20.00    -0.019 C 
HETATM    9  C3  UNL     1     -34.586  16.392  -1.266  1.00 20.00     0.008 C 
ENDBRANCH   7   8
BRANCH   7  10
HETATM   10  C5  UNL     1     -33.623  16.667  -4.332  1.00 20.00     0.136 C 
HETATM   11  C11 UNL     1     -33.899  18.134  -4.519  1.00 20.00     0.092 C 
HETATM   12  O12 UNL     1     -32.553  16.163  -4.672  1.00 20.00    -0.297 OA
ENDBRANCH   7  10
TORSDOF 2
ENDMDL
MODEL 3
REMARK VINA RESULT:      -4.8      0.943      3.082
REMARK  2 active torsions:
REMARK  status: ('A' for Active; 'I' for Inactive)
REMARK    1  A    between atoms: C4_4  and  C10_10 
REMARK    2  A    between atoms: C5_5  and  C10_10 
ROOT
HETATM    1  C1  UNL     1     -35.869  15.140  -6.576  1.00 20.00    -0.026 C 
HETATM    2  C2  UNL     1     -34.536  15.025  -6.480  1.00 20.00    -0.024 C 
HETATM    3  C6  UNL     1     -35.106  17.003  -5.443  1.00 20.00     0.018 C 
HETATM    4  C7  UNL     1     -36.153  15.317  -4.121  1.00 20.00     0.030 C 
HETATM    5  C8  UNL     1     -36.315  16.064  -5.468  1.00 20.00     0.010 C 
HETATM    6  C9  UNL     1     -34.096  15.855  -5.292  1.00 20.00     0.028 C 
HETATM    7  C10 UNL     1     -34.600  15.178  -3.985  1.00 20.00     0.044 C 
ENDROOT
BRANCH   7   8
HETATM    8  C4  UNL     1     -34.069  15.833  -2.746  1.00 20.00    -0.019 C 
HETATM    9  C3  UNL     1     -34.837  16.269  -1.742  1.00 20.00     0.008 C 
ENDBRANCH   7   8
BRANCH   7  10
HETATM   10  C5  UNL     1     -34.164  13.745  -3.866  1.00 20.00     0.136 C 
HETATM   11  C11 UNL     1     -32.731  13.504  -3.473  1.00 20.00     0.092 C 
HETATM   12  O12 UNL     1     -34.940  12.814  -4.078  1.00 20.00    -0.297 OA
ENDBRANCH   7  10
TORSDOF 2
ENDMDL
MODEL 4
REMARK VINA RESULT:      -4.8      1.217      3.178
REMARK  2 active torsions:
REMARK  status: ('A' for Active; 'I' for Inactive)
REMARK    1  A    between atoms: C4_4  and  C10_10 
REMARK    2  A    between atoms: C5_5  and  C10_10 
ROOT
HETATM    1  C1  UNL     1     -34.959  16.411  -6.548  1.00 20.00    -0.026 C 
HETATM    2  C2  UNL     1     -33.772  15.839  -6.298  1.00 20.00    -0.024 C 
HETATM    3  C6  UNL     1     -33.864  17.760  -5.027  1.00 20.00     0.018 C 
HETATM    4  C7  UNL     1     -35.612  16.390  -4.158  1.00 20.00     0.030 C 
HETATM    5  C8  UNL     1     -35.283  17.297  -5.370  1.00 20.00     0.010 C 
HETATM    6  C9  UNL     1     -33.314  16.328  -4.938  1.00 20.00     0.028 C 
HETATM    7  C10 UNL     1     -34.234  15.717  -3.843  1.00 20.00     0.044 C 
ENDROOT
BRANCH   7   8
HETATM    8  C4  UNL     1     -33.757  16.006  -2.452  1.00 20.00    -0.019 C 
HETATM    9  C3  UNL     1     -34.560  16.368  -1.446  1.00 20.00     0.008 C 
ENDBRANCH   7   8
BRANCH   7  10
HETATM   10  C5  UNL     1     -34.303  14.218  -3.911  1.00 20.00     0.136 C 
HETATM   11  C11 UNL     1     -35.650  13.614  -4.203  1.00 20.00     0.092 C 
HETATM   12  O12 UNL     1     -33.305  13.517  -3.738  1.00 20.00    -0.297 OA
ENDBRANCH   7  10
TORSDOF 2
ENDMDL
MODEL 5
REMARK VINA RESULT:      -4.7      1.353      2.398
REMARK  2 active torsions:
REMARK  status: ('A' for Active; 'I' for Inactive)
REMARK    1  A    between atoms: C4_4  and  C10_10 
REMARK    2  A    between atoms: C5_5  and  C10_10 
ROOT
HETATM    1  C1  UNL     1     -33.298  16.637  -4.164  1.00 20.00    -0.026 C 
HETATM    2  C2  UNL     1     -33.218  15.420  -3.606  1.00 20.00    -0.024 C 
HETATM    3  C6  UNL     1     -34.992  16.494  -2.601  1.00 20.00     0.018 C 
HETATM    4  C7  UNL     1     -35.642  16.289  -4.886  1.00 20.00     0.030 C 
HETATM    5  C8  UNL     1     -34.713  17.123  -3.969  1.00 20.00     0.010 C 
HETATM    6  C9  UNL     1     -34.591  15.084  -3.060  1.00 20.00     0.028 C 
HETATM    7  C10 UNL     1     -35.570  14.862  -4.247  1.00 20.00     0.044 C 
ENDROOT
BRANCH   7   8
HETATM    8  C4  UNL     1     -36.912  14.358  -3.811  1.00 20.00    -0.019 C 
HETATM    9  C3  UNL     1     -38.074  14.902  -4.187  1.00 20.00     0.008 C 
ENDBRANCH   7   8
BRANCH   7  10
HETATM   10  C5  UNL     1     -35.080  13.826  -5.220  1.00 20.00     0.136 C 
HETATM   11  C11 UNL     1     -34.937  14.258  -6.654  1.00 20.00     0.092 C 
HETATM   12  O12 UNL     1     -34.807  12.681  -4.860  1.00 20.00    -0.297 OA
ENDBRANCH   7  10
TORSDOF 2
ENDMDL
MODEL 6
REMARK VINA RESULT:      -4.7      1.342      2.763
REMARK  2 active torsions:
REMARK  status: ('A' for Active; 'I' for Inactive)
REMARK    1  A    between atoms: C4_4  and  C10_10 
REMARK    2  A    between atoms: C5_5  and  C10_10 
ROOT
HETATM    1  C1  UNL     1     -33.449  13.769  -3.823  1.00 20.00    -0.026 C 
HETATM    2  C2  UNL     1     -34.780  13.618  -3.895  1.00 20.00    -0.024 C 
HETATM    3  C6  UNL     1     -34.396  15.523  -2.655  1.00 20.00     0.018 C 
HETATM    4  C7  UNL     1     -33.530  16.037  -4.817  1.00 20.00     0.030 C 
HETATM    5  C8  UNL     1     -33.183  15.228  -3.543  1.00 20.00     0.010 C 
HETATM    6  C9  UNL     1     -35.400  14.984  -3.685  1.00 20.00     0.028 C 
HETATM    7  C10 UNL     1     -35.084  15.880  -4.916  1.00 20.00     0.044 C 
ENDROOT
BRANCH   7   8
HETATM    8  C4  UNL     1     -35.800  17.196  -4.879  1.00 20.00    -0.019 C 
HETATM    9  C3  UNL     1     -35.224  18.369  -5.163  1.00 20.00     0.008 C 
ENDBRANCH   7   8
BRANCH   7  10
HETATM   10  C5  UNL     1     -35.514  15.258  -6.215  1.00 20.00     0.136 C 
HETATM   11  C11 UNL     1     -34.437  15.015  -7.238  1.00 20.00     0.092 C 
HETATM   12  O12 UNL     1     -36.688  14.958  -6.430  1.00 20.00    -0.297 OA
ENDBRANCH   7  10
TORSDOF 2
ENDMDL
MODEL 7
REMARK VINA RESULT:      -4.7      1.366      3.635
REMARK  2 active torsions:
REMARK  status: ('A' for Active; 'I' for Inactive)
REMARK    1  A    between atoms: C4_4  and  C10_10 
REMARK    2  A    between atoms: C5_5  and  C10_10 
ROOT
HETATM    1  C1  UNL     1     -33.927  15.377  -5.746  1.00 20.00    -0.026 C 
HETATM    2  C2  UNL     1     -34.575  14.406  -5.084  1.00 20.00    -0.024 C 
HETATM    3  C6  UNL     1     -32.804  15.048  -3.754  1.00 20.00     0.018 C 
HETATM    4  C7  UNL     1     -34.184  16.989  -3.881  1.00 20.00     0.030 C 
HETATM    5  C8  UNL     1     -33.164  16.180  -4.720  1.00 20.00     0.010 C 
HETATM    6  C9  UNL     1     -34.260  14.578  -3.612  1.00 20.00     0.028 C 
HETATM    7  C10 UNL     1     -34.948  15.873  -3.093  1.00 20.00     0.044 C 
ENDROOT
BRANCH   7   8
HETATM    8  C4  UNL     1     -34.837  16.038  -1.608  1.00 20.00    -0.019 C 
HETATM    9  C3  UNL     1     -34.245  17.079  -1.013  1.00 20.00     0.008 C 
ENDBRANCH   7   8
BRANCH   7  10
HETATM   10  C5  UNL     1     -36.426  15.894  -3.362  1.00 20.00     0.136 C 
HETATM   11  C11 UNL     1     -37.001  17.184  -3.884  1.00 20.00     0.092 C 
HETATM   12  O12 UNL     1     -37.133  14.905  -3.167  1.00 20.00    -0.297 OA
ENDBRANCH   7  10
TORSDOF 2
ENDMDL
MODEL 8
REMARK VINA RESULT:      -4.7      1.591      3.444
REMARK  2 active torsions:
REMARK  status: ('A' for Active; 'I' for Inactive)
REMARK    1  A    between atoms: C4_4  and  C10_10 
REMARK    2  A    between atoms: C5_5  and  C10_10 
ROOT
HETATM    1  C1  UNL     1     -35.843  16.708  -6.961  1.00 20.00    -0.026 C 
HETATM    2  C2  UNL     1     -36.620  15.620  -6.856  1.00 20.00    -0.024 C 
HETATM    3  C6  UNL     1     -34.463  14.868  -7.166  1.00 20.00     0.018 C 
HETATM    4  C7  UNL     1     -34.397  16.010  -5.073  1.00 20.00     0.030 C 
HETATM    5  C8  UNL     1     -34.439  16.289  -6.597  1.00 20.00     0.010 C 
HETATM    6  C9  UNL     1     -35.735  14.478  -6.398  1.00 20.00     0.028 C 
HETATM    7  C10 UNL     1     -35.294  14.735  -4.929  1.00 20.00     0.044 C 
ENDROOT
BRANCH   7   8
HETATM    8  C4  UNL     1     -34.555  13.577  -4.329  1.00 20.00    -0.019 C 
HETATM    9  C3  UNL     1     -33.360  13.677  -3.739  1.00 20.00     0.008 C 
ENDBRANCH   7   8
BRANCH   7  10
HETATM   10  C5  UNL     1     -36.456  14.957  -4.002  1.00 20.00     0.136 C 
HETATM   11  C11 UNL     1     -36.487  16.263  -3.256  1.00 20.00     0.092 C 
HETATM   12  O12 UNL     1     -37.340  14.112  -3.862  1.00 20.00    -0.297 OA
ENDBRANCH   7  10
TORSDOF 2
ENDMDL
MODEL 9
REMARK VINA RESULT:      -4.6      1.466      2.457
REMARK  2 active torsions:
REMARK  status: ('A' for Active; 'I' for Inactive)
REMARK    1  A    between atoms: C4_4  and  C10_10 
REMARK    2  A    between atoms: C5_5  and  C10_10 
ROOT
HETATM    1  C1  UNL     1     -34.542  15.925  -2.350  1.00 20.00    -0.026 C 
HETATM    2  C2  UNL     1     -35.160  16.693  -3.258  1.00 20.00    -0.024 C 
HETATM    3  C6  UNL     1     -33.301  15.808  -4.294  1.00 20.00     0.018 C 
HETATM    4  C7  UNL     1     -34.658  13.913  -3.792  1.00 20.00     0.030 C 
HETATM    5  C8  UNL     1     -33.704  14.925  -3.110  1.00 20.00     0.010 C 
HETATM    6  C9  UNL     1     -34.751  16.190  -4.628  1.00 20.00     0.028 C 
HETATM    7  C10 UNL     1     -35.386  14.790  -4.865  1.00 20.00     0.044 C 
ENDROOT
BRANCH   7   8
HETATM    8  C4  UNL     1     -35.179  14.283  -6.260  1.00 20.00    -0.019 C 
HETATM    9  C3  UNL     1     -34.547  14.968  -7.218  1.00 20.00     0.008 C 
ENDBRANCH   7   8
BRANCH   7  10
HETATM   10  C5  UNL     1     -36.878  14.790  -4.685  1.00 20.00     0.136 C 
HETATM   11  C11 UNL     1     -37.675  15.642  -5.636  1.00 20.00     0.092 C 
HETATM   12  O12 UNL     1     -37.422  14.124  -3.805  1.00 20.00    -0.297 OA
ENDBRANCH   7  10
TORSDOF 2
ENDMDL
