MODEL 1
REMARK VINA RESULT:      -4.9      0.000      0.000
REMARK  2 active torsions:
REMARK  status: ('A' for Active; 'I' for Inactive)
REMARK    1  A    between atoms: C1_1  and  C7_7 
REMARK    2  A    between atoms: C4_4  and  C7_7 
ROOT
HETATM    1  C6  UNL     1     -34.885   5.320   3.506  1.00 20.00     0.018 C 
HETATM    2  C7  UNL     1     -34.141   6.373   4.323  1.00 20.00     0.055 C 
ENDROOT
BRANCH   2   3
HETATM    3  C1  UNL     1     -34.215   6.060   5.815  1.00 20.00     0.127 C 
HETATM    4  C5  UNL     1     -34.871   4.760   6.207  1.00 20.00     0.091 C 
HETATM    5  O8  UNL     1     -33.789   6.833   6.673  1.00 20.00    -0.298 OA
ENDBRANCH   2   3
BRANCH   2   6
HETATM    6  C4  UNL     1     -32.686   6.471   3.884  1.00 20.00    -0.004 A 
HETATM    7  C2  UNL     1     -32.272   5.999   2.517  1.00 20.00     0.006 A 
HETATM    8  C3  UNL     1     -32.278   7.468   2.835  1.00 20.00     0.006 A 
ENDBRANCH   2   6
TORSDOF 2
ENDMDL
MODEL 2
REMARK VINA RESULT:      -4.8      1.560      2.065
REMARK  2 active torsions:
REMARK  status: ('A' for Active; 'I' for Inactive)
REMARK    1  A    between atoms: C1_1  and  C7_7 
REMARK    2  A    between atoms: C4_4  and  C7_7 
ROOT
HETATM    1  C6  UNL     1     -33.772   6.842   6.249  1.00 20.00     0.018 C 
HETATM    2  C7  UNL     1     -33.653   5.889   5.062  1.00 20.00     0.055 C 
ENDROOT
BRANCH   2   3
HETATM    3  C1  UNL     1     -34.937   5.088   4.873  1.00 20.00     0.127 C 
HETATM    4  C5  UNL     1     -35.209   3.990   5.872  1.00 20.00     0.091 C 
HETATM    5  O8  UNL     1     -35.713   5.294   3.940  1.00 20.00    -0.298 OA
ENDBRANCH   2   3
BRANCH   2   6
HETATM    6  C4  UNL     1     -33.323   6.652   3.785  1.00 20.00    -0.004 A 
HETATM    7  C2  UNL     1     -31.972   7.288   3.610  1.00 20.00     0.006 A 
HETATM    8  C3  UNL     1     -32.346   6.082   2.794  1.00 20.00     0.006 A 
ENDBRANCH   2   6
TORSDOF 2
ENDMDL
MODEL 3
REMARK VINA RESULT:      -4.3      1.485      3.553
REMARK  2 active torsions:
REMARK  status: ('A' for Active; 'I' for Inactive)
REMARK    1  A    between atoms: C1_1  and  C7_7 
REMARK    2  A    between atoms: C4_4  and  C7_7 
ROOT
HETATM    1  C6  UNL     1     -33.497   7.046   6.373  1.00 20.00     0.018 C 
HETATM    2  C7  UNL     1     -33.872   6.420   5.032  1.00 20.00     0.055 C 
ENDROOT
BRANCH   2   3
HETATM    3  C1  UNL     1     -32.788   6.671   3.989  1.00 20.00     0.127 C 
HETATM    4  C5  UNL     1     -32.914   5.929   2.682  1.00 20.00     0.091 C 
HETATM    5  O8  UNL     1     -31.832   7.418   4.198  1.00 20.00    -0.298 OA
ENDBRANCH   2   3
BRANCH   2   6
HETATM    6  C4  UNL     1     -34.115   4.924   5.182  1.00 20.00    -0.004 A 
HETATM    7  C2  UNL     1     -35.088   4.412   6.207  1.00 20.00     0.006 A 
HETATM    8  C3  UNL     1     -35.421   4.321   4.744  1.00 20.00     0.006 A 
ENDBRANCH   2   6
TORSDOF 2
ENDMDL
MODEL 4
REMARK VINA RESULT:      -4.1      1.596      3.464
REMARK  2 active torsions:
REMARK  status: ('A' for Active; 'I' for Inactive)
REMARK    1  A    between atoms: C1_1  and  C7_7 
REMARK    2  A    between atoms: C4_4  and  C7_7 
ROOT
HETATM    1  C6  UNL     1     -33.651   5.436   2.577  1.00 20.00     0.018 C 
HETATM    2  C7  UNL     1     -33.004   6.033   3.824  1.00 20.00     0.055 C 
ENDROOT
BRANCH   2   3
HETATM    3  C1  UNL     1     -32.117   7.220   3.464  1.00 20.00     0.127 C 
HETATM    4  C5  UNL     1     -32.377   7.890   2.138  1.00 20.00     0.091 C 
HETATM    5  O8  UNL     1     -31.208   7.611   4.198  1.00 20.00    -0.298 OA
ENDBRANCH   2   3
BRANCH   2   6
HETATM    6  C4  UNL     1     -34.062   6.460   4.833  1.00 20.00    -0.004 A 
HETATM    7  C2  UNL     1     -34.728   5.437   5.712  1.00 20.00     0.006 A 
HETATM    8  C3  UNL     1     -33.761   6.423   6.306  1.00 20.00     0.006 A 
ENDBRANCH   2   6
TORSDOF 2
ENDMDL
MODEL 5
REMARK VINA RESULT:      -4.0     11.270     12.169
REMARK  2 active torsions:
REMARK  status: ('A' for Active; 'I' for Inactive)
REMARK    1  A    between atoms: C1_1  and  C7_7 
REMARK    2  A    between atoms: C4_4  and  C7_7 
ROOT
HETATM    1  C6  UNL     1     -35.658  15.882  -4.450  1.00 20.00     0.018 C 
HETATM    2  C7  UNL     1     -35.172  15.053  -3.265  1.00 20.00     0.055 C 
ENDROOT
BRANCH   2   3
HETATM    3  C1  UNL     1     -34.503  13.765  -3.737  1.00 20.00     0.127 C 
HETATM    4  C5  UNL     1     -32.999  13.704  -3.644  1.00 20.00     0.091 C 
HETATM    5  O8  UNL     1     -35.143  12.820  -4.200  1.00 20.00    -0.298 OA
ENDBRANCH   2   3
BRANCH   2   6
HETATM    6  C4  UNL     1     -34.206  15.854  -2.402  1.00 20.00    -0.004 A 
HETATM    7  C2  UNL     1     -34.358  17.345  -2.278  1.00 20.00     0.006 A 
HETATM    8  C3  UNL     1     -34.672  16.458  -1.105  1.00 20.00     0.006 A 
ENDBRANCH   2   6
TORSDOF 2
ENDMDL
MODEL 6
REMARK VINA RESULT:      -3.9     11.682     12.475
REMARK  2 active torsions:
REMARK  status: ('A' for Active; 'I' for Inactive)
REMARK    1  A    between atoms: C1_1  and  C7_7 
REMARK    2  A    between atoms: C4_4  and  C7_7 
ROOT
HETATM    1  C6  UNL     1     -35.273  16.665  -4.555  1.00 20.00     0.018 C 
HETATM    2  C7  UNL     1     -35.747  15.858  -3.349  1.00 20.00     0.055 C 
ENDROOT
BRANCH   2   3
HETATM    3  C1  UNL     1     -36.205  14.465  -3.769  1.00 20.00     0.127 C 
HETATM    4  C5  UNL     1     -35.133  13.498  -4.206  1.00 20.00     0.091 C 
HETATM    5  O8  UNL     1     -37.391  14.137  -3.785  1.00 20.00    -0.298 OA
ENDBRANCH   2   3
BRANCH   2   6
HETATM    6  C4  UNL     1     -34.646  15.750  -2.302  1.00 20.00    -0.004 A 
HETATM    7  C2  UNL     1     -33.740  16.919  -2.031  1.00 20.00     0.006 A 
HETATM    8  C3  UNL     1     -34.758  16.504  -1.005  1.00 20.00     0.006 A 
ENDBRANCH   2   6
TORSDOF 2
ENDMDL
MODEL 7
REMARK VINA RESULT:      -3.9     11.609     12.464
REMARK  2 active torsions:
REMARK  status: ('A' for Active; 'I' for Inactive)
REMARK    1  A    between atoms: C1_1  and  C7_7 
REMARK    2  A    between atoms: C4_4  and  C7_7 
ROOT
HETATM    1  C6  UNL     1     -32.757  14.299  -3.518  1.00 20.00     0.018 C 
HETATM    2  C7  UNL     1     -34.083  14.822  -4.063  1.00 20.00     0.055 C 
ENDROOT
BRANCH   2   3
HETATM    3  C1  UNL     1     -34.759  13.779  -4.948  1.00 20.00     0.127 C 
HETATM    4  C5  UNL     1     -35.201  14.231  -6.317  1.00 20.00     0.091 C 
HETATM    5  O8  UNL     1     -34.968  12.627  -4.569  1.00 20.00    -0.298 OA
ENDBRANCH   2   3
BRANCH   2   6
HETATM    6  C4  UNL     1     -35.015  15.224  -2.927  1.00 20.00    -0.004 A 
HETATM    7  C2  UNL     1     -34.540  16.160  -1.851  1.00 20.00     0.006 A 
HETATM    8  C3  UNL     1     -35.560  16.623  -2.854  1.00 20.00     0.006 A 
ENDBRANCH   2   6
TORSDOF 2
ENDMDL
MODEL 8
REMARK VINA RESULT:      -3.8     11.583     13.158
REMARK  2 active torsions:
REMARK  status: ('A' for Active; 'I' for Inactive)
REMARK    1  A    between atoms: C1_1  and  C7_7 
REMARK    2  A    between atoms: C4_4  and  C7_7 
ROOT
HETATM    1  C6  UNL     1     -34.522  14.814  -6.775  1.00 20.00     0.018 C 
HETATM    2  C7  UNL     1     -34.518  15.001  -5.261  1.00 20.00     0.055 C 
ENDROOT
BRANCH   2   3
HETATM    3  C1  UNL     1     -34.207  13.688  -4.549  1.00 20.00     0.127 C 
HETATM    4  C5  UNL     1     -33.049  13.693  -3.583  1.00 20.00     0.091 C 
HETATM    5  O8  UNL     1     -34.844  12.655  -4.761  1.00 20.00    -0.298 OA
ENDBRANCH   2   3
BRANCH   2   6
HETATM    6  C4  UNL     1     -33.511  16.067  -4.848  1.00 20.00    -0.004 A 
HETATM    7  C2  UNL     1     -33.521  17.417  -5.511  1.00 20.00     0.006 A 
HETATM    8  C3  UNL     1     -33.964  17.279  -4.081  1.00 20.00     0.006 A 
ENDBRANCH   2   6
TORSDOF 2
ENDMDL
MODEL 9
REMARK VINA RESULT:      -3.7     11.866     13.101
REMARK  2 active torsions:
REMARK  status: ('A' for Active; 'I' for Inactive)
REMARK    1  A    between atoms: C1_1  and  C7_7 
REMARK    2  A    between atoms: C4_4  and  C7_7 
ROOT
HETATM    1  C6  UNL     1     -33.179  15.062  -3.529  1.00 20.00     0.018 C 
HETATM    2  C7  UNL     1     -34.063  14.770  -4.738  1.00 20.00     0.055 C 
ENDROOT
BRANCH   2   3
HETATM    3  C1  UNL     1     -35.201  13.824  -4.368  1.00 20.00     0.127 C 
HETATM    4  C5  UNL     1     -36.519  14.456  -3.996  1.00 20.00     0.091 C 
HETATM    5  O8  UNL     1     -35.061  12.601  -4.341  1.00 20.00    -0.298 OA
ENDBRANCH   2   3
BRANCH   2   6
HETATM    6  C4  UNL     1     -34.627  16.059  -5.322  1.00 20.00    -0.004 A 
HETATM    7  C2  UNL     1     -33.714  17.213  -5.633  1.00 20.00     0.006 A 
HETATM    8  C3  UNL     1     -34.342  16.430  -6.752  1.00 20.00     0.006 A 
ENDBRANCH   2   6
TORSDOF 2
ENDMDL
