MODEL 1
REMARK VINA RESULT:      -4.6      0.000      0.000
REMARK  2 active torsions:
REMARK  status: ('A' for Active; 'I' for Inactive)
REMARK    1  A    between atoms: C1_1  and  C6_6 
REMARK    2  A    between atoms: C7_7  and  C9_9 
ROOT
HETATM    1  C2  UNL     1     -36.022  15.014  -3.505  1.00 20.00     0.012 C 
HETATM    2  C3  UNL     1     -33.519  14.818  -3.776  1.00 20.00     0.012 C 
HETATM    3  C4  UNL     1     -35.830  16.223  -2.591  1.00 20.00     0.005 C 
HETATM    4  C5  UNL     1     -33.323  16.026  -2.862  1.00 20.00     0.005 C 
HETATM    5  C6  UNL     1     -34.865  14.879  -4.489  1.00 20.00     0.047 C 
HETATM    6  C7  UNL     1     -34.479  16.173  -1.862  1.00 20.00    -0.015 C 
ENDROOT
BRANCH   5   7
HETATM    7  C1  UNL     1     -35.049  13.572  -5.237  1.00 20.00     0.235 C 
HETATM    8  O10 UNL     1     -34.769  12.476  -4.763  1.00 20.00    -0.306 OA
ENDBRANCH   5   7
BRANCH   6   9
HETATM    9  C9  UNL     1     -34.288  17.415  -0.995  1.00 20.00     0.000 C 
HETATM   10  C8  UNL     1     -34.966  17.274   0.328  1.00 20.00     0.005 C 
ENDBRANCH   6   9
TORSDOF 2
ENDMDL
MODEL 2
REMARK VINA RESULT:      -4.3      1.313      1.843
REMARK  2 active torsions:
REMARK  status: ('A' for Active; 'I' for Inactive)
REMARK    1  A    between atoms: C1_1  and  C6_6 
REMARK    2  A    between atoms: C7_7  and  C9_9 
ROOT
HETATM    1  C2  UNL     1     -33.956  16.027  -5.169  1.00 20.00     0.012 C 
HETATM    2  C3  UNL     1     -34.648  14.939  -2.998  1.00 20.00     0.012 C 
HETATM    3  C4  UNL     1     -33.433  17.237  -4.397  1.00 20.00     0.005 C 
HETATM    4  C5  UNL     1     -34.127  16.147  -2.224  1.00 20.00     0.005 C 
HETATM    5  C6  UNL     1     -33.902  14.764  -4.316  1.00 20.00     0.047 C 
HETATM    6  C7  UNL     1     -34.179  17.428  -3.069  1.00 20.00    -0.015 C 
ENDROOT
BRANCH   5   7
HETATM    7  C1  UNL     1     -34.589  13.657  -5.092  1.00 20.00     0.235 C 
HETATM    8  O10 UNL     1     -34.928  12.590  -4.590  1.00 20.00    -0.306 OA
ENDBRANCH   5   7
BRANCH   6   9
HETATM    9  C9  UNL     1     -33.605  18.610  -2.292  1.00 20.00     0.000 C 
HETATM   10  C8  UNL     1     -33.370  18.267  -0.858  1.00 20.00     0.005 C 
ENDBRANCH   6   9
TORSDOF 2
ENDMDL
MODEL 3
REMARK VINA RESULT:      -4.3      1.441      1.510
REMARK  2 active torsions:
REMARK  status: ('A' for Active; 'I' for Inactive)
REMARK    1  A    between atoms: C1_1  and  C6_6 
REMARK    2  A    between atoms: C7_7  and  C9_9 
ROOT
HETATM    1  C2  UNL     1     -34.974  14.443  -3.787  1.00 20.00     0.012 C 
HETATM    2  C3  UNL     1     -33.662  16.127  -5.135  1.00 20.00     0.012 C 
HETATM    3  C4  UNL     1     -34.932  15.375  -2.578  1.00 20.00     0.005 C 
HETATM    4  C5  UNL     1     -33.617  17.062  -3.928  1.00 20.00     0.005 C 
HETATM    5  C6  UNL     1     -34.892  15.228  -5.092  1.00 20.00     0.047 C 
HETATM    6  C7  UNL     1     -33.695  16.285  -2.606  1.00 20.00    -0.015 C 
ENDROOT
BRANCH   5   7
HETATM    7  C1  UNL     1     -34.770  14.226  -6.224  1.00 20.00     0.235 C 
HETATM    8  O10 UNL     1     -35.525  14.203  -7.190  1.00 20.00    -0.306 OA
ENDBRANCH   5   7
BRANCH   6   9
HETATM    9  C9  UNL     1     -33.702  17.242  -1.417  1.00 20.00     0.000 C 
HETATM   10  C8  UNL     1     -34.746  16.871  -0.417  1.00 20.00     0.005 C 
ENDBRANCH   6   9
TORSDOF 2
ENDMDL
MODEL 4
REMARK VINA RESULT:      -4.2     11.537     11.945
REMARK  2 active torsions:
REMARK  status: ('A' for Active; 'I' for Inactive)
REMARK    1  A    between atoms: C1_1  and  C6_6 
REMARK    2  A    between atoms: C7_7  and  C9_9 
ROOT
HETATM    1  C2  UNL     1     -32.910   7.297   4.510  1.00 20.00     0.012 C 
HETATM    2  C3  UNL     1     -33.222   6.157   2.279  1.00 20.00     0.012 C 
HETATM    3  C4  UNL     1     -33.687   6.174   5.195  1.00 20.00     0.005 C 
HETATM    4  C5  UNL     1     -33.999   5.032   2.960  1.00 20.00     0.005 C 
HETATM    5  C6  UNL     1     -32.229   6.801   3.240  1.00 20.00     0.047 C 
HETATM    6  C7  UNL     1     -34.694   5.518   4.240  1.00 20.00    -0.015 C 
ENDROOT
BRANCH   5   7
HETATM    7  C1  UNL     1     -31.627   8.005   2.541  1.00 20.00     0.235 C 
HETATM    8  O10 UNL     1     -32.124   8.529   1.549  1.00 20.00    -0.306 OA
ENDBRANCH   5   7
BRANCH   6   9
HETATM    9  C9  UNL     1     -35.421   4.366   4.930  1.00 20.00     0.000 C 
HETATM   10  C8  UNL     1     -35.089   4.297   6.384  1.00 20.00     0.005 C 
ENDBRANCH   6   9
TORSDOF 2
ENDMDL
MODEL 5
REMARK VINA RESULT:      -4.2     11.580     11.973
REMARK  2 active torsions:
REMARK  status: ('A' for Active; 'I' for Inactive)
REMARK    1  A    between atoms: C1_1  and  C6_6 
REMARK    2  A    between atoms: C7_7  and  C9_9 
ROOT
HETATM    1  C2  UNL     1     -33.842   6.077   5.342  1.00 20.00     0.012 C 
HETATM    2  C3  UNL     1     -34.127   5.106   3.029  1.00 20.00     0.012 C 
HETATM    3  C4  UNL     1     -32.976   7.197   4.767  1.00 20.00     0.005 C 
HETATM    4  C5  UNL     1     -33.261   6.223   2.451  1.00 20.00     0.005 C 
HETATM    5  C6  UNL     1     -34.830   5.556   4.304  1.00 20.00     0.047 C 
HETATM    6  C7  UNL     1     -32.258   6.756   3.484  1.00 20.00    -0.015 C 
ENDROOT
BRANCH   5   7
HETATM    7  C1  UNL     1     -35.525   4.346   4.899  1.00 20.00     0.235 C 
HETATM    8  O10 UNL     1     -34.940   3.476   5.535  1.00 20.00    -0.306 OA
ENDBRANCH   5   7
BRANCH   6   9
HETATM    9  C9  UNL     1     -31.441   7.906   2.900  1.00 20.00     0.000 C 
HETATM   10  C8  UNL     1     -32.139   8.548   1.747  1.00 20.00     0.005 C 
ENDBRANCH   6   9
TORSDOF 2
ENDMDL
MODEL 6
REMARK VINA RESULT:      -4.2      2.367      4.612
REMARK  2 active torsions:
REMARK  status: ('A' for Active; 'I' for Inactive)
REMARK    1  A    between atoms: C1_1  and  C6_6 
REMARK    2  A    between atoms: C7_7  and  C9_9 
ROOT
HETATM    1  C2  UNL     1     -34.767  15.070  -3.094  1.00 20.00     0.012 C 
HETATM    2  C3  UNL     1     -33.637  17.149  -3.975  1.00 20.00     0.012 C 
HETATM    3  C4  UNL     1     -34.627  14.411  -4.465  1.00 20.00     0.005 C 
HETATM    4  C5  UNL     1     -33.497  16.494  -5.348  1.00 20.00     0.005 C 
HETATM    5  C6  UNL     1     -33.670  16.105  -2.866  1.00 20.00     0.047 C 
HETATM    6  C7  UNL     1     -34.597  15.452  -5.593  1.00 20.00    -0.015 C 
ENDROOT
BRANCH   5   7
HETATM    7  C1  UNL     1     -33.979  16.823  -1.566  1.00 20.00     0.235 C 
HETATM    8  O10 UNL     1     -34.678  16.344  -0.679  1.00 20.00    -0.306 OA
ENDBRANCH   5   7
BRANCH   6   9
HETATM    9  C9  UNL     1     -34.406  14.774  -6.948  1.00 20.00     0.000 C 
HETATM   10  C8  UNL     1     -35.707  14.573  -7.653  1.00 20.00     0.005 C 
ENDBRANCH   6   9
TORSDOF 2
ENDMDL
MODEL 7
REMARK VINA RESULT:      -4.2     11.498     11.965
REMARK  2 active torsions:
REMARK  status: ('A' for Active; 'I' for Inactive)
REMARK    1  A    between atoms: C1_1  and  C6_6 
REMARK    2  A    between atoms: C7_7  and  C9_9 
ROOT
HETATM    1  C2  UNL     1     -34.508   5.363   3.527  1.00 20.00     0.012 C 
HETATM    2  C3  UNL     1     -33.500   6.717   5.405  1.00 20.00     0.012 C 
HETATM    3  C4  UNL     1     -33.438   5.889   2.572  1.00 20.00     0.005 C 
HETATM    4  C5  UNL     1     -32.430   7.245   4.453  1.00 20.00     0.005 C 
HETATM    5  C6  UNL     1     -34.002   5.346   4.965  1.00 20.00     0.047 C 
HETATM    6  C7  UNL     1     -32.926   7.271   3.000  1.00 20.00    -0.015 C 
ENDROOT
BRANCH   5   7
HETATM    7  C1  UNL     1     -35.170   4.975   5.858  1.00 20.00     0.235 C 
HETATM    8  O10 UNL     1     -35.354   3.843   6.296  1.00 20.00    -0.306 OA
ENDBRANCH   5   7
BRANCH   6   9
HETATM    9  C9  UNL     1     -31.823   7.753   2.061  1.00 20.00     0.000 C 
HETATM   10  C8  UNL     1     -32.209   9.012   1.356  1.00 20.00     0.005 C 
ENDBRANCH   6   9
TORSDOF 2
ENDMDL
MODEL 8
REMARK VINA RESULT:      -4.1      1.773      2.288
REMARK  2 active torsions:
REMARK  status: ('A' for Active; 'I' for Inactive)
REMARK    1  A    between atoms: C1_1  and  C6_6 
REMARK    2  A    between atoms: C7_7  and  C9_9 
ROOT
HETATM    1  C2  UNL     1     -34.168  16.141  -5.815  1.00 20.00     0.012 C 
HETATM    2  C3  UNL     1     -35.334  14.278  -4.573  1.00 20.00     0.012 C 
HETATM    3  C4  UNL     1     -33.526  16.610  -4.510  1.00 20.00     0.005 C 
HETATM    4  C5  UNL     1     -34.695  14.744  -3.267  1.00 20.00     0.005 C 
HETATM    5  C6  UNL     1     -34.471  14.647  -5.773  1.00 20.00     0.047 C 
HETATM    6  C7  UNL     1     -34.387  16.248  -3.292  1.00 20.00    -0.015 C 
ENDROOT
BRANCH   5   7
HETATM    7  C1  UNL     1     -35.252  14.302  -7.026  1.00 20.00     0.235 C 
HETATM    8  O10 UNL     1     -36.388  14.710  -7.249  1.00 20.00    -0.306 OA
ENDBRANCH   5   7
BRANCH   6   9
HETATM    9  C9  UNL     1     -33.702  16.681  -1.998  1.00 20.00     0.000 C 
HETATM   10  C8  UNL     1     -34.636  16.630  -0.835  1.00 20.00     0.005 C 
ENDBRANCH   6   9
TORSDOF 2
ENDMDL
MODEL 9
REMARK VINA RESULT:      -4.1     11.505     12.815
REMARK  2 active torsions:
REMARK  status: ('A' for Active; 'I' for Inactive)
REMARK    1  A    between atoms: C1_1  and  C6_6 
REMARK    2  A    between atoms: C7_7  and  C9_9 
ROOT
HETATM    1  C2  UNL     1     -40.881   4.017  -1.761  1.00 20.00     0.012 C 
HETATM    2  C3  UNL     1     -42.910   4.675  -3.111  1.00 20.00     0.012 C 
HETATM    3  C4  UNL     1     -40.965   5.334  -0.991  1.00 20.00     0.005 C 
HETATM    4  C5  UNL     1     -42.996   5.993  -2.345  1.00 20.00     0.005 C 
HETATM    5  C6  UNL     1     -42.253   3.588  -2.268  1.00 20.00     0.047 C 
HETATM    6  C7  UNL     1     -41.621   6.440  -1.830  1.00 20.00    -0.015 C 
ENDROOT
BRANCH   5   7
HETATM    7  C1  UNL     1     -42.055   2.374  -3.156  1.00 20.00     0.235 C 
HETATM    8  O10 UNL     1     -40.993   2.107  -3.709  1.00 20.00    -0.306 OA
ENDBRANCH   5   7
BRANCH   6   9
HETATM    9  C9  UNL     1     -41.740   7.730  -1.023  1.00 20.00     0.000 C 
HETATM   10  C8  UNL     1     -43.166   8.085  -0.758  1.00 20.00     0.005 C 
ENDBRANCH   6   9
TORSDOF 2
ENDMDL
