MODEL 1
REMARK VINA RESULT:      -4.6      0.000      0.000
REMARK  2 active torsions:
REMARK  status: ('A' for Active; 'I' for Inactive)
REMARK    1  A    between atoms: C3_3  and  C5_5 
REMARK    2  A    between atoms: C3_3  and  O11_11 
ROOT
HETATM    1  C1  UNL     1     -34.409  16.678  -0.943  1.00 20.00     0.012 C 
HETATM    2  C2  UNL     1     -34.843  16.096  -1.897  1.00 20.00    -0.111 C 
HETATM    3  C4  UNL     1     -35.363  15.400  -3.040  1.00 20.00     0.087 A 
HETATM    4  C5  UNL     1     -34.952  15.803  -4.437  1.00 20.00     0.111 A 
HETATM    5  C6  UNL     1     -34.472  14.483  -3.861  1.00 20.00    -0.019 A 
HETATM    6  C7  UNL     1     -35.097  13.223  -4.407  1.00 20.00     0.017 C 
HETATM    7  C8  UNL     1     -33.017  14.311  -3.493  1.00 20.00     0.017 C 
ENDROOT
BRANCH   4   8
HETATM    8  C3  UNL     1     -34.018  16.914  -4.671  1.00 20.00     0.264 C 
HETATM    9  O10 UNL     1     -32.894  16.779  -5.136  1.00 20.00    -0.265 OA
BRANCH   8  10
HETATM   10  O11 UNL     1     -34.601  18.087  -4.291  1.00 20.00    -0.326 OA
HETATM   11  C9  UNL     1     -33.695  19.142  -3.952  1.00 20.00     0.213 C 
ENDBRANCH   8  10
ENDBRANCH   4   8
TORSDOF 2
ENDMDL
MODEL 2
REMARK VINA RESULT:      -4.4      2.609      4.033
REMARK  2 active torsions:
REMARK  status: ('A' for Active; 'I' for Inactive)
REMARK    1  A    between atoms: C3_3  and  C5_5 
REMARK    2  A    between atoms: C3_3  and  O11_11 
ROOT
HETATM    1  C1  UNL     1     -34.376  15.034  -7.118  1.00 20.00     0.012 C 
HETATM    2  C2  UNL     1     -34.559  15.495  -6.026  1.00 20.00    -0.111 C 
HETATM    3  C4  UNL     1     -34.778  16.046  -4.719  1.00 20.00     0.087 A 
HETATM    4  C5  UNL     1     -35.619  15.307  -3.705  1.00 20.00     0.111 A 
HETATM    5  C6  UNL     1     -34.120  15.429  -3.497  1.00 20.00    -0.019 A 
HETATM    6  C7  UNL     1     -33.647  16.373  -2.418  1.00 20.00     0.017 C 
HETATM    7  C8  UNL     1     -33.242  14.208  -3.643  1.00 20.00     0.017 C 
ENDROOT
BRANCH   4   8
HETATM    8  C3  UNL     1     -36.240  14.013  -4.021  1.00 20.00     0.264 C 
HETATM    9  O10 UNL     1     -35.614  13.019  -4.367  1.00 20.00    -0.265 OA
BRANCH   8  10
HETATM   10  O11 UNL     1     -37.591  14.105  -3.868  1.00 20.00    -0.326 OA
HETATM   11  C9  UNL     1     -38.239  15.078  -4.694  1.00 20.00     0.213 C 
ENDBRANCH   8  10
ENDBRANCH   4   8
TORSDOF 2
ENDMDL
MODEL 3
REMARK VINA RESULT:      -4.3      0.796      1.551
REMARK  2 active torsions:
REMARK  status: ('A' for Active; 'I' for Inactive)
REMARK    1  A    between atoms: C3_3  and  C5_5 
REMARK    2  A    between atoms: C3_3  and  O11_11 
ROOT
HETATM    1  C1  UNL     1     -34.323  16.882  -0.820  1.00 20.00     0.012 C 
HETATM    2  C2  UNL     1     -34.764  16.232  -1.727  1.00 20.00    -0.111 C 
HETATM    3  C4  UNL     1     -35.291  15.454  -2.812  1.00 20.00     0.087 A 
HETATM    4  C5  UNL     1     -35.118  15.913  -4.241  1.00 20.00     0.111 A 
HETATM    5  C6  UNL     1     -34.363  14.694  -3.743  1.00 20.00    -0.019 A 
HETATM    6  C7  UNL     1     -34.831  13.345  -4.232  1.00 20.00     0.017 C 
HETATM    7  C8  UNL     1     -32.867  14.767  -3.549  1.00 20.00     0.017 C 
ENDROOT
BRANCH   4   8
HETATM    8  C3  UNL     1     -34.415  17.163  -4.564  1.00 20.00     0.264 C 
HETATM    9  O10 UNL     1     -34.520  18.196  -3.917  1.00 20.00    -0.265 OA
BRANCH   8  10
HETATM   10  O11 UNL     1     -33.647  16.980  -5.676  1.00 20.00    -0.326 OA
HETATM   11  C9  UNL     1     -34.359  16.600  -6.859  1.00 20.00     0.213 C 
ENDBRANCH   8  10
ENDBRANCH   4   8
TORSDOF 2
ENDMDL
MODEL 4
REMARK VINA RESULT:      -4.3      0.829      2.751
REMARK  2 active torsions:
REMARK  status: ('A' for Active; 'I' for Inactive)
REMARK    1  A    between atoms: C3_3  and  C5_5 
REMARK    2  A    between atoms: C3_3  and  O11_11 
ROOT
HETATM    1  C1  UNL     1     -34.796  13.265  -4.619  1.00 20.00     0.012 C 
HETATM    2  C2  UNL     1     -34.382  14.062  -3.823  1.00 20.00    -0.111 C 
HETATM    3  C4  UNL     1     -33.887  15.016  -2.871  1.00 20.00     0.087 A 
HETATM    4  C5  UNL     1     -33.566  16.429  -3.296  1.00 20.00     0.111 A 
HETATM    5  C6  UNL     1     -34.761  16.164  -2.398  1.00 20.00    -0.019 A 
HETATM    6  C7  UNL     1     -34.641  16.572  -0.950  1.00 20.00     0.017 C 
HETATM    7  C8  UNL     1     -36.160  16.328  -2.945  1.00 20.00     0.017 C 
ENDROOT
BRANCH   4   8
HETATM    8  C3  UNL     1     -33.744  16.870  -4.687  1.00 20.00     0.264 C 
HETATM    9  O10 UNL     1     -33.394  16.219  -5.663  1.00 20.00    -0.265 OA
BRANCH   8  10
HETATM   10  O11 UNL     1     -34.346  18.093  -4.705  1.00 20.00    -0.326 OA
HETATM   11  C9  UNL     1     -33.554  19.176  -4.207  1.00 20.00     0.213 C 
ENDBRANCH   8  10
ENDBRANCH   4   8
TORSDOF 2
ENDMDL
MODEL 5
REMARK VINA RESULT:      -4.2      1.500      3.645
REMARK  2 active torsions:
REMARK  status: ('A' for Active; 'I' for Inactive)
REMARK    1  A    between atoms: C3_3  and  C5_5 
REMARK    2  A    between atoms: C3_3  and  O11_11 
ROOT
HETATM    1  C1  UNL     1     -36.323  16.852  -5.192  1.00 20.00     0.012 C 
HETATM    2  C2  UNL     1     -35.993  16.474  -4.102  1.00 20.00    -0.111 C 
HETATM    3  C4  UNL     1     -35.598  16.022  -2.798  1.00 20.00     0.087 A 
HETATM    4  C5  UNL     1     -34.280  15.310  -2.599  1.00 20.00     0.111 A 
HETATM    5  C6  UNL     1     -34.472  16.712  -2.047  1.00 20.00    -0.019 A 
HETATM    6  C7  UNL     1     -34.624  16.851  -0.552  1.00 20.00     0.017 C 
HETATM    7  C8  UNL     1     -33.738  17.872  -2.678  1.00 20.00     0.017 C 
ENDROOT
BRANCH   4   8
HETATM    8  C3  UNL     1     -33.369  15.055  -3.724  1.00 20.00     0.264 C 
HETATM    9  O10 UNL     1     -32.743  15.927  -4.311  1.00 20.00    -0.265 OA
BRANCH   8  10
HETATM   10  O11 UNL     1     -33.342  13.719  -3.995  1.00 20.00    -0.326 OA
HETATM   11  C9  UNL     1     -34.409  13.236  -4.818  1.00 20.00     0.213 C 
ENDBRANCH   8  10
ENDBRANCH   4   8
TORSDOF 2
ENDMDL
MODEL 6
REMARK VINA RESULT:      -4.2      1.643      3.138
REMARK  2 active torsions:
REMARK  status: ('A' for Active; 'I' for Inactive)
REMARK    1  A    between atoms: C3_3  and  C5_5 
REMARK    2  A    between atoms: C3_3  and  O11_11 
ROOT
HETATM    1  C1  UNL     1     -33.642  17.989  -5.654  1.00 20.00     0.012 C 
HETATM    2  C2  UNL     1     -33.488  16.934  -5.104  1.00 20.00    -0.111 C 
HETATM    3  C4  UNL     1     -33.304  15.671  -4.446  1.00 20.00     0.087 A 
HETATM    4  C5  UNL     1     -33.513  15.544  -2.955  1.00 20.00     0.111 A 
HETATM    5  C6  UNL     1     -34.496  14.894  -3.913  1.00 20.00    -0.019 A 
HETATM    6  C7  UNL     1     -34.448  13.390  -4.035  1.00 20.00     0.017 C 
HETATM    7  C8  UNL     1     -35.891  15.456  -4.051  1.00 20.00     0.017 C 
ENDROOT
BRANCH   4   8
HETATM    8  C3  UNL     1     -33.904  16.701  -2.135  1.00 20.00     0.264 C 
HETATM    9  O10 UNL     1     -33.558  17.852  -2.365  1.00 20.00    -0.265 OA
BRANCH   8  10
HETATM   10  O11 UNL     1     -34.693  16.284  -1.105  1.00 20.00    -0.326 OA
HETATM   11  C9  UNL     1     -34.821  17.203  -0.016  1.00 20.00     0.213 C 
ENDBRANCH   8  10
ENDBRANCH   4   8
TORSDOF 2
ENDMDL
MODEL 7
REMARK VINA RESULT:      -4.0      2.014      3.575
REMARK  2 active torsions:
REMARK  status: ('A' for Active; 'I' for Inactive)
REMARK    1  A    between atoms: C3_3  and  C5_5 
REMARK    2  A    between atoms: C3_3  and  O11_11 
ROOT
HETATM    1  C1  UNL     1     -34.630  16.666  -0.660  1.00 20.00     0.012 C 
HETATM    2  C2  UNL     1     -34.214  16.521  -1.776  1.00 20.00    -0.111 C 
HETATM    3  C4  UNL     1     -33.716  16.346  -3.111  1.00 20.00     0.087 A 
HETATM    4  C5  UNL     1     -34.483  15.516  -4.114  1.00 20.00     0.111 A 
HETATM    5  C6  UNL     1     -34.399  17.022  -4.288  1.00 20.00    -0.019 A 
HETATM    6  C7  UNL     1     -33.513  17.541  -5.394  1.00 20.00     0.017 C 
HETATM    7  C8  UNL     1     -35.629  17.871  -4.065  1.00 20.00     0.017 C 
ENDROOT
BRANCH   4   8
HETATM    8  C3  UNL     1     -35.750  14.861  -3.758  1.00 20.00     0.264 C 
HETATM    9  O10 UNL     1     -36.693  15.435  -3.229  1.00 20.00    -0.265 OA
BRANCH   8  10
HETATM   10  O11 UNL     1     -35.698  13.544  -4.107  1.00 20.00    -0.326 OA
HETATM   11  C9  UNL     1     -34.548  13.153  -4.863  1.00 20.00     0.213 C 
ENDBRANCH   8  10
ENDBRANCH   4   8
TORSDOF 2
ENDMDL
MODEL 8
REMARK VINA RESULT:      -4.0      2.352      3.271
REMARK  2 active torsions:
REMARK  status: ('A' for Active; 'I' for Inactive)
REMARK    1  A    between atoms: C3_3  and  C5_5 
REMARK    2  A    between atoms: C3_3  and  O11_11 
ROOT
HETATM    1  C1  UNL     1     -36.068  17.834  -2.526  1.00 20.00     0.012 C 
HETATM    2  C2  UNL     1     -35.437  16.815  -2.567  1.00 20.00    -0.111 C 
HETATM    3  C4  UNL     1     -34.681  15.595  -2.616  1.00 20.00     0.087 A 
HETATM    4  C5  UNL     1     -35.094  14.473  -3.538  1.00 20.00     0.111 A 
HETATM    5  C6  UNL     1     -33.828  15.260  -3.827  1.00 20.00    -0.019 A 
HETATM    6  C7  UNL     1     -32.511  14.568  -3.572  1.00 20.00     0.017 C 
HETATM    7  C8  UNL     1     -33.784  16.201  -5.008  1.00 20.00     0.017 C 
ENDROOT
BRANCH   4   8
HETATM    8  C3  UNL     1     -36.275  14.589  -4.406  1.00 20.00     0.264 C 
HETATM    9  O10 UNL     1     -36.249  15.041  -5.543  1.00 20.00    -0.265 OA
BRANCH   8  10
HETATM   10  O11 UNL     1     -37.373  14.121  -3.747  1.00 20.00    -0.326 OA
HETATM   11  C9  UNL     1     -38.540  14.946  -3.832  1.00 20.00     0.213 C 
ENDBRANCH   8  10
ENDBRANCH   4   8
TORSDOF 2
ENDMDL
MODEL 9
REMARK VINA RESULT:      -4.0      2.691      3.995
REMARK  2 active torsions:
REMARK  status: ('A' for Active; 'I' for Inactive)
REMARK    1  A    between atoms: C3_3  and  C5_5 
REMARK    2  A    between atoms: C3_3  and  O11_11 
ROOT
HETATM    1  C1  UNL     1     -35.550  14.437  -7.898  1.00 20.00     0.012 C 
HETATM    2  C2  UNL     1     -35.112  14.927  -6.895  1.00 20.00    -0.111 C 
HETATM    3  C4  UNL     1     -34.587  15.514  -5.694  1.00 20.00     0.087 A 
HETATM    4  C5  UNL     1     -35.438  15.605  -4.449  1.00 20.00     0.111 A 
HETATM    5  C6  UNL     1     -34.257  14.651  -4.489  1.00 20.00    -0.019 A 
HETATM    6  C7  UNL     1     -33.038  15.028  -3.684  1.00 20.00     0.017 C 
HETATM    7  C8  UNL     1     -34.500  13.160  -4.535  1.00 20.00     0.017 C 
ENDROOT
BRANCH   4   8
HETATM    8  C3  UNL     1     -36.820  15.103  -4.427  1.00 20.00     0.264 C 
HETATM    9  O10 UNL     1     -37.175  14.099  -3.824  1.00 20.00    -0.265 OA
BRANCH   8  10
HETATM   10  O11 UNL     1     -37.615  15.923  -5.171  1.00 20.00    -0.326 OA
HETATM   11  C9  UNL     1     -37.745  17.262  -4.685  1.00 20.00     0.213 C 
ENDBRANCH   8  10
ENDBRANCH   4   8
TORSDOF 2
ENDMDL
