MODEL 1
REMARK VINA RESULT:      -4.5      0.000      0.000
REMARK  3 active torsions:
REMARK  status: ('A' for Active; 'I' for Inactive)
REMARK    1  A    between atoms: C1_1  and  C8_8 
REMARK    2  A    between atoms: C8_8  and  C9_9 
REMARK    3  A    between atoms: C9_9  and  C10_10 
ROOT
HETATM    1  C8  UNL     1     -33.662  16.148  -2.659  1.00 20.00     0.055 C 
ENDROOT
BRANCH   1   2
HETATM    2  C1  UNL     1     -34.158  15.226  -3.724  1.00 20.00     0.006 C 
HETATM    3  C2  UNL     1     -33.742  13.790  -3.744  1.00 20.00     0.056 C 
HETATM    4  C3  UNL     1     -34.809  13.243  -4.662  1.00 20.00     0.027 C 
HETATM    5  C4  UNL     1     -35.141  14.439  -5.537  1.00 20.00     0.149 C 
HETATM    6  N11 UNL     1     -34.931  15.629  -4.688  1.00 20.00    -0.298 NA
ENDBRANCH   1   2
BRANCH   1   7
HETATM    7  C9  UNL     1     -34.668  16.254  -1.509  1.00 20.00     0.014 C 
BRANCH   7   8
HETATM    8  C10 UNL     1     -34.629  17.578  -0.701  1.00 20.00    -0.051 C 
HETATM    9  C5  UNL     1     -33.212  18.174  -0.676  1.00 20.00     0.014 C 
HETATM   10  C6  UNL     1     -35.115  17.365   0.742  1.00 20.00     0.014 C 
HETATM   11  C7  UNL     1     -35.570  18.588  -1.388  1.00 20.00     0.014 C 
ENDBRANCH   7   8
ENDBRANCH   1   7
TORSDOF 3
ENDMDL
MODEL 2
REMARK VINA RESULT:      -4.5      0.043      1.317
REMARK  3 active torsions:
REMARK  status: ('A' for Active; 'I' for Inactive)
REMARK    1  A    between atoms: C1_1  and  C8_8 
REMARK    2  A    between atoms: C8_8  and  C9_9 
REMARK    3  A    between atoms: C9_9  and  C10_10 
ROOT
HETATM    1  C8  UNL     1     -33.669  16.148  -2.635  1.00 20.00     0.055 C 
ENDROOT
BRANCH   1   2
HETATM    2  C1  UNL     1     -34.164  15.227  -3.701  1.00 20.00     0.006 C 
HETATM    3  C2  UNL     1     -33.736  13.794  -3.732  1.00 20.00     0.056 C 
HETATM    4  C3  UNL     1     -34.803  13.243  -4.646  1.00 20.00     0.027 C 
HETATM    5  C4  UNL     1     -35.152  14.441  -5.512  1.00 20.00     0.149 C 
HETATM    6  N11 UNL     1     -34.947  15.628  -4.658  1.00 20.00    -0.298 NA
ENDBRANCH   1   2
BRANCH   1   7
HETATM    7  C9  UNL     1     -34.683  16.261  -1.492  1.00 20.00     0.014 C 
BRANCH   7   8
HETATM    8  C10 UNL     1     -34.652  17.593  -0.696  1.00 20.00    -0.051 C 
HETATM    9  C5  UNL     1     -35.131  17.388   0.751  1.00 20.00     0.014 C 
HETATM   10  C6  UNL     1     -35.523  18.666  -1.371  1.00 20.00     0.014 C 
HETATM   11  C7  UNL     1     -33.196  18.098  -0.661  1.00 20.00     0.014 C 
ENDBRANCH   7   8
ENDBRANCH   1   7
TORSDOF 3
ENDMDL
MODEL 3
REMARK VINA RESULT:      -4.4      1.830      5.264
REMARK  3 active torsions:
REMARK  status: ('A' for Active; 'I' for Inactive)
REMARK    1  A    between atoms: C1_1  and  C8_8 
REMARK    2  A    between atoms: C8_8  and  C9_9 
REMARK    3  A    between atoms: C9_9  and  C10_10 
ROOT
HETATM    1  C8  UNL     1     -34.722  16.185  -1.513  1.00 20.00     0.055 C 
ENDROOT
BRANCH   1   2
HETATM    2  C1  UNL     1     -34.293  17.241  -0.549  1.00 20.00     0.006 C 
HETATM    3  C2  UNL     1     -35.120  17.555   0.657  1.00 20.00     0.056 C 
HETATM    4  C3  UNL     1     -34.087  18.295   1.472  1.00 20.00     0.027 C 
HETATM    5  C4  UNL     1     -33.191  18.899   0.405  1.00 20.00     0.149 C 
HETATM    6  N11 UNL     1     -33.219  17.952  -0.728  1.00 20.00    -0.298 NA
ENDBRANCH   1   2
BRANCH   1   7
HETATM    7  C9  UNL     1     -33.746  16.084  -2.689  1.00 20.00     0.014 C 
BRANCH   7   8
HETATM    8  C10 UNL     1     -34.152  15.098  -3.817  1.00 20.00    -0.051 C 
HETATM    9  C5  UNL     1     -33.343  13.793  -3.733  1.00 20.00     0.014 C 
HETATM   10  C6  UNL     1     -33.953  15.728  -5.206  1.00 20.00     0.014 C 
HETATM   11  C7  UNL     1     -35.646  14.759  -3.644  1.00 20.00     0.014 C 
ENDBRANCH   7   8
ENDBRANCH   1   7
TORSDOF 3
ENDMDL
MODEL 4
REMARK VINA RESULT:      -4.3      1.444      4.968
REMARK  3 active torsions:
REMARK  status: ('A' for Active; 'I' for Inactive)
REMARK    1  A    between atoms: C1_1  and  C8_8 
REMARK    2  A    between atoms: C8_8  and  C9_9 
REMARK    3  A    between atoms: C9_9  and  C10_10 
ROOT
HETATM    1  C8  UNL     1     -33.174  15.766  -4.087  1.00 20.00     0.055 C 
ENDROOT
BRANCH   1   2
HETATM    2  C1  UNL     1     -33.809  16.521  -2.965  1.00 20.00     0.006 C 
HETATM    3  C2  UNL     1     -34.702  15.826  -1.987  1.00 20.00     0.056 C 
HETATM    4  C3  UNL     1     -34.694  16.854  -0.882  1.00 20.00     0.027 C 
HETATM    5  C4  UNL     1     -34.473  18.153  -1.635  1.00 20.00     0.149 C 
HETATM    6  N11 UNL     1     -33.649  17.801  -2.810  1.00 20.00    -0.298 NA
ENDBRANCH   1   2
BRANCH   1   7
HETATM    7  C9  UNL     1     -33.950  15.966  -5.393  1.00 20.00     0.014 C 
BRANCH   7   8
HETATM    8  C10 UNL     1     -34.925  14.820  -5.778  1.00 20.00    -0.051 C 
HETATM    9  C5  UNL     1     -34.557  13.512  -5.058  1.00 20.00     0.014 C 
HETATM   10  C6  UNL     1     -34.929  14.579  -7.296  1.00 20.00     0.014 C 
HETATM   11  C7  UNL     1     -36.346  15.233  -5.345  1.00 20.00     0.014 C 
ENDBRANCH   7   8
ENDBRANCH   1   7
TORSDOF 3
ENDMDL
MODEL 5
REMARK VINA RESULT:      -4.3      1.448      4.966
REMARK  3 active torsions:
REMARK  status: ('A' for Active; 'I' for Inactive)
REMARK    1  A    between atoms: C1_1  and  C8_8 
REMARK    2  A    between atoms: C8_8  and  C9_9 
REMARK    3  A    between atoms: C9_9  and  C10_10 
ROOT
HETATM    1  C8  UNL     1     -33.209  15.815  -4.129  1.00 20.00     0.055 C 
ENDROOT
BRANCH   1   2
HETATM    2  C1  UNL     1     -33.825  16.546  -2.982  1.00 20.00     0.006 C 
HETATM    3  C2  UNL     1     -34.699  15.829  -2.002  1.00 20.00     0.056 C 
HETATM    4  C3  UNL     1     -34.674  16.835  -0.877  1.00 20.00     0.027 C 
HETATM    5  C4  UNL     1     -34.468  18.150  -1.608  1.00 20.00     0.149 C 
HETATM    6  N11 UNL     1     -33.665  17.823  -2.804  1.00 20.00    -0.298 NA
ENDBRANCH   1   2
BRANCH   1   7
HETATM    7  C9  UNL     1     -34.037  15.996  -5.405  1.00 20.00     0.014 C 
BRANCH   7   8
HETATM    8  C10 UNL     1     -34.998  14.829  -5.755  1.00 20.00    -0.051 C 
HETATM    9  C5  UNL     1     -35.008  14.549  -7.267  1.00 20.00     0.014 C 
HETATM   10  C6  UNL     1     -36.432  15.128  -5.286  1.00 20.00     0.014 C 
HETATM   11  C7  UNL     1     -34.501  13.563  -5.028  1.00 20.00     0.014 C 
ENDBRANCH   7   8
ENDBRANCH   1   7
TORSDOF 3
ENDMDL
MODEL 6
REMARK VINA RESULT:      -4.3      1.630      4.899
REMARK  3 active torsions:
REMARK  status: ('A' for Active; 'I' for Inactive)
REMARK    1  A    between atoms: C1_1  and  C8_8 
REMARK    2  A    between atoms: C8_8  and  C9_9 
REMARK    3  A    between atoms: C9_9  and  C10_10 
ROOT
HETATM    1  C8  UNL     1     -33.567  16.314  -3.210  1.00 20.00     0.055 C 
ENDROOT
BRANCH   1   2
HETATM    2  C1  UNL     1     -33.897  17.170  -2.032  1.00 20.00     0.006 C 
HETATM    3  C2  UNL     1     -34.680  16.617  -0.883  1.00 20.00     0.056 C 
HETATM    4  C3  UNL     1     -34.353  17.663   0.156  1.00 20.00     0.027 C 
HETATM    5  C4  UNL     1     -34.114  18.905  -0.684  1.00 20.00     0.149 C 
HETATM    6  N11 UNL     1     -33.559  18.423  -1.966  1.00 20.00    -0.298 NA
ENDBRANCH   1   2
BRANCH   1   7
HETATM    7  C9  UNL     1     -34.280  14.961  -3.124  1.00 20.00     0.014 C 
BRANCH   7   8
HETATM    8  C10 UNL     1     -35.132  14.570  -4.362  1.00 20.00    -0.051 C 
HETATM    9  C5  UNL     1     -34.862  15.516  -5.544  1.00 20.00     0.014 C 
HETATM   10  C6  UNL     1     -36.634  14.587  -4.032  1.00 20.00     0.014 C 
HETATM   11  C7  UNL     1     -34.741  13.140  -4.782  1.00 20.00     0.014 C 
ENDBRANCH   7   8
ENDBRANCH   1   7
TORSDOF 3
ENDMDL
MODEL 7
REMARK VINA RESULT:      -4.1      1.709      4.911
REMARK  3 active torsions:
REMARK  status: ('A' for Active; 'I' for Inactive)
REMARK    1  A    between atoms: C1_1  and  C8_8 
REMARK    2  A    between atoms: C8_8  and  C9_9 
REMARK    3  A    between atoms: C9_9  and  C10_10 
ROOT
HETATM    1  C8  UNL     1     -35.716  16.506  -3.303  1.00 20.00     0.055 C 
ENDROOT
BRANCH   1   2
HETATM    2  C1  UNL     1     -35.498  17.147  -1.972  1.00 20.00     0.006 C 
HETATM    3  C2  UNL     1     -34.620  16.499  -0.948  1.00 20.00     0.056 C 
HETATM    4  C3  UNL     1     -34.383  17.688  -0.049  1.00 20.00     0.027 C 
HETATM    5  C4  UNL     1     -35.644  18.511  -0.242  1.00 20.00     0.149 C 
HETATM    6  N11 UNL     1     -36.080  18.258  -1.631  1.00 20.00    -0.298 NA
ENDBRANCH   1   2
BRANCH   1   7
HETATM    7  C9  UNL     1     -35.272  15.040  -3.288  1.00 20.00     0.014 C 
BRANCH   7   8
HETATM    8  C10 UNL     1     -34.155  14.666  -4.298  1.00 20.00    -0.051 C 
HETATM    9  C5  UNL     1     -32.767  14.718  -3.638  1.00 20.00     0.014 C 
HETATM   10  C6  UNL     1     -34.171  15.602  -5.518  1.00 20.00     0.014 C 
HETATM   11  C7  UNL     1     -34.410  13.225  -4.784  1.00 20.00     0.014 C 
ENDBRANCH   7   8
ENDBRANCH   1   7
TORSDOF 3
ENDMDL
MODEL 8
REMARK VINA RESULT:      -4.0     10.656     11.817
REMARK  3 active torsions:
REMARK  status: ('A' for Active; 'I' for Inactive)
REMARK    1  A    between atoms: C1_1  and  C8_8 
REMARK    2  A    between atoms: C8_8  and  C9_9 
REMARK    3  A    between atoms: C9_9  and  C10_10 
ROOT
HETATM    1  C8  UNL     1     -32.874   6.121   3.161  1.00 20.00     0.055 C 
ENDROOT
BRANCH   1   2
HETATM    2  C1  UNL     1     -33.701   5.858   4.377  1.00 20.00     0.006 C 
HETATM    3  C2  UNL     1     -34.921   4.996   4.297  1.00 20.00     0.056 C 
HETATM    4  C3  UNL     1     -35.098   4.694   5.766  1.00 20.00     0.027 C 
HETATM    5  C4  UNL     1     -34.501   5.920   6.433  1.00 20.00     0.149 C 
HETATM    6  N11 UNL     1     -33.426   6.385   5.532  1.00 20.00    -0.298 NA
ENDBRANCH   1   2
BRANCH   1   7
HETATM    7  C9  UNL     1     -33.339   7.392   2.444  1.00 20.00     0.014 C 
BRANCH   7   8
HETATM    8  C10 UNL     1     -32.235   8.445   2.160  1.00 20.00    -0.051 C 
HETATM    9  C5  UNL     1     -32.794   9.875   2.246  1.00 20.00     0.014 C 
HETATM   10  C6  UNL     1     -31.604   8.231   0.774  1.00 20.00     0.014 C 
HETATM   11  C7  UNL     1     -31.133   8.287   3.227  1.00 20.00     0.014 C 
ENDBRANCH   7   8
ENDBRANCH   1   7
TORSDOF 3
ENDMDL
MODEL 9
REMARK VINA RESULT:      -4.0     12.373     15.032
REMARK  3 active torsions:
REMARK  status: ('A' for Active; 'I' for Inactive)
REMARK    1  A    between atoms: C1_1  and  C8_8 
REMARK    2  A    between atoms: C8_8  and  C9_9 
REMARK    3  A    between atoms: C9_9  and  C10_10 
ROOT
HETATM    1  C8  UNL     1     -42.477   4.382  -2.781  1.00 20.00     0.055 C 
ENDROOT
BRANCH   1   2
HETATM    2  C1  UNL     1     -41.886   5.366  -1.825  1.00 20.00     0.006 C 
HETATM    3  C2  UNL     1     -41.731   5.023  -0.377  1.00 20.00     0.056 C 
HETATM    4  C3  UNL     1     -40.734   6.087   0.016  1.00 20.00     0.027 C 
HETATM    5  C4  UNL     1     -41.047   7.213  -0.954  1.00 20.00     0.149 C 
HETATM    6  N11 UNL     1     -41.520   6.558  -2.191  1.00 20.00    -0.298 NA
ENDBRANCH   1   2
BRANCH   1   7
HETATM    7  C9  UNL     1     -42.149   2.945  -2.365  1.00 20.00     0.014 C 
BRANCH   7   8
HETATM    8  C10 UNL     1     -42.470   1.851  -3.418  1.00 20.00    -0.051 C 
HETATM    9  C5  UNL     1     -43.189   0.653  -2.774  1.00 20.00     0.014 C 
HETATM   10  C6  UNL     1     -41.191   1.358  -4.116  1.00 20.00     0.014 C 
HETATM   11  C7  UNL     1     -43.401   2.465  -4.481  1.00 20.00     0.014 C 
ENDBRANCH   7   8
ENDBRANCH   1   7
TORSDOF 3
ENDMDL
