MODEL 1
REMARK VINA RESULT:      -5.3      0.000      0.000
REMARK  1 active torsions:
REMARK  status: ('A' for Active; 'I' for Inactive)
REMARK    1  A    between atoms: C8_8  and  O11_11 
ROOT
HETATM    1  C1  UNL     1     -33.484  15.514  -3.390  1.00 20.00     0.005 C 
HETATM    2  C2  UNL     1     -33.763  14.200  -3.452  1.00 20.00     0.005 C 
HETATM    3  C3  UNL     1     -33.637  16.416  -4.528  1.00 20.00    -0.063 C 
HETATM    4  C4  UNL     1     -33.507  17.743  -4.387  1.00 20.00     0.019 C 
HETATM    5  C5  UNL     1     -35.195  15.403  -7.879  1.00 20.00     0.001 C 
HETATM    6  C6  UNL     1     -34.608  16.498  -6.976  1.00 20.00     0.010 C 
HETATM    7  C7  UNL     1     -35.188  14.106  -7.057  1.00 20.00     0.008 C 
HETATM    8  C8  UNL     1     -34.317  13.526  -4.684  1.00 20.00     0.145 C 
HETATM    9  C9  UNL     1     -33.924  15.731  -5.844  1.00 20.00     0.024 C 
HETATM   10  C10 UNL     1     -34.902  14.570  -5.634  1.00 20.00     0.026 C 
ENDROOT
BRANCH   8  11
HETATM   11  O11 UNL     1     -35.342  12.621  -4.287  1.00 20.00    -0.391 OA
HETATM   12  H25 UNL     1     -34.914  11.932  -3.755  1.00 20.00     0.210 HD
ENDBRANCH   8  11
TORSDOF 1
ENDMDL
MODEL 2
REMARK VINA RESULT:      -5.0      2.622      4.102
REMARK  1 active torsions:
REMARK  status: ('A' for Active; 'I' for Inactive)
REMARK    1  A    between atoms: C8_8  and  O11_11 
ROOT
HETATM    1  C1  UNL     1     -35.068  13.580  -4.351  1.00 20.00     0.005 C 
HETATM    2  C2  UNL     1     -33.736  13.597  -4.161  1.00 20.00     0.005 C 
HETATM    3  C3  UNL     1     -35.971  14.557  -3.750  1.00 20.00    -0.063 C 
HETATM    4  C4  UNL     1     -37.267  14.609  -4.090  1.00 20.00     0.019 C 
HETATM    5  C5  UNL     1     -34.809  17.629  -1.775  1.00 20.00     0.001 C 
HETATM    6  C6  UNL     1     -35.956  16.820  -2.400  1.00 20.00     0.010 C 
HETATM    7  C7  UNL     1     -33.510  16.888  -2.121  1.00 20.00     0.008 C 
HETATM    8  C8  UNL     1     -33.026  14.658  -3.355  1.00 20.00     0.145 C 
HETATM    9  C9  UNL     1     -35.331  15.462  -2.722  1.00 20.00     0.024 C 
HETATM   10  C10 UNL     1     -33.930  15.878  -3.182  1.00 20.00     0.026 C 
ENDROOT
BRANCH   8  11
HETATM   11  O11 UNL     1     -31.843  15.042  -4.048  1.00 20.00    -0.391 OA
HETATM   12  H25 UNL     1     -32.045  14.989  -4.995  1.00 20.00     0.210 HD
ENDBRANCH   8  11
TORSDOF 1
ENDMDL
MODEL 3
REMARK VINA RESULT:      -4.9      2.211      2.792
REMARK  1 active torsions:
REMARK  status: ('A' for Active; 'I' for Inactive)
REMARK    1  A    between atoms: C8_8  and  O11_11 
ROOT
HETATM    1  C1  UNL     1     -33.218  15.154  -3.165  1.00 20.00     0.005 C 
HETATM    2  C2  UNL     1     -33.608  14.088  -3.887  1.00 20.00     0.005 C 
HETATM    3  C3  UNL     1     -34.115  16.253  -2.818  1.00 20.00    -0.063 C 
HETATM    4  C4  UNL     1     -33.740  17.214  -1.963  1.00 20.00     0.019 C 
HETATM    5  C5  UNL     1     -37.879  16.265  -3.541  1.00 20.00     0.001 C 
HETATM    6  C6  UNL     1     -36.657  16.942  -2.901  1.00 20.00     0.010 C 
HETATM    7  C7  UNL     1     -37.378  14.951  -4.158  1.00 20.00     0.008 C 
HETATM    8  C8  UNL     1     -35.024  13.884  -4.369  1.00 20.00     0.145 C 
HETATM    9  C9  UNL     1     -35.457  16.216  -3.512  1.00 20.00     0.024 C 
HETATM   10  C10 UNL     1     -35.980  14.778  -3.580  1.00 20.00     0.026 C 
ENDROOT
BRANCH   8  11
HETATM   11  O11 UNL     1     -35.381  12.520  -4.173  1.00 20.00    -0.391 OA
HETATM   12  H25 UNL     1     -36.096  12.511  -3.517  1.00 20.00     0.210 HD
ENDBRANCH   8  11
TORSDOF 1
ENDMDL
MODEL 4
REMARK VINA RESULT:      -4.9     12.080     13.812
REMARK  1 active torsions:
REMARK  status: ('A' for Active; 'I' for Inactive)
REMARK    1  A    between atoms: C8_8  and  O11_11 
ROOT
HETATM    1  C1  UNL     1     -33.681   5.623   2.507  1.00 20.00     0.005 C 
HETATM    2  C2  UNL     1     -34.682   4.852   2.968  1.00 20.00     0.005 C 
HETATM    3  C3  UNL     1     -32.999   6.619   3.330  1.00 20.00    -0.063 C 
HETATM    4  C4  UNL     1     -31.902   7.252   2.890  1.00 20.00     0.019 C 
HETATM    5  C5  UNL     1     -33.600   7.080   7.086  1.00 20.00     0.001 C 
HETATM    6  C6  UNL     1     -32.813   7.456   5.821  1.00 20.00     0.010 C 
HETATM    7  C7  UNL     1     -34.595   5.986   6.675  1.00 20.00     0.008 C 
HETATM    8  C8  UNL     1     -35.171   4.891   4.395  1.00 20.00     0.145 C 
HETATM    9  C9  UNL     1     -33.641   6.877   4.673  1.00 20.00     0.024 C 
HETATM   10  C10 UNL     1     -34.128   5.561   5.289  1.00 20.00     0.026 C 
ENDROOT
BRANCH   8  11
HETATM   11  O11 UNL     1     -35.387   3.556   4.840  1.00 20.00    -0.391 OA
HETATM   12  H25 UNL     1     -36.335   3.477   5.031  1.00 20.00     0.210 HD
ENDBRANCH   8  11
TORSDOF 1
ENDMDL
MODEL 5
REMARK VINA RESULT:      -4.6      1.033      3.102
REMARK  1 active torsions:
REMARK  status: ('A' for Active; 'I' for Inactive)
REMARK    1  A    between atoms: C8_8  and  O11_11 
ROOT
HETATM    1  C1  UNL     1     -34.858  15.398  -7.057  1.00 20.00     0.005 C 
HETATM    2  C2  UNL     1     -35.193  14.216  -6.509  1.00 20.00     0.005 C 
HETATM    3  C3  UNL     1     -34.452  16.557  -6.265  1.00 20.00    -0.063 C 
HETATM    4  C4  UNL     1     -33.970  17.664  -6.848  1.00 20.00     0.019 C 
HETATM    5  C5  UNL     1     -33.878  16.478  -2.477  1.00 20.00     0.001 C 
HETATM    6  C6  UNL     1     -33.821  17.251  -3.803  1.00 20.00     0.010 C 
HETATM    7  C7  UNL     1     -34.362  15.060  -2.817  1.00 20.00     0.008 C 
HETATM    8  C8  UNL     1     -35.130  13.941  -5.026  1.00 20.00     0.145 C 
HETATM    9  C9  UNL     1     -34.642  16.402  -4.774  1.00 20.00     0.024 C 
HETATM   10  C10 UNL     1     -34.256  14.986  -4.335  1.00 20.00     0.026 C 
ENDROOT
BRANCH   8  11
HETATM   11  O11 UNL     1     -34.569  12.648  -4.825  1.00 20.00    -0.391 OA
HETATM   12  H25 UNL     1     -33.841  12.559  -5.461  1.00 20.00     0.210 HD
ENDBRANCH   8  11
TORSDOF 1
ENDMDL
MODEL 6
REMARK VINA RESULT:      -4.6      2.032      2.690
REMARK  1 active torsions:
REMARK  status: ('A' for Active; 'I' for Inactive)
REMARK    1  A    between atoms: C8_8  and  O11_11 
ROOT
HETATM    1  C1  UNL     1     -35.395  15.558  -2.849  1.00 20.00     0.005 C 
HETATM    2  C2  UNL     1     -34.108  15.886  -3.061  1.00 20.00     0.005 C 
HETATM    3  C3  UNL     1     -36.342  15.305  -3.932  1.00 20.00    -0.063 C 
HETATM    4  C4  UNL     1     -37.569  14.822  -3.686  1.00 20.00     0.019 C 
HETATM    5  C5  UNL     1     -35.377  15.149  -7.638  1.00 20.00     0.001 C 
HETATM    6  C6  UNL     1     -36.446  14.988  -6.546  1.00 20.00     0.010 C 
HETATM    7  C7  UNL     1     -34.070  15.515  -6.921  1.00 20.00     0.008 C 
HETATM    8  C8  UNL     1     -33.489  15.972  -4.435  1.00 20.00     0.145 C 
HETATM    9  C9  UNL     1     -35.831  15.650  -5.312  1.00 20.00     0.024 C 
HETATM   10  C10 UNL     1     -34.362  15.238  -5.451  1.00 20.00     0.026 C 
ENDROOT
BRANCH   8  11
HETATM   11  O11 UNL     1     -32.201  15.368  -4.394  1.00 20.00    -0.391 OA
HETATM   12  H25 UNL     1     -31.664  15.896  -3.782  1.00 20.00     0.210 HD
ENDBRANCH   8  11
TORSDOF 1
ENDMDL
MODEL 7
REMARK VINA RESULT:      -4.6      1.486      3.093
REMARK  1 active torsions:
REMARK  status: ('A' for Active; 'I' for Inactive)
REMARK    1  A    between atoms: C8_8  and  O11_11 
ROOT
HETATM    1  C1  UNL     1     -34.834  13.505  -5.685  1.00 20.00     0.005 C 
HETATM    2  C2  UNL     1     -34.133  13.686  -4.551  1.00 20.00     0.005 C 
HETATM    3  C3  UNL     1     -35.185  14.598  -6.588  1.00 20.00    -0.063 C 
HETATM    4  C4  UNL     1     -35.740  14.361  -7.786  1.00 20.00     0.019 C 
HETATM    5  C5  UNL     1     -33.930  18.198  -6.195  1.00 20.00     0.001 C 
HETATM    6  C6  UNL     1     -34.706  17.154  -7.013  1.00 20.00     0.010 C 
HETATM    7  C7  UNL     1     -33.359  17.462  -4.974  1.00 20.00     0.008 C 
HETATM    8  C8  UNL     1     -33.585  15.024  -4.119  1.00 20.00     0.145 C 
HETATM    9  C9  UNL     1     -34.894  15.980  -6.051  1.00 20.00     0.024 C 
HETATM   10  C10 UNL     1     -33.556  15.987  -5.304  1.00 20.00     0.026 C 
ENDROOT
BRANCH   8  11
HETATM   11  O11 UNL     1     -32.262  14.838  -3.627  1.00 20.00    -0.391 OA
HETATM   12  H25 UNL     1     -32.141  13.883  -3.507  1.00 20.00     0.210 HD
ENDBRANCH   8  11
TORSDOF 1
ENDMDL
MODEL 8
REMARK VINA RESULT:      -4.6      1.800      2.942
REMARK  1 active torsions:
REMARK  status: ('A' for Active; 'I' for Inactive)
REMARK    1  A    between atoms: C8_8  and  O11_11 
ROOT
HETATM    1  C1  UNL     1     -33.818  18.090  -3.979  1.00 20.00     0.005 C 
HETATM    2  C2  UNL     1     -33.832  17.630  -2.714  1.00 20.00     0.005 C 
HETATM    3  C3  UNL     1     -33.909  17.216  -5.146  1.00 20.00    -0.063 C 
HETATM    4  C4  UNL     1     -34.056  17.717  -6.381  1.00 20.00     0.019 C 
HETATM    5  C5  UNL     1     -34.566  13.445  -4.961  1.00 20.00     0.001 C 
HETATM    6  C6  UNL     1     -34.380  14.711  -5.812  1.00 20.00     0.010 C 
HETATM    7  C7  UNL     1     -34.481  13.887  -3.493  1.00 20.00     0.008 C 
HETATM    8  C8  UNL     1     -34.000  16.172  -2.363  1.00 20.00     0.145 C 
HETATM    9  C9  UNL     1     -33.801  15.740  -4.840  1.00 20.00     0.024 C 
HETATM   10  C10 UNL     1     -34.569  15.407  -3.557  1.00 20.00     0.026 C 
ENDROOT
BRANCH   8  11
HETATM   11  O11 UNL     1     -34.898  16.068  -1.264  1.00 20.00    -0.391 OA
HETATM   12  H25 UNL     1     -34.723  16.830  -0.688  1.00 20.00     0.210 HD
ENDBRANCH   8  11
TORSDOF 1
ENDMDL
MODEL 9
REMARK VINA RESULT:      -4.6      2.492      3.962
REMARK  1 active torsions:
REMARK  status: ('A' for Active; 'I' for Inactive)
REMARK    1  A    between atoms: C8_8  and  O11_11 
ROOT
HETATM    1  C1  UNL     1     -34.695  13.748  -4.247  1.00 20.00     0.005 C 
HETATM    2  C2  UNL     1     -36.015  14.002  -4.300  1.00 20.00     0.005 C 
HETATM    3  C3  UNL     1     -33.733  14.653  -3.623  1.00 20.00    -0.063 C 
HETATM    4  C4  UNL     1     -32.454  14.294  -3.444  1.00 20.00     0.019 C 
HETATM    5  C5  UNL     1     -34.703  17.803  -1.667  1.00 20.00     0.001 C 
HETATM    6  C6  UNL     1     -33.613  16.831  -2.145  1.00 20.00     0.010 C 
HETATM    7  C7  UNL     1     -36.040  17.250  -2.182  1.00 20.00     0.008 C 
HETATM    8  C8  UNL     1     -36.652  15.219  -3.674  1.00 20.00     0.145 C 
HETATM    9  C9  UNL     1     -34.295  16.001  -3.234  1.00 20.00     0.024 C 
HETATM   10  C10 UNL     1     -35.702  15.840  -2.650  1.00 20.00     0.026 C 
ENDROOT
BRANCH   8  11
HETATM   11  O11 UNL     1     -37.854  14.821  -3.024  1.00 20.00    -0.391 OA
HETATM   12  H25 UNL     1     -38.327  14.243  -3.643  1.00 20.00     0.210 HD
ENDBRANCH   8  11
TORSDOF 1
ENDMDL
