MODEL 1
REMARK VINA RESULT:      -4.1      0.000      0.000
REMARK  0 active torsions:
REMARK  status: ('A' for Active; 'I' for Inactive)
ROOT
HETATM    1  C1  UNL     1     -42.303   5.506  -2.655  1.00 20.00     0.223 C 
HETATM    2  C2  UNL     1     -40.772   4.434  -1.204  1.00 20.00     0.130 C 
HETATM    3  C3  UNL     1     -41.649   6.579  -1.798  1.00 20.00     0.079 C 
HETATM    4  C4  UNL     1     -41.123   5.786  -0.584  1.00 20.00     0.012 C 
HETATM    5  C5  UNL     1     -42.581   7.739  -1.494  1.00 20.00     0.020 C 
HETATM    6  C6  UNL     1     -42.134   5.623   0.553  1.00 20.00     0.012 C 
HETATM    7  C7  UNL     1     -41.980   3.015  -2.906  1.00 20.00     0.152 C 
HETATM    8  N8  UNL     1     -41.737   4.291  -2.270  1.00 20.00    -0.356 N 
HETATM    9  O9  UNL     1     -43.123   5.707  -3.537  1.00 20.00    -0.273 OA
ENDROOT
TORSDOF 0
ENDMDL
MODEL 2
REMARK VINA RESULT:      -4.1     12.075     12.899
REMARK  0 active torsions:
REMARK  status: ('A' for Active; 'I' for Inactive)
ROOT
HETATM    1  C1  UNL     1     -33.641  15.786  -4.877  1.00 20.00     0.223 C 
HETATM    2  C2  UNL     1     -34.968  13.842  -5.119  1.00 20.00     0.130 C 
HETATM    3  C3  UNL     1     -33.820  15.174  -3.497  1.00 20.00     0.079 C 
HETATM    4  C4  UNL     1     -35.076  14.294  -3.663  1.00 20.00     0.012 C 
HETATM    5  C5  UNL     1     -33.866  16.214  -2.392  1.00 20.00     0.020 C 
HETATM    6  C6  UNL     1     -36.398  15.023  -3.411  1.00 20.00     0.012 C 
HETATM    7  C7  UNL     1     -34.312  15.094  -7.210  1.00 20.00     0.152 C 
HETATM    8  N8  UNL     1     -34.317  14.956  -5.770  1.00 20.00    -0.356 N 
HETATM    9  O9  UNL     1     -32.983  16.784  -5.129  1.00 20.00    -0.273 OA
ENDROOT
TORSDOF 0
ENDMDL
MODEL 3
REMARK VINA RESULT:      -4.0     13.312     14.287
REMARK  0 active torsions:
REMARK  status: ('A' for Active; 'I' for Inactive)
ROOT
HETATM    1  C1  UNL     1     -33.976  17.817  -3.071  1.00 20.00     0.223 C 
HETATM    2  C2  UNL     1     -33.173  16.055  -4.431  1.00 20.00     0.130 C 
HETATM    3  C3  UNL     1     -33.722  16.618  -2.171  1.00 20.00     0.079 C 
HETATM    4  C4  UNL     1     -33.738  15.431  -3.155  1.00 20.00     0.012 C 
HETATM    5  C5  UNL     1     -34.690  16.541  -1.005  1.00 20.00     0.020 C 
HETATM    6  C6  UNL     1     -35.125  14.834  -3.405  1.00 20.00     0.012 C 
HETATM    7  C7  UNL     1     -33.592  18.293  -5.520  1.00 20.00     0.152 C 
HETATM    8  N8  UNL     1     -33.622  17.427  -4.362  1.00 20.00    -0.356 N 
HETATM    9  O9  UNL     1     -34.366  18.913  -2.697  1.00 20.00    -0.273 OA
ENDROOT
TORSDOF 0
ENDMDL
MODEL 4
REMARK VINA RESULT:      -3.9     11.216     12.265
REMARK  0 active torsions:
REMARK  status: ('A' for Active; 'I' for Inactive)
ROOT
HETATM    1  C1  UNL     1     -35.176  14.012  -3.784  1.00 20.00     0.223 C 
HETATM    2  C2  UNL     1     -35.917  16.125  -3.021  1.00 20.00     0.130 C 
HETATM    3  C3  UNL     1     -34.013  14.677  -3.064  1.00 20.00     0.079 C 
HETATM    4  C4  UNL     1     -34.392  16.173  -3.093  1.00 20.00     0.012 C 
HETATM    5  C5  UNL     1     -32.665  14.310  -3.657  1.00 20.00     0.020 C 
HETATM    6  C6  UNL     1     -33.925  16.919  -4.345  1.00 20.00     0.012 C 
HETATM    7  C7  UNL     1     -37.597  14.623  -4.158  1.00 20.00     0.152 C 
HETATM    8  N8  UNL     1     -36.250  14.898  -3.706  1.00 20.00    -0.356 N 
HETATM    9  O9  UNL     1     -35.157  12.895  -4.278  1.00 20.00    -0.273 OA
ENDROOT
TORSDOF 0
ENDMDL
MODEL 5
REMARK VINA RESULT:      -3.9     11.736     12.857
REMARK  0 active torsions:
REMARK  status: ('A' for Active; 'I' for Inactive)
ROOT
HETATM    1  C1  UNL     1     -35.765  15.195  -3.168  1.00 20.00     0.223 C 
HETATM    2  C2  UNL     1     -34.004  16.634  -2.517  1.00 20.00     0.130 C 
HETATM    3  C3  UNL     1     -34.459  14.435  -3.341  1.00 20.00     0.079 C 
HETATM    4  C4  UNL     1     -33.407  15.560  -3.425  1.00 20.00     0.012 C 
HETATM    5  C5  UNL     1     -34.496  13.457  -4.502  1.00 20.00     0.020 C 
HETATM    6  C6  UNL     1     -33.172  16.103  -4.836  1.00 20.00     0.012 C 
HETATM    7  C7  UNL     1     -36.371  17.466  -2.249  1.00 20.00     0.152 C 
HETATM    8  N8  UNL     1     -35.429  16.454  -2.672  1.00 20.00    -0.356 N 
HETATM    9  O9  UNL     1     -36.880  14.744  -3.381  1.00 20.00    -0.273 OA
ENDROOT
TORSDOF 0
ENDMDL
MODEL 6
REMARK VINA RESULT:      -3.8     12.120     13.137
REMARK  0 active torsions:
REMARK  status: ('A' for Active; 'I' for Inactive)
ROOT
HETATM    1  C1  UNL     1     -33.970  16.237  -4.574  1.00 20.00     0.223 C 
HETATM    2  C2  UNL     1     -35.676  15.380  -3.176  1.00 20.00     0.130 C 
HETATM    3  C3  UNL     1     -35.009  15.576  -5.466  1.00 20.00     0.079 C 
HETATM    4  C4  UNL     1     -35.744  14.621  -4.502  1.00 20.00     0.012 C 
HETATM    5  C5  UNL     1     -34.405  14.947  -6.708  1.00 20.00     0.020 C 
HETATM    6  C6  UNL     1     -35.105  13.236  -4.374  1.00 20.00     0.012 C 
HETATM    7  C7  UNL     1     -33.808  16.688  -2.095  1.00 20.00     0.152 C 
HETATM    8  N8  UNL     1     -34.427  16.101  -3.264  1.00 20.00    -0.356 N 
HETATM    9  O9  UNL     1     -32.966  16.812  -4.964  1.00 20.00    -0.273 OA
ENDROOT
TORSDOF 0
ENDMDL
MODEL 7
REMARK VINA RESULT:      -3.8     11.609     12.563
REMARK  0 active torsions:
REMARK  status: ('A' for Active; 'I' for Inactive)
ROOT
HETATM    1  C1  UNL     1     -33.904  14.903  -3.405  1.00 20.00     0.223 C 
HETATM    2  C2  UNL     1     -36.242  14.702  -3.709  1.00 20.00     0.130 C 
HETATM    3  C3  UNL     1     -34.583  15.760  -2.348  1.00 20.00     0.079 C 
HETATM    4  C4  UNL     1     -35.989  15.997  -2.938  1.00 20.00     0.012 C 
HETATM    5  C5  UNL     1     -33.782  17.000  -1.993  1.00 20.00     0.020 C 
HETATM    6  C6  UNL     1     -36.092  17.214  -3.860  1.00 20.00     0.012 C 
HETATM    7  C7  UNL     1     -34.735  13.316  -5.184  1.00 20.00     0.152 C 
HETATM    8  N8  UNL     1     -34.923  14.307  -4.147  1.00 20.00    -0.356 N 
HETATM    9  O9  UNL     1     -32.699  14.747  -3.523  1.00 20.00    -0.273 OA
ENDROOT
TORSDOF 0
ENDMDL
MODEL 8
REMARK VINA RESULT:      -3.7     11.837     12.491
REMARK  0 active torsions:
REMARK  status: ('A' for Active; 'I' for Inactive)
ROOT
HETATM    1  C1  UNL     1     -35.091  14.725  -5.004  1.00 20.00     0.223 C 
HETATM    2  C2  UNL     1     -36.168  15.971  -3.305  1.00 20.00     0.130 C 
HETATM    3  C3  UNL     1     -34.637  14.167  -3.663  1.00 20.00     0.079 C 
HETATM    4  C4  UNL     1     -34.931  15.323  -2.685  1.00 20.00     0.012 C 
HETATM    5  C5  UNL     1     -33.210  13.653  -3.692  1.00 20.00     0.020 C 
HETATM    6  C6  UNL     1     -33.793  16.337  -2.545  1.00 20.00     0.012 C 
HETATM    7  C7  UNL     1     -36.757  16.487  -5.705  1.00 20.00     0.152 C 
HETATM    8  N8  UNL     1     -35.988  15.754  -4.722  1.00 20.00    -0.356 N 
HETATM    9  O9  UNL     1     -34.756  14.298  -6.098  1.00 20.00    -0.273 OA
ENDROOT
TORSDOF 0
ENDMDL
MODEL 9
REMARK VINA RESULT:      -3.7     12.238     13.216
REMARK  0 active torsions:
REMARK  status: ('A' for Active; 'I' for Inactive)
ROOT
HETATM    1  C1  UNL     1     -34.547  14.215  -5.570  1.00 20.00     0.223 C 
HETATM    2  C2  UNL     1     -33.529  16.342  -5.371  1.00 20.00     0.130 C 
HETATM    3  C3  UNL     1     -34.468  14.822  -6.962  1.00 20.00     0.079 C 
HETATM    4  C4  UNL     1     -34.318  16.331  -6.680  1.00 20.00     0.012 C 
HETATM    5  C5  UNL     1     -35.629  14.413  -7.850  1.00 20.00     0.020 C 
HETATM    6  C6  UNL     1     -35.643  17.081  -6.528  1.00 20.00     0.012 C 
HETATM    7  C7  UNL     1     -33.728  14.928  -3.290  1.00 20.00     0.152 C 
HETATM    8  N8  UNL     1     -33.971  15.141  -4.700  1.00 20.00    -0.356 N 
HETATM    9  O9  UNL     1     -34.988  13.108  -5.304  1.00 20.00    -0.273 OA
ENDROOT
TORSDOF 0
ENDMDL
