MODEL 1
REMARK VINA RESULT:      -5.1      0.000      0.000
REMARK  1 active torsions:
REMARK  status: ('A' for Active; 'I' for Inactive)
REMARK    1  A    between atoms: C4_4  and  C6_6 
ROOT
HETATM    1  C1  UNL     1     -33.840  13.557  -4.139  1.00 20.00     0.009 A 
HETATM    2  C2  UNL     1     -35.156  13.334  -4.203  1.00 20.00     0.082 A 
HETATM    3  C3  UNL     1     -33.329  14.827  -3.715  1.00 20.00     0.037 A 
HETATM    4  C4  UNL     1     -34.200  15.787  -3.383  1.00 20.00     0.079 A 
HETATM    5  C5  UNL     1     -36.115  14.397  -3.837  1.00 20.00     0.288 A 
HETATM    6  O10 UNL     1     -37.323  14.197  -3.894  1.00 20.00    -0.260 OA
HETATM    7  O11 UNL     1     -35.595  15.601  -3.434  1.00 20.00    -0.276 OA
ENDROOT
BRANCH   4   8
HETATM    8  C6  UNL     1     -33.796  17.120  -2.936  1.00 20.00     0.039 C 
HETATM    9  C7  UNL     1     -33.948  17.588  -1.685  1.00 20.00    -0.085 C 
HETATM   10  C8  UNL     1     -33.546  18.948  -1.187  1.00 20.00     0.043 C 
HETATM   11  C9  UNL     1     -34.574  16.712  -0.631  1.00 20.00     0.043 C 
ENDBRANCH   4   8
TORSDOF 1
ENDMDL
MODEL 2
REMARK VINA RESULT:      -5.0     11.479     12.326
REMARK  1 active torsions:
REMARK  status: ('A' for Active; 'I' for Inactive)
REMARK    1  A    between atoms: C4_4  and  C6_6 
ROOT
HETATM    1  C1  UNL     1     -34.115   6.250   6.492  1.00 20.00     0.009 A 
HETATM    2  C2  UNL     1     -34.656   5.035   6.367  1.00 20.00     0.082 A 
HETATM    3  C3  UNL     1     -33.689   6.987   5.338  1.00 20.00     0.037 A 
HETATM    4  C4  UNL     1     -33.845   6.430   4.132  1.00 20.00     0.079 A 
HETATM    5  C5  UNL     1     -34.826   4.423   5.033  1.00 20.00     0.288 A 
HETATM    6  O10 UNL     1     -35.322   3.308   4.914  1.00 20.00    -0.260 OA
HETATM    7  O11 UNL     1     -34.409   5.153   3.949  1.00 20.00    -0.276 OA
ENDROOT
BRANCH   4   8
HETATM    8  C6  UNL     1     -33.449   7.086   2.886  1.00 20.00     0.039 C 
HETATM    9  C7  UNL     1     -32.247   7.643   2.661  1.00 20.00    -0.085 C 
HETATM   10  C8  UNL     1     -31.803   8.325   1.397  1.00 20.00     0.043 C 
HETATM   11  C9  UNL     1     -31.196   7.613   3.740  1.00 20.00     0.043 C 
ENDBRANCH   4   8
TORSDOF 1
ENDMDL
MODEL 3
REMARK VINA RESULT:      -5.0      1.768      1.992
REMARK  1 active torsions:
REMARK  status: ('A' for Active; 'I' for Inactive)
REMARK    1  A    between atoms: C4_4  and  C6_6 
ROOT
HETATM    1  C1  UNL     1     -34.089  15.795  -5.987  1.00 20.00     0.009 A 
HETATM    2  C2  UNL     1     -34.458  14.511  -6.023  1.00 20.00     0.082 A 
HETATM    3  C3  UNL     1     -33.812  16.445  -4.739  1.00 20.00     0.037 A 
HETATM    4  C4  UNL     1     -33.930  15.737  -3.611  1.00 20.00     0.079 A 
HETATM    5  C5  UNL     1     -34.589  13.733  -4.774  1.00 20.00     0.288 A 
HETATM    6  O10 UNL     1     -34.927  12.554  -4.804  1.00 20.00    -0.260 OA
HETATM    7  O11 UNL     1     -34.315  14.382  -3.598  1.00 20.00    -0.276 OA
ENDROOT
BRANCH   4   8
HETATM    8  C6  UNL     1     -33.672  16.292  -2.282  1.00 20.00     0.039 C 
HETATM    9  C7  UNL     1     -34.580  16.940  -1.532  1.00 20.00    -0.085 C 
HETATM   10  C8  UNL     1     -34.353  17.523  -0.165  1.00 20.00     0.043 C 
HETATM   11  C9  UNL     1     -35.980  17.131  -2.054  1.00 20.00     0.043 C 
ENDBRANCH   4   8
TORSDOF 1
ENDMDL
MODEL 4
REMARK VINA RESULT:      -4.9      1.450      2.013
REMARK  1 active torsions:
REMARK  status: ('A' for Active; 'I' for Inactive)
REMARK    1  A    between atoms: C4_4  and  C6_6 
ROOT
HETATM    1  C1  UNL     1     -36.081  14.589  -4.090  1.00 20.00     0.009 A 
HETATM    2  C2  UNL     1     -35.200  13.587  -4.162  1.00 20.00     0.082 A 
HETATM    3  C3  UNL     1     -35.684  15.885  -3.623  1.00 20.00     0.037 A 
HETATM    4  C4  UNL     1     -34.409  16.070  -3.260  1.00 20.00     0.079 A 
HETATM    5  C5  UNL     1     -33.793  13.795  -3.760  1.00 20.00     0.288 A 
HETATM    6  O10 UNL     1     -32.981  12.879  -3.825  1.00 20.00    -0.260 OA
HETATM    7  O11 UNL     1     -33.444  15.046  -3.319  1.00 20.00    -0.276 OA
ENDROOT
BRANCH   4   8
HETATM    8  C6  UNL     1     -33.890  17.347  -2.771  1.00 20.00     0.039 C 
HETATM    9  C7  UNL     1     -33.944  17.757  -1.492  1.00 20.00    -0.085 C 
HETATM   10  C8  UNL     1     -33.422  19.059  -0.950  1.00 20.00     0.043 C 
HETATM   11  C9  UNL     1     -34.574  16.870  -0.449  1.00 20.00     0.043 C 
ENDBRANCH   4   8
TORSDOF 1
ENDMDL
MODEL 5
REMARK VINA RESULT:      -4.8     11.333     12.202
REMARK  1 active torsions:
REMARK  status: ('A' for Active; 'I' for Inactive)
REMARK    1  A    between atoms: C4_4  and  C6_6 
ROOT
HETATM    1  C1  UNL     1     -35.040   4.423   4.921  1.00 20.00     0.009 A 
HETATM    2  C2  UNL     1     -34.841   5.012   6.103  1.00 20.00     0.082 A 
HETATM    3  C3  UNL     1     -34.600   5.045   3.706  1.00 20.00     0.037 A 
HETATM    4  C4  UNL     1     -33.983   6.229   3.782  1.00 20.00     0.079 A 
HETATM    5  C5  UNL     1     -34.160   6.322   6.183  1.00 20.00     0.288 A 
HETATM    6  O10 UNL     1     -33.976   6.866   7.266  1.00 20.00    -0.260 OA
HETATM    7  O11 UNL     1     -33.750   6.889   5.004  1.00 20.00    -0.276 OA
ENDROOT
BRANCH   4   8
HETATM    8  C6  UNL     1     -33.490   6.956   2.612  1.00 20.00     0.039 C 
HETATM    9  C7  UNL     1     -32.299   7.575   2.540  1.00 20.00    -0.085 C 
HETATM   10  C8  UNL     1     -31.757   8.330   1.359  1.00 20.00     0.043 C 
HETATM   11  C9  UNL     1     -31.369   7.546   3.725  1.00 20.00     0.043 C 
ENDBRANCH   4   8
TORSDOF 1
ENDMDL
MODEL 6
REMARK VINA RESULT:      -4.6      1.936      2.277
REMARK  1 active torsions:
REMARK  status: ('A' for Active; 'I' for Inactive)
REMARK    1  A    between atoms: C4_4  and  C6_6 
ROOT
HETATM    1  C1  UNL     1     -34.849  13.364  -4.996  1.00 20.00     0.009 A 
HETATM    2  C2  UNL     1     -34.769  14.077  -6.123  1.00 20.00     0.082 A 
HETATM    3  C3  UNL     1     -34.492  13.942  -3.733  1.00 20.00     0.037 A 
HETATM    4  C4  UNL     1     -34.077  15.213  -3.708  1.00 20.00     0.079 A 
HETATM    5  C5  UNL     1     -34.310  15.481  -6.090  1.00 20.00     0.288 A 
HETATM    6  O10 UNL     1     -34.235  16.140  -7.122  1.00 20.00    -0.260 OA
HETATM    7  O11 UNL     1     -33.976  16.005  -4.868  1.00 20.00    -0.276 OA
ENDROOT
BRANCH   4   8
HETATM    8  C6  UNL     1     -33.689  15.908  -2.480  1.00 20.00     0.039 C 
HETATM    9  C7  UNL     1     -34.489  16.726  -1.775  1.00 20.00    -0.085 C 
HETATM   10  C8  UNL     1     -34.128  17.456  -0.512  1.00 20.00     0.043 C 
HETATM   11  C9  UNL     1     -35.899  16.976  -2.244  1.00 20.00     0.043 C 
ENDBRANCH   4   8
TORSDOF 1
ENDMDL
MODEL 7
REMARK VINA RESULT:      -4.5      2.993      3.825
REMARK  1 active torsions:
REMARK  status: ('A' for Active; 'I' for Inactive)
REMARK    1  A    between atoms: C4_4  and  C6_6 
ROOT
HETATM    1  C1  UNL     1     -32.899  15.193  -3.673  1.00 20.00     0.009 A 
HETATM    2  C2  UNL     1     -33.453  13.978  -3.698  1.00 20.00     0.082 A 
HETATM    3  C3  UNL     1     -33.181  16.151  -4.702  1.00 20.00     0.037 A 
HETATM    4  C4  UNL     1     -34.012  15.800  -5.690  1.00 20.00     0.079 A 
HETATM    5  C5  UNL     1     -34.370  13.594  -4.792  1.00 20.00     0.288 A 
HETATM    6  O10 UNL     1     -34.880  12.479  -4.818  1.00 20.00    -0.260 OA
HETATM    7  O11 UNL     1     -34.619  14.532  -5.760  1.00 20.00    -0.276 OA
ENDROOT
BRANCH   4   8
HETATM    8  C6  UNL     1     -34.373  16.693  -6.791  1.00 20.00     0.039 C 
HETATM    9  C7  UNL     1     -35.451  17.497  -6.805  1.00 20.00    -0.085 C 
HETATM   10  C8  UNL     1     -35.855  18.426  -7.915  1.00 20.00     0.043 C 
HETATM   11  C9  UNL     1     -36.383  17.516  -5.622  1.00 20.00     0.043 C 
ENDBRANCH   4   8
TORSDOF 1
ENDMDL
MODEL 8
REMARK VINA RESULT:      -4.5      2.173      3.016
REMARK  1 active torsions:
REMARK  status: ('A' for Active; 'I' for Inactive)
REMARK    1  A    between atoms: C4_4  and  C6_6 
ROOT
HETATM    1  C1  UNL     1     -33.244  15.291  -4.196  1.00 20.00     0.009 A 
HETATM    2  C2  UNL     1     -33.146  16.377  -4.968  1.00 20.00     0.082 A 
HETATM    3  C3  UNL     1     -33.863  15.360  -2.905  1.00 20.00     0.037 A 
HETATM    4  C4  UNL     1     -34.342  16.538  -2.489  1.00 20.00     0.079 A 
HETATM    5  C5  UNL     1     -33.676  17.676  -4.505  1.00 20.00     0.288 A 
HETATM    6  O10 UNL     1     -33.588  18.675  -5.211  1.00 20.00    -0.260 OA
HETATM    7  O11 UNL     1     -34.263  17.710  -3.266  1.00 20.00    -0.276 OA
ENDROOT
BRANCH   4   8
HETATM    8  C6  UNL     1     -34.995  16.728  -1.194  1.00 20.00     0.039 C 
HETATM    9  C7  UNL     1     -34.475  17.424  -0.168  1.00 20.00    -0.085 C 
HETATM   10  C8  UNL     1     -35.113  17.642   1.176  1.00 20.00     0.043 C 
HETATM   11  C9  UNL     1     -33.124  18.074  -0.315  1.00 20.00     0.043 C 
ENDBRANCH   4   8
TORSDOF 1
ENDMDL
MODEL 9
REMARK VINA RESULT:      -4.4      1.824      4.580
REMARK  1 active torsions:
REMARK  status: ('A' for Active; 'I' for Inactive)
REMARK    1  A    between atoms: C4_4  and  C6_6 
ROOT
HETATM    1  C1  UNL     1     -33.856  18.719  -1.914  1.00 20.00     0.009 A 
HETATM    2  C2  UNL     1     -34.322  18.629  -0.665  1.00 20.00     0.082 A 
HETATM    3  C3  UNL     1     -33.753  17.556  -2.746  1.00 20.00     0.037 A 
HETATM    4  C4  UNL     1     -34.135  16.377  -2.245  1.00 20.00     0.079 A 
HETATM    5  C5  UNL     1     -34.743  17.324  -0.114  1.00 20.00     0.288 A 
HETATM    6  O10 UNL     1     -35.171  17.236   1.031  1.00 20.00    -0.260 OA
HETATM    7  O11 UNL     1     -34.633  16.230  -0.935  1.00 20.00    -0.276 OA
ENDROOT
BRANCH   4   8
HETATM    8  C6  UNL     1     -34.077  15.125  -3.000  1.00 20.00     0.039 C 
HETATM    9  C7  UNL     1     -35.131  14.537  -3.592  1.00 20.00    -0.085 C 
HETATM   10  C8  UNL     1     -35.112  13.254  -4.376  1.00 20.00     0.043 C 
HETATM   11  C9  UNL     1     -36.492  15.177  -3.502  1.00 20.00     0.043 C 
ENDBRANCH   4   8
TORSDOF 1
ENDMDL
