MODEL 1
REMARK VINA RESULT:      -5.0      0.000      0.000
REMARK  1 active torsions:
REMARK  status: ('A' for Active; 'I' for Inactive)
REMARK    1  A    between atoms: C2_2  and  C7_7 
ROOT
HETATM    1  C1  UNL     1     -34.785  13.806  -4.555  1.00 20.00     0.132 C 
HETATM    2  C3  UNL     1     -35.091  14.761  -5.692  1.00 20.00     0.084 C 
HETATM    3  C4  UNL     1     -32.950  15.102  -3.654  1.00 20.00     0.013 C 
HETATM    4  C5  UNL     1     -33.189  16.134  -4.774  1.00 20.00     0.007 C 
HETATM    5  C6  UNL     1     -34.367  14.607  -3.336  1.00 20.00     0.068 C 
HETATM    6  C7  UNL     1     -35.248  15.836  -3.566  1.00 20.00     0.088 C 
HETATM    7  C8  UNL     1     -34.722  16.086  -4.984  1.00 20.00     0.006 C 
HETATM    8  O9  UNL     1     -34.835  12.588  -4.623  1.00 20.00    -0.298 OA
ENDROOT
BRANCH   6   9
HETATM    9  C2  UNL     1     -35.016  16.962  -2.605  1.00 20.00     0.224 C 
HETATM   10  O10 UNL     1     -35.074  18.135  -2.961  1.00 20.00    -0.279 OA
HETATM   11 CL11 UNL     1     -34.672  16.391  -1.001  1.00 20.00    -0.043 Cl
ENDBRANCH   6   9
TORSDOF 1
ENDMDL
MODEL 2
REMARK VINA RESULT:      -4.8      1.955      2.599
REMARK  1 active torsions:
REMARK  status: ('A' for Active; 'I' for Inactive)
REMARK    1  A    between atoms: C2_2  and  C7_7 
ROOT
HETATM    1  C1  UNL     1     -34.546  13.609  -4.265  1.00 20.00     0.132 C 
HETATM    2  C3  UNL     1     -33.162  13.820  -3.682  1.00 20.00     0.084 C 
HETATM    3  C4  UNL     1     -35.546  15.531  -3.187  1.00 20.00     0.013 C 
HETATM    4  C5  UNL     1     -34.174  15.831  -2.551  1.00 20.00     0.007 C 
HETATM    5  C6  UNL     1     -35.169  14.961  -4.560  1.00 20.00     0.068 C 
HETATM    6  C7  UNL     1     -33.893  15.716  -4.937  1.00 20.00     0.088 C 
HETATM    7  C8  UNL     1     -33.168  15.366  -3.632  1.00 20.00     0.006 C 
HETATM    8  O9  UNL     1     -35.082  12.526  -4.437  1.00 20.00    -0.298 OA
ENDROOT
BRANCH   6   9
HETATM    9  C2  UNL     1     -34.081  17.182  -5.176  1.00 20.00     0.224 C 
HETATM   10  O10 UNL     1     -33.255  18.007  -4.799  1.00 20.00    -0.279 OA
HETATM   11 CL11 UNL     1     -35.560  17.523  -6.020  1.00 20.00    -0.043 Cl
ENDBRANCH   6   9
TORSDOF 1
ENDMDL
MODEL 3
REMARK VINA RESULT:      -4.8      1.971      3.871
REMARK  1 active torsions:
REMARK  status: ('A' for Active; 'I' for Inactive)
REMARK    1  A    between atoms: C2_2  and  C7_7 
ROOT
HETATM    1  C1  UNL     1     -35.092  16.978  -3.342  1.00 20.00     0.132 C 
HETATM    2  C3  UNL     1     -34.763  16.062  -2.180  1.00 20.00     0.084 C 
HETATM    3  C4  UNL     1     -33.341  16.148  -4.792  1.00 20.00     0.013 C 
HETATM    4  C5  UNL     1     -32.936  15.173  -3.668  1.00 20.00     0.007 C 
HETATM    5  C6  UNL     1     -34.865  16.229  -4.642  1.00 20.00     0.068 C 
HETATM    6  C7  UNL     1     -35.264  14.831  -4.164  1.00 20.00     0.088 C 
HETATM    7  C8  UNL     1     -34.283  14.832  -2.986  1.00 20.00     0.006 C 
HETATM    8  O9  UNL     1     -35.448  18.142  -3.245  1.00 20.00    -0.298 OA
ENDROOT
BRANCH   6   9
HETATM    9  C2  UNL     1     -35.040  13.740  -5.165  1.00 20.00     0.224 C 
HETATM   10  O10 UNL     1     -34.709  12.609  -4.822  1.00 20.00    -0.279 OA
HETATM   11 CL11 UNL     1     -35.305  14.282  -6.794  1.00 20.00    -0.043 Cl
ENDBRANCH   6   9
TORSDOF 1
ENDMDL
MODEL 4
REMARK VINA RESULT:      -4.8      1.894      2.249
REMARK  1 active torsions:
REMARK  status: ('A' for Active; 'I' for Inactive)
REMARK    1  A    between atoms: C2_2  and  C7_7 
ROOT
HETATM    1  C1  UNL     1     -37.049  14.651  -4.224  1.00 20.00     0.132 C 
HETATM    2  C3  UNL     1     -36.847  15.026  -5.679  1.00 20.00     0.084 C 
HETATM    3  C4  UNL     1     -34.860  13.658  -3.936  1.00 20.00     0.013 C 
HETATM    4  C5  UNL     1     -34.560  14.005  -5.409  1.00 20.00     0.007 C 
HETATM    5  C6  UNL     1     -35.738  14.830  -3.481  1.00 20.00     0.068 C 
HETATM    6  C7  UNL     1     -35.198  16.025  -4.269  1.00 20.00     0.088 C 
HETATM    7  C8  UNL     1     -35.331  15.329  -5.629  1.00 20.00     0.006 C 
HETATM    8  O9  UNL     1     -38.090  14.238  -3.738  1.00 20.00    -0.298 OA
ENDROOT
BRANCH   6   9
HETATM    9  C2  UNL     1     -33.803  16.434  -3.909  1.00 20.00     0.224 C 
HETATM   10  O10 UNL     1     -32.960  16.675  -4.768  1.00 20.00    -0.279 OA
HETATM   11 CL11 UNL     1     -33.569  16.514  -2.190  1.00 20.00    -0.043 Cl
ENDBRANCH   6   9
TORSDOF 1
ENDMDL
MODEL 5
REMARK VINA RESULT:      -4.7      2.550      3.559
REMARK  1 active torsions:
REMARK  status: ('A' for Active; 'I' for Inactive)
REMARK    1  A    between atoms: C2_2  and  C7_7 
ROOT
HETATM    1  C1  UNL     1     -33.751  15.918  -4.676  1.00 20.00     0.132 C 
HETATM    2  C3  UNL     1     -33.741  15.264  -3.308  1.00 20.00     0.084 C 
HETATM    3  C4  UNL     1     -34.809  14.061  -5.811  1.00 20.00     0.013 C 
HETATM    4  C5  UNL     1     -34.848  13.317  -4.460  1.00 20.00     0.007 C 
HETATM    5  C6  UNL     1     -35.024  15.524  -5.403  1.00 20.00     0.068 C 
HETATM    6  C7  UNL     1     -35.953  15.437  -4.191  1.00 20.00     0.088 C 
HETATM    7  C8  UNL     1     -35.054  14.455  -3.431  1.00 20.00     0.006 C 
HETATM    8  O9  UNL     1     -32.862  16.621  -5.130  1.00 20.00    -0.298 OA
ENDROOT
BRANCH   6   9
HETATM    9  C2  UNL     1     -37.327  14.923  -4.491  1.00 20.00     0.224 C 
HETATM   10  O10 UNL     1     -37.925  14.188  -3.711  1.00 20.00    -0.279 OA
HETATM   11 CL11 UNL     1     -37.917  15.491  -6.023  1.00 20.00    -0.043 Cl
ENDBRANCH   6   9
TORSDOF 1
ENDMDL
MODEL 6
REMARK VINA RESULT:      -4.6      2.215      3.085
REMARK  1 active torsions:
REMARK  status: ('A' for Active; 'I' for Inactive)
REMARK    1  A    between atoms: C2_2  and  C7_7 
ROOT
HETATM    1  C1  UNL     1     -33.298  14.964  -3.979  1.00 20.00     0.132 C 
HETATM    2  C3  UNL     1     -33.559  13.476  -3.847  1.00 20.00     0.084 C 
HETATM    3  C4  UNL     1     -34.888  15.318  -5.770  1.00 20.00     0.013 C 
HETATM    4  C5  UNL     1     -35.224  13.814  -5.706  1.00 20.00     0.007 C 
HETATM    5  C6  UNL     1     -34.604  15.667  -4.303  1.00 20.00     0.068 C 
HETATM    6  C7  UNL     1     -35.547  14.756  -3.516  1.00 20.00     0.088 C 
HETATM    7  C8  UNL     1     -35.064  13.475  -4.204  1.00 20.00     0.006 C 
HETATM    8  O9  UNL     1     -32.208  15.503  -3.874  1.00 20.00    -0.298 OA
ENDROOT
BRANCH   6   9
HETATM    9  C2  UNL     1     -37.003  15.054  -3.701  1.00 20.00     0.224 C 
HETATM   10  O10 UNL     1     -37.842  14.160  -3.762  1.00 20.00    -0.279 OA
HETATM   11 CL11 UNL     1     -37.313  16.760  -3.808  1.00 20.00    -0.043 Cl
ENDBRANCH   6   9
TORSDOF 1
ENDMDL
MODEL 7
REMARK VINA RESULT:      -4.6      2.200      3.818
REMARK  1 active torsions:
REMARK  status: ('A' for Active; 'I' for Inactive)
REMARK    1  A    between atoms: C2_2  and  C7_7 
ROOT
HETATM    1  C1  UNL     1     -33.935  16.402  -2.651  1.00 20.00     0.132 C 
HETATM    2  C3  UNL     1     -33.761  17.173  -3.944  1.00 20.00     0.084 C 
HETATM    3  C4  UNL     1     -36.131  15.540  -3.190  1.00 20.00     0.013 C 
HETATM    4  C5  UNL     1     -36.043  16.287  -4.536  1.00 20.00     0.007 C 
HETATM    5  C6  UNL     1     -34.679  15.112  -2.941  1.00 20.00     0.068 C 
HETATM    6  C7  UNL     1     -34.126  14.847  -4.342  1.00 20.00     0.088 C 
HETATM    7  C8  UNL     1     -34.536  16.221  -4.885  1.00 20.00     0.006 C 
HETATM    8  O9  UNL     1     -33.564  16.776  -1.550  1.00 20.00    -0.298 OA
ENDROOT
BRANCH   6   9
HETATM    9  C2  UNL     1     -34.748  13.683  -5.051  1.00 20.00     0.224 C 
HETATM   10  O10 UNL     1     -34.962  12.619  -4.478  1.00 20.00    -0.279 OA
HETATM   11 CL11 UNL     1     -35.102  14.043  -6.712  1.00 20.00    -0.043 Cl
ENDBRANCH   6   9
TORSDOF 1
ENDMDL
MODEL 8
REMARK VINA RESULT:      -4.5      2.201      3.239
REMARK  1 active torsions:
REMARK  status: ('A' for Active; 'I' for Inactive)
REMARK    1  A    between atoms: C2_2  and  C7_7 
ROOT
HETATM    1  C1  UNL     1     -37.252  14.736  -3.808  1.00 20.00     0.132 C 
HETATM    2  C3  UNL     1     -36.765  16.111  -3.395  1.00 20.00     0.084 C 
HETATM    3  C4  UNL     1     -35.788  14.539  -5.725  1.00 20.00     0.013 C 
HETATM    4  C5  UNL     1     -35.225  15.933  -5.380  1.00 20.00     0.007 C 
HETATM    5  C6  UNL     1     -36.080  13.937  -4.345  1.00 20.00     0.068 C 
HETATM    6  C7  UNL     1     -34.985  14.520  -3.449  1.00 20.00     0.088 C 
HETATM    7  C8  UNL     1     -35.288  15.972  -3.834  1.00 20.00     0.006 C 
HETATM    8  O9  UNL     1     -38.408  14.350  -3.748  1.00 20.00    -0.298 OA
ENDROOT
BRANCH   6   9
HETATM    9  C2  UNL     1     -33.598  14.061  -3.776  1.00 20.00     0.224 C 
HETATM   10  O10 UNL     1     -33.366  12.908  -4.126  1.00 20.00    -0.279 OA
HETATM   11 CL11 UNL     1     -32.430  15.334  -3.598  1.00 20.00    -0.043 Cl
ENDBRANCH   6   9
TORSDOF 1
ENDMDL
MODEL 9
REMARK VINA RESULT:      -4.4      2.742      3.435
REMARK  1 active torsions:
REMARK  status: ('A' for Active; 'I' for Inactive)
REMARK    1  A    between atoms: C2_2  and  C7_7 
ROOT
HETATM    1  C1  UNL     1     -33.414  13.859  -3.912  1.00 20.00     0.132 C 
HETATM    2  C3  UNL     1     -33.404  15.260  -3.332  1.00 20.00     0.084 C 
HETATM    3  C4  UNL     1     -35.806  13.772  -4.265  1.00 20.00     0.013 C 
HETATM    4  C5  UNL     1     -35.896  15.201  -3.692  1.00 20.00     0.007 C 
HETATM    5  C6  UNL     1     -34.463  13.784  -5.005  1.00 20.00     0.068 C 
HETATM    6  C7  UNL     1     -34.342  15.216  -5.528  1.00 20.00     0.088 C 
HETATM    7  C8  UNL     1     -34.571  15.856  -4.154  1.00 20.00     0.006 C 
HETATM    8  O9  UNL     1     -32.712  12.934  -3.536  1.00 20.00    -0.298 OA
ENDROOT
BRANCH   6   9
HETATM    9  C2  UNL     1     -35.351  15.591  -6.569  1.00 20.00     0.224 C 
HETATM   10  O10 UNL     1     -35.935  16.670  -6.543  1.00 20.00    -0.279 OA
HETATM   11 CL11 UNL     1     -35.562  14.339  -7.755  1.00 20.00    -0.043 Cl
ENDBRANCH   6   9
TORSDOF 1
ENDMDL
