MODEL 1
REMARK VINA RESULT:      -4.2      0.000      0.000
REMARK  1 active torsions:
REMARK  status: ('A' for Active; 'I' for Inactive)
REMARK    1  A    between atoms: C2_2  and  C6_6 
ROOT
HETATM    1  C1  UNL     1     -33.651  15.199  -3.310  1.00 20.00     0.139 C 
HETATM    2  C3  UNL     1     -33.639  16.485  -2.509  1.00 20.00     0.089 C 
HETATM    3  C4  UNL     1     -34.915  16.666  -1.707  1.00 20.00     0.081 C 
HETATM    4  C5  UNL     1     -35.906  15.849  -4.192  1.00 20.00     0.093 C 
HETATM    5  C6  UNL     1     -34.996  14.688  -3.804  1.00 20.00     0.133 C 
HETATM    6  O8  UNL     1     -32.600  14.604  -3.555  1.00 20.00    -0.297 OA
HETATM    7  S10 UNL     1     -36.382  16.883  -2.766  1.00 20.00    -0.168 SA
ENDROOT
BRANCH   5   8
HETATM    8  C2  UNL     1     -34.858  13.774  -4.983  1.00 20.00     0.135 C 
HETATM    9  C7  UNL     1     -34.795  14.424  -6.340  1.00 20.00     0.091 C 
HETATM   10  O9  UNL     1     -34.797  12.553  -4.850  1.00 20.00    -0.298 OA
ENDBRANCH   5   8
TORSDOF 1
ENDMDL
MODEL 2
REMARK VINA RESULT:      -4.2      1.587      1.946
REMARK  1 active torsions:
REMARK  status: ('A' for Active; 'I' for Inactive)
REMARK    1  A    between atoms: C2_2  and  C6_6 
ROOT
HETATM    1  C1  UNL     1     -33.401  16.465  -4.059  1.00 20.00     0.139 C 
HETATM    2  C3  UNL     1     -33.769  17.883  -3.671  1.00 20.00     0.089 C 
HETATM    3  C4  UNL     1     -33.713  18.093  -2.168  1.00 20.00     0.081 C 
HETATM    4  C5  UNL     1     -35.052  15.645  -2.358  1.00 20.00     0.093 C 
HETATM    5  C6  UNL     1     -33.735  15.355  -3.072  1.00 20.00     0.133 C 
HETATM    6  O8  UNL     1     -32.860  16.231  -5.141  1.00 20.00    -0.297 OA
HETATM    7  S10 UNL     1     -34.963  17.111  -1.278  1.00 20.00    -0.168 SA
ENDROOT
BRANCH   5   8
HETATM    8  C2  UNL     1     -33.837  14.016  -3.738  1.00 20.00     0.135 C 
HETATM    9  C7  UNL     1     -35.151  13.683  -4.391  1.00 20.00     0.091 C 
HETATM   10  O9  UNL     1     -32.892  13.229  -3.752  1.00 20.00    -0.298 OA
ENDBRANCH   5   8
TORSDOF 1
ENDMDL
MODEL 3
REMARK VINA RESULT:      -4.2      1.945      2.719
REMARK  1 active torsions:
REMARK  status: ('A' for Active; 'I' for Inactive)
REMARK    1  A    between atoms: C2_2  and  C6_6 
ROOT
HETATM    1  C1  UNL     1     -35.036  13.853  -4.090  1.00 20.00     0.139 C 
HETATM    2  C3  UNL     1     -33.548  14.131  -4.139  1.00 20.00     0.089 C 
HETATM    3  C4  UNL     1     -33.157  15.289  -3.236  1.00 20.00     0.081 C 
HETATM    4  C5  UNL     1     -35.437  16.293  -4.506  1.00 20.00     0.093 C 
HETATM    5  C6  UNL     1     -35.966  15.030  -3.834  1.00 20.00     0.133 C 
HETATM    6  O8  UNL     1     -35.465  12.711  -4.264  1.00 20.00    -0.297 OA
HETATM    7  S10 UNL     1     -33.867  16.874  -3.784  1.00 20.00    -0.168 SA
ENDROOT
BRANCH   5   8
HETATM    8  C2  UNL     1     -37.357  14.771  -4.329  1.00 20.00     0.135 C 
HETATM    9  C7  UNL     1     -37.665  15.199  -5.739  1.00 20.00     0.091 C 
HETATM   10  O9  UNL     1     -38.205  14.235  -3.618  1.00 20.00    -0.298 OA
ENDBRANCH   5   8
TORSDOF 1
ENDMDL
MODEL 4
REMARK VINA RESULT:      -3.9      1.729      3.627
REMARK  1 active torsions:
REMARK  status: ('A' for Active; 'I' for Inactive)
REMARK    1  A    between atoms: C2_2  and  C6_6 
ROOT
HETATM    1  C1  UNL     1     -33.537  14.916  -3.736  1.00 20.00     0.139 C 
HETATM    2  C3  UNL     1     -34.051  13.604  -4.292  1.00 20.00     0.089 C 
HETATM    3  C4  UNL     1     -35.241  13.806  -5.214  1.00 20.00     0.081 C 
HETATM    4  C5  UNL     1     -35.888  15.476  -3.065  1.00 20.00     0.093 C 
HETATM    5  C6  UNL     1     -34.545  16.036  -3.524  1.00 20.00     0.133 C 
HETATM    6  O8  UNL     1     -32.344  15.055  -3.460  1.00 20.00    -0.297 OA
HETATM    7  S10 UNL     1     -36.701  14.456  -4.340  1.00 20.00    -0.168 SA
ENDROOT
BRANCH   5   8
HETATM    8  C2  UNL     1     -34.075  17.039  -2.514  1.00 20.00     0.135 C 
HETATM    9  C7  UNL     1     -34.333  16.714  -1.067  1.00 20.00     0.091 C 
HETATM   10  O9  UNL     1     -33.505  18.075  -2.850  1.00 20.00    -0.298 OA
ENDBRANCH   5   8
TORSDOF 1
ENDMDL
MODEL 5
REMARK VINA RESULT:      -3.9      2.221      3.388
REMARK  1 active torsions:
REMARK  status: ('A' for Active; 'I' for Inactive)
REMARK    1  A    between atoms: C2_2  and  C6_6 
ROOT
HETATM    1  C1  UNL     1     -37.020  14.922  -4.530  1.00 20.00     0.139 C 
HETATM    2  C3  UNL     1     -37.720  16.237  -4.808  1.00 20.00     0.089 C 
HETATM    3  C4  UNL     1     -37.443  16.742  -6.213  1.00 20.00     0.081 C 
HETATM    4  C5  UNL     1     -34.895  15.955  -5.371  1.00 20.00     0.093 C 
HETATM    5  C6  UNL     1     -35.698  14.665  -5.238  1.00 20.00     0.133 C 
HETATM    6  O8  UNL     1     -37.510  14.104  -3.750  1.00 20.00    -0.297 OA
HETATM    7  S10 UNL     1     -35.692  17.174  -6.468  1.00 20.00    -0.168 SA
ENDROOT
BRANCH   5   8
HETATM    8  C2  UNL     1     -34.858  13.651  -4.520  1.00 20.00     0.135 C 
HETATM    9  C7  UNL     1     -33.970  14.165  -3.419  1.00 20.00     0.091 C 
HETATM   10  O9  UNL     1     -34.895  12.458  -4.815  1.00 20.00    -0.298 OA
ENDBRANCH   5   8
TORSDOF 1
ENDMDL
MODEL 6
REMARK VINA RESULT:      -3.9      2.656      4.365
REMARK  1 active torsions:
REMARK  status: ('A' for Active; 'I' for Inactive)
REMARK    1  A    between atoms: C2_2  and  C6_6 
ROOT
HETATM    1  C1  UNL     1     -35.960  16.021  -3.135  1.00 20.00     0.139 C 
HETATM    2  C3  UNL     1     -36.198  15.124  -4.332  1.00 20.00     0.089 C 
HETATM    3  C4  UNL     1     -35.592  13.745  -4.138  1.00 20.00     0.081 C 
HETATM    4  C5  UNL     1     -33.530  15.411  -3.246  1.00 20.00     0.093 C 
HETATM    5  C6  UNL     1     -34.686  15.802  -2.331  1.00 20.00     0.133 C 
HETATM    6  O8  UNL     1     -36.772  16.900  -2.839  1.00 20.00    -0.297 OA
HETATM    7  S10 UNL     1     -33.773  13.788  -4.040  1.00 20.00    -0.168 SA
ENDROOT
BRANCH   5   8
HETATM    8  C2  UNL     1     -34.290  17.020  -1.553  1.00 20.00     0.135 C 
HETATM    9  C7  UNL     1     -34.736  17.080  -0.117  1.00 20.00     0.091 C 
HETATM   10  O9  UNL     1     -33.632  17.925  -2.062  1.00 20.00    -0.298 OA
ENDBRANCH   5   8
TORSDOF 1
ENDMDL
MODEL 7
REMARK VINA RESULT:      -3.8      2.675      3.133
REMARK  1 active torsions:
REMARK  status: ('A' for Active; 'I' for Inactive)
REMARK    1  A    between atoms: C2_2  and  C6_6 
ROOT
HETATM    1  C1  UNL     1     -35.800  16.054  -3.090  1.00 20.00     0.139 C 
HETATM    2  C3  UNL     1     -34.448  15.939  -2.415  1.00 20.00     0.089 C 
HETATM    3  C4  UNL     1     -33.369  15.480  -3.380  1.00 20.00     0.081 C 
HETATM    4  C5  UNL     1     -35.470  13.738  -3.994  1.00 20.00     0.093 C 
HETATM    5  C6  UNL     1     -36.095  15.107  -4.244  1.00 20.00     0.133 C 
HETATM    6  O8  UNL     1     -36.626  16.882  -2.701  1.00 20.00    -0.297 OA
HETATM    7  S10 UNL     1     -33.647  13.784  -3.985  1.00 20.00    -0.168 SA
ENDROOT
BRANCH   5   8
HETATM    8  C2  UNL     1     -37.566  14.927  -4.468  1.00 20.00     0.135 C 
HETATM    9  C7  UNL     1     -38.172  15.679  -5.623  1.00 20.00     0.091 C 
HETATM   10  O9  UNL     1     -38.245  14.200  -3.745  1.00 20.00    -0.298 OA
ENDBRANCH   5   8
TORSDOF 1
ENDMDL
MODEL 8
REMARK VINA RESULT:      -3.8      1.863      3.817
REMARK  1 active torsions:
REMARK  status: ('A' for Active; 'I' for Inactive)
REMARK    1  A    between atoms: C2_2  and  C6_6 
ROOT
HETATM    1  C1  UNL     1     -34.761  14.077  -5.674  1.00 20.00     0.139 C 
HETATM    2  C3  UNL     1     -35.650  14.342  -6.872  1.00 20.00     0.089 C 
HETATM    3  C4  UNL     1     -35.010  15.311  -7.850  1.00 20.00     0.081 C 
HETATM    4  C5  UNL     1     -34.512  16.557  -5.396  1.00 20.00     0.093 C 
HETATM    5  C6  UNL     1     -33.840  15.199  -5.217  1.00 20.00     0.133 C 
HETATM    6  O8  UNL     1     -34.800  12.991  -5.093  1.00 20.00    -0.297 OA
HETATM    7  S10 UNL     1     -34.801  16.978  -7.147  1.00 20.00    -0.168 SA
ENDROOT
BRANCH   5   8
HETATM    8  C2  UNL     1     -33.435  15.052  -3.782  1.00 20.00     0.135 C 
HETATM    9  C7  UNL     1     -34.428  15.509  -2.747  1.00 20.00     0.091 C 
HETATM   10  O9  UNL     1     -32.346  14.579  -3.464  1.00 20.00    -0.298 OA
ENDBRANCH   5   8
TORSDOF 1
ENDMDL
MODEL 9
REMARK VINA RESULT:      -3.8      2.143      2.749
REMARK  1 active torsions:
REMARK  status: ('A' for Active; 'I' for Inactive)
REMARK    1  A    between atoms: C2_2  and  C6_6 
ROOT
HETATM    1  C1  UNL     1     -34.058  15.721  -5.879  1.00 20.00     0.139 C 
HETATM    2  C3  UNL     1     -34.299  17.181  -6.206  1.00 20.00     0.089 C 
HETATM    3  C4  UNL     1     -33.491  18.104  -5.311  1.00 20.00     0.081 C 
HETATM    4  C5  UNL     1     -34.504  16.258  -3.470  1.00 20.00     0.093 C 
HETATM    5  C6  UNL     1     -33.729  15.367  -4.436  1.00 20.00     0.133 C 
HETATM    6  O8  UNL     1     -34.139  14.861  -6.758  1.00 20.00    -0.297 OA
HETATM    7  S10 UNL     1     -34.001  18.008  -3.565  1.00 20.00    -0.168 SA
ENDROOT
BRANCH   5   8
HETATM    8  C2  UNL     1     -34.039  13.935  -4.119  1.00 20.00     0.135 C 
HETATM    9  C7  UNL     1     -35.488  13.529  -4.169  1.00 20.00     0.091 C 
HETATM   10  O9  UNL     1     -33.154  13.131  -3.834  1.00 20.00    -0.298 OA
ENDBRANCH   5   8
TORSDOF 1
ENDMDL
