MODEL 1
REMARK VINA RESULT:      -5.2      0.000      0.000
REMARK  0 active torsions:
REMARK  status: ('A' for Active; 'I' for Inactive)
ROOT
HETATM    1  C1  UNL     1     -34.436  14.471  -3.375  1.00 20.00     0.057 C 
HETATM    2  C2  UNL     1     -33.990  17.853  -4.796  1.00 20.00    -0.019 C 
HETATM    3  C3  UNL     1     -34.049  16.531  -4.594  1.00 20.00    -0.051 C 
HETATM    4  C4  UNL     1     -34.147  15.784  -3.358  1.00 20.00    -0.052 C 
HETATM    5  C5  UNL     1     -34.751  13.762  -4.649  1.00 20.00     0.150 C 
HETATM    6  C6  UNL     1     -33.903  18.182  -6.252  1.00 20.00     0.028 C 
HETATM    7  C7  UNL     1     -34.909  14.586  -5.913  1.00 20.00     0.092 C 
HETATM    8  C8  UNL     1     -34.301  16.862  -6.918  1.00 20.00     0.013 C 
HETATM    9  C9  UNL     1     -33.966  15.779  -5.891  1.00 20.00     0.026 C 
HETATM   10  C10 UNL     1     -33.893  16.505  -2.065  1.00 20.00     0.049 C 
HETATM   11  O11 UNL     1     -34.947  12.547  -4.639  1.00 20.00    -0.293 OA
ENDROOT
TORSDOF 0
ENDMDL
MODEL 2
REMARK VINA RESULT:      -5.1      0.617      2.827
REMARK  0 active torsions:
REMARK  status: ('A' for Active; 'I' for Inactive)
ROOT
HETATM    1  C1  UNL     1     -34.590  14.534  -5.923  1.00 20.00     0.057 C 
HETATM    2  C2  UNL     1     -33.810  17.697  -4.179  1.00 20.00    -0.019 C 
HETATM    3  C3  UNL     1     -34.225  16.467  -4.506  1.00 20.00    -0.051 C 
HETATM    4  C4  UNL     1     -34.391  15.859  -5.808  1.00 20.00    -0.052 C 
HETATM    5  C5  UNL     1     -34.559  13.638  -4.731  1.00 20.00     0.150 C 
HETATM    6  C6  UNL     1     -33.785  17.891  -2.696  1.00 20.00     0.028 C 
HETATM    7  C7  UNL     1     -34.128  14.224  -3.401  1.00 20.00     0.092 C 
HETATM    8  C8  UNL     1     -33.891  16.458  -2.168  1.00 20.00     0.013 C 
HETATM    9  C9  UNL     1     -34.582  15.671  -3.284  1.00 20.00     0.026 C 
HETATM   10  C10 UNL     1     -34.360  16.745  -7.020  1.00 20.00     0.049 C 
HETATM   11  O11 UNL     1     -34.810  12.441  -4.862  1.00 20.00    -0.293 OA
ENDROOT
TORSDOF 0
ENDMDL
MODEL 3
REMARK VINA RESULT:      -4.9      2.437      3.256
REMARK  0 active torsions:
REMARK  status: ('A' for Active; 'I' for Inactive)
ROOT
HETATM    1  C1  UNL     1     -35.407  13.787  -4.061  1.00 20.00     0.057 C 
HETATM    2  C2  UNL     1     -36.271  17.094  -2.655  1.00 20.00    -0.019 C 
HETATM    3  C3  UNL     1     -35.699  15.918  -2.941  1.00 20.00    -0.051 C 
HETATM    4  C4  UNL     1     -36.222  14.785  -3.673  1.00 20.00    -0.052 C 
HETATM    5  C5  UNL     1     -33.935  13.855  -3.832  1.00 20.00     0.150 C 
HETATM    6  C6  UNL     1     -35.350  17.978  -1.877  1.00 20.00     0.028 C 
HETATM    7  C7  UNL     1     -33.346  15.149  -3.305  1.00 20.00     0.092 C 
HETATM    8  C8  UNL     1     -33.993  17.295  -2.065  1.00 20.00     0.013 C 
HETATM    9  C9  UNL     1     -34.320  15.829  -2.355  1.00 20.00     0.026 C 
HETATM   10  C10 UNL     1     -37.695  14.739  -3.964  1.00 20.00     0.049 C 
HETATM   11  O11 UNL     1     -33.226  12.898  -4.140  1.00 20.00    -0.293 OA
ENDROOT
TORSDOF 0
ENDMDL
MODEL 4
REMARK VINA RESULT:      -4.8      1.065      2.742
REMARK  0 active torsions:
REMARK  status: ('A' for Active; 'I' for Inactive)
ROOT
HETATM    1  C1  UNL     1     -34.777  13.744  -5.573  1.00 20.00     0.057 C 
HETATM    2  C2  UNL     1     -34.398  17.118  -7.032  1.00 20.00    -0.019 C 
HETATM    3  C3  UNL     1     -34.530  16.071  -6.209  1.00 20.00    -0.051 C 
HETATM    4  C4  UNL     1     -34.935  14.711  -6.493  1.00 20.00    -0.052 C 
HETATM    5  C5  UNL     1     -34.101  14.015  -4.271  1.00 20.00     0.150 C 
HETATM    6  C6  UNL     1     -33.942  18.339  -6.298  1.00 20.00     0.028 C 
HETATM    7  C7  UNL     1     -33.441  15.366  -4.069  1.00 20.00     0.092 C 
HETATM    8  C8  UNL     1     -33.456  17.766  -4.964  1.00 20.00     0.013 C 
HETATM    9  C9  UNL     1     -34.223  16.453  -4.790  1.00 20.00     0.026 C 
HETATM   10  C10 UNL     1     -35.559  14.416  -7.828  1.00 20.00     0.049 C 
HETATM   11  O11 UNL     1     -34.030  13.126  -3.424  1.00 20.00    -0.293 OA
ENDROOT
TORSDOF 0
ENDMDL
MODEL 5
REMARK VINA RESULT:      -4.8      2.209      3.540
REMARK  0 active torsions:
REMARK  status: ('A' for Active; 'I' for Inactive)
ROOT
HETATM    1  C1  UNL     1     -33.906  17.758  -3.303  1.00 20.00     0.057 C 
HETATM    2  C2  UNL     1     -34.707  14.151  -3.362  1.00 20.00    -0.019 C 
HETATM    3  C3  UNL     1     -34.534  15.444  -3.663  1.00 20.00    -0.051 C 
HETATM    4  C4  UNL     1     -34.291  16.575  -2.793  1.00 20.00    -0.052 C 
HETATM    5  C5  UNL     1     -33.631  17.923  -4.760  1.00 20.00     0.150 C 
HETATM    6  C6  UNL     1     -34.923  13.327  -4.591  1.00 20.00     0.028 C 
HETATM    7  C7  UNL     1     -33.628  16.686  -5.637  1.00 20.00     0.092 C 
HETATM    8  C8  UNL     1     -34.476  14.270  -5.711  1.00 20.00     0.013 C 
HETATM    9  C9  UNL     1     -34.654  15.679  -5.141  1.00 20.00     0.026 C 
HETATM   10  C10 UNL     1     -34.504  16.400  -1.317  1.00 20.00     0.049 C 
HETATM   11  O11 UNL     1     -33.344  19.034  -5.204  1.00 20.00    -0.293 OA
ENDROOT
TORSDOF 0
ENDMDL
MODEL 6
REMARK VINA RESULT:      -4.8     12.146     13.985
REMARK  0 active torsions:
REMARK  status: ('A' for Active; 'I' for Inactive)
ROOT
HETATM    1  C1  UNL     1     -32.597   7.561   4.625  1.00 20.00     0.057 C 
HETATM    2  C2  UNL     1     -34.642   5.073   6.438  1.00 20.00    -0.019 C 
HETATM    3  C3  UNL     1     -34.096   5.877   5.517  1.00 20.00    -0.051 C 
HETATM    4  C4  UNL     1     -33.236   7.029   5.682  1.00 20.00    -0.052 C 
HETATM    5  C5  UNL     1     -32.680   6.935   3.273  1.00 20.00     0.150 C 
HETATM    6  C6  UNL     1     -35.462   3.993   5.808  1.00 20.00     0.028 C 
HETATM    7  C7  UNL     1     -33.361   5.587   3.143  1.00 20.00     0.092 C 
HETATM    8  C8  UNL     1     -35.018   4.046   4.344  1.00 20.00     0.013 C 
HETATM    9  C9  UNL     1     -34.511   5.474   4.131  1.00 20.00     0.026 C 
HETATM   10  C10 UNL     1     -33.097   7.627   7.052  1.00 20.00     0.049 C 
HETATM   11  O11 UNL     1     -32.138   7.483   2.314  1.00 20.00    -0.293 OA
ENDROOT
TORSDOF 0
ENDMDL
MODEL 7
REMARK VINA RESULT:      -4.7      2.283      4.398
REMARK  0 active torsions:
REMARK  status: ('A' for Active; 'I' for Inactive)
ROOT
HETATM    1  C1  UNL     1     -34.416  16.994  -7.127  1.00 20.00     0.057 C 
HETATM    2  C2  UNL     1     -34.417  13.938  -5.051  1.00 20.00    -0.019 C 
HETATM    3  C3  UNL     1     -34.155  15.131  -5.599  1.00 20.00    -0.051 C 
HETATM    4  C4  UNL     1     -34.589  15.687  -6.862  1.00 20.00    -0.052 C 
HETATM    5  C5  UNL     1     -33.859  17.927  -6.105  1.00 20.00     0.150 C 
HETATM    6  C6  UNL     1     -33.760  13.791  -3.715  1.00 20.00     0.028 C 
HETATM    7  C7  UNL     1     -33.647  17.409  -4.696  1.00 20.00     0.092 C 
HETATM    8  C8  UNL     1     -33.369  15.232  -3.374  1.00 20.00     0.013 C 
HETATM    9  C9  UNL     1     -33.244  15.942  -4.724  1.00 20.00     0.026 C 
HETATM   10  C10 UNL     1     -35.210  14.767  -7.873  1.00 20.00     0.049 C 
HETATM   11  O11 UNL     1     -33.653  19.103  -6.401  1.00 20.00    -0.293 OA
ENDROOT
TORSDOF 0
ENDMDL
MODEL 8
REMARK VINA RESULT:      -4.7      2.380      3.049
REMARK  0 active torsions:
REMARK  status: ('A' for Active; 'I' for Inactive)
ROOT
HETATM    1  C1  UNL     1     -37.016  16.132  -3.468  1.00 20.00     0.057 C 
HETATM    2  C2  UNL     1     -33.322  16.122  -3.560  1.00 20.00    -0.019 C 
HETATM    3  C3  UNL     1     -34.615  15.797  -3.439  1.00 20.00    -0.051 C 
HETATM    4  C4  UNL     1     -35.781  16.649  -3.344  1.00 20.00    -0.052 C 
HETATM    5  C5  UNL     1     -37.225  14.691  -3.794  1.00 20.00     0.150 C 
HETATM    6  C6  UNL     1     -32.455  14.906  -3.632  1.00 20.00     0.028 C 
HETATM    7  C7  UNL     1     -36.015  13.851  -4.153  1.00 20.00     0.092 C 
HETATM    8  C8  UNL     1     -33.465  13.790  -3.915  1.00 20.00     0.013 C 
HETATM    9  C9  UNL     1     -34.797  14.308  -3.367  1.00 20.00     0.026 C 
HETATM   10  C10 UNL     1     -35.577  18.113  -3.079  1.00 20.00     0.049 C 
HETATM   11  O11 UNL     1     -38.367  14.235  -3.836  1.00 20.00    -0.293 OA
ENDROOT
TORSDOF 0
ENDMDL
MODEL 9
REMARK VINA RESULT:      -4.7     11.922     13.474
REMARK  0 active torsions:
REMARK  status: ('A' for Active; 'I' for Inactive)
ROOT
HETATM    1  C1  UNL     1     -34.562   5.520   6.091  1.00 20.00     0.057 C 
HETATM    2  C2  UNL     1     -32.338   7.789   4.203  1.00 20.00    -0.019 C 
HETATM    3  C3  UNL     1     -33.047   6.743   4.646  1.00 20.00    -0.051 C 
HETATM    4  C4  UNL     1     -33.696   6.536   5.922  1.00 20.00    -0.052 C 
HETATM    5  C5  UNL     1     -34.948   4.633   4.956  1.00 20.00     0.150 C 
HETATM    6  C6  UNL     1     -31.857   7.572   2.804  1.00 20.00     0.028 C 
HETATM    7  C7  UNL     1     -34.478   5.001   3.561  1.00 20.00     0.092 C 
HETATM    8  C8  UNL     1     -32.707   6.388   2.336  1.00 20.00     0.013 C 
HETATM    9  C9  UNL     1     -33.105   5.651   3.617  1.00 20.00     0.026 C 
HETATM   10  C10 UNL     1     -33.361   7.464   7.054  1.00 20.00     0.049 C 
HETATM   11  O11 UNL     1     -35.691   3.673   5.157  1.00 20.00    -0.293 OA
ENDROOT
TORSDOF 0
ENDMDL
