MODEL 1
REMARK VINA RESULT:      -5.0      0.000      0.000
REMARK  1 active torsions:
REMARK  status: ('A' for Active; 'I' for Inactive)
REMARK    1  A    between atoms: C3_3  and  C8_8 
ROOT
HETATM    1  C1  UNL     1     -34.065  15.850  -2.632  1.00 20.00    -0.079 C 
HETATM    2  C2  UNL     1     -33.854  16.713  -1.635  1.00 20.00    -0.028 C 
HETATM    3  C4  UNL     1     -35.357  15.133  -2.931  1.00 20.00     0.039 C 
HETATM    4  C5  UNL     1     -33.391  16.022  -4.993  1.00 20.00     0.023 C 
HETATM    5  C6  UNL     1     -33.522  13.933  -3.846  1.00 20.00     0.014 C 
HETATM    6  C7  UNL     1     -33.044  15.373  -3.640  1.00 20.00     0.015 C 
HETATM    7  C8  UNL     1     -34.685  15.290  -5.403  1.00 20.00     0.077 C 
HETATM    8  C9  UNL     1     -34.955  14.352  -4.201  1.00 20.00     0.003 C 
HETATM    9  C10 UNL     1     -34.902  17.139  -0.661  1.00 20.00     0.036 C 
ENDROOT
BRANCH   7  10
HETATM   10  C3  UNL     1     -35.819  16.216  -5.706  1.00 20.00     0.223 C 
HETATM   11  O11 UNL     1     -36.888  15.804  -6.149  1.00 20.00    -0.279 OA
HETATM   12 CL12 UNL     1     -35.424  17.872  -5.357  1.00 20.00    -0.043 Cl
ENDBRANCH   7  10
TORSDOF 1
ENDMDL
MODEL 2
REMARK VINA RESULT:      -5.0      1.903      2.414
REMARK  1 active torsions:
REMARK  status: ('A' for Active; 'I' for Inactive)
REMARK    1  A    between atoms: C3_3  and  C8_8 
ROOT
HETATM    1  C1  UNL     1     -34.409  16.817  -2.890  1.00 20.00    -0.079 C 
HETATM    2  C2  UNL     1     -34.850  17.468  -1.811  1.00 20.00    -0.028 C 
HETATM    3  C4  UNL     1     -33.635  15.523  -2.896  1.00 20.00     0.039 C 
HETATM    4  C5  UNL     1     -35.589  16.342  -4.997  1.00 20.00     0.023 C 
HETATM    5  C6  UNL     1     -33.236  16.727  -4.904  1.00 20.00     0.014 C 
HETATM    6  C7  UNL     1     -34.550  17.261  -4.329  1.00 20.00     0.015 C 
HETATM    7  C8  UNL     1     -34.844  14.996  -5.098  1.00 20.00     0.077 C 
HETATM    8  C9  UNL     1     -33.485  15.294  -4.416  1.00 20.00     0.003 C 
HETATM    9  C10 UNL     1     -34.671  16.984  -0.410  1.00 20.00     0.036 C 
ENDROOT
BRANCH   7  10
HETATM   10  C3  UNL     1     -35.589  13.858  -4.477  1.00 20.00     0.223 C 
HETATM   11  O11 UNL     1     -35.106  12.730  -4.411  1.00 20.00    -0.279 OA
HETATM   12 CL12 UNL     1     -37.152  14.340  -3.891  1.00 20.00    -0.043 Cl
ENDBRANCH   7  10
TORSDOF 1
ENDMDL
MODEL 3
REMARK VINA RESULT:      -5.0      2.066      2.936
REMARK  1 active torsions:
REMARK  status: ('A' for Active; 'I' for Inactive)
REMARK    1  A    between atoms: C3_3  and  C8_8 
ROOT
HETATM    1  C1  UNL     1     -35.402  17.040  -3.959  1.00 20.00    -0.079 C 
HETATM    2  C2  UNL     1     -36.091  17.981  -4.608  1.00 20.00    -0.028 C 
HETATM    3  C4  UNL     1     -35.966  15.780  -3.353  1.00 20.00     0.039 C 
HETATM    4  C5  UNL     1     -33.247  16.012  -4.560  1.00 20.00     0.023 C 
HETATM    5  C6  UNL     1     -33.917  16.354  -2.295  1.00 20.00     0.014 C 
HETATM    6  C7  UNL     1     -33.921  17.059  -3.654  1.00 20.00     0.015 C 
HETATM    7  C8  UNL     1     -33.731  14.676  -3.960  1.00 20.00     0.077 C 
HETATM    8  C9  UNL     1     -34.675  15.125  -2.817  1.00 20.00     0.003 C 
HETATM    9  C10 UNL     1     -37.559  17.912  -4.871  1.00 20.00     0.036 C 
ENDROOT
BRANCH   7  10
HETATM   10  C3  UNL     1     -34.386  13.780  -4.961  1.00 20.00     0.223 C 
HETATM   11  O11 UNL     1     -34.744  12.641  -4.671  1.00 20.00    -0.279 OA
HETATM   12 CL12 UNL     1     -34.561  14.545  -6.511  1.00 20.00    -0.043 Cl
ENDBRANCH   7  10
TORSDOF 1
ENDMDL
MODEL 4
REMARK VINA RESULT:      -4.8      1.932      3.054
REMARK  1 active torsions:
REMARK  status: ('A' for Active; 'I' for Inactive)
REMARK    1  A    between atoms: C3_3  and  C8_8 
ROOT
HETATM    1  C1  UNL     1     -33.982  17.017  -4.279  1.00 20.00    -0.079 C 
HETATM    2  C2  UNL     1     -33.410  17.631  -5.317  1.00 20.00    -0.028 C 
HETATM    3  C4  UNL     1     -35.407  17.188  -3.817  1.00 20.00     0.039 C 
HETATM    4  C5  UNL     1     -33.855  14.647  -3.624  1.00 20.00     0.023 C 
HETATM    5  C6  UNL     1     -34.053  16.410  -2.027  1.00 20.00     0.014 C 
HETATM    6  C7  UNL     1     -33.314  16.056  -3.321  1.00 20.00     0.015 C 
HETATM    7  C8  UNL     1     -35.309  14.721  -3.117  1.00 20.00     0.077 C 
HETATM    8  C9  UNL     1     -35.442  16.188  -2.640  1.00 20.00     0.003 C 
HETATM    9  C10 UNL     1     -34.121  18.580  -6.223  1.00 20.00     0.036 C 
ENDROOT
BRANCH   7  10
HETATM   10  C3  UNL     1     -36.318  14.334  -4.152  1.00 20.00     0.223 C 
HETATM   11  O11 UNL     1     -37.499  14.158  -3.866  1.00 20.00    -0.279 OA
HETATM   12 CL12 UNL     1     -35.610  14.180  -5.731  1.00 20.00    -0.043 Cl
ENDBRANCH   7  10
TORSDOF 1
ENDMDL
MODEL 5
REMARK VINA RESULT:      -4.7      1.598      1.748
REMARK  1 active torsions:
REMARK  status: ('A' for Active; 'I' for Inactive)
REMARK    1  A    between atoms: C3_3  and  C8_8 
ROOT
HETATM    1  C1  UNL     1     -33.901  16.729  -3.345  1.00 20.00    -0.079 C 
HETATM    2  C2  UNL     1     -33.745  18.045  -3.177  1.00 20.00    -0.028 C 
HETATM    3  C4  UNL     1     -34.647  15.796  -2.425  1.00 20.00     0.039 C 
HETATM    4  C5  UNL     1     -34.494  15.493  -5.390  1.00 20.00     0.023 C 
HETATM    5  C6  UNL     1     -33.060  14.585  -3.713  1.00 20.00     0.014 C 
HETATM    6  C7  UNL     1     -33.329  15.890  -4.466  1.00 20.00     0.015 C 
HETATM    7  C8  UNL     1     -35.281  14.479  -4.535  1.00 20.00     0.077 C 
HETATM    8  C9  UNL     1     -34.500  14.467  -3.197  1.00 20.00     0.003 C 
HETATM    9  C10 UNL     1     -34.327  18.818  -2.041  1.00 20.00     0.036 C 
ENDROOT
BRANCH   7  10
HETATM   10  C3  UNL     1     -36.727  14.829  -4.381  1.00 20.00     0.223 C 
HETATM   11  O11 UNL     1     -37.511  14.087  -3.794  1.00 20.00    -0.279 OA
HETATM   12 CL12 UNL     1     -37.113  16.357  -5.112  1.00 20.00    -0.043 Cl
ENDBRANCH   7  10
TORSDOF 1
ENDMDL
MODEL 6
REMARK VINA RESULT:      -4.7      1.982      3.721
REMARK  1 active torsions:
REMARK  status: ('A' for Active; 'I' for Inactive)
REMARK    1  A    between atoms: C3_3  and  C8_8 
ROOT
HETATM    1  C1  UNL     1     -34.524  15.370  -5.580  1.00 20.00    -0.079 C 
HETATM    2  C2  UNL     1     -34.950  15.825  -6.760  1.00 20.00    -0.028 C 
HETATM    3  C4  UNL     1     -33.432  15.975  -4.734  1.00 20.00     0.039 C 
HETATM    4  C5  UNL     1     -35.846  14.591  -3.655  1.00 20.00     0.023 C 
HETATM    5  C6  UNL     1     -33.709  13.677  -4.197  1.00 20.00     0.014 C 
HETATM    6  C7  UNL     1     -35.010  14.130  -4.864  1.00 20.00     0.015 C 
HETATM    7  C8  UNL     1     -34.781  15.173  -2.703  1.00 20.00     0.077 C 
HETATM    8  C9  UNL     1     -33.469  15.029  -3.513  1.00 20.00     0.003 C 
HETATM    9  C10 UNL     1     -34.422  17.053  -7.425  1.00 20.00     0.036 C 
ENDROOT
BRANCH   7  10
HETATM   10  C3  UNL     1     -35.071  16.577  -2.277  1.00 20.00     0.223 C 
HETATM   11  O11 UNL     1     -36.021  17.207  -2.734  1.00 20.00    -0.279 OA
HETATM   12 CL12 UNL     1     -33.930  17.153  -1.100  1.00 20.00    -0.043 Cl
ENDBRANCH   7  10
TORSDOF 1
ENDMDL
MODEL 7
REMARK VINA RESULT:      -4.7      1.890      3.775
REMARK  1 active torsions:
REMARK  status: ('A' for Active; 'I' for Inactive)
REMARK    1  A    between atoms: C3_3  and  C8_8 
ROOT
HETATM    1  C1  UNL     1     -34.576  14.609  -5.510  1.00 20.00    -0.079 C 
HETATM    2  C2  UNL     1     -35.270  14.399  -6.631  1.00 20.00    -0.028 C 
HETATM    3  C4  UNL     1     -33.451  15.597  -5.331  1.00 20.00     0.039 C 
HETATM    4  C5  UNL     1     -35.401  14.842  -3.202  1.00 20.00     0.023 C 
HETATM    5  C6  UNL     1     -33.285  13.863  -3.715  1.00 20.00     0.014 C 
HETATM    6  C7  UNL     1     -34.738  13.873  -4.199  1.00 20.00     0.015 C 
HETATM    7  C8  UNL     1     -34.280  15.862  -2.917  1.00 20.00     0.077 C 
HETATM    8  C9  UNL     1     -33.128  15.385  -3.836  1.00 20.00     0.003 C 
HETATM    9  C10 UNL     1     -35.056  15.152  -7.902  1.00 20.00     0.036 C 
ENDROOT
BRANCH   7  10
HETATM   10  C3  UNL     1     -34.692  17.279  -3.159  1.00 20.00     0.223 C 
HETATM   11  O11 UNL     1     -33.951  18.221  -2.890  1.00 20.00    -0.279 OA
HETATM   12 CL12 UNL     1     -36.286  17.390  -3.841  1.00 20.00    -0.043 Cl
ENDBRANCH   7  10
TORSDOF 1
ENDMDL
MODEL 8
REMARK VINA RESULT:      -4.6      2.255      3.348
REMARK  1 active torsions:
REMARK  status: ('A' for Active; 'I' for Inactive)
REMARK    1  A    between atoms: C3_3  and  C8_8 
ROOT
HETATM    1  C1  UNL     1     -36.466  14.653  -4.377  1.00 20.00    -0.079 C 
HETATM    2  C2  UNL     1     -37.644  14.726  -3.753  1.00 20.00    -0.028 C 
HETATM    3  C4  UNL     1     -35.936  15.632  -5.394  1.00 20.00     0.039 C 
HETATM    4  C5  UNL     1     -34.250  14.134  -3.439  1.00 20.00     0.023 C 
HETATM    5  C6  UNL     1     -34.880  13.519  -5.658  1.00 20.00     0.014 C 
HETATM    6  C7  UNL     1     -35.436  13.555  -4.232  1.00 20.00     0.015 C 
HETATM    7  C8  UNL     1     -33.609  15.111  -4.445  1.00 20.00     0.077 C 
HETATM    8  C9  UNL     1     -34.547  15.017  -5.674  1.00 20.00     0.003 C 
HETATM    9  C10 UNL     1     -38.627  15.832  -3.945  1.00 20.00     0.036 C 
ENDROOT
BRANCH   7  10
HETATM   10  C3  UNL     1     -33.460  16.500  -3.910  1.00 20.00     0.223 C 
HETATM   11  O11 UNL     1     -33.091  17.430  -4.623  1.00 20.00    -0.279 OA
HETATM   12 CL12 UNL     1     -33.866  16.599  -2.224  1.00 20.00    -0.043 Cl
ENDBRANCH   7  10
TORSDOF 1
ENDMDL
MODEL 9
REMARK VINA RESULT:      -4.6      1.237      1.295
REMARK  1 active torsions:
REMARK  status: ('A' for Active; 'I' for Inactive)
REMARK    1  A    between atoms: C3_3  and  C8_8 
ROOT
HETATM    1  C1  UNL     1     -34.679  15.927  -2.408  1.00 20.00    -0.079 C 
HETATM    2  C2  UNL     1     -34.406  16.499  -1.233  1.00 20.00    -0.028 C 
HETATM    3  C4  UNL     1     -35.916  16.147  -3.241  1.00 20.00     0.039 C 
HETATM    4  C5  UNL     1     -33.198  15.606  -4.349  1.00 20.00     0.023 C 
HETATM    5  C6  UNL     1     -34.923  14.057  -3.782  1.00 20.00     0.014 C 
HETATM    6  C7  UNL     1     -33.828  14.906  -3.131  1.00 20.00     0.015 C 
HETATM    7  C8  UNL     1     -34.404  15.813  -5.288  1.00 20.00     0.077 C 
HETATM    8  C9  UNL     1     -35.592  15.259  -4.462  1.00 20.00     0.003 C 
HETATM    9  C10 UNL     1     -35.293  17.495  -0.562  1.00 20.00     0.036 C 
ENDROOT
BRANCH   7  10
HETATM   10  C3  UNL     1     -34.585  17.234  -5.717  1.00 20.00     0.223 C 
HETATM   11  O11 UNL     1     -35.449  17.558  -6.527  1.00 20.00    -0.279 OA
HETATM   12 CL12 UNL     1     -33.454  18.301  -4.942  1.00 20.00    -0.043 Cl
ENDBRANCH   7  10
TORSDOF 1
ENDMDL
