MODEL 1
REMARK VINA RESULT:      -4.9      0.000      0.000
REMARK  0 active torsions:
REMARK  status: ('A' for Active; 'I' for Inactive)
ROOT
HETATM    1  C1  UNL     1     -34.957  13.598  -3.944  1.00 20.00     0.013 A 
HETATM    2  C2  UNL     1     -33.615  13.614  -3.925  1.00 20.00    -0.025 A 
HETATM    3  C3  UNL     1     -35.673  14.792  -3.637  1.00 20.00     0.035 A 
HETATM    4  C4  UNL     1     -35.091  15.954  -3.325  1.00 20.00    -0.046 A 
HETATM    5  C5  UNL     1     -37.133  15.001  -3.599  1.00 20.00     0.254 A 
HETATM    6  C6  UNL     1     -32.809  14.846  -3.591  1.00 20.00     0.031 A 
HETATM    7  C7  UNL     1     -33.610  16.131  -3.262  1.00 20.00     0.040 A 
HETATM    8  C8  UNL     1     -36.068  17.042  -3.049  1.00 20.00     0.161 A 
HETATM    9  C9  UNL     1     -38.616  16.953  -3.103  1.00 20.00     0.153 C 
HETATM   10  N10 UNL     1     -37.316  16.336  -3.250  1.00 20.00    -0.348 N 
HETATM   11  O11 UNL     1     -37.968  14.144  -3.834  1.00 20.00    -0.267 OA
ENDROOT
TORSDOF 0
ENDMDL
MODEL 2
REMARK VINA RESULT:      -4.5      2.670      3.268
REMARK  0 active torsions:
REMARK  status: ('A' for Active; 'I' for Inactive)
ROOT
HETATM    1  C1  UNL     1     -34.765  14.307  -3.404  1.00 20.00     0.013 A 
HETATM    2  C2  UNL     1     -34.883  13.608  -4.543  1.00 20.00    -0.025 A 
HETATM    3  C3  UNL     1     -34.357  15.673  -3.463  1.00 20.00     0.035 A 
HETATM    4  C4  UNL     1     -34.079  16.321  -4.598  1.00 20.00    -0.046 A 
HETATM    5  C5  UNL     1     -34.164  16.620  -2.349  1.00 20.00     0.254 A 
HETATM    6  C6  UNL     1     -34.605  14.195  -5.905  1.00 20.00     0.031 A 
HETATM    7  C7  UNL     1     -34.165  15.680  -5.943  1.00 20.00     0.040 A 
HETATM    8  C8  UNL     1     -33.679  17.737  -4.378  1.00 20.00     0.161 A 
HETATM    9  C9  UNL     1     -33.472  19.018  -2.183  1.00 20.00     0.153 C 
HETATM   10  N10 UNL     1     -33.766  17.818  -2.936  1.00 20.00    -0.348 N 
HETATM   11  O11 UNL     1     -34.333  16.357  -1.171  1.00 20.00    -0.267 OA
ENDROOT
TORSDOF 0
ENDMDL
MODEL 3
REMARK VINA RESULT:      -4.4      2.950      4.319
REMARK  0 active torsions:
REMARK  status: ('A' for Active; 'I' for Inactive)
ROOT
HETATM    1  C1  UNL     1     -33.469  18.682  -2.433  1.00 20.00     0.013 A 
HETATM    2  C2  UNL     1     -33.630  18.949  -1.128  1.00 20.00    -0.025 A 
HETATM    3  C3  UNL     1     -33.860  17.406  -2.938  1.00 20.00     0.035 A 
HETATM    4  C4  UNL     1     -34.389  16.435  -2.186  1.00 20.00    -0.046 A 
HETATM    5  C5  UNL     1     -33.775  16.902  -4.321  1.00 20.00     0.254 A 
HETATM    6  C6  UNL     1     -34.212  17.959  -0.148  1.00 20.00     0.031 A 
HETATM    7  C7  UNL     1     -34.630  16.581  -0.720  1.00 20.00     0.040 A 
HETATM    8  C8  UNL     1     -34.708  15.206  -2.961  1.00 20.00     0.161 A 
HETATM    9  C9  UNL     1     -34.380  14.753  -5.449  1.00 20.00     0.153 C 
HETATM   10  N10 UNL     1     -34.284  15.607  -4.285  1.00 20.00    -0.348 N 
HETATM   11  O11 UNL     1     -33.339  17.534  -5.269  1.00 20.00    -0.267 OA
ENDROOT
TORSDOF 0
ENDMDL
MODEL 4
REMARK VINA RESULT:      -4.4      2.975      3.637
REMARK  0 active torsions:
REMARK  status: ('A' for Active; 'I' for Inactive)
ROOT
HETATM    1  C1  UNL     1     -34.204  15.732  -5.924  1.00 20.00     0.013 A 
HETATM    2  C2  UNL     1     -34.517  14.437  -6.079  1.00 20.00    -0.025 A 
HETATM    3  C3  UNL     1     -34.065  16.263  -4.607  1.00 20.00     0.035 A 
HETATM    4  C4  UNL     1     -34.229  15.546  -3.491  1.00 20.00    -0.046 A 
HETATM    5  C5  UNL     1     -33.730  17.642  -4.206  1.00 20.00     0.254 A 
HETATM    6  C6  UNL     1     -34.735  13.495  -4.920  1.00 20.00     0.031 A 
HETATM    7  C7  UNL     1     -34.578  14.095  -3.500  1.00 20.00     0.040 A 
HETATM    8  C8  UNL     1     -34.027  16.343  -2.250  1.00 20.00     0.161 A 
HETATM    9  C9  UNL     1     -33.429  18.810  -2.014  1.00 20.00     0.153 C 
HETATM   10  N10 UNL     1     -33.719  17.640  -2.813  1.00 20.00    -0.348 N 
HETATM   11  O11 UNL     1     -33.514  18.562  -4.977  1.00 20.00    -0.267 OA
ENDROOT
TORSDOF 0
ENDMDL
MODEL 5
REMARK VINA RESULT:      -4.4      2.568      3.687
REMARK  0 active torsions:
REMARK  status: ('A' for Active; 'I' for Inactive)
ROOT
HETATM    1  C1  UNL     1     -34.702  16.290  -1.160  1.00 20.00     0.013 A 
HETATM    2  C2  UNL     1     -34.421  17.282  -0.301  1.00 20.00    -0.025 A 
HETATM    3  C3  UNL     1     -34.398  16.458  -2.543  1.00 20.00     0.035 A 
HETATM    4  C4  UNL     1     -33.841  17.559  -3.058  1.00 20.00    -0.046 A 
HETATM    5  C5  UNL     1     -34.618  15.510  -3.651  1.00 20.00     0.254 A 
HETATM    6  C6  UNL     1     -33.793  18.588  -0.724  1.00 20.00     0.031 A 
HETATM    7  C7  UNL     1     -33.472  18.746  -2.232  1.00 20.00     0.040 A 
HETATM    8  C8  UNL     1     -33.631  17.474  -4.528  1.00 20.00     0.161 A 
HETATM    9  C9  UNL     1     -34.184  15.555  -6.115  1.00 20.00     0.153 C 
HETATM   10  N10 UNL     1     -34.152  16.150  -4.796  1.00 20.00    -0.348 N 
HETATM   11  O11 UNL     1     -35.111  14.401  -3.535  1.00 20.00    -0.267 OA
ENDROOT
TORSDOF 0
ENDMDL
MODEL 6
REMARK VINA RESULT:      -4.4      3.183      3.603
REMARK  0 active torsions:
REMARK  status: ('A' for Active; 'I' for Inactive)
ROOT
HETATM    1  C1  UNL     1     -34.898  14.085  -5.895  1.00 20.00     0.013 A 
HETATM    2  C2  UNL     1     -34.536  13.287  -4.879  1.00 20.00    -0.025 A 
HETATM    3  C3  UNL     1     -34.460  15.443  -5.906  1.00 20.00     0.035 A 
HETATM    4  C4  UNL     1     -33.697  15.990  -4.955  1.00 20.00    -0.046 A 
HETATM    5  C5  UNL     1     -34.735  16.486  -6.912  1.00 20.00     0.254 A 
HETATM    6  C6  UNL     1     -33.677  13.753  -3.728  1.00 20.00     0.031 A 
HETATM    7  C7  UNL     1     -33.213  15.231  -3.764  1.00 20.00     0.040 A 
HETATM    8  C8  UNL     1     -33.383  17.422  -5.209  1.00 20.00     0.161 A 
HETATM    9  C9  UNL     1     -34.100  18.892  -7.166  1.00 20.00     0.153 C 
HETATM   10  N10 UNL     1     -34.082  17.630  -6.460  1.00 20.00    -0.348 N 
HETATM   11  O11 UNL     1     -35.405  16.327  -7.918  1.00 20.00    -0.267 OA
ENDROOT
TORSDOF 0
ENDMDL
MODEL 7
REMARK VINA RESULT:      -4.4      6.596      7.634
REMARK  0 active torsions:
REMARK  status: ('A' for Active; 'I' for Inactive)
ROOT
HETATM    1  C1  UNL     1     -31.522  19.064   3.042  1.00 20.00     0.013 A 
HETATM    2  C2  UNL     1     -31.899  18.900   4.319  1.00 20.00    -0.025 A 
HETATM    3  C3  UNL     1     -32.459  18.801   1.999  1.00 20.00     0.035 A 
HETATM    4  C4  UNL     1     -33.715  18.394   2.208  1.00 20.00    -0.046 A 
HETATM    5  C5  UNL     1     -32.263  18.914   0.542  1.00 20.00     0.254 A 
HETATM    6  C6  UNL     1     -33.282  18.445   4.721  1.00 20.00     0.031 A 
HETATM    7  C7  UNL     1     -34.281  18.167   3.570  1.00 20.00     0.040 A 
HETATM    8  C8  UNL     1     -34.481  18.194   0.948  1.00 20.00     0.161 A 
HETATM    9  C9  UNL     1     -33.711  18.524  -1.461  1.00 20.00     0.153 C 
HETATM   10  N10 UNL     1     -33.477  18.548  -0.033  1.00 20.00    -0.348 N 
HETATM   11  O11 UNL     1     -31.228  19.263   0.001  1.00 20.00    -0.267 OA
ENDROOT
TORSDOF 0
ENDMDL
MODEL 8
REMARK VINA RESULT:      -4.3      2.142      2.858
REMARK  0 active torsions:
REMARK  status: ('A' for Active; 'I' for Inactive)
ROOT
HETATM    1  C1  UNL     1     -33.446  14.638  -3.200  1.00 20.00     0.013 A 
HETATM    2  C2  UNL     1     -33.673  13.587  -4.003  1.00 20.00    -0.025 A 
HETATM    3  C3  UNL     1     -34.519  15.526  -2.891  1.00 20.00     0.035 A 
HETATM    4  C4  UNL     1     -35.765  15.382  -3.354  1.00 20.00    -0.046 A 
HETATM    5  C5  UNL     1     -34.496  16.730  -2.041  1.00 20.00     0.254 A 
HETATM    6  C6  UNL     1     -35.024  13.286  -4.607  1.00 20.00     0.031 A 
HETATM    7  C7  UNL     1     -36.173  14.264  -4.255  1.00 20.00     0.040 A 
HETATM    8  C8  UNL     1     -36.690  16.445  -2.879  1.00 20.00     0.161 A 
HETATM    9  C9  UNL     1     -36.201  18.424  -1.348  1.00 20.00     0.153 C 
HETATM   10  N10 UNL     1     -35.793  17.235  -2.064  1.00 20.00    -0.348 N 
HETATM   11  O11 UNL     1     -33.513  17.155  -1.457  1.00 20.00    -0.267 OA
ENDROOT
TORSDOF 0
ENDMDL
MODEL 9
REMARK VINA RESULT:      -4.3      1.330      2.250
REMARK  0 active torsions:
REMARK  status: ('A' for Active; 'I' for Inactive)
ROOT
HETATM    1  C1  UNL     1     -33.873  15.911  -3.112  1.00 20.00     0.013 A 
HETATM    2  C2  UNL     1     -33.044  14.905  -3.431  1.00 20.00    -0.025 A 
HETATM    3  C3  UNL     1     -35.277  15.744  -3.302  1.00 20.00     0.035 A 
HETATM    4  C4  UNL     1     -35.839  14.633  -3.787  1.00 20.00    -0.046 A 
HETATM    5  C5  UNL     1     -36.360  16.706  -3.023  1.00 20.00     0.254 A 
HETATM    6  C6  UNL     1     -33.521  13.586  -3.989  1.00 20.00     0.031 A 
HETATM    7  C7  UNL     1     -35.050  13.430  -4.186  1.00 20.00     0.040 A 
HETATM    8  C8  UNL     1     -37.321  14.722  -3.884  1.00 20.00     0.161 A 
HETATM    9  C9  UNL     1     -38.850  16.665  -3.259  1.00 20.00     0.153 C 
HETATM   10  N10 UNL     1     -37.541  16.061  -3.380  1.00 20.00    -0.348 N 
HETATM   11  O11 UNL     1     -36.200  17.827  -2.570  1.00 20.00    -0.267 OA
ENDROOT
TORSDOF 0
ENDMDL
