MODEL 1
REMARK VINA RESULT:      -5.2      0.000      0.000
REMARK  1 active torsions:
REMARK  status: ('A' for Active; 'I' for Inactive)
REMARK    1  A    between atoms: C8_8  and  C10_10 
ROOT
HETATM    1  C1  UNL     1     -33.879  17.264  -4.904  1.00 20.00     0.028 A 
HETATM    2  C2  UNL     1     -34.033  17.559  -6.251  1.00 20.00     0.120 A 
HETATM    3  C3  UNL     1     -34.301  14.969  -5.522  1.00 20.00     0.029 A 
HETATM    4  C4  UNL     1     -34.023  15.938  -4.554  1.00 20.00    -0.034 A 
HETATM    5  C5  UNL     1     -34.437  15.355  -6.833  1.00 20.00     0.220 A 
HETATM    6  C6  UNL     1     -34.398  13.666  -4.894  1.00 20.00     0.013 A 
HETATM    7  C7  UNL     1     -34.181  13.833  -3.579  1.00 20.00    -0.016 A 
HETATM    8  C8  UNL     1     -33.914  15.280  -3.205  1.00 20.00     0.042 A 
HETATM    9  N11 UNL     1     -34.308  16.645  -7.221  1.00 20.00    -0.232 NA
HETATM   10  F12 UNL     1     -34.705  14.437  -7.775  1.00 20.00    -0.183 F 
ENDROOT
BRANCH   8  11
HETATM   11  C10 UNL     1     -34.926  15.809  -2.199  1.00 20.00     0.009 C 
HETATM   12  C9  UNL     1     -34.289  16.715  -1.194  1.00 20.00     0.006 C 
ENDBRANCH   8  11
TORSDOF 1
ENDMDL
MODEL 2
REMARK VINA RESULT:      -5.0      1.413      2.658
REMARK  1 active torsions:
REMARK  status: ('A' for Active; 'I' for Inactive)
REMARK    1  A    between atoms: C8_8  and  C10_10 
ROOT
HETATM    1  C1  UNL     1     -35.461  14.658  -3.481  1.00 20.00     0.028 A 
HETATM    2  C2  UNL     1     -35.534  13.653  -4.435  1.00 20.00     0.120 A 
HETATM    3  C3  UNL     1     -34.246  15.924  -5.139  1.00 20.00     0.029 A 
HETATM    4  C4  UNL     1     -34.797  15.806  -3.860  1.00 20.00    -0.034 A 
HETATM    5  C5  UNL     1     -34.366  14.875  -6.018  1.00 20.00     0.220 A 
HETATM    6  C6  UNL     1     -33.613  17.221  -5.279  1.00 20.00     0.013 A 
HETATM    7  C7  UNL     1     -33.778  17.879  -4.120  1.00 20.00    -0.016 A 
HETATM    8  C8  UNL     1     -34.546  17.073  -3.088  1.00 20.00     0.042 A 
HETATM    9  N11 UNL     1     -35.005  13.729  -5.687  1.00 20.00    -0.232 NA
HETATM   10  F12 UNL     1     -33.841  14.972  -7.249  1.00 20.00    -0.183 F 
ENDROOT
BRANCH   8  11
HETATM   11  C10 UNL     1     -33.738  16.848  -1.817  1.00 20.00     0.009 C 
HETATM   12  C9  UNL     1     -34.610  16.821  -0.603  1.00 20.00     0.006 C 
ENDBRANCH   8  11
TORSDOF 1
ENDMDL
MODEL 3
REMARK VINA RESULT:      -4.9      5.979      8.041
REMARK  1 active torsions:
REMARK  status: ('A' for Active; 'I' for Inactive)
REMARK    1  A    between atoms: C8_8  and  C10_10 
ROOT
HETATM    1  C1  UNL     1     -32.016  19.118   1.132  1.00 20.00     0.028 A 
HETATM    2  C2  UNL     1     -31.405  19.209   2.374  1.00 20.00     0.120 A 
HETATM    3  C3  UNL     1     -33.917  18.208   2.311  1.00 20.00     0.029 A 
HETATM    4  C4  UNL     1     -33.296  18.601   1.122  1.00 20.00    -0.034 A 
HETATM    5  C5  UNL     1     -33.233  18.335   3.496  1.00 20.00     0.220 A 
HETATM    6  C6  UNL     1     -35.248  17.710   2.024  1.00 20.00     0.013 A 
HETATM    7  C7  UNL     1     -35.436  17.800   0.697  1.00 20.00    -0.016 A 
HETATM    8  C8  UNL     1     -34.235  18.375  -0.031  1.00 20.00     0.042 A 
HETATM    9  N11 UNL     1     -31.975  18.832   3.551  1.00 20.00    -0.232 NA
HETATM   10  F12 UNL     1     -33.814  17.961   4.646  1.00 20.00    -0.183 F 
ENDROOT
BRANCH   8  11
HETATM   11  C10 UNL     1     -33.680  17.415  -1.074  1.00 20.00     0.009 C 
HETATM   12  C9  UNL     1     -34.661  16.339  -1.415  1.00 20.00     0.006 C 
ENDBRANCH   8  11
TORSDOF 1
ENDMDL
MODEL 4
REMARK VINA RESULT:      -4.9      2.840      4.173
REMARK  1 active torsions:
REMARK  status: ('A' for Active; 'I' for Inactive)
REMARK    1  A    between atoms: C8_8  and  C10_10 
ROOT
HETATM    1  C1  UNL     1     -36.508  16.412  -4.699  1.00 20.00     0.028 A 
HETATM    2  C2  UNL     1     -36.638  17.283  -3.626  1.00 20.00     0.120 A 
HETATM    3  C3  UNL     1     -34.964  15.183  -3.308  1.00 20.00     0.029 A 
HETATM    4  C4  UNL     1     -35.647  15.350  -4.516  1.00 20.00    -0.034 A 
HETATM    5  C5  UNL     1     -35.155  16.097  -2.301  1.00 20.00     0.220 A 
HETATM    6  C6  UNL     1     -34.135  13.995  -3.378  1.00 20.00     0.013 A 
HETATM    7  C7  UNL     1     -34.310  13.450  -4.592  1.00 20.00    -0.016 A 
HETATM    8  C8  UNL     1     -35.285  14.232  -5.454  1.00 20.00     0.042 A 
HETATM    9  N11 UNL     1     -35.986  17.156  -2.437  1.00 20.00    -0.232 NA
HETATM   10  F12 UNL     1     -34.506  15.951  -1.135  1.00 20.00    -0.183 F 
ENDROOT
BRANCH   8  11
HETATM   11  C10 UNL     1     -34.645  14.720  -6.747  1.00 20.00     0.009 C 
HETATM   12  C9  UNL     1     -35.562  14.555  -7.917  1.00 20.00     0.006 C 
ENDBRANCH   8  11
TORSDOF 1
ENDMDL
MODEL 5
REMARK VINA RESULT:      -4.7      1.923      2.830
REMARK  1 active torsions:
REMARK  status: ('A' for Active; 'I' for Inactive)
REMARK    1  A    between atoms: C8_8  and  C10_10 
ROOT
HETATM    1  C1  UNL     1     -34.294  13.973  -3.491  1.00 20.00     0.028 A 
HETATM    2  C2  UNL     1     -34.329  13.318  -4.714  1.00 20.00     0.120 A 
HETATM    3  C3  UNL     1     -35.819  15.563  -4.479  1.00 20.00     0.029 A 
HETATM    4  C4  UNL     1     -35.059  15.117  -3.394  1.00 20.00    -0.034 A 
HETATM    5  C5  UNL     1     -35.791  14.849  -5.653  1.00 20.00     0.220 A 
HETATM    6  C6  UNL     1     -36.527  16.774  -4.113  1.00 20.00     0.013 A 
HETATM    7  C7  UNL     1     -36.211  17.058  -2.840  1.00 20.00    -0.016 A 
HETATM    8  C8  UNL     1     -35.254  16.050  -2.231  1.00 20.00     0.042 A 
HETATM    9  N11 UNL     1     -35.052  13.724  -5.793  1.00 20.00    -0.232 NA
HETATM   10  F12 UNL     1     -36.514  15.264  -6.704  1.00 20.00    -0.183 F 
ENDROOT
BRANCH   8  11
HETATM   11  C10 UNL     1     -33.959  16.698  -1.760  1.00 20.00     0.009 C 
HETATM   12  C9  UNL     1     -34.124  17.369  -0.434  1.00 20.00     0.006 C 
ENDBRANCH   8  11
TORSDOF 1
ENDMDL
MODEL 6
REMARK VINA RESULT:      -4.7      2.631      3.180
REMARK  1 active torsions:
REMARK  status: ('A' for Active; 'I' for Inactive)
REMARK    1  A    between atoms: C8_8  and  C10_10 
ROOT
HETATM    1  C1  UNL     1     -37.050  16.134  -3.014  1.00 20.00     0.028 A 
HETATM    2  C2  UNL     1     -37.740  15.099  -3.631  1.00 20.00     0.120 A 
HETATM    3  C3  UNL     1     -35.046  14.889  -3.525  1.00 20.00     0.029 A 
HETATM    4  C4  UNL     1     -35.678  16.004  -2.968  1.00 20.00    -0.034 A 
HETATM    5  C5  UNL     1     -35.811  13.913  -4.116  1.00 20.00     0.220 A 
HETATM    6  C6  UNL     1     -33.611  15.002  -3.348  1.00 20.00     0.013 A 
HETATM    7  C7  UNL     1     -33.374  16.156  -2.703  1.00 20.00    -0.016 A 
HETATM    8  C8  UNL     1     -34.642  16.929  -2.391  1.00 20.00     0.042 A 
HETATM    9  N11 UNL     1     -37.161  13.996  -4.180  1.00 20.00    -0.232 NA
HETATM   10  F12 UNL     1     -35.220  12.835  -4.655  1.00 20.00    -0.183 F 
ENDROOT
BRANCH   8  11
HETATM   11  C10 UNL     1     -34.817  17.165  -0.897  1.00 20.00     0.009 C 
HETATM   12  C9  UNL     1     -33.656  17.903  -0.311  1.00 20.00     0.006 C 
ENDBRANCH   8  11
TORSDOF 1
ENDMDL
MODEL 7
REMARK VINA RESULT:      -4.6     12.296     13.870
REMARK  1 active torsions:
REMARK  status: ('A' for Active; 'I' for Inactive)
REMARK    1  A    between atoms: C8_8  and  C10_10 
ROOT
HETATM    1  C1  UNL     1     -33.648   7.118   5.647  1.00 20.00     0.028 A 
HETATM    2  C2  UNL     1     -34.066   6.410   6.765  1.00 20.00     0.120 A 
HETATM    3  C3  UNL     1     -34.359   5.200   4.364  1.00 20.00     0.029 A 
HETATM    4  C4  UNL     1     -33.804   6.481   4.433  1.00 20.00    -0.034 A 
HETATM    5  C5  UNL     1     -34.744   4.575   5.526  1.00 20.00     0.220 A 
HETATM    6  C6  UNL     1     -34.414   4.766   2.982  1.00 20.00     0.013 A 
HETATM    7  C7  UNL     1     -33.911   5.756   2.227  1.00 20.00    -0.016 A 
HETATM    8  C8  UNL     1     -33.471   6.956   3.046  1.00 20.00     0.042 A 
HETATM    9  N11 UNL     1     -34.605   5.160   6.738  1.00 20.00    -0.232 NA
HETATM   10  F12 UNL     1     -35.277   3.344   5.477  1.00 20.00    -0.183 F 
ENDROOT
BRANCH   8  11
HETATM   11  C10 UNL     1     -31.992   7.267   2.860  1.00 20.00     0.009 C 
HETATM   12  C9  UNL     1     -31.771   8.309   1.811  1.00 20.00     0.006 C 
ENDBRANCH   8  11
TORSDOF 1
ENDMDL
MODEL 8
REMARK VINA RESULT:      -4.5     11.970     13.418
REMARK  1 active torsions:
REMARK  status: ('A' for Active; 'I' for Inactive)
REMARK    1  A    between atoms: C8_8  and  C10_10 
ROOT
HETATM    1  C1  UNL     1     -43.205   5.673  -3.187  1.00 20.00     0.028 A 
HETATM    2  C2  UNL     1     -43.359   7.048  -3.302  1.00 20.00     0.120 A 
HETATM    3  C3  UNL     1     -41.586   6.161  -1.463  1.00 20.00     0.029 A 
HETATM    4  C4  UNL     1     -42.293   5.243  -2.245  1.00 20.00    -0.034 A 
HETATM    5  C5  UNL     1     -41.805   7.505  -1.647  1.00 20.00     0.220 A 
HETATM    6  C6  UNL     1     -40.705   5.451  -0.556  1.00 20.00     0.013 A 
HETATM    7  C7  UNL     1     -40.871   4.137  -0.777  1.00 20.00    -0.016 A 
HETATM    8  C8  UNL     1     -41.893   3.846  -1.861  1.00 20.00     0.042 A 
HETATM    9  N11 UNL     1     -42.686   7.971  -2.562  1.00 20.00    -0.232 NA
HETATM   10  F12 UNL     1     -41.134   8.398  -0.905  1.00 20.00    -0.183 F 
ENDROOT
BRANCH   8  11
HETATM   11  C10 UNL     1     -41.294   3.056  -3.017  1.00 20.00     0.009 C 
HETATM   12  C9  UNL     1     -42.078   1.815  -3.306  1.00 20.00     0.006 C 
ENDBRANCH   8  11
TORSDOF 1
ENDMDL
MODEL 9
REMARK VINA RESULT:      -4.5      2.632      3.622
REMARK  1 active torsions:
REMARK  status: ('A' for Active; 'I' for Inactive)
REMARK    1  A    between atoms: C8_8  and  C10_10 
ROOT
HETATM    1  C1  UNL     1     -35.931  14.286  -4.379  1.00 20.00     0.028 A 
HETATM    2  C2  UNL     1     -35.078  13.192  -4.330  1.00 20.00     0.120 A 
HETATM    3  C3  UNL     1     -34.008  15.611  -3.766  1.00 20.00     0.029 A 
HETATM    4  C4  UNL     1     -35.365  15.509  -4.085  1.00 20.00    -0.034 A 
HETATM    5  C5  UNL     1     -33.240  14.472  -3.742  1.00 20.00     0.220 A 
HETATM    6  C6  UNL     1     -33.672  16.997  -3.507  1.00 20.00     0.013 A 
HETATM    7  C7  UNL     1     -34.791  17.722  -3.666  1.00 20.00    -0.016 A 
HETATM    8  C8  UNL     1     -35.990  16.876  -4.053  1.00 20.00     0.042 A 
HETATM    9  N11 UNL     1     -33.754  13.251  -4.020  1.00 20.00    -0.232 NA
HETATM   10  F12 UNL     1     -31.936  14.553  -3.438  1.00 20.00    -0.183 F 
ENDROOT
BRANCH   8  11
HETATM   11  C10 UNL     1     -37.125  16.992  -3.044  1.00 20.00     0.009 C 
HETATM   12  C9  UNL     1     -36.985  18.210  -2.188  1.00 20.00     0.006 C 
ENDBRANCH   8  11
TORSDOF 1
ENDMDL
