MODEL 1
REMARK VINA RESULT:      -5.2      0.000      0.000
REMARK  3 active torsions:
REMARK  status: ('A' for Active; 'I' for Inactive)
REMARK    1  A    between atoms: C3_3  and  C8_8 
REMARK    2  A    between atoms: C6_6  and  C9_9 
REMARK    3  A    between atoms: C7_7  and  C10_10 
ROOT
HETATM    1  C5  UNL     1     -32.611  14.294  -3.582  1.00 20.00     0.019 C 
HETATM    2  C8  UNL     1     -34.148  14.130  -3.151  1.00 20.00     0.078 C 
HETATM    3  C9  UNL     1     -33.088  15.633  -4.221  1.00 20.00    -0.001 C 
HETATM    4  C10 UNL     1     -34.052  15.670  -2.949  1.00 20.00     0.010 C 
ENDROOT
BRANCH   2   5
HETATM    5  C3  UNL     1     -35.151  13.571  -4.167  1.00 20.00     0.223 C 
HETATM    6  O11 UNL     1     -34.855  12.654  -4.928  1.00 20.00    -0.279 OA
HETATM    7 CL12 UNL     1     -36.685  14.383  -4.087  1.00 20.00    -0.043 Cl
ENDBRANCH   2   5
BRANCH   4   8
HETATM    8  C7  UNL     1     -34.641  17.076  -3.037  1.00 20.00     0.014 C 
HETATM    9  C2  UNL     1     -33.737  18.121  -2.440  1.00 20.00    -0.025 C 
HETATM   10  C1  UNL     1     -33.741  17.951  -1.107  1.00 20.00    -0.025 C 
HETATM   11  C6  UNL     1     -34.531  16.678  -0.824  1.00 20.00     0.013 C 
HETATM   12  C4  UNL     1     -35.635  16.926  -1.854  1.00 20.00     0.017 C 
ENDBRANCH   4   8
TORSDOF 3
ENDMDL
MODEL 2
REMARK VINA RESULT:      -4.5      1.724      2.494
REMARK  3 active torsions:
REMARK  status: ('A' for Active; 'I' for Inactive)
REMARK    1  A    between atoms: C3_3  and  C8_8 
REMARK    2  A    between atoms: C6_6  and  C9_9 
REMARK    3  A    between atoms: C7_7  and  C10_10 
ROOT
HETATM    1  C5  UNL     1     -36.490  15.078  -5.027  1.00 20.00     0.019 C 
HETATM    2  C8  UNL     1     -34.926  14.940  -4.700  1.00 20.00     0.078 C 
HETATM    3  C9  UNL     1     -36.667  15.027  -3.479  1.00 20.00    -0.001 C 
HETATM    4  C10 UNL     1     -35.298  15.848  -3.493  1.00 20.00     0.010 C 
ENDROOT
BRANCH   2   5
HETATM    5  C3  UNL     1     -34.340  13.548  -4.434  1.00 20.00     0.223 C 
HETATM    6  O11 UNL     1     -34.896  12.528  -4.831  1.00 20.00    -0.279 OA
HETATM    7 CL12 UNL     1     -32.853  13.624  -3.539  1.00 20.00    -0.043 Cl
ENDBRANCH   2   5
BRANCH   4   8
HETATM    8  C7  UNL     1     -35.160  16.261  -2.029  1.00 20.00     0.014 C 
HETATM    9  C2  UNL     1     -35.788  17.599  -1.743  1.00 20.00    -0.025 C 
HETATM   10  C1  UNL     1     -35.024  18.541  -2.323  1.00 20.00    -0.025 C 
HETATM   11  C6  UNL     1     -33.962  17.812  -3.138  1.00 20.00     0.013 C 
HETATM   12  C4  UNL     1     -33.678  16.714  -2.111  1.00 20.00     0.017 C 
ENDBRANCH   4   8
TORSDOF 3
ENDMDL
MODEL 3
REMARK VINA RESULT:      -4.5      1.989      2.615
REMARK  3 active torsions:
REMARK  status: ('A' for Active; 'I' for Inactive)
REMARK    1  A    between atoms: C3_3  and  C8_8 
REMARK    2  A    between atoms: C6_6  and  C9_9 
REMARK    3  A    between atoms: C7_7  and  C10_10 
ROOT
HETATM    1  C5  UNL     1     -35.548  14.196  -4.155  1.00 20.00     0.019 C 
HETATM    2  C8  UNL     1     -35.217  15.682  -4.661  1.00 20.00     0.078 C 
HETATM    3  C9  UNL     1     -34.280  14.376  -3.267  1.00 20.00    -0.001 C 
HETATM    4  C10 UNL     1     -34.797  15.884  -3.178  1.00 20.00     0.010 C 
ENDROOT
BRANCH   2   5
HETATM    5  C3  UNL     1     -34.172  15.876  -5.767  1.00 20.00     0.223 C 
HETATM    6  O11 UNL     1     -33.276  16.711  -5.667  1.00 20.00    -0.279 OA
HETATM    7 CL12 UNL     1     -34.428  14.801  -7.107  1.00 20.00    -0.043 Cl
ENDBRANCH   2   5
BRANCH   4   8
HETATM    8  C7  UNL     1     -33.878  16.473  -2.109  1.00 20.00     0.014 C 
HETATM    9  C2  UNL     1     -34.554  16.601  -0.770  1.00 20.00    -0.025 C 
HETATM   10  C1  UNL     1     -35.462  17.588  -0.864  1.00 20.00    -0.025 C 
HETATM   11  C6  UNL     1     -35.503  18.016  -2.327  1.00 20.00     0.013 C 
HETATM   12  C4  UNL     1     -33.994  17.950  -2.569  1.00 20.00     0.017 C 
ENDBRANCH   4   8
TORSDOF 3
ENDMDL
MODEL 4
REMARK VINA RESULT:      -4.4      1.312      1.815
REMARK  3 active torsions:
REMARK  status: ('A' for Active; 'I' for Inactive)
REMARK    1  A    between atoms: C3_3  and  C8_8 
REMARK    2  A    between atoms: C6_6  and  C9_9 
REMARK    3  A    between atoms: C7_7  and  C10_10 
ROOT
HETATM    1  C5  UNL     1     -33.306  16.677  -4.914  1.00 20.00     0.019 C 
HETATM    2  C8  UNL     1     -33.365  15.511  -3.814  1.00 20.00     0.078 C 
HETATM    3  C9  UNL     1     -34.766  16.977  -4.458  1.00 20.00    -0.001 C 
HETATM    4  C10 UNL     1     -34.195  16.564  -3.026  1.00 20.00     0.010 C 
ENDROOT
BRANCH   2   5
HETATM    5  C3  UNL     1     -34.015  14.171  -4.182  1.00 20.00     0.223 C 
HETATM    6  O11 UNL     1     -34.154  13.274  -3.356  1.00 20.00    -0.279 OA
HETATM    7 CL12 UNL     1     -34.498  14.114  -5.850  1.00 20.00    -0.043 Cl
ENDBRANCH   2   5
BRANCH   4   8
HETATM    8  C7  UNL     1     -35.347  16.948  -2.100  1.00 20.00     0.014 C 
HETATM    9  C2  UNL     1     -35.457  18.436  -1.899  1.00 20.00    -0.025 C 
HETATM   10  C1  UNL     1     -34.415  18.824  -1.144  1.00 20.00    -0.025 C 
HETATM   11  C6  UNL     1     -33.513  17.606  -0.973  1.00 20.00     0.013 C 
HETATM   12  C4  UNL     1     -34.635  16.586  -0.770  1.00 20.00     0.017 C 
ENDBRANCH   4   8
TORSDOF 3
ENDMDL
MODEL 5
REMARK VINA RESULT:      -4.3      2.576      4.382
REMARK  3 active torsions:
REMARK  status: ('A' for Active; 'I' for Inactive)
REMARK    1  A    between atoms: C3_3  and  C8_8 
REMARK    2  A    between atoms: C6_6  and  C9_9 
REMARK    3  A    between atoms: C7_7  and  C10_10 
ROOT
HETATM    1  C5  UNL     1     -36.402  17.041  -2.801  1.00 20.00     0.019 C 
HETATM    2  C8  UNL     1     -35.336  16.182  -1.966  1.00 20.00     0.078 C 
HETATM    3  C9  UNL     1     -35.227  17.252  -3.802  1.00 20.00    -0.001 C 
HETATM    4  C10 UNL     1     -34.862  15.755  -3.384  1.00 20.00     0.010 C 
ENDROOT
BRANCH   2   5
HETATM    5  C3  UNL     1     -34.355  16.910  -1.038  1.00 20.00     0.223 C 
HETATM    6  O11 UNL     1     -33.214  17.188  -1.397  1.00 20.00    -0.279 OA
HETATM    7 CL12 UNL     1     -35.058  17.263   0.510  1.00 20.00    -0.043 Cl
ENDBRANCH   2   5
BRANCH   4   8
HETATM    8  C7  UNL     1     -33.763  15.404  -4.386  1.00 20.00     0.014 C 
HETATM    9  C2  UNL     1     -34.311  14.978  -5.721  1.00 20.00    -0.025 C 
HETATM   10  C1  UNL     1     -34.876  13.768  -5.564  1.00 20.00    -0.025 C 
HETATM   11  C6  UNL     1     -34.845  13.454  -4.072  1.00 20.00     0.013 C 
HETATM   12  C4  UNL     1     -33.440  14.000  -3.809  1.00 20.00     0.017 C 
ENDBRANCH   4   8
TORSDOF 3
ENDMDL
MODEL 6
REMARK VINA RESULT:      -4.3      2.903      4.394
REMARK  3 active torsions:
REMARK  status: ('A' for Active; 'I' for Inactive)
REMARK    1  A    between atoms: C3_3  and  C8_8 
REMARK    2  A    between atoms: C6_6  and  C9_9 
REMARK    3  A    between atoms: C7_7  and  C10_10 
ROOT
HETATM    1  C5  UNL     1     -33.160  15.103  -3.417  1.00 20.00     0.019 C 
HETATM    2  C8  UNL     1     -34.258  16.253  -3.622  1.00 20.00     0.078 C 
HETATM    3  C9  UNL     1     -34.301  14.140  -3.865  1.00 20.00    -0.001 C 
HETATM    4  C10 UNL     1     -34.687  15.359  -4.820  1.00 20.00     0.010 C 
ENDROOT
BRANCH   2   5
HETATM    5  C3  UNL     1     -35.266  16.531  -2.499  1.00 20.00     0.223 C 
HETATM    6  O11 UNL     1     -36.450  16.756  -2.737  1.00 20.00    -0.279 OA
HETATM    7 CL12 UNL     1     -34.526  16.483  -0.929  1.00 20.00    -0.043 Cl
ENDBRANCH   2   5
BRANCH   4   8
HETATM    8  C7  UNL     1     -35.753  14.735  -5.718  1.00 20.00     0.014 C 
HETATM    9  C2  UNL     1     -35.183  14.183  -6.997  1.00 20.00    -0.025 C 
HETATM   10  C1  UNL     1     -34.816  15.224  -7.764  1.00 20.00    -0.025 C 
HETATM   11  C6  UNL     1     -34.997  16.482  -6.921  1.00 20.00     0.013 C 
HETATM   12  C4  UNL     1     -36.321  16.068  -6.274  1.00 20.00     0.017 C 
ENDBRANCH   4   8
TORSDOF 3
ENDMDL
MODEL 7
REMARK VINA RESULT:      -4.3      2.685      3.721
REMARK  3 active torsions:
REMARK  status: ('A' for Active; 'I' for Inactive)
REMARK    1  A    between atoms: C3_3  and  C8_8 
REMARK    2  A    between atoms: C6_6  and  C9_9 
REMARK    3  A    between atoms: C7_7  and  C10_10 
ROOT
HETATM    1  C5  UNL     1     -34.591  15.050  -7.781  1.00 20.00     0.019 C 
HETATM    2  C8  UNL     1     -35.794  14.659  -6.795  1.00 20.00     0.078 C 
HETATM    3  C9  UNL     1     -34.280  16.153  -6.725  1.00 20.00    -0.001 C 
HETATM    4  C10 UNL     1     -34.755  15.027  -5.698  1.00 20.00     0.010 C 
ENDROOT
BRANCH   2   5
HETATM    5  C3  UNL     1     -37.107  15.447  -6.874  1.00 20.00     0.223 C 
HETATM    6  O11 UNL     1     -37.482  15.974  -7.918  1.00 20.00    -0.279 OA
HETATM    7 CL12 UNL     1     -37.942  15.481  -5.351  1.00 20.00    -0.043 Cl
ENDBRANCH   2   5
BRANCH   4   8
HETATM    8  C7  UNL     1     -34.382  15.647  -4.352  1.00 20.00     0.014 C 
HETATM    9  C2  UNL     1     -32.981  15.303  -3.924  1.00 20.00    -0.025 C 
HETATM   10  C1  UNL     1     -32.964  14.000  -3.591  1.00 20.00    -0.025 C 
HETATM   11  C6  UNL     1     -34.331  13.431  -3.954  1.00 20.00     0.013 C 
HETATM   12  C4  UNL     1     -35.152  14.628  -3.469  1.00 20.00     0.017 C 
ENDBRANCH   4   8
TORSDOF 3
ENDMDL
MODEL 8
REMARK VINA RESULT:      -4.2      3.007      4.633
REMARK  3 active torsions:
REMARK  status: ('A' for Active; 'I' for Inactive)
REMARK    1  A    between atoms: C3_3  and  C8_8 
REMARK    2  A    between atoms: C6_6  and  C9_9 
REMARK    3  A    between atoms: C7_7  and  C10_10 
ROOT
HETATM    1  C5  UNL     1     -34.370  13.824  -3.531  1.00 20.00     0.019 C 
HETATM    2  C8  UNL     1     -33.796  15.275  -3.901  1.00 20.00     0.078 C 
HETATM    3  C9  UNL     1     -35.741  14.416  -3.977  1.00 20.00    -0.001 C 
HETATM    4  C10 UNL     1     -34.840  15.180  -5.050  1.00 20.00     0.010 C 
ENDROOT
BRANCH   2   5
HETATM    5  C3  UNL     1     -33.917  16.409  -2.875  1.00 20.00     0.223 C 
HETATM    6  O11 UNL     1     -34.102  16.182  -1.682  1.00 20.00    -0.279 OA
HETATM    7 CL12 UNL     1     -33.762  17.975  -3.609  1.00 20.00    -0.043 Cl
ENDBRANCH   2   5
BRANCH   4   8
HETATM    8  C7  UNL     1     -35.893  15.802  -5.965  1.00 20.00     0.014 C 
HETATM    9  C2  UNL     1     -36.455  14.817  -6.954  1.00 20.00    -0.025 C 
HETATM   10  C1  UNL     1     -35.495  14.549  -7.856  1.00 20.00    -0.025 C 
HETATM   11  C6  UNL     1     -34.226  15.242  -7.371  1.00 20.00     0.013 C 
HETATM   12  C4  UNL     1     -34.900  16.534  -6.906  1.00 20.00     0.017 C 
ENDBRANCH   4   8
TORSDOF 3
ENDMDL
MODEL 9
REMARK VINA RESULT:      -4.2      2.987      4.348
REMARK  3 active torsions:
REMARK  status: ('A' for Active; 'I' for Inactive)
REMARK    1  A    between atoms: C3_3  and  C8_8 
REMARK    2  A    between atoms: C6_6  and  C9_9 
REMARK    3  A    between atoms: C7_7  and  C10_10 
ROOT
HETATM    1  C5  UNL     1     -34.099  16.211  -3.753  1.00 20.00     0.019 C 
HETATM    2  C8  UNL     1     -34.856  14.922  -4.334  1.00 20.00     0.078 C 
HETATM    3  C9  UNL     1     -33.293  16.154  -5.086  1.00 20.00    -0.001 C 
HETATM    4  C10 UNL     1     -34.693  15.677  -5.684  1.00 20.00     0.010 C 
ENDROOT
BRANCH   2   5
HETATM    5  C3  UNL     1     -34.211  13.541  -4.168  1.00 20.00     0.223 C 
HETATM    6  O11 UNL     1     -34.775  12.516  -4.543  1.00 20.00    -0.279 OA
HETATM    7 CL12 UNL     1     -32.649  13.634  -3.414  1.00 20.00    -0.043 Cl
ENDBRANCH   2   5
BRANCH   4   8
HETATM    8  C7  UNL     1     -34.422  15.701  -7.187  1.00 20.00     0.014 C 
HETATM    9  C2  UNL     1     -35.128  16.832  -7.886  1.00 20.00    -0.025 C 
HETATM   10  C1  UNL     1     -36.443  16.550  -7.892  1.00 20.00    -0.025 C 
HETATM   11  C6  UNL     1     -36.632  15.294  -7.048  1.00 20.00     0.013 C 
HETATM   12  C4  UNL     1     -35.396  14.552  -7.561  1.00 20.00     0.017 C 
ENDBRANCH   4   8
TORSDOF 3
ENDMDL
