MODEL 1
REMARK VINA RESULT:      -4.4      0.000      0.000
REMARK  0 active torsions:
REMARK  status: ('A' for Active; 'I' for Inactive)
ROOT
HETATM    1  C1  UNL     1     -34.722  16.673  -0.866  1.00 20.00     0.017 C 
HETATM    2  C2  UNL     1     -34.229  16.217  -1.861  1.00 20.00    -0.057 C 
HETATM    3  C3  UNL     1     -35.414  14.306  -3.890  1.00 20.00     0.182 C 
HETATM    4  C4  UNL     1     -35.029  16.609  -4.755  1.00 20.00     0.182 C 
HETATM    5  C5  UNL     1     -33.624  15.658  -3.079  1.00 20.00     0.341 C 
HETATM    6  C6  UNL     1     -35.528  15.204  -5.132  1.00 20.00    -0.004 C 
HETATM    7  C7  UNL     1     -36.988  15.273  -5.598  1.00 20.00     0.019 C 
HETATM    8  C8  UNL     1     -34.660  14.632  -6.270  1.00 20.00     0.019 C 
HETATM    9  O9  UNL     1     -34.089  14.333  -3.357  1.00 20.00    -0.350 OA
HETATM   10  O10 UNL     1     -33.719  16.554  -4.193  1.00 20.00    -0.350 OA
ENDROOT
TORSDOF 0
ENDMDL
MODEL 2
REMARK VINA RESULT:      -4.4      1.281      1.687
REMARK  0 active torsions:
REMARK  status: ('A' for Active; 'I' for Inactive)
ROOT
HETATM    1  C1  UNL     1     -34.505  16.686  -1.172  1.00 20.00     0.017 C 
HETATM    2  C2  UNL     1     -34.406  15.922  -2.093  1.00 20.00    -0.057 C 
HETATM    3  C3  UNL     1     -35.682  16.046  -4.837  1.00 20.00     0.182 C 
HETATM    4  C4  UNL     1     -33.213  16.369  -4.840  1.00 20.00     0.182 C 
HETATM    5  C5  UNL     1     -34.285  14.986  -3.220  1.00 20.00     0.341 C 
HETATM    6  C6  UNL     1     -34.459  16.282  -5.737  1.00 20.00    -0.004 C 
HETATM    7  C7  UNL     1     -34.631  17.586  -6.526  1.00 20.00     0.019 C 
HETATM    8  C8  UNL     1     -34.307  15.109  -6.726  1.00 20.00     0.019 C 
HETATM    9  O9  UNL     1     -35.488  14.910  -3.994  1.00 20.00    -0.350 OA
HETATM   10  O10 UNL     1     -33.106  15.222  -3.998  1.00 20.00    -0.350 OA
ENDROOT
TORSDOF 0
ENDMDL
MODEL 3
REMARK VINA RESULT:      -4.4      1.308      1.842
REMARK  0 active torsions:
REMARK  status: ('A' for Active; 'I' for Inactive)
ROOT
HETATM    1  C1  UNL     1     -34.627  16.692  -0.657  1.00 20.00     0.017 C 
HETATM    2  C2  UNL     1     -34.555  16.879  -1.841  1.00 20.00    -0.057 C 
HETATM    3  C3  UNL     1     -33.281  15.157  -3.983  1.00 20.00     0.182 C 
HETATM    4  C4  UNL     1     -35.765  15.284  -4.114  1.00 20.00     0.182 C 
HETATM    5  C5  UNL     1     -34.467  17.108  -3.291  1.00 20.00     0.341 C 
HETATM    6  C6  UNL     1     -34.511  14.694  -4.781  1.00 20.00    -0.004 C 
HETATM    7  C7  UNL     1     -34.589  13.163  -4.784  1.00 20.00     0.019 C 
HETATM    8  C8  UNL     1     -34.409  15.199  -6.233  1.00 20.00     0.019 C 
HETATM    9  O9  UNL     1     -33.260  16.579  -3.851  1.00 20.00    -0.350 OA
HETATM   10  O10 UNL     1     -35.656  16.701  -3.978  1.00 20.00    -0.350 OA
ENDROOT
TORSDOF 0
ENDMDL
MODEL 4
REMARK VINA RESULT:      -4.1      1.403      3.937
REMARK  0 active torsions:
REMARK  status: ('A' for Active; 'I' for Inactive)
ROOT
HETATM    1  C1  UNL     1     -37.298  15.240  -7.008  1.00 20.00     0.017 C 
HETATM    2  C2  UNL     1     -36.182  14.908  -6.716  1.00 20.00    -0.057 C 
HETATM    3  C3  UNL     1     -34.233  16.208  -4.796  1.00 20.00     0.182 C 
HETATM    4  C4  UNL     1     -35.087  13.993  -4.045  1.00 20.00     0.182 C 
HETATM    5  C5  UNL     1     -34.815  14.503  -6.358  1.00 20.00     0.341 C 
HETATM    6  C6  UNL     1     -34.148  15.155  -3.679  1.00 20.00    -0.004 C 
HETATM    7  C7  UNL     1     -34.573  15.772  -2.341  1.00 20.00     0.019 C 
HETATM    8  C8  UNL     1     -32.701  14.637  -3.562  1.00 20.00     0.019 C 
HETATM    9  O9  UNL     1     -33.972  15.625  -6.073  1.00 20.00    -0.350 OA
HETATM   10  O10 UNL     1     -34.796  13.488  -5.348  1.00 20.00    -0.350 OA
ENDROOT
TORSDOF 0
ENDMDL
MODEL 5
REMARK VINA RESULT:      -4.1      1.349      3.696
REMARK  0 active torsions:
REMARK  status: ('A' for Active; 'I' for Inactive)
ROOT
HETATM    1  C1  UNL     1     -34.764  14.752  -7.097  1.00 20.00     0.017 C 
HETATM    2  C2  UNL     1     -34.484  14.628  -5.936  1.00 20.00    -0.057 C 
HETATM    3  C3  UNL     1     -33.817  16.752  -3.882  1.00 20.00     0.182 C 
HETATM    4  C4  UNL     1     -35.982  15.588  -3.486  1.00 20.00     0.182 C 
HETATM    5  C5  UNL     1     -34.141  14.475  -4.514  1.00 20.00     0.341 C 
HETATM    6  C6  UNL     1     -35.027  16.661  -2.938  1.00 20.00    -0.004 C 
HETATM    7  C7  UNL     1     -35.742  18.016  -2.868  1.00 20.00     0.019 C 
HETATM    8  C8  UNL     1     -34.554  16.264  -1.525  1.00 20.00     0.019 C 
HETATM    9  O9  UNL     1     -33.214  15.472  -4.070  1.00 20.00    -0.350 OA
HETATM   10  O10 UNL     1     -35.303  14.349  -3.686  1.00 20.00    -0.350 OA
ENDROOT
TORSDOF 0
ENDMDL
MODEL 6
REMARK VINA RESULT:      -4.0      1.722      3.927
REMARK  0 active torsions:
REMARK  status: ('A' for Active; 'I' for Inactive)
ROOT
HETATM    1  C1  UNL     1     -34.877  14.360  -6.811  1.00 20.00     0.017 C 
HETATM    2  C2  UNL     1     -34.458  15.390  -6.358  1.00 20.00    -0.057 C 
HETATM    3  C3  UNL     1     -35.444  16.984  -3.978  1.00 20.00     0.182 C 
HETATM    4  C4  UNL     1     -33.211  15.930  -3.651  1.00 20.00     0.182 C 
HETATM    5  C5  UNL     1     -33.944  16.651  -5.803  1.00 20.00     0.341 C 
HETATM    6  C6  UNL     1     -34.276  16.821  -2.991  1.00 20.00    -0.004 C 
HETATM    7  C7  UNL     1     -34.772  16.172  -1.693  1.00 20.00     0.019 C 
HETATM    8  C8  UNL     1     -33.672  18.202  -2.669  1.00 20.00     0.019 C 
HETATM    9  O9  UNL     1     -34.984  17.461  -5.243  1.00 20.00    -0.350 OA
HETATM   10  O10 UNL     1     -32.830  16.445  -4.927  1.00 20.00    -0.350 OA
ENDROOT
TORSDOF 0
ENDMDL
MODEL 7
REMARK VINA RESULT:      -4.0      1.587      2.383
REMARK  0 active torsions:
REMARK  status: ('A' for Active; 'I' for Inactive)
ROOT
HETATM    1  C1  UNL     1     -33.640  18.860  -4.748  1.00 20.00     0.017 C 
HETATM    2  C2  UNL     1     -33.453  17.673  -4.773  1.00 20.00    -0.057 C 
HETATM    3  C3  UNL     1     -34.740  15.492  -3.113  1.00 20.00     0.182 C 
HETATM    4  C4  UNL     1     -35.361  15.445  -5.524  1.00 20.00     0.182 C 
HETATM    5  C5  UNL     1     -33.225  16.222  -4.804  1.00 20.00     0.341 C 
HETATM    6  C6  UNL     1     -35.558  14.736  -4.173  1.00 20.00    -0.004 C 
HETATM    7  C7  UNL     1     -37.043  14.738  -3.791  1.00 20.00     0.019 C 
HETATM    8  C8  UNL     1     -35.061  13.281  -4.273  1.00 20.00     0.019 C 
HETATM    9  O9  UNL     1     -33.375  15.621  -3.513  1.00 20.00    -0.350 OA
HETATM   10  O10 UNL     1     -33.975  15.575  -5.838  1.00 20.00    -0.350 OA
ENDROOT
TORSDOF 0
ENDMDL
MODEL 8
REMARK VINA RESULT:      -3.8      1.466      3.881
REMARK  0 active torsions:
REMARK  status: ('A' for Active; 'I' for Inactive)
ROOT
HETATM    1  C1  UNL     1     -36.192  14.634  -7.756  1.00 20.00     0.017 C 
HETATM    2  C2  UNL     1     -36.338  15.012  -6.626  1.00 20.00    -0.057 C 
HETATM    3  C3  UNL     1     -35.052  13.996  -4.079  1.00 20.00     0.182 C 
HETATM    4  C4  UNL     1     -34.328  16.282  -4.750  1.00 20.00     0.182 C 
HETATM    5  C5  UNL     1     -36.518  15.475  -5.242  1.00 20.00     0.341 C 
HETATM    6  C6  UNL     1     -34.166  15.188  -3.682  1.00 20.00    -0.004 C 
HETATM    7  C7  UNL     1     -32.699  14.748  -3.599  1.00 20.00     0.019 C 
HETATM    8  C8  UNL     1     -34.610  15.732  -2.310  1.00 20.00     0.019 C 
HETATM    9  O9  UNL     1     -36.402  14.409  -4.293  1.00 20.00    -0.350 OA
HETATM   10  O10 UNL     1     -35.703  16.614  -4.940  1.00 20.00    -0.350 OA
ENDROOT
TORSDOF 0
ENDMDL
MODEL 9
REMARK VINA RESULT:      -3.8      1.914      3.318
REMARK  0 active torsions:
REMARK  status: ('A' for Active; 'I' for Inactive)
ROOT
HETATM    1  C1  UNL     1     -34.502  13.244  -4.614  1.00 20.00     0.017 C 
HETATM    2  C2  UNL     1     -33.909  14.183  -4.157  1.00 20.00    -0.057 C 
HETATM    3  C3  UNL     1     -33.794  17.045  -5.142  1.00 20.00     0.182 C 
HETATM    4  C4  UNL     1     -34.996  16.752  -2.980  1.00 20.00     0.182 C 
HETATM    5  C5  UNL     1     -33.183  15.332  -3.598  1.00 20.00     0.341 C 
HETATM    6  C6  UNL     1     -34.537  17.788  -4.020  1.00 20.00    -0.004 C 
HETATM    7  C7  UNL     1     -35.751  18.528  -4.595  1.00 20.00     0.019 C 
HETATM    8  C8  UNL     1     -33.591  18.808  -3.356  1.00 20.00     0.019 C 
HETATM    9  O9  UNL     1     -32.739  16.240  -4.613  1.00 20.00    -0.350 OA
HETATM   10  O10 UNL     1     -33.899  15.959  -2.528  1.00 20.00    -0.350 OA
ENDROOT
TORSDOF 0
ENDMDL
