MODEL 1
REMARK VINA RESULT:      -4.7      0.000      0.000
REMARK  0 active torsions:
REMARK  status: ('A' for Active; 'I' for Inactive)
ROOT
HETATM    1  C1  UNL     1     -35.170   4.449   4.736  1.00 20.00     0.131 A 
HETATM    2  C2  UNL     1     -34.519   5.744   6.554  1.00 20.00     0.233 A 
HETATM    3  C3  UNL     1     -34.379   5.244   3.997  1.00 20.00     0.010 A 
HETATM    4  C4  UNL     1     -33.705   6.244   4.589  1.00 20.00     0.070 A 
HETATM    5  C5  UNL     1     -33.823   5.602   2.719  1.00 20.00     0.017 A 
HETATM    6  C6  UNL     1     -33.134   6.622   3.316  1.00 20.00     0.033 A 
HETATM    7  N7  UNL     1     -35.258   4.691   6.067  1.00 20.00    -0.253 NA
HETATM    8  N8  UNL     1     -33.705   6.581   5.863  1.00 20.00    -0.241 NA
ENDROOT
TORSDOF 0
ENDMDL
MODEL 2
REMARK VINA RESULT:      -4.6      0.941      1.838
REMARK  0 active torsions:
REMARK  status: ('A' for Active; 'I' for Inactive)
ROOT
HETATM    1  C1  UNL     1     -33.792   6.525   5.947  1.00 20.00     0.131 A 
HETATM    2  C2  UNL     1     -35.211   4.683   5.956  1.00 20.00     0.233 A 
HETATM    3  C3  UNL     1     -33.663   6.309   4.628  1.00 20.00     0.010 A 
HETATM    4  C4  UNL     1     -34.321   5.287   4.056  1.00 20.00     0.070 A 
HETATM    5  C5  UNL     1     -33.095   6.678   3.358  1.00 20.00     0.017 A 
HETATM    6  C6  UNL     1     -33.762   5.639   2.769  1.00 20.00     0.033 A 
HETATM    7  N7  UNL     1     -34.592   5.692   6.658  1.00 20.00    -0.253 NA
HETATM    8  N8  UNL     1     -35.122   4.413   4.631  1.00 20.00    -0.241 NA
ENDROOT
TORSDOF 0
ENDMDL
MODEL 3
REMARK VINA RESULT:      -4.4      1.583      2.730
REMARK  0 active torsions:
REMARK  status: ('A' for Active; 'I' for Inactive)
ROOT
HETATM    1  C1  UNL     1     -34.870   4.914   3.795  1.00 20.00     0.131 A 
HETATM    2  C2  UNL     1     -33.151   6.215   2.924  1.00 20.00     0.233 A 
HETATM    3  C3  UNL     1     -34.559   5.454   4.984  1.00 20.00     0.010 A 
HETATM    4  C4  UNL     1     -33.558   6.346   5.066  1.00 20.00     0.070 A 
HETATM    5  C5  UNL     1     -34.799   5.567   6.398  1.00 20.00     0.017 A 
HETATM    6  C6  UNL     1     -33.780   6.475   6.489  1.00 20.00     0.033 A 
HETATM    7  N7  UNL     1     -34.151   5.294   2.710  1.00 20.00    -0.253 NA
HETATM    8  N8  UNL     1     -32.789   6.795   4.094  1.00 20.00    -0.241 NA
ENDROOT
TORSDOF 0
ENDMDL
MODEL 4
REMARK VINA RESULT:      -4.3      1.495      3.236
REMARK  0 active torsions:
REMARK  status: ('A' for Active; 'I' for Inactive)
ROOT
HETATM    1  C1  UNL     1     -32.943   6.733   3.984  1.00 20.00     0.131 A 
HETATM    2  C2  UNL     1     -34.257   5.210   2.819  1.00 20.00     0.233 A 
HETATM    3  C3  UNL     1     -33.622   6.351   5.078  1.00 20.00     0.010 A 
HETATM    4  C4  UNL     1     -34.581   5.416   4.969  1.00 20.00     0.070 A 
HETATM    5  C5  UNL     1     -33.864   6.460   6.492  1.00 20.00     0.017 A 
HETATM    6  C6  UNL     1     -34.842   5.509   6.388  1.00 20.00     0.033 A 
HETATM    7  N7  UNL     1     -33.256   6.154   2.799  1.00 20.00    -0.253 NA
HETATM    8  N8  UNL     1     -34.978   4.782   3.884  1.00 20.00    -0.241 NA
ENDROOT
TORSDOF 0
ENDMDL
MODEL 5
REMARK VINA RESULT:      -4.0      1.523      3.247
REMARK  0 active torsions:
REMARK  status: ('A' for Active; 'I' for Inactive)
ROOT
HETATM    1  C1  UNL     1     -33.188   6.800   5.067  1.00 20.00     0.131 A 
HETATM    2  C2  UNL     1     -33.414   6.115   2.857  1.00 20.00     0.233 A 
HETATM    3  C3  UNL     1     -34.076   5.838   5.365  1.00 20.00     0.010 A 
HETATM    4  C4  UNL     1     -34.577   5.071   4.383  1.00 20.00     0.070 A 
HETATM    5  C5  UNL     1     -34.857   5.128   6.343  1.00 20.00     0.017 A 
HETATM    6  C6  UNL     1     -35.372   4.344   5.347  1.00 20.00     0.033 A 
HETATM    7  N7  UNL     1     -32.829   6.962   3.769  1.00 20.00    -0.253 NA
HETATM    8  N8  UNL     1     -34.313   5.127   3.093  1.00 20.00    -0.241 NA
ENDROOT
TORSDOF 0
ENDMDL
MODEL 6
REMARK VINA RESULT:      -4.0     12.029     12.515
REMARK  0 active torsions:
REMARK  status: ('A' for Active; 'I' for Inactive)
ROOT
HETATM    1  C1  UNL     1     -33.265  14.092  -3.695  1.00 20.00     0.131 A 
HETATM    2  C2  UNL     1     -35.342  13.351  -4.428  1.00 20.00     0.233 A 
HETATM    3  C3  UNL     1     -33.929  15.099  -3.104  1.00 20.00     0.010 A 
HETATM    4  C4  UNL     1     -35.266  15.166  -3.215  1.00 20.00     0.070 A 
HETATM    5  C5  UNL     1     -33.917  16.297  -2.308  1.00 20.00     0.017 A 
HETATM    6  C6  UNL     1     -35.278  16.371  -2.417  1.00 20.00     0.033 A 
HETATM    7  N7  UNL     1     -33.979  13.172  -4.389  1.00 20.00    -0.253 NA
HETATM    8  N8  UNL     1     -36.070  14.342  -3.856  1.00 20.00    -0.241 NA
ENDROOT
TORSDOF 0
ENDMDL
MODEL 7
REMARK VINA RESULT:      -3.8      9.859     10.610
REMARK  0 active torsions:
REMARK  status: ('A' for Active; 'I' for Inactive)
ROOT
HETATM    1  C1  UNL     1     -42.725   6.457  -2.977  1.00 20.00     0.131 A 
HETATM    2  C2  UNL     1     -42.727   4.133  -2.943  1.00 20.00     0.233 A 
HETATM    3  C3  UNL     1     -41.877   6.385  -1.938  1.00 20.00     0.010 A 
HETATM    4  C4  UNL     1     -41.507   5.183  -1.466  1.00 20.00     0.070 A 
HETATM    5  C5  UNL     1     -41.062   7.043  -0.951  1.00 20.00     0.017 A 
HETATM    6  C6  UNL     1     -40.682   5.822  -0.466  1.00 20.00     0.033 A 
HETATM    7  N7  UNL     1     -43.179   5.299  -3.515  1.00 20.00    -0.253 NA
HETATM    8  N8  UNL     1     -41.874   3.993  -1.897  1.00 20.00    -0.241 NA
ENDROOT
TORSDOF 0
ENDMDL
MODEL 8
REMARK VINA RESULT:      -3.8     12.296     13.397
REMARK  0 active torsions:
REMARK  status: ('A' for Active; 'I' for Inactive)
ROOT
HETATM    1  C1  UNL     1     -34.814  13.156  -4.791  1.00 20.00     0.131 A 
HETATM    2  C2  UNL     1     -33.496  14.650  -3.593  1.00 20.00     0.233 A 
HETATM    3  C3  UNL     1     -34.808  14.072  -5.773  1.00 20.00     0.010 A 
HETATM    4  C4  UNL     1     -34.142  15.226  -5.599  1.00 20.00     0.070 A 
HETATM    5  C5  UNL     1     -35.215  14.485  -7.090  1.00 20.00     0.017 A 
HETATM    6  C6  UNL     1     -34.538  15.662  -6.919  1.00 20.00     0.033 A 
HETATM    7  N7  UNL     1     -34.138  13.435  -3.649  1.00 20.00    -0.253 NA
HETATM    8  N8  UNL     1     -33.452  15.615  -4.545  1.00 20.00    -0.241 NA
ENDROOT
TORSDOF 0
ENDMDL
MODEL 9
REMARK VINA RESULT:      -3.8     11.942     13.145
REMARK  0 active torsions:
REMARK  status: ('A' for Active; 'I' for Inactive)
ROOT
HETATM    1  C1  UNL     1     -34.341  13.516  -3.549  1.00 20.00     0.131 A 
HETATM    2  C2  UNL     1     -34.838  13.662  -5.815  1.00 20.00     0.233 A 
HETATM    3  C3  UNL     1     -33.974  14.805  -3.635  1.00 20.00     0.010 A 
HETATM    4  C4  UNL     1     -34.063  15.442  -4.814  1.00 20.00     0.070 A 
HETATM    5  C5  UNL     1     -33.466  15.997  -3.008  1.00 20.00     0.017 A 
HETATM    6  C6  UNL     1     -33.554  16.652  -4.206  1.00 20.00     0.033 A 
HETATM    7  N7  UNL     1     -34.793  12.902  -4.670  1.00 20.00    -0.253 NA
HETATM    8  N8  UNL     1     -34.483  14.962  -5.967  1.00 20.00    -0.241 NA
ENDROOT
TORSDOF 0
ENDMDL
