MODEL 1
REMARK VINA RESULT:      -5.5      0.000      0.000
REMARK  2 active torsions:
REMARK  status: ('A' for Active; 'I' for Inactive)
REMARK    1  A    between atoms: C3_3  and  C9_9 
REMARK    2  A    between atoms: C9_9  and  N10_10 
ROOT
HETATM    1  C1  UNL     1     -33.787   6.263   3.897  1.00 20.00     0.040 C 
HETATM    2  C4  UNL     1     -33.732   7.100   5.153  1.00 20.00     0.057 C 
HETATM    3  C5  UNL     1     -33.767   6.185   6.373  1.00 20.00     0.006 C 
HETATM    4  C6  UNL     1     -34.940   5.205   6.316  1.00 20.00     0.004 C 
HETATM    5  C7  UNL     1     -34.910   4.374   5.034  1.00 20.00     0.043 C 
HETATM    6  C8  UNL     1     -34.900   5.253   3.790  1.00 20.00     0.217 C 
HETATM    7  N10 UNL     1     -32.943   6.415   2.930  1.00 20.00    -0.292 NA
HETATM    8  F11 UNL     1     -34.755   4.455   2.698  1.00 20.00    -0.243 F 
ENDROOT
BRANCH   7   9
HETATM    9  C9  UNL     1     -31.949   7.452   3.159  1.00 20.00     0.175 C 
BRANCH   9  10
HETATM   10  C3  UNL     1     -31.803   8.286   1.927  1.00 20.00    -0.015 C 
HETATM   11  C2  UNL     1     -32.511   9.395   1.688  1.00 20.00     0.008 C 
ENDBRANCH   9  10
ENDBRANCH   7   9
TORSDOF 2
ENDMDL
MODEL 2
REMARK VINA RESULT:      -4.9     11.380     12.581
REMARK  2 active torsions:
REMARK  status: ('A' for Active; 'I' for Inactive)
REMARK    1  A    between atoms: C3_3  and  C9_9 
REMARK    2  A    between atoms: C9_9  and  N10_10 
ROOT
HETATM    1  C1  UNL     1     -34.032  15.024  -4.177  1.00 20.00     0.040 C 
HETATM    2  C4  UNL     1     -33.339  16.146  -4.913  1.00 20.00     0.057 C 
HETATM    3  C5  UNL     1     -34.114  16.471  -6.186  1.00 20.00     0.006 C 
HETATM    4  C6  UNL     1     -34.370  15.222  -7.031  1.00 20.00     0.004 C 
HETATM    5  C7  UNL     1     -35.101  14.146  -6.229  1.00 20.00     0.043 C 
HETATM    6  C8  UNL     1     -34.344  13.775  -4.960  1.00 20.00     0.217 C 
HETATM    7  N10 UNL     1     -34.323  15.101  -2.920  1.00 20.00    -0.292 NA
HETATM    8  F11 UNL     1     -35.104  12.904  -4.242  1.00 20.00    -0.243 F 
ENDROOT
BRANCH   7   9
HETATM    9  C9  UNL     1     -33.928  16.350  -2.288  1.00 20.00     0.175 C 
BRANCH   9  10
HETATM   10  C3  UNL     1     -34.704  16.539  -1.024  1.00 20.00    -0.015 C 
HETATM   11  C2  UNL     1     -34.418  17.467  -0.104  1.00 20.00     0.008 C 
ENDBRANCH   9  10
ENDBRANCH   7   9
TORSDOF 2
ENDMDL
MODEL 3
REMARK VINA RESULT:      -4.8      1.786      2.340
REMARK  2 active torsions:
REMARK  status: ('A' for Active; 'I' for Inactive)
REMARK    1  A    between atoms: C3_3  and  C9_9 
REMARK    2  A    between atoms: C9_9  and  N10_10 
ROOT
HETATM    1  C1  UNL     1     -33.155   6.323   4.488  1.00 20.00     0.040 C 
HETATM    2  C4  UNL     1     -33.728   5.216   3.636  1.00 20.00     0.057 C 
HETATM    3  C5  UNL     1     -35.164   4.936   4.068  1.00 20.00     0.006 C 
HETATM    4  C6  UNL     1     -35.268   4.694   5.575  1.00 20.00     0.004 C 
HETATM    5  C7  UNL     1     -34.697   5.868   6.368  1.00 20.00     0.043 C 
HETATM    6  C8  UNL     1     -33.254   6.163   5.984  1.00 20.00     0.217 C 
HETATM    7  N10 UNL     1     -32.572   7.356   3.975  1.00 20.00    -0.292 NA
HETATM    8  F11 UNL     1     -32.852   7.286   6.640  1.00 20.00    -0.243 F 
ENDROOT
BRANCH   7   9
HETATM    9  C9  UNL     1     -32.518   7.355   2.522  1.00 20.00     0.175 C 
BRANCH   9  10
HETATM   10  C3  UNL     1     -32.118   8.710   2.034  1.00 20.00    -0.015 C 
HETATM   11  C2  UNL     1     -32.123   9.072   0.746  1.00 20.00     0.008 C 
ENDBRANCH   9  10
ENDBRANCH   7   9
TORSDOF 2
ENDMDL
MODEL 4
REMARK VINA RESULT:      -4.6     11.118     11.900
REMARK  2 active torsions:
REMARK  status: ('A' for Active; 'I' for Inactive)
REMARK    1  A    between atoms: C3_3  and  C9_9 
REMARK    2  A    between atoms: C9_9  and  N10_10 
ROOT
HETATM    1  C1  UNL     1     -34.073  15.781  -3.183  1.00 20.00     0.040 C 
HETATM    2  C4  UNL     1     -35.508  15.888  -3.639  1.00 20.00     0.057 C 
HETATM    3  C5  UNL     1     -36.115  14.492  -3.733  1.00 20.00     0.006 C 
HETATM    4  C6  UNL     1     -35.252  13.552  -4.575  1.00 20.00     0.004 C 
HETATM    5  C7  UNL     1     -33.825  13.472  -4.035  1.00 20.00     0.043 C 
HETATM    6  C8  UNL     1     -33.174  14.846  -3.950  1.00 20.00     0.217 C 
HETATM    7  N10 UNL     1     -33.608  16.479  -2.199  1.00 20.00    -0.292 NA
HETATM    8  F11 UNL     1     -31.957  14.713  -3.356  1.00 20.00    -0.243 F 
ENDROOT
BRANCH   7   9
HETATM    9  C9  UNL     1     -34.581  17.365  -1.580  1.00 20.00     0.175 C 
BRANCH   9  10
HETATM   10  C3  UNL     1     -34.767  16.981  -0.147  1.00 20.00    -0.015 C 
HETATM   11  C2  UNL     1     -35.281  17.794   0.783  1.00 20.00     0.008 C 
ENDBRANCH   9  10
ENDBRANCH   7   9
TORSDOF 2
ENDMDL
MODEL 5
REMARK VINA RESULT:      -4.3     10.131     10.951
REMARK  2 active torsions:
REMARK  status: ('A' for Active; 'I' for Inactive)
REMARK    1  A    between atoms: C3_3  and  C9_9 
REMARK    2  A    between atoms: C9_9  and  N10_10 
ROOT
HETATM    1  C1  UNL     1     -42.666   6.491  -2.581  1.00 20.00     0.040 C 
HETATM    2  C4  UNL     1     -42.408   7.510  -1.497  1.00 20.00     0.057 C 
HETATM    3  C5  UNL     1     -41.056   7.228  -0.848  1.00 20.00     0.006 C 
HETATM    4  C6  UNL     1     -40.937   5.773  -0.391  1.00 20.00     0.004 C 
HETATM    5  C7  UNL     1     -41.179   4.804  -1.548  1.00 20.00     0.043 C 
HETATM    6  C8  UNL     1     -42.533   5.037  -2.207  1.00 20.00     0.217 C 
HETATM    7  N10 UNL     1     -43.019   6.832  -3.777  1.00 20.00    -0.292 NA
HETATM    8  F11 UNL     1     -42.631   4.224  -3.294  1.00 20.00    -0.243 F 
ENDROOT
BRANCH   7   9
HETATM    9  C9  UNL     1     -43.144   8.267  -3.980  1.00 20.00     0.175 C 
BRANCH   9  10
HETATM   10  C3  UNL     1     -42.119   8.724  -4.966  1.00 20.00    -0.015 C 
HETATM   11  C2  UNL     1     -41.934  10.003  -5.314  1.00 20.00     0.008 C 
ENDBRANCH   9  10
ENDBRANCH   7   9
TORSDOF 2
ENDMDL
MODEL 6
REMARK VINA RESULT:      -4.2     11.829     12.785
REMARK  2 active torsions:
REMARK  status: ('A' for Active; 'I' for Inactive)
REMARK    1  A    between atoms: C3_3  and  C9_9 
REMARK    2  A    between atoms: C9_9  and  N10_10 
ROOT
HETATM    1  C1  UNL     1     -34.826  16.051  -3.828  1.00 20.00     0.040 C 
HETATM    2  C4  UNL     1     -35.732  14.869  -3.575  1.00 20.00     0.057 C 
HETATM    3  C5  UNL     1     -35.276  13.689  -4.427  1.00 20.00     0.006 C 
HETATM    4  C6  UNL     1     -35.133  14.073  -5.901  1.00 20.00     0.004 C 
HETATM    5  C7  UNL     1     -34.179  15.254  -6.079  1.00 20.00     0.043 C 
HETATM    6  C8  UNL     1     -34.615  16.463  -5.262  1.00 20.00     0.217 C 
HETATM    7  N10 UNL     1     -34.273  16.713  -2.866  1.00 20.00    -0.292 NA
HETATM    8  F11 UNL     1     -33.663  17.428  -5.376  1.00 20.00    -0.243 F 
ENDROOT
BRANCH   7   9
HETATM    9  C9  UNL     1     -34.597  16.223  -1.535  1.00 20.00     0.175 C 
BRANCH   9  10
HETATM   10  C3  UNL     1     -34.321  17.292  -0.528  1.00 20.00    -0.015 C 
HETATM   11  C2  UNL     1     -35.005  17.438   0.612  1.00 20.00     0.008 C 
ENDBRANCH   9  10
ENDBRANCH   7   9
TORSDOF 2
ENDMDL
MODEL 7
REMARK VINA RESULT:      -4.2      9.837     11.389
REMARK  2 active torsions:
REMARK  status: ('A' for Active; 'I' for Inactive)
REMARK    1  A    between atoms: C3_3  and  C9_9 
REMARK    2  A    between atoms: C9_9  and  N10_10 
ROOT
HETATM    1  C1  UNL     1     -42.031   4.721  -2.112  1.00 20.00     0.040 C 
HETATM    2  C4  UNL     1     -43.274   5.211  -2.815  1.00 20.00     0.057 C 
HETATM    3  C5  UNL     1     -43.026   6.613  -3.363  1.00 20.00     0.006 C 
HETATM    4  C6  UNL     1     -42.493   7.559  -2.285  1.00 20.00     0.004 C 
HETATM    5  C7  UNL     1     -41.219   7.010  -1.643  1.00 20.00     0.043 C 
HETATM    6  C8  UNL     1     -41.433   5.620  -1.060  1.00 20.00     0.217 C 
HETATM    7  N10 UNL     1     -41.506   3.567  -2.365  1.00 20.00    -0.292 NA
HETATM    8  F11 UNL     1     -40.237   5.149  -0.613  1.00 20.00    -0.243 F 
ENDROOT
BRANCH   7   9
HETATM    9  C9  UNL     1     -42.213   2.794  -3.375  1.00 20.00     0.175 C 
BRANCH   9  10
HETATM   10  C3  UNL     1     -41.328   1.702  -3.880  1.00 20.00    -0.015 C 
HETATM   11  C2  UNL     1     -41.741   0.450  -4.108  1.00 20.00     0.008 C 
ENDBRANCH   9  10
ENDBRANCH   7   9
TORSDOF 2
ENDMDL
MODEL 8
REMARK VINA RESULT:      -4.0      9.836     10.775
REMARK  2 active torsions:
REMARK  status: ('A' for Active; 'I' for Inactive)
REMARK    1  A    between atoms: C3_3  and  C9_9 
REMARK    2  A    between atoms: C9_9  and  N10_10 
ROOT
HETATM    1  C1  UNL     1     -41.891   6.557  -2.174  1.00 20.00     0.040 C 
HETATM    2  C4  UNL     1     -42.442   5.234  -2.650  1.00 20.00     0.057 C 
HETATM    3  C5  UNL     1     -43.125   4.521  -1.488  1.00 20.00     0.006 C 
HETATM    4  C6  UNL     1     -42.212   4.423  -0.265  1.00 20.00     0.004 C 
HETATM    5  C7  UNL     1     -41.720   5.802   0.176  1.00 20.00     0.043 C 
HETATM    6  C8  UNL     1     -41.008   6.536  -0.952  1.00 20.00     0.217 C 
HETATM    7  N10 UNL     1     -42.128   7.666  -2.794  1.00 20.00    -0.292 NA
HETATM    8  F11 UNL     1     -40.704   7.792  -0.527  1.00 20.00    -0.243 F 
ENDROOT
BRANCH   7   9
HETATM    9  C9  UNL     1     -42.963   7.525  -3.977  1.00 20.00     0.175 C 
BRANCH   9  10
HETATM   10  C3  UNL     1     -42.845   8.752  -4.822  1.00 20.00    -0.015 C 
HETATM   11  C2  UNL     1     -41.727   9.111  -5.464  1.00 20.00     0.008 C 
ENDBRANCH   9  10
ENDBRANCH   7   9
TORSDOF 2
ENDMDL
MODEL 9
REMARK VINA RESULT:      -4.0     11.643     12.519
REMARK  2 active torsions:
REMARK  status: ('A' for Active; 'I' for Inactive)
REMARK    1  A    between atoms: C3_3  and  C9_9 
REMARK    2  A    between atoms: C9_9  and  N10_10 
ROOT
HETATM    1  C1  UNL     1     -34.165  18.401   1.088  1.00 20.00     0.040 C 
HETATM    2  C4  UNL     1     -33.254  19.262   0.245  1.00 20.00     0.057 C 
HETATM    3  C5  UNL     1     -31.810  19.064   0.696  1.00 20.00     0.006 C 
HETATM    4  C6  UNL     1     -31.653  19.262   2.204  1.00 20.00     0.004 C 
HETATM    5  C7  UNL     1     -32.583  18.337   2.988  1.00 20.00     0.043 C 
HETATM    6  C8  UNL     1     -34.039  18.523   2.584  1.00 20.00     0.217 C 
HETATM    7  N10 UNL     1     -35.044  17.611   0.565  1.00 20.00    -0.292 NA
HETATM    8  F11 UNL     1     -34.791  17.592   3.233  1.00 20.00    -0.243 F 
ENDROOT
BRANCH   7   9
HETATM    9  C9  UNL     1     -35.076  17.627  -0.890  1.00 20.00     0.175 C 
BRANCH   9  10
HETATM   10  C3  UNL     1     -34.761  16.263  -1.412  1.00 20.00    -0.015 C 
HETATM   11  C2  UNL     1     -34.143  16.033  -2.576  1.00 20.00     0.008 C 
ENDBRANCH   9  10
ENDBRANCH   7   9
TORSDOF 2
ENDMDL
