MODEL 1
REMARK VINA RESULT:      -5.5      0.000      0.000
REMARK  1 active torsions:
REMARK  status: ('A' for Active; 'I' for Inactive)
REMARK    1  A    between atoms: C3_3  and  C6_6 
ROOT
HETATM    1  C1  UNL     1     -35.167   4.545   5.346  1.00 20.00    -0.030 A 
HETATM    2  C2  UNL     1     -35.174   4.999   4.082  1.00 20.00    -0.025 A 
HETATM    3  C4  UNL     1     -34.301   5.440   6.198  1.00 20.00     0.033 A 
HETATM    4  C5  UNL     1     -34.368   6.214   3.883  1.00 20.00     0.024 A 
HETATM    5  C6  UNL     1     -32.876   6.188   4.099  1.00 20.00     0.068 A 
HETATM    6  C7  UNL     1     -33.794   6.513   5.254  1.00 20.00     0.009 A 
ENDROOT
BRANCH   5   7
HETATM    7  C3  UNL     1     -32.056   7.260   3.520  1.00 20.00     0.128 C 
HETATM    8  C8  UNL     1     -32.518   7.831   2.207  1.00 20.00     0.091 C 
HETATM    9  O9  UNL     1     -31.043   7.672   4.082  1.00 20.00    -0.298 OA
ENDBRANCH   5   7
TORSDOF 1
ENDMDL
MODEL 2
REMARK VINA RESULT:      -4.5      0.893      1.636
REMARK  1 active torsions:
REMARK  status: ('A' for Active; 'I' for Inactive)
REMARK    1  A    between atoms: C3_3  and  C6_6 
ROOT
HETATM    1  C1  UNL     1     -35.330   5.148   4.555  1.00 20.00    -0.030 A 
HETATM    2  C2  UNL     1     -34.351   5.692   5.294  1.00 20.00    -0.025 A 
HETATM    3  C4  UNL     1     -34.904   5.106   3.108  1.00 20.00     0.033 A 
HETATM    4  C5  UNL     1     -33.161   6.074   4.517  1.00 20.00     0.024 A 
HETATM    5  C6  UNL     1     -33.251   7.141   3.455  1.00 20.00     0.068 A 
HETATM    6  C7  UNL     1     -33.508   5.698   3.089  1.00 20.00     0.009 A 
ENDROOT
BRANCH   5   7
HETATM    7  C3  UNL     1     -32.016   7.783   2.987  1.00 20.00     0.128 C 
HETATM    8  C8  UNL     1     -32.054   8.404   1.616  1.00 20.00     0.091 C 
HETATM    9  O9  UNL     1     -31.002   7.814   3.681  1.00 20.00    -0.298 OA
ENDBRANCH   5   7
TORSDOF 1
ENDMDL
MODEL 3
REMARK VINA RESULT:      -4.4     11.647     12.404
REMARK  1 active torsions:
REMARK  status: ('A' for Active; 'I' for Inactive)
REMARK    1  A    between atoms: C3_3  and  C6_6 
ROOT
HETATM    1  C1  UNL     1     -33.881  17.276  -1.684  1.00 20.00    -0.030 A 
HETATM    2  C2  UNL     1     -34.681  16.225  -1.446  1.00 20.00    -0.025 A 
HETATM    3  C4  UNL     1     -33.680  17.430  -3.171  1.00 20.00     0.033 A 
HETATM    4  C5  UNL     1     -35.140  15.539  -2.665  1.00 20.00     0.024 A 
HETATM    5  C6  UNL     1     -34.152  14.860  -3.580  1.00 20.00     0.068 A 
HETATM    6  C7  UNL     1     -34.495  16.315  -3.797  1.00 20.00     0.009 A 
ENDROOT
BRANCH   5   7
HETATM    7  C3  UNL     1     -34.642  13.863  -4.540  1.00 20.00     0.128 C 
HETATM    8  C8  UNL     1     -34.772  14.310  -5.971  1.00 20.00     0.091 C 
HETATM    9  O9  UNL     1     -34.930  12.719  -4.192  1.00 20.00    -0.298 OA
ENDBRANCH   5   7
TORSDOF 1
ENDMDL
MODEL 4
REMARK VINA RESULT:      -4.3     11.450     12.020
REMARK  1 active torsions:
REMARK  status: ('A' for Active; 'I' for Inactive)
REMARK    1  A    between atoms: C3_3  and  C6_6 
ROOT
HETATM    1  C1  UNL     1     -34.845  13.330  -4.262  1.00 20.00    -0.030 A 
HETATM    2  C2  UNL     1     -33.657  13.821  -3.876  1.00 20.00    -0.025 A 
HETATM    3  C4  UNL     1     -35.903  14.396  -4.115  1.00 20.00     0.033 A 
HETATM    4  C5  UNL     1     -33.708  15.225  -3.439  1.00 20.00     0.024 A 
HETATM    5  C6  UNL     1     -34.514  15.622  -2.227  1.00 20.00     0.068 A 
HETATM    6  C7  UNL     1     -35.167  15.613  -3.589  1.00 20.00     0.009 A 
ENDROOT
BRANCH   5   7
HETATM    7  C3  UNL     1     -34.236  16.911  -1.580  1.00 20.00     0.128 C 
HETATM    8  C8  UNL     1     -34.735  17.081  -0.171  1.00 20.00     0.091 C 
HETATM    9  O9  UNL     1     -33.625  17.806  -2.161  1.00 20.00    -0.298 OA
ENDBRANCH   5   7
TORSDOF 1
ENDMDL
MODEL 5
REMARK VINA RESULT:      -4.2     11.454     12.512
REMARK  1 active torsions:
REMARK  status: ('A' for Active; 'I' for Inactive)
REMARK    1  A    between atoms: C3_3  and  C6_6 
ROOT
HETATM    1  C1  UNL     1     -33.982  17.799  -0.390  1.00 20.00    -0.030 A 
HETATM    2  C2  UNL     1     -34.672  16.660  -0.562  1.00 20.00    -0.025 A 
HETATM    3  C4  UNL     1     -33.544  18.329  -1.733  1.00 20.00     0.033 A 
HETATM    4  C5  UNL     1     -34.818  16.261  -1.971  1.00 20.00     0.024 A 
HETATM    5  C6  UNL     1     -33.607  15.909  -2.797  1.00 20.00     0.068 A 
HETATM    6  C7  UNL     1     -34.087  17.340  -2.746  1.00 20.00     0.009 A 
ENDROOT
BRANCH   5   7
HETATM    7  C3  UNL     1     -33.790  15.142  -4.036  1.00 20.00     0.128 C 
HETATM    8  C8  UNL     1     -34.058  13.669  -3.885  1.00 20.00     0.091 C 
HETATM    9  O9  UNL     1     -33.731  15.677  -5.141  1.00 20.00    -0.298 OA
ENDBRANCH   5   7
TORSDOF 1
ENDMDL
MODEL 6
REMARK VINA RESULT:      -4.1      1.129      1.708
REMARK  1 active torsions:
REMARK  status: ('A' for Active; 'I' for Inactive)
REMARK    1  A    between atoms: C3_3  and  C6_6 
ROOT
HETATM    1  C1  UNL     1     -35.346   5.169   6.262  1.00 20.00    -0.030 A 
HETATM    2  C2  UNL     1     -34.311   6.003   6.444  1.00 20.00    -0.025 A 
HETATM    3  C4  UNL     1     -35.190   4.453   4.943  1.00 20.00     0.033 A 
HETATM    4  C5  UNL     1     -33.330   5.982   5.347  1.00 20.00     0.024 A 
HETATM    5  C6  UNL     1     -33.724   6.422   3.959  1.00 20.00     0.068 A 
HETATM    6  C7  UNL     1     -33.891   4.975   4.361  1.00 20.00     0.009 A 
ENDROOT
BRANCH   5   7
HETATM    7  C3  UNL     1     -32.670   6.775   3.000  1.00 20.00     0.128 C 
HETATM    8  C8  UNL     1     -32.619   8.210   2.550  1.00 20.00     0.091 C 
HETATM    9  O9  UNL     1     -31.867   5.940   2.587  1.00 20.00    -0.298 OA
ENDBRANCH   5   7
TORSDOF 1
ENDMDL
MODEL 7
REMARK VINA RESULT:      -4.1     11.546     12.560
REMARK  1 active torsions:
REMARK  status: ('A' for Active; 'I' for Inactive)
REMARK    1  A    between atoms: C3_3  and  C6_6 
ROOT
HETATM    1  C1  UNL     1     -34.183  17.505  -2.321  1.00 20.00    -0.030 A 
HETATM    2  C2  UNL     1     -33.724  17.306  -3.567  1.00 20.00    -0.025 A 
HETATM    3  C4  UNL     1     -34.578  16.182  -1.713  1.00 20.00     0.033 A 
HETATM    4  C5  UNL     1     -33.721  15.894  -3.981  1.00 20.00     0.024 A 
HETATM    5  C6  UNL     1     -35.014  15.128  -4.099  1.00 20.00     0.068 A 
HETATM    6  C7  UNL     1     -34.275  15.150  -2.782  1.00 20.00     0.009 A 
ENDROOT
BRANCH   5   7
HETATM    7  C3  UNL     1     -35.034  13.885  -4.882  1.00 20.00     0.128 C 
HETATM    8  C8  UNL     1     -35.072  14.030  -6.379  1.00 20.00     0.091 C 
HETATM    9  O9  UNL     1     -35.018  12.781  -4.340  1.00 20.00    -0.298 OA
ENDBRANCH   5   7
TORSDOF 1
ENDMDL
MODEL 8
REMARK VINA RESULT:      -4.1      1.156      1.830
REMARK  1 active torsions:
REMARK  status: ('A' for Active; 'I' for Inactive)
REMARK    1  A    between atoms: C3_3  and  C6_6 
ROOT
HETATM    1  C1  UNL     1     -35.319   5.025   5.778  1.00 20.00    -0.030 A 
HETATM    2  C2  UNL     1     -34.324   5.818   6.205  1.00 20.00    -0.025 A 
HETATM    3  C4  UNL     1     -35.082   4.650   4.336  1.00 20.00     0.033 A 
HETATM    4  C5  UNL     1     -33.299   6.086   5.184  1.00 20.00     0.024 A 
HETATM    5  C6  UNL     1     -33.651   6.836   3.923  1.00 20.00     0.068 A 
HETATM    6  C7  UNL     1     -33.781   5.331   3.960  1.00 20.00     0.009 A 
ENDROOT
BRANCH   5   7
HETATM    7  C3  UNL     1     -32.572   7.437   3.129  1.00 20.00     0.128 C 
HETATM    8  C8  UNL     1     -31.234   7.579   3.804  1.00 20.00     0.091 C 
HETATM    9  O9  UNL     1     -32.751   7.804   1.969  1.00 20.00    -0.298 OA
ENDBRANCH   5   7
TORSDOF 1
ENDMDL
MODEL 9
REMARK VINA RESULT:      -4.1     11.535     12.501
REMARK  1 active torsions:
REMARK  status: ('A' for Active; 'I' for Inactive)
REMARK    1  A    between atoms: C3_3  and  C6_6 
ROOT
HETATM    1  C1  UNL     1     -32.989  14.790  -3.588  1.00 20.00    -0.030 A 
HETATM    2  C2  UNL     1     -33.697  13.759  -4.076  1.00 20.00    -0.025 A 
HETATM    3  C4  UNL     1     -33.922  15.775  -2.930  1.00 20.00     0.033 A 
HETATM    4  C5  UNL     1     -35.144  13.864  -3.832  1.00 20.00     0.024 A 
HETATM    5  C6  UNL     1     -35.944  14.988  -4.442  1.00 20.00     0.068 A 
HETATM    6  C7  UNL     1     -35.305  15.174  -3.086  1.00 20.00     0.009 A 
ENDROOT
BRANCH   5   7
HETATM    7  C3  UNL     1     -37.405  14.855  -4.527  1.00 20.00     0.128 C 
HETATM    8  C8  UNL     1     -38.078  15.535  -5.688  1.00 20.00     0.091 C 
HETATM    9  O9  UNL     1     -38.044  14.217  -3.693  1.00 20.00    -0.298 OA
ENDBRANCH   5   7
TORSDOF 1
ENDMDL
