MODEL 1
REMARK VINA RESULT:      -4.2      0.000      0.000
REMARK  1 active torsions:
REMARK  status: ('A' for Active; 'I' for Inactive)
REMARK    1  A    between atoms: C1_1  and  C2_2 
ROOT
HETATM    1  C2  UNL     1     -34.647  14.961  -3.392  1.00 20.00     0.100 A 
HETATM    2  C3  UNL     1     -33.821  15.908  -2.562  1.00 20.00     0.104 A 
HETATM    3  C4  UNL     1     -34.341  16.359  -3.907  1.00 20.00    -0.017 A 
HETATM    4  C5  UNL     1     -35.495  17.328  -3.993  1.00 20.00     0.017 C 
HETATM    5  C6  UNL     1     -33.320  16.549  -5.002  1.00 20.00     0.017 C 
HETATM    6 CL9  UNL     1     -34.467  16.522  -1.063  1.00 20.00    -0.123 Cl
ENDROOT
BRANCH   1   7
HETATM    7  C1  UNL     1     -34.005  13.783  -3.991  1.00 20.00     0.225 C 
HETATM    8  O7  UNL     1     -32.985  13.293  -3.517  1.00 20.00    -0.279 OA
HETATM    9 CL8  UNL     1     -34.860  13.215  -5.394  1.00 20.00    -0.043 Cl
ENDBRANCH   1   7
TORSDOF 1
ENDMDL
MODEL 2
REMARK VINA RESULT:      -4.1      1.896      2.460
REMARK  1 active torsions:
REMARK  status: ('A' for Active; 'I' for Inactive)
REMARK    1  A    between atoms: C1_1  and  C2_2 
ROOT
HETATM    1  C2  UNL     1     -34.228  14.787  -4.340  1.00 20.00     0.100 A 
HETATM    2  C3  UNL     1     -34.626  16.196  -4.693  1.00 20.00     0.104 A 
HETATM    3  C4  UNL     1     -35.148  15.573  -3.419  1.00 20.00    -0.017 A 
HETATM    4  C5  UNL     1     -34.590  15.989  -2.080  1.00 20.00     0.017 C 
HETATM    5  C6  UNL     1     -36.622  15.248  -3.375  1.00 20.00     0.017 C 
HETATM    6 CL9  UNL     1     -33.420  17.456  -4.682  1.00 20.00    -0.123 Cl
ENDROOT
BRANCH   1   7
HETATM    7  C1  UNL     1     -34.744  13.671  -5.145  1.00 20.00     0.225 C 
HETATM    8  O7  UNL     1     -34.793  12.527  -4.704  1.00 20.00    -0.279 OA
HETATM    9 CL8  UNL     1     -35.248  14.185  -6.726  1.00 20.00    -0.043 Cl
ENDBRANCH   1   7
TORSDOF 1
ENDMDL
MODEL 3
REMARK VINA RESULT:      -4.0     11.462     12.524
REMARK  1 active torsions:
REMARK  status: ('A' for Active; 'I' for Inactive)
REMARK    1  A    between atoms: C1_1  and  C2_2 
ROOT
HETATM    1  C2  UNL     1     -33.032   5.816   4.483  1.00 20.00     0.100 A 
HETATM    2  C3  UNL     1     -33.941   6.793   5.182  1.00 20.00     0.104 A 
HETATM    3  C4  UNL     1     -34.494   5.467   4.715  1.00 20.00    -0.017 A 
HETATM    4  C5  UNL     1     -34.789   4.371   5.710  1.00 20.00     0.017 C 
HETATM    5  C6  UNL     1     -35.466   5.503   3.562  1.00 20.00     0.017 C 
HETATM    6 CL9  UNL     1     -33.682   7.149   6.870  1.00 20.00    -0.123 Cl
ENDROOT
BRANCH   1   7
HETATM    7  C1  UNL     1     -32.539   6.130   3.135  1.00 20.00     0.225 C 
HETATM    8  O7  UNL     1     -32.209   5.249   2.348  1.00 20.00    -0.279 OA
HETATM    9 CL8  UNL     1     -32.497   7.842   2.837  1.00 20.00    -0.043 Cl
ENDBRANCH   1   7
TORSDOF 1
ENDMDL
MODEL 4
REMARK VINA RESULT:      -3.9      2.375      2.828
REMARK  1 active torsions:
REMARK  status: ('A' for Active; 'I' for Inactive)
REMARK    1  A    between atoms: C1_1  and  C2_2 
ROOT
HETATM    1  C2  UNL     1     -35.459  14.804  -3.368  1.00 20.00     0.100 A 
HETATM    2  C3  UNL     1     -34.292  15.572  -3.931  1.00 20.00     0.104 A 
HETATM    3  C4  UNL     1     -35.141  16.197  -2.848  1.00 20.00    -0.017 A 
HETATM    4  C5  UNL     1     -34.621  16.302  -1.435  1.00 20.00     0.017 C 
HETATM    5  C6  UNL     1     -36.008  17.364  -3.252  1.00 20.00     0.017 C 
HETATM    6 CL9  UNL     1     -32.669  15.009  -3.629  1.00 20.00    -0.123 Cl
ENDROOT
BRANCH   1   7
HETATM    7  C1  UNL     1     -36.639  14.567  -4.211  1.00 20.00     0.225 C 
HETATM    8  O7  UNL     1     -37.706  14.194  -3.737  1.00 20.00    -0.279 OA
HETATM    9 CL8  UNL     1     -36.315  14.879  -5.890  1.00 20.00    -0.043 Cl
ENDBRANCH   1   7
TORSDOF 1
ENDMDL
MODEL 5
REMARK VINA RESULT:      -3.9      2.147      2.673
REMARK  1 active torsions:
REMARK  status: ('A' for Active; 'I' for Inactive)
REMARK    1  A    between atoms: C1_1  and  C2_2 
ROOT
HETATM    1  C2  UNL     1     -35.691  15.609  -3.901  1.00 20.00     0.100 A 
HETATM    2  C3  UNL     1     -35.075  15.140  -2.609  1.00 20.00     0.104 A 
HETATM    3  C4  UNL     1     -34.311  14.970  -3.901  1.00 20.00    -0.017 A 
HETATM    4  C5  UNL     1     -33.138  15.865  -4.219  1.00 20.00     0.017 C 
HETATM    5  C6  UNL     1     -34.138  13.559  -4.409  1.00 20.00     0.017 C 
HETATM    6 CL9  UNL     1     -34.611  16.313  -1.404  1.00 20.00    -0.123 Cl
ENDROOT
BRANCH   1   7
HETATM    7  C1  UNL     1     -36.852  14.892  -4.445  1.00 20.00     0.225 C 
HETATM    8  O7  UNL     1     -37.574  14.200  -3.735  1.00 20.00    -0.279 OA
HETATM    9 CL8  UNL     1     -37.040  15.156  -6.153  1.00 20.00    -0.043 Cl
ENDBRANCH   1   7
TORSDOF 1
ENDMDL
MODEL 6
REMARK VINA RESULT:      -3.9      2.207      3.444
REMARK  1 active torsions:
REMARK  status: ('A' for Active; 'I' for Inactive)
REMARK    1  A    between atoms: C1_1  and  C2_2 
ROOT
HETATM    1  C2  UNL     1     -34.456  14.390  -5.663  1.00 20.00     0.100 A 
HETATM    2  C3  UNL     1     -35.831  14.701  -6.193  1.00 20.00     0.104 A 
HETATM    3  C4  UNL     1     -35.032  15.789  -5.513  1.00 20.00    -0.017 A 
HETATM    4  C5  UNL     1     -34.391  16.887  -6.326  1.00 20.00     0.017 C 
HETATM    5  C6  UNL     1     -35.528  16.256  -4.166  1.00 20.00     0.017 C 
HETATM    6 CL9  UNL     1     -36.108  14.692  -7.915  1.00 20.00    -0.123 Cl
ENDROOT
BRANCH   1   7
HETATM    7  C1  UNL     1     -34.318  13.505  -4.498  1.00 20.00     0.225 C 
HETATM    8  O7  UNL     1     -35.140  12.628  -4.254  1.00 20.00    -0.279 OA
HETATM    9 CL8  UNL     1     -32.893  13.865  -3.570  1.00 20.00    -0.043 Cl
ENDBRANCH   1   7
TORSDOF 1
ENDMDL
MODEL 7
REMARK VINA RESULT:      -3.9      2.767      3.825
REMARK  1 active torsions:
REMARK  status: ('A' for Active; 'I' for Inactive)
REMARK    1  A    between atoms: C1_1  and  C2_2 
ROOT
HETATM    1  C2  UNL     1     -36.009  14.550  -4.691  1.00 20.00     0.100 A 
HETATM    2  C3  UNL     1     -35.016  15.586  -5.149  1.00 20.00     0.104 A 
HETATM    3  C4  UNL     1     -34.745  14.805  -3.884  1.00 20.00    -0.017 A 
HETATM    4  C5  UNL     1     -33.706  13.710  -3.870  1.00 20.00     0.017 C 
HETATM    5  C6  UNL     1     -34.826  15.566  -2.584  1.00 20.00     0.017 C 
HETATM    6 CL9  UNL     1     -34.112  15.319  -6.616  1.00 20.00    -0.123 Cl
ENDROOT
BRANCH   1   7
HETATM    7  C1  UNL     1     -37.320  14.983  -4.191  1.00 20.00     0.225 C 
HETATM    8  O7  UNL     1     -38.066  14.217  -3.590  1.00 20.00    -0.279 OA
HETATM    9 CL8  UNL     1     -37.641  16.652  -4.556  1.00 20.00    -0.043 Cl
ENDBRANCH   1   7
TORSDOF 1
ENDMDL
MODEL 8
REMARK VINA RESULT:      -3.8      2.311      3.145
REMARK  1 active torsions:
REMARK  status: ('A' for Active; 'I' for Inactive)
REMARK    1  A    between atoms: C1_1  and  C2_2 
ROOT
HETATM    1  C2  UNL     1     -35.275  14.058  -4.886  1.00 20.00     0.100 A 
HETATM    2  C3  UNL     1     -36.138  15.283  -5.036  1.00 20.00     0.104 A 
HETATM    3  C4  UNL     1     -35.105  14.968  -6.093  1.00 20.00    -0.017 A 
HETATM    4  C5  UNL     1     -35.526  14.418  -7.433  1.00 20.00     0.017 C 
HETATM    5  C6  UNL     1     -33.913  15.890  -6.175  1.00 20.00     0.017 C 
HETATM    6 CL9  UNL     1     -37.848  15.097  -5.326  1.00 20.00    -0.123 Cl
ENDROOT
BRANCH   1   7
HETATM    7  C1  UNL     1     -34.260  14.020  -3.824  1.00 20.00     0.225 C 
HETATM    8  O7  UNL     1     -33.383  13.163  -3.802  1.00 20.00    -0.279 OA
HETATM    9 CL8  UNL     1     -34.475  15.300  -2.668  1.00 20.00    -0.043 Cl
ENDBRANCH   1   7
TORSDOF 1
ENDMDL
MODEL 9
REMARK VINA RESULT:      -3.8      2.559      2.679
REMARK  1 active torsions:
REMARK  status: ('A' for Active; 'I' for Inactive)
REMARK    1  A    between atoms: C1_1  and  C2_2 
ROOT
HETATM    1  C2  UNL     1     -35.569  14.800  -4.745  1.00 20.00     0.100 A 
HETATM    2  C3  UNL     1     -35.005  16.179  -4.963  1.00 20.00     0.104 A 
HETATM    3  C4  UNL     1     -35.525  15.394  -6.144  1.00 20.00    -0.017 A 
HETATM    4  C5  UNL     1     -36.845  15.756  -6.780  1.00 20.00     0.017 C 
HETATM    5  C6  UNL     1     -34.501  14.899  -7.136  1.00 20.00     0.017 C 
HETATM    6 CL9  UNL     1     -35.852  17.564  -4.324  1.00 20.00    -0.123 Cl
ENDROOT
BRANCH   1   7
HETATM    7  C1  UNL     1     -34.667  13.706  -4.363  1.00 20.00     0.225 C 
HETATM    8  O7  UNL     1     -34.991  12.529  -4.488  1.00 20.00    -0.279 OA
HETATM    9 CL8  UNL     1     -33.153  14.293  -3.743  1.00 20.00    -0.043 Cl
ENDBRANCH   1   7
TORSDOF 1
ENDMDL
