MODEL 1
REMARK VINA RESULT:      -4.1      0.000      0.000
REMARK  1 active torsions:
REMARK  status: ('A' for Active; 'I' for Inactive)
REMARK    1  A    between atoms: C2_2  and  C5_5 
ROOT
HETATM    1  C1  UNL     1     -32.707   6.852   3.926  1.00 20.00     0.270 A 
HETATM    2  C2  UNL     1     -33.840   5.863   4.015  1.00 20.00     0.181 A 
HETATM    3  O6  UNL     1     -34.054   7.275   4.165  1.00 20.00    -0.336 OA
HETATM    4 CL7  UNL     1     -31.952   7.288   2.417  1.00 20.00    -0.091 Cl
HETATM    5 CL8  UNL     1     -34.476   5.102   2.558  1.00 20.00    -0.084 Cl
ENDROOT
BRANCH   2   6
HETATM    6  C5  UNL     1     -34.045   5.077   5.308  1.00 20.00     0.032 C 
HETATM    7  C3  UNL     1     -34.389   6.018   6.460  1.00 20.00     0.014 C 
HETATM    8  C4  UNL     1     -35.136   4.025   5.130  1.00 20.00     0.014 C 
ENDBRANCH   2   6
TORSDOF 1
ENDMDL
MODEL 2
REMARK VINA RESULT:      -3.9      1.889      2.079
REMARK  1 active torsions:
REMARK  status: ('A' for Active; 'I' for Inactive)
REMARK    1  A    between atoms: C2_2  and  C5_5 
ROOT
HETATM    1  C1  UNL     1     -32.893   6.542   2.903  1.00 20.00     0.270 A 
HETATM    2  C2  UNL     1     -33.495   6.022   4.183  1.00 20.00     0.181 A 
HETATM    3  O6  UNL     1     -32.267   5.496   3.655  1.00 20.00    -0.336 OA
HETATM    4 CL7  UNL     1     -32.092   8.086   2.797  1.00 20.00    -0.091 Cl
HETATM    5 CL8  UNL     1     -33.395   6.970   5.665  1.00 20.00    -0.084 Cl
ENDROOT
BRANCH   2   6
HETATM    6  C5  UNL     1     -34.657   5.034   4.113  1.00 20.00     0.032 C 
HETATM    7  C3  UNL     1     -34.874   4.362   5.468  1.00 20.00     0.014 C 
HETATM    8  C4  UNL     1     -35.932   5.737   3.654  1.00 20.00     0.014 C 
ENDBRANCH   2   6
TORSDOF 1
ENDMDL
MODEL 3
REMARK VINA RESULT:      -3.9     12.152     12.859
REMARK  1 active torsions:
REMARK  status: ('A' for Active; 'I' for Inactive)
REMARK    1  A    between atoms: C2_2  and  C5_5 
ROOT
HETATM    1  C1  UNL     1     -35.169  16.028  -2.897  1.00 20.00     0.270 A 
HETATM    2  C2  UNL     1     -34.297  15.397  -3.952  1.00 20.00     0.181 A 
HETATM    3  O6  UNL     1     -34.605  16.800  -3.963  1.00 20.00    -0.336 OA
HETATM    4 CL7  UNL     1     -34.617  16.323  -1.270  1.00 20.00    -0.091 Cl
HETATM    5 CL8  UNL     1     -32.637  14.940  -3.581  1.00 20.00    -0.084 Cl
ENDROOT
BRANCH   2   6
HETATM    6  C5  UNL     1     -34.951  14.625  -5.096  1.00 20.00     0.032 C 
HETATM    7  C3  UNL     1     -34.438  15.124  -6.444  1.00 20.00     0.014 C 
HETATM    8  C4  UNL     1     -34.696  13.127  -4.946  1.00 20.00     0.014 C 
ENDBRANCH   2   6
TORSDOF 1
ENDMDL
MODEL 4
REMARK VINA RESULT:      -3.9     11.979     12.590
REMARK  1 active torsions:
REMARK  status: ('A' for Active; 'I' for Inactive)
REMARK    1  A    between atoms: C2_2  and  C5_5 
ROOT
HETATM    1  C1  UNL     1     -33.175  15.062  -3.419  1.00 20.00     0.270 A 
HETATM    2  C2  UNL     1     -34.175  16.035  -2.849  1.00 20.00     0.181 A 
HETATM    3  O6  UNL     1     -33.498  16.284  -4.091  1.00 20.00    -0.336 OA
HETATM    4 CL7  UNL     1     -33.643  13.554  -4.159  1.00 20.00    -0.091 Cl
HETATM    5 CL8  UNL     1     -35.901  15.689  -2.928  1.00 20.00    -0.084 Cl
ENDROOT
BRANCH   2   6
HETATM    6  C5  UNL     1     -33.744  16.974  -1.725  1.00 20.00     0.032 C 
HETATM    7  C3  UNL     1     -33.727  18.422  -2.211  1.00 20.00     0.014 C 
HETATM    8  C4  UNL     1     -34.666  16.824  -0.517  1.00 20.00     0.014 C 
ENDBRANCH   2   6
TORSDOF 1
ENDMDL
MODEL 5
REMARK VINA RESULT:      -3.7     12.058     13.224
REMARK  1 active torsions:
REMARK  status: ('A' for Active; 'I' for Inactive)
REMARK    1  A    between atoms: C2_2  and  C5_5 
ROOT
HETATM    1  C1  UNL     1     -33.606  17.061  -5.110  1.00 20.00     0.270 A 
HETATM    2  C2  UNL     1     -33.796  16.048  -4.010  1.00 20.00     0.181 A 
HETATM    3  O6  UNL     1     -32.554  16.170  -4.722  1.00 20.00    -0.336 OA
HETATM    4 CL7  UNL     1     -33.412  18.765  -4.799  1.00 20.00    -0.091 Cl
HETATM    5 CL8  UNL     1     -33.810  16.555  -2.323  1.00 20.00    -0.084 Cl
ENDROOT
BRANCH   2   6
HETATM    6  C5  UNL     1     -34.543  14.751  -4.312  1.00 20.00     0.032 C 
HETATM    7  C3  UNL     1     -33.709  13.541  -3.898  1.00 20.00     0.014 C 
HETATM    8  C4  UNL     1     -35.897  14.735  -3.607  1.00 20.00     0.014 C 
ENDBRANCH   2   6
TORSDOF 1
ENDMDL
MODEL 6
REMARK VINA RESULT:      -3.7      2.367      3.797
REMARK  1 active torsions:
REMARK  status: ('A' for Active; 'I' for Inactive)
REMARK    1  A    between atoms: C2_2  and  C5_5 
ROOT
HETATM    1  C1  UNL     1     -34.867   4.443   5.078  1.00 20.00     0.270 A 
HETATM    2  C2  UNL     1     -34.090   5.692   4.746  1.00 20.00     0.181 A 
HETATM    3  O6  UNL     1     -35.467   5.533   4.369  1.00 20.00    -0.336 OA
HETATM    4 CL7  UNL     1     -35.431   4.084   6.688  1.00 20.00    -0.091 Cl
HETATM    5 CL8  UNL     1     -33.730   6.877   5.999  1.00 20.00    -0.084 Cl
ENDROOT
BRANCH   2   6
HETATM    6  C5  UNL     1     -33.130   5.680   3.559  1.00 20.00     0.032 C 
HETATM    7  C3  UNL     1     -33.899   5.526   2.248  1.00 20.00     0.014 C 
HETATM    8  C4  UNL     1     -32.285   6.951   3.539  1.00 20.00     0.014 C 
ENDBRANCH   2   6
TORSDOF 1
ENDMDL
MODEL 7
REMARK VINA RESULT:      -3.7     12.053     12.895
REMARK  1 active torsions:
REMARK  status: ('A' for Active; 'I' for Inactive)
REMARK    1  A    between atoms: C2_2  and  C5_5 
ROOT
HETATM    1  C1  UNL     1     -34.906  15.365  -6.108  1.00 20.00     0.270 A 
HETATM    2  C2  UNL     1     -34.769  14.861  -4.694  1.00 20.00     0.181 A 
HETATM    3  O6  UNL     1     -35.864  15.700  -5.098  1.00 20.00    -0.336 OA
HETATM    4 CL7  UNL     1     -35.409  14.345  -7.428  1.00 20.00    -0.091 Cl
HETATM    5 CL8  UNL     1     -35.141  13.183  -4.306  1.00 20.00    -0.084 Cl
ENDROOT
BRANCH   2   6
HETATM    6  C5  UNL     1     -33.792  15.553  -3.747  1.00 20.00     0.032 C 
HETATM    7  C3  UNL     1     -34.460  15.845  -2.405  1.00 20.00     0.014 C 
HETATM    8  C4  UNL     1     -32.541  14.701  -3.550  1.00 20.00     0.014 C 
ENDBRANCH   2   6
TORSDOF 1
ENDMDL
MODEL 8
REMARK VINA RESULT:      -3.5     11.948     12.898
REMARK  1 active torsions:
REMARK  status: ('A' for Active; 'I' for Inactive)
REMARK    1  A    between atoms: C2_2  and  C5_5 
ROOT
HETATM    1  C1  UNL     1     -36.672  14.866  -4.269  1.00 20.00     0.270 A 
HETATM    2  C2  UNL     1     -35.284  14.566  -4.775  1.00 20.00     0.181 A 
HETATM    3  O6  UNL     1     -36.120  13.546  -4.204  1.00 20.00    -0.336 OA
HETATM    4 CL7  UNL     1     -38.022  15.154  -5.333  1.00 20.00    -0.091 Cl
HETATM    5 CL8  UNL     1     -34.967  14.472  -6.505  1.00 20.00    -0.084 Cl
ENDROOT
BRANCH   2   6
HETATM    6  C5  UNL     1     -34.080  14.920  -3.905  1.00 20.00     0.032 C 
HETATM    7  C3  UNL     1     -33.209  13.689  -3.667  1.00 20.00     0.014 C 
HETATM    8  C4  UNL     1     -33.264  16.039  -4.548  1.00 20.00     0.014 C 
ENDBRANCH   2   6
TORSDOF 1
ENDMDL
MODEL 9
REMARK VINA RESULT:      -3.5     12.341     13.415
REMARK  1 active torsions:
REMARK  status: ('A' for Active; 'I' for Inactive)
REMARK    1  A    between atoms: C2_2  and  C5_5 
ROOT
HETATM    1  C1  UNL     1     -35.560  15.358  -6.080  1.00 20.00     0.270 A 
HETATM    2  C2  UNL     1     -34.380  15.370  -5.142  1.00 20.00     0.181 A 
HETATM    3  O6  UNL     1     -34.427  14.508  -6.290  1.00 20.00    -0.336 OA
HETATM    4 CL7  UNL     1     -35.868  16.635  -7.225  1.00 20.00    -0.091 Cl
HETATM    5 CL8  UNL     1     -33.225  16.700  -5.180  1.00 20.00    -0.084 Cl
ENDROOT
BRANCH   2   6
HETATM    6  C5  UNL     1     -34.474  14.620  -3.816  1.00 20.00     0.032 C 
HETATM    7  C3  UNL     1     -33.328  13.619  -3.683  1.00 20.00     0.014 C 
HETATM    8  C4  UNL     1     -34.469  15.599  -2.644  1.00 20.00     0.014 C 
ENDBRANCH   2   6
TORSDOF 1
ENDMDL
