MODEL 1
REMARK VINA RESULT:      -4.8      0.000      0.000
REMARK  1 active torsions:
REMARK  status: ('A' for Active; 'I' for Inactive)
REMARK    1  A    between atoms: C3_3  and  C9_9 
ROOT
HETATM    1  C1  UNL     1     -34.819  16.856  -6.024  1.00 20.00    -0.030 C 
HETATM    2  C2  UNL     1     -33.736  17.139  -5.271  1.00 20.00    -0.029 C 
HETATM    3  C4  UNL     1     -35.468  15.487  -6.094  1.00 20.00     0.032 C 
HETATM    4  C5  UNL     1     -33.049  16.139  -4.356  1.00 20.00     0.044 C 
HETATM    5  C6  UNL     1     -34.755  13.132  -4.814  1.00 20.00     0.007 C 
HETATM    6  C7  UNL     1     -33.585  13.512  -3.848  1.00 20.00     0.018 C 
HETATM    7  C8  UNL     1     -34.491  14.503  -5.478  1.00 20.00     0.005 C 
HETATM    8  C9  UNL     1     -34.033  15.001  -4.063  1.00 20.00     0.027 C 
ENDROOT
BRANCH   8   9
HETATM    9  C3  UNL     1     -35.117  15.456  -3.017  1.00 20.00     0.132 C 
HETATM   10  C10 UNL     1     -34.621  16.209  -1.812  1.00 20.00     0.091 C 
HETATM   11  O11 UNL     1     -36.312  15.210  -3.176  1.00 20.00    -0.298 OA
ENDBRANCH   8   9
TORSDOF 1
ENDMDL
MODEL 2
REMARK VINA RESULT:      -4.6      1.388      2.700
REMARK  1 active torsions:
REMARK  status: ('A' for Active; 'I' for Inactive)
REMARK    1  A    between atoms: C3_3  and  C9_9 
ROOT
HETATM    1  C1  UNL     1     -35.266  16.074  -2.406  1.00 20.00    -0.030 C 
HETATM    2  C2  UNL     1     -33.975  16.298  -2.725  1.00 20.00    -0.029 C 
HETATM    3  C4  UNL     1     -36.306  15.568  -3.386  1.00 20.00     0.032 C 
HETATM    4  C5  UNL     1     -33.376  16.028  -4.095  1.00 20.00     0.044 C 
HETATM    5  C6  UNL     1     -36.034  14.942  -6.075  1.00 20.00     0.007 C 
HETATM    6  C7  UNL     1     -34.509  15.081  -6.390  1.00 20.00     0.018 C 
HETATM    7  C8  UNL     1     -35.712  15.715  -4.775  1.00 20.00     0.005 C 
HETATM    8  C9  UNL     1     -34.293  15.048  -4.835  1.00 20.00     0.027 C 
ENDROOT
BRANCH   8   9
HETATM    9  C3  UNL     1     -34.104  13.585  -4.288  1.00 20.00     0.132 C 
HETATM   10  C10 UNL     1     -32.852  13.315  -3.498  1.00 20.00     0.091 C 
HETATM   11  O11 UNL     1     -34.939  12.705  -4.495  1.00 20.00    -0.298 OA
ENDBRANCH   8   9
TORSDOF 1
ENDMDL
MODEL 3
REMARK VINA RESULT:      -4.6      1.464      2.979
REMARK  1 active torsions:
REMARK  status: ('A' for Active; 'I' for Inactive)
REMARK    1  A    between atoms: C3_3  and  C9_9 
ROOT
HETATM    1  C1  UNL     1     -33.150  15.263  -3.770  1.00 20.00    -0.030 C 
HETATM    2  C2  UNL     1     -33.720  14.042  -3.704  1.00 20.00    -0.029 C 
HETATM    3  C4  UNL     1     -33.304  16.207  -4.945  1.00 20.00     0.032 C 
HETATM    4  C5  UNL     1     -34.630  13.467  -4.776  1.00 20.00     0.044 C 
HETATM    5  C6  UNL     1     -34.706  15.859  -7.313  1.00 20.00     0.007 C 
HETATM    6  C7  UNL     1     -35.464  14.499  -7.160  1.00 20.00     0.018 C 
HETATM    7  C8  UNL     1     -33.879  15.396  -6.091  1.00 20.00     0.005 C 
HETATM    8  C9  UNL     1     -35.164  14.626  -5.625  1.00 20.00     0.027 C 
ENDROOT
BRANCH   8   9
HETATM    9  C3  UNL     1     -36.295  15.407  -4.857  1.00 20.00     0.132 C 
HETATM   10  C10 UNL     1     -37.241  14.582  -4.026  1.00 20.00     0.091 C 
HETATM   11  O11 UNL     1     -36.400  16.630  -4.931  1.00 20.00    -0.298 OA
ENDBRANCH   8   9
TORSDOF 1
ENDMDL
MODEL 4
REMARK VINA RESULT:      -4.6      1.652      3.150
REMARK  1 active torsions:
REMARK  status: ('A' for Active; 'I' for Inactive)
REMARK    1  A    between atoms: C3_3  and  C9_9 
ROOT
HETATM    1  C1  UNL     1     -35.482  16.844  -2.657  1.00 20.00    -0.030 C 
HETATM    2  C2  UNL     1     -36.379  16.626  -3.640  1.00 20.00    -0.029 C 
HETATM    3  C4  UNL     1     -34.273  15.967  -2.401  1.00 20.00     0.032 C 
HETATM    4  C5  UNL     1     -36.272  15.500  -4.655  1.00 20.00     0.044 C 
HETATM    5  C6  UNL     1     -33.441  13.682  -3.736  1.00 20.00     0.007 C 
HETATM    6  C7  UNL     1     -34.414  13.523  -4.949  1.00 20.00     0.018 C 
HETATM    7  C8  UNL     1     -34.481  14.688  -3.189  1.00 20.00     0.005 C 
HETATM    8  C9  UNL     1     -34.818  15.016  -4.686  1.00 20.00     0.027 C 
ENDROOT
BRANCH   8   9
HETATM    9  C3  UNL     1     -33.909  16.030  -5.476  1.00 20.00     0.132 C 
HETATM   10  C10 UNL     1     -34.422  16.498  -6.812  1.00 20.00     0.091 C 
HETATM   11  O11 UNL     1     -32.834  16.421  -5.025  1.00 20.00    -0.298 OA
ENDBRANCH   8   9
TORSDOF 1
ENDMDL
MODEL 5
REMARK VINA RESULT:      -4.6      1.585      2.749
REMARK  1 active torsions:
REMARK  status: ('A' for Active; 'I' for Inactive)
REMARK    1  A    between atoms: C3_3  and  C9_9 
ROOT
HETATM    1  C1  UNL     1     -36.707  15.507  -3.268  1.00 20.00    -0.030 C 
HETATM    2  C2  UNL     1     -35.528  16.141  -3.108  1.00 20.00    -0.029 C 
HETATM    3  C4  UNL     1     -37.123  14.800  -4.543  1.00 20.00     0.032 C 
HETATM    4  C5  UNL     1     -34.438  16.194  -4.165  1.00 20.00     0.044 C 
HETATM    5  C6  UNL     1     -35.751  14.536  -6.939  1.00 20.00     0.007 C 
HETATM    6  C7  UNL     1     -34.339  15.161  -6.689  1.00 20.00     0.018 C 
HETATM    7  C8  UNL     1     -36.163  15.247  -5.630  1.00 20.00     0.005 C 
HETATM    8  C9  UNL     1     -34.679  15.053  -5.160  1.00 20.00     0.027 C 
ENDROOT
BRANCH   8   9
HETATM    9  C3  UNL     1     -34.239  13.673  -4.545  1.00 20.00     0.132 C 
HETATM   10  C10 UNL     1     -33.058  13.694  -3.611  1.00 20.00     0.091 C 
HETATM   11  O11 UNL     1     -34.830  12.628  -4.814  1.00 20.00    -0.298 OA
ENDBRANCH   8   9
TORSDOF 1
ENDMDL
MODEL 6
REMARK VINA RESULT:      -4.4      1.521      3.245
REMARK  1 active torsions:
REMARK  status: ('A' for Active; 'I' for Inactive)
REMARK    1  A    between atoms: C3_3  and  C9_9 
ROOT
HETATM    1  C1  UNL     1     -35.463  13.834  -4.294  1.00 20.00    -0.030 C 
HETATM    2  C2  UNL     1     -34.120  13.806  -4.412  1.00 20.00    -0.029 C 
HETATM    3  C4  UNL     1     -36.215  14.797  -3.396  1.00 20.00     0.032 C 
HETATM    4  C5  UNL     1     -33.181  14.765  -3.699  1.00 20.00     0.044 C 
HETATM    5  C6  UNL     1     -35.230  16.767  -1.710  1.00 20.00     0.007 C 
HETATM    6  C7  UNL     1     -33.687  16.807  -1.961  1.00 20.00     0.018 C 
HETATM    7  C8  UNL     1     -35.195  15.414  -2.458  1.00 20.00     0.005 C 
HETATM    8  C9  UNL     1     -33.987  15.997  -3.272  1.00 20.00     0.027 C 
ENDROOT
BRANCH   8   9
HETATM    9  C3  UNL     1     -34.268  16.935  -4.504  1.00 20.00     0.132 C 
HETATM   10  C10 UNL     1     -33.274  16.886  -5.633  1.00 20.00     0.091 C 
HETATM   11  O11 UNL     1     -35.252  17.672  -4.543  1.00 20.00    -0.298 OA
ENDBRANCH   8   9
TORSDOF 1
ENDMDL
MODEL 7
REMARK VINA RESULT:      -4.4     11.576     13.315
REMARK  1 active torsions:
REMARK  status: ('A' for Active; 'I' for Inactive)
REMARK    1  A    between atoms: C3_3  and  C9_9 
ROOT
HETATM    1  C1  UNL     1     -41.663   7.286  -2.270  1.00 20.00    -0.030 C 
HETATM    2  C2  UNL     1     -42.602   6.664  -3.012  1.00 20.00    -0.029 C 
HETATM    3  C4  UNL     1     -41.328   6.910  -0.840  1.00 20.00     0.032 C 
HETATM    4  C5  UNL     1     -43.417   5.474  -2.535  1.00 20.00     0.044 C 
HETATM    5  C6  UNL     1     -42.430   4.935   0.767  1.00 20.00     0.007 C 
HETATM    6  C7  UNL     1     -43.417   4.144  -0.152  1.00 20.00     0.018 C 
HETATM    7  C8  UNL     1     -42.444   6.008  -0.347  1.00 20.00     0.005 C 
HETATM    8  C9  UNL     1     -42.680   4.829  -1.356  1.00 20.00     0.027 C 
ENDROOT
BRANCH   8   9
HETATM    9  C3  UNL     1     -41.449   3.988  -1.860  1.00 20.00     0.132 C 
HETATM   10  C10 UNL     1     -41.728   2.941  -2.905  1.00 20.00     0.091 C 
HETATM   11  O11 UNL     1     -40.315   4.176  -1.423  1.00 20.00    -0.298 OA
ENDBRANCH   8   9
TORSDOF 1
ENDMDL
MODEL 8
REMARK VINA RESULT:      -4.3      1.411      2.970
REMARK  1 active torsions:
REMARK  status: ('A' for Active; 'I' for Inactive)
REMARK    1  A    between atoms: C3_3  and  C9_9 
ROOT
HETATM    1  C1  UNL     1     -34.286  16.748  -6.088  1.00 20.00    -0.030 C 
HETATM    2  C2  UNL     1     -35.516  16.225  -5.904  1.00 20.00    -0.029 C 
HETATM    3  C4  UNL     1     -33.317  17.052  -4.963  1.00 20.00     0.032 C 
HETATM    4  C5  UNL     1     -36.078  15.825  -4.550  1.00 20.00     0.044 C 
HETATM    5  C6  UNL     1     -33.629  16.708  -2.228  1.00 20.00     0.007 C 
HETATM    6  C7  UNL     1     -35.002  15.981  -2.047  1.00 20.00     0.018 C 
HETATM    7  C8  UNL     1     -34.109  16.994  -3.670  1.00 20.00     0.005 C 
HETATM    8  C9  UNL     1     -34.906  15.646  -3.577  1.00 20.00     0.027 C 
ENDROOT
BRANCH   8   9
HETATM    9  C3  UNL     1     -34.158  14.288  -3.847  1.00 20.00     0.132 C 
HETATM   10  C10 UNL     1     -34.999  13.138  -4.333  1.00 20.00     0.091 C 
HETATM   11  O11 UNL     1     -32.947  14.171  -3.670  1.00 20.00    -0.298 OA
ENDBRANCH   8   9
TORSDOF 1
ENDMDL
MODEL 9
REMARK VINA RESULT:      -4.3      1.766      3.250
REMARK  1 active torsions:
REMARK  status: ('A' for Active; 'I' for Inactive)
REMARK    1  A    between atoms: C3_3  and  C9_9 
ROOT
HETATM    1  C1  UNL     1     -36.229  16.673  -3.462  1.00 20.00    -0.030 C 
HETATM    2  C2  UNL     1     -36.869  15.530  -3.782  1.00 20.00    -0.029 C 
HETATM    3  C4  UNL     1     -34.729  16.780  -3.273  1.00 20.00     0.032 C 
HETATM    4  C5  UNL     1     -36.170  14.206  -4.045  1.00 20.00     0.044 C 
HETATM    5  C6  UNL     1     -32.783  14.814  -3.471  1.00 20.00     0.007 C 
HETATM    6  C7  UNL     1     -33.526  13.532  -3.972  1.00 20.00     0.018 C 
HETATM    7  C8  UNL     1     -34.195  15.365  -3.164  1.00 20.00     0.005 C 
HETATM    8  C9  UNL     1     -34.700  14.496  -4.369  1.00 20.00     0.027 C 
ENDROOT
BRANCH   8   9
HETATM    9  C3  UNL     1     -34.549  15.049  -5.835  1.00 20.00     0.132 C 
HETATM   10  C10 UNL     1     -35.371  14.374  -6.900  1.00 20.00     0.091 C 
HETATM   11  O11 UNL     1     -33.799  15.987  -6.097  1.00 20.00    -0.298 OA
ENDBRANCH   8   9
TORSDOF 1
ENDMDL
