MODEL 1
REMARK VINA RESULT:      -4.8      0.000      0.000
REMARK  3 active torsions:
REMARK  status: ('A' for Active; 'I' for Inactive)
REMARK    1  A    between atoms: C3_3  and  C7_7 
REMARK    2  A    between atoms: C5_5  and  C8_8 
REMARK    3  A    between atoms: C6_6  and  C9_9 
ROOT
HETATM    1  C7  UNL     1     -34.783  14.943  -4.274  1.00 20.00     0.097 A 
HETATM    2  C8  UNL     1     -34.489  15.656  -2.968  1.00 20.00     0.013 A 
HETATM    3  C9  UNL     1     -33.384  14.919  -3.691  1.00 20.00     0.013 A 
ENDROOT
BRANCH   1   4
HETATM    4  C3  UNL     1     -35.548  13.712  -4.190  1.00 20.00     0.177 C 
HETATM    5  O10 UNL     1     -36.769  13.856  -3.905  1.00 20.00    -0.648 OA
HETATM    6  O11 UNL     1     -34.885  12.661  -4.412  1.00 20.00    -0.648 OA
ENDBRANCH   1   4
BRANCH   2   7
HETATM    7  C5  UNL     1     -33.944  17.087  -2.842  1.00 20.00     0.014 C 
HETATM    8  C1  UNL     1     -35.121  18.045  -2.719  1.00 20.00    -0.025 C 
HETATM    9  C2  UNL     1     -35.686  17.818  -1.519  1.00 20.00    -0.025 C 
HETATM   10  C6  UNL     1     -34.881  16.710  -0.854  1.00 20.00     0.014 C 
HETATM   11  C4  UNL     1     -33.500  17.160  -1.369  1.00 20.00     0.017 C 
ENDBRANCH   2   7
TORSDOF 3
ENDMDL
MODEL 2
REMARK VINA RESULT:      -4.6      0.964      1.118
REMARK  3 active torsions:
REMARK  status: ('A' for Active; 'I' for Inactive)
REMARK    1  A    between atoms: C3_3  and  C7_7 
REMARK    2  A    between atoms: C5_5  and  C8_8 
REMARK    3  A    between atoms: C6_6  and  C9_9 
ROOT
HETATM    1  C7  UNL     1     -34.025  14.837  -4.290  1.00 20.00     0.097 A 
HETATM    2  C8  UNL     1     -33.878  15.718  -3.065  1.00 20.00     0.013 A 
HETATM    3  C9  UNL     1     -32.715  15.547  -4.015  1.00 20.00     0.013 A 
ENDROOT
BRANCH   1   4
HETATM    4  C3  UNL     1     -34.052  13.402  -4.065  1.00 20.00     0.177 C 
HETATM    5  O10 UNL     1     -35.173  12.851  -4.241  1.00 20.00    -0.648 OA
HETATM    6  O11 UNL     1     -32.947  12.900  -3.720  1.00 20.00    -0.648 OA
ENDBRANCH   1   4
BRANCH   2   7
HETATM    7  C5  UNL     1     -34.097  17.238  -3.035  1.00 20.00     0.014 C 
HETATM    8  C1  UNL     1     -35.579  17.512  -2.819  1.00 20.00    -0.025 C 
HETATM    9  C2  UNL     1     -35.867  17.128  -1.562  1.00 20.00    -0.025 C 
HETATM   10  C6  UNL     1     -34.576  16.603  -0.952  1.00 20.00     0.014 C 
HETATM   11  C4  UNL     1     -33.636  17.627  -1.617  1.00 20.00     0.017 C 
ENDBRANCH   2   7
TORSDOF 3
ENDMDL
MODEL 3
REMARK VINA RESULT:      -4.4      1.193      2.124
REMARK  3 active torsions:
REMARK  status: ('A' for Active; 'I' for Inactive)
REMARK    1  A    between atoms: C3_3  and  C7_7 
REMARK    2  A    between atoms: C5_5  and  C8_8 
REMARK    3  A    between atoms: C6_6  and  C9_9 
ROOT
HETATM    1  C7  UNL     1     -35.254  14.137  -3.517  1.00 20.00     0.097 A 
HETATM    2  C8  UNL     1     -34.878  15.583  -3.257  1.00 20.00     0.013 A 
HETATM    3  C9  UNL     1     -35.961  15.254  -4.260  1.00 20.00     0.013 A 
ENDROOT
BRANCH   1   4
HETATM    4  C3  UNL     1     -34.307  13.342  -4.278  1.00 20.00     0.177 C 
HETATM    5  O10 UNL     1     -33.158  13.237  -3.767  1.00 20.00    -0.648 OA
HETATM    6  O11 UNL     1     -34.762  12.863  -5.354  1.00 20.00    -0.648 OA
ENDBRANCH   1   4
BRANCH   2   7
HETATM    7  C5  UNL     1     -35.583  16.517  -2.262  1.00 20.00     0.014 C 
HETATM    8  C1  UNL     1     -34.731  16.619  -1.004  1.00 20.00    -0.025 C 
HETATM    9  C2  UNL     1     -33.620  17.299  -1.340  1.00 20.00    -0.025 C 
HETATM   10  C6  UNL     1     -33.741  17.644  -2.817  1.00 20.00     0.014 C 
HETATM   11  C4  UNL     1     -35.257  17.919  -2.811  1.00 20.00     0.017 C 
ENDBRANCH   2   7
TORSDOF 3
ENDMDL
MODEL 4
REMARK VINA RESULT:      -4.3      1.935      2.998
REMARK  3 active torsions:
REMARK  status: ('A' for Active; 'I' for Inactive)
REMARK    1  A    between atoms: C3_3  and  C7_7 
REMARK    2  A    between atoms: C5_5  and  C8_8 
REMARK    3  A    between atoms: C6_6  and  C9_9 
ROOT
HETATM    1  C7  UNL     1     -34.590  14.678  -3.334  1.00 20.00     0.097 A 
HETATM    2  C8  UNL     1     -34.918  15.761  -4.342  1.00 20.00     0.013 A 
HETATM    3  C9  UNL     1     -36.029  15.094  -3.563  1.00 20.00     0.013 A 
ENDROOT
BRANCH   1   4
HETATM    4  C3  UNL     1     -34.189  13.388  -3.867  1.00 20.00     0.177 C 
HETATM    5  O10 UNL     1     -35.127  12.681  -4.328  1.00 20.00    -0.648 OA
HETATM    6  O11 UNL     1     -32.951  13.147  -3.796  1.00 20.00    -0.648 OA
ENDBRANCH   1   4
BRANCH   2   7
HETATM    7  C5  UNL     1     -35.095  17.252  -4.015  1.00 20.00     0.014 C 
HETATM    8  C1  UNL     1     -33.774  17.965  -4.267  1.00 20.00    -0.025 C 
HETATM    9  C2  UNL     1     -33.574  17.957  -5.598  1.00 20.00    -0.025 C 
HETATM   10  C6  UNL     1     -34.764  17.239  -6.220  1.00 20.00     0.014 C 
HETATM   11  C4  UNL     1     -35.830  17.794  -5.256  1.00 20.00     0.017 C 
ENDBRANCH   2   7
TORSDOF 3
ENDMDL
MODEL 5
REMARK VINA RESULT:      -4.3      2.502      4.273
REMARK  3 active torsions:
REMARK  status: ('A' for Active; 'I' for Inactive)
REMARK    1  A    between atoms: C3_3  and  C7_7 
REMARK    2  A    between atoms: C5_5  and  C8_8 
REMARK    3  A    between atoms: C6_6  and  C9_9 
ROOT
HETATM    1  C7  UNL     1     -33.715  16.829  -2.087  1.00 20.00     0.097 A 
HETATM    2  C8  UNL     1     -34.286  15.979  -3.205  1.00 20.00     0.013 A 
HETATM    3  C9  UNL     1     -33.783  17.374  -3.500  1.00 20.00     0.013 A 
ENDROOT
BRANCH   1   4
HETATM    4  C3  UNL     1     -34.662  17.373  -1.130  1.00 20.00     0.177 C 
HETATM    5  O10 UNL     1     -35.193  18.468  -1.461  1.00 20.00    -0.648 OA
HETATM    6  O11 UNL     1     -34.825  16.673  -0.092  1.00 20.00    -0.648 OA
ENDBRANCH   1   4
BRANCH   2   7
HETATM    7  C5  UNL     1     -33.464  15.093  -4.154  1.00 20.00     0.014 C 
HETATM    8  C1  UNL     1     -33.725  13.634  -3.805  1.00 20.00    -0.025 C 
HETATM    9  C2  UNL     1     -34.998  13.371  -4.153  1.00 20.00    -0.025 C 
HETATM   10  C6  UNL     1     -35.573  14.656  -4.732  1.00 20.00     0.014 C 
HETATM   11  C4  UNL     1     -34.292  15.115  -5.454  1.00 20.00     0.017 C 
ENDBRANCH   2   7
TORSDOF 3
ENDMDL
MODEL 6
REMARK VINA RESULT:      -4.2      3.042      4.567
REMARK  3 active torsions:
REMARK  status: ('A' for Active; 'I' for Inactive)
REMARK    1  A    between atoms: C3_3  and  C7_7 
REMARK    2  A    between atoms: C5_5  and  C8_8 
REMARK    3  A    between atoms: C6_6  and  C9_9 
ROOT
HETATM    1  C7  UNL     1     -34.378  14.410  -4.036  1.00 20.00     0.097 A 
HETATM    2  C8  UNL     1     -34.708  14.437  -5.516  1.00 20.00     0.013 A 
HETATM    3  C9  UNL     1     -35.188  13.290  -4.657  1.00 20.00     0.013 A 
ENDROOT
BRANCH   1   4
HETATM    4  C3  UNL     1     -33.004  14.103  -3.678  1.00 20.00     0.177 C 
HETATM    5  O10 UNL     1     -32.743  12.875  -3.552  1.00 20.00    -0.648 OA
HETATM    6  O11 UNL     1     -32.256  15.110  -3.539  1.00 20.00    -0.648 OA
ENDBRANCH   1   4
BRANCH   2   7
HETATM    7  C5  UNL     1     -36.002  14.997  -6.125  1.00 20.00     0.014 C 
HETATM    8  C1  UNL     1     -35.796  16.473  -6.433  1.00 20.00    -0.025 C 
HETATM    9  C2  UNL     1     -34.916  16.541  -7.449  1.00 20.00    -0.025 C 
HETATM   10  C6  UNL     1     -34.544  15.110  -7.809  1.00 20.00     0.014 C 
HETATM   11  C4  UNL     1     -35.941  14.501  -7.583  1.00 20.00     0.017 C 
ENDBRANCH   2   7
TORSDOF 3
ENDMDL
MODEL 7
REMARK VINA RESULT:      -4.1      1.925      2.856
REMARK  3 active torsions:
REMARK  status: ('A' for Active; 'I' for Inactive)
REMARK    1  A    between atoms: C3_3  and  C7_7 
REMARK    2  A    between atoms: C5_5  and  C8_8 
REMARK    3  A    between atoms: C6_6  and  C9_9 
ROOT
HETATM    1  C7  UNL     1     -36.536  14.739  -5.062  1.00 20.00     0.097 A 
HETATM    2  C8  UNL     1     -35.313  15.241  -4.319  1.00 20.00     0.013 A 
HETATM    3  C9  UNL     1     -35.664  13.771  -4.288  1.00 20.00     0.013 A 
ENDROOT
BRANCH   1   4
HETATM    4  C3  UNL     1     -37.829  15.060  -4.486  1.00 20.00     0.177 C 
HETATM    5  O10 UNL     1     -38.327  16.158  -4.859  1.00 20.00    -0.648 OA
HETATM    6  O11 UNL     1     -38.281  14.195  -3.685  1.00 20.00    -0.648 OA
ENDBRANCH   1   4
BRANCH   2   7
HETATM    7  C5  UNL     1     -33.882  15.257  -4.876  1.00 20.00     0.014 C 
HETATM    8  C1  UNL     1     -33.569  16.661  -5.373  1.00 20.00    -0.025 C 
HETATM    9  C2  UNL     1     -33.492  17.452  -4.286  1.00 20.00    -0.025 C 
HETATM   10  C6  UNL     1     -33.754  16.567  -3.076  1.00 20.00     0.014 C 
HETATM   11  C4  UNL     1     -33.015  15.322  -3.603  1.00 20.00     0.017 C 
ENDBRANCH   2   7
TORSDOF 3
ENDMDL
MODEL 8
REMARK VINA RESULT:      -4.0      2.319      3.423
REMARK  3 active torsions:
REMARK  status: ('A' for Active; 'I' for Inactive)
REMARK    1  A    between atoms: C3_3  and  C7_7 
REMARK    2  A    between atoms: C5_5  and  C8_8 
REMARK    3  A    between atoms: C6_6  and  C9_9 
ROOT
HETATM    1  C7  UNL     1     -34.613  14.761  -4.303  1.00 20.00     0.097 A 
HETATM    2  C8  UNL     1     -36.048  15.000  -3.877  1.00 20.00     0.013 A 
HETATM    3  C9  UNL     1     -34.912  15.416  -2.969  1.00 20.00     0.013 A 
ENDROOT
BRANCH   1   4
HETATM    4  C3  UNL     1     -34.139  13.388  -4.266  1.00 20.00     0.177 C 
HETATM    5  O10 UNL     1     -34.863  12.553  -4.875  1.00 20.00    -0.648 OA
HETATM    6  O11 UNL     1     -33.064  13.216  -3.627  1.00 20.00    -0.648 OA
ENDBRANCH   1   4
BRANCH   2   7
HETATM    7  C5  UNL     1     -36.831  16.303  -4.093  1.00 20.00     0.014 C 
HETATM    8  C1  UNL     1     -37.433  16.283  -5.491  1.00 20.00    -0.025 C 
HETATM    9  C2  UNL     1     -38.390  15.338  -5.491  1.00 20.00    -0.025 C 
HETATM   10  C6  UNL     1     -38.419  14.737  -4.093  1.00 20.00     0.014 C 
HETATM   11  C4  UNL     1     -38.146  16.048  -3.330  1.00 20.00     0.017 C 
ENDBRANCH   2   7
TORSDOF 3
ENDMDL
MODEL 9
REMARK VINA RESULT:      -3.9      1.955      2.322
REMARK  3 active torsions:
REMARK  status: ('A' for Active; 'I' for Inactive)
REMARK    1  A    between atoms: C3_3  and  C7_7 
REMARK    2  A    between atoms: C5_5  and  C8_8 
REMARK    3  A    between atoms: C6_6  and  C9_9 
ROOT
HETATM    1  C7  UNL     1     -33.245  16.094  -4.584  1.00 20.00     0.097 A 
HETATM    2  C8  UNL     1     -34.090  16.345  -3.350  1.00 20.00     0.013 A 
HETATM    3  C9  UNL     1     -33.423  15.003  -3.548  1.00 20.00     0.013 A 
ENDROOT
BRANCH   1   4
HETATM    4  C3  UNL     1     -33.956  15.927  -5.840  1.00 20.00     0.177 C 
HETATM    5  O10 UNL     1     -34.311  14.746  -6.104  1.00 20.00    -0.648 OA
HETATM    6  O11 UNL     1     -34.122  16.991  -6.500  1.00 20.00    -0.648 OA
ENDBRANCH   1   4
BRANCH   2   7
HETATM    7  C5  UNL     1     -33.553  16.815  -1.990  1.00 20.00     0.014 C 
HETATM    8  C1  UNL     1     -33.667  18.332  -1.919  1.00 20.00    -0.025 C 
HETATM    9  C2  UNL     1     -34.980  18.621  -1.856  1.00 20.00    -0.025 C 
HETATM   10  C6  UNL     1     -35.728  17.296  -1.884  1.00 20.00     0.014 C 
HETATM   11  C4  UNL     1     -34.718  16.504  -1.031  1.00 20.00     0.017 C 
ENDBRANCH   2   7
TORSDOF 3
ENDMDL
