MODEL 1
REMARK VINA RESULT:      -4.0      0.000      0.000
REMARK  2 active torsions:
REMARK  status: ('A' for Active; 'I' for Inactive)
REMARK    1  A    between atoms: C1_1  and  C8_8 
REMARK    2  A    between atoms: C3_3  and  C8_8 
ROOT
HETATM    1  C2  UNL     1     -34.441  17.200  -4.708  1.00 20.00     0.153 A 
HETATM    2  C3  UNL     1     -35.081  15.875  -5.082  1.00 20.00     0.093 A 
HETATM    3  C5  UNL     1     -33.604  17.997  -5.642  1.00 20.00     0.042 C 
HETATM    4  C6  UNL     1     -34.903  15.279  -6.442  1.00 20.00     0.049 C 
HETATM    5  O10 UNL     1     -35.824  17.105  -5.075  1.00 20.00    -0.369 OA
ENDROOT
BRANCH   2   6
HETATM    6  C8  UNL     1     -35.468  14.932  -3.986  1.00 20.00     0.087 C 
HETATM    7  C7  UNL     1     -36.956  14.557  -4.054  1.00 20.00     0.021 C 
BRANCH   6   8
HETATM    8  C1  UNL     1     -34.605  13.663  -4.025  1.00 20.00     0.129 C 
HETATM    9  C4  UNL     1     -33.155  13.820  -3.644  1.00 20.00     0.091 C 
HETATM   10  O9  UNL     1     -35.045  12.574  -4.393  1.00 20.00    -0.298 OA
ENDBRANCH   6   8
ENDBRANCH   2   6
TORSDOF 2
ENDMDL
MODEL 2
REMARK VINA RESULT:      -3.9      2.087      2.585
REMARK  2 active torsions:
REMARK  status: ('A' for Active; 'I' for Inactive)
REMARK    1  A    between atoms: C1_1  and  C8_8 
REMARK    2  A    between atoms: C3_3  and  C8_8 
ROOT
HETATM    1  C2  UNL     1     -34.614  16.397  -1.440  1.00 20.00     0.153 A 
HETATM    2  C3  UNL     1     -34.685  15.966  -2.894  1.00 20.00     0.093 A 
HETATM    3  C5  UNL     1     -33.668  17.428  -0.937  1.00 20.00     0.042 C 
HETATM    4  C6  UNL     1     -33.787  16.564  -3.930  1.00 20.00     0.049 C 
HETATM    5  O10 UNL     1     -35.625  16.894  -2.327  1.00 20.00    -0.369 OA
ENDROOT
BRANCH   2   6
HETATM    6  C8  UNL     1     -35.279  14.630  -3.216  1.00 20.00     0.087 C 
HETATM    7  C7  UNL     1     -36.643  14.763  -3.909  1.00 20.00     0.021 C 
BRANCH   6   8
HETATM    8  C1  UNL     1     -34.325  13.803  -4.089  1.00 20.00     0.129 C 
HETATM    9  C4  UNL     1     -34.739  13.583  -5.522  1.00 20.00     0.091 C 
HETATM   10  O9  UNL     1     -33.294  13.296  -3.647  1.00 20.00    -0.298 OA
ENDBRANCH   6   8
ENDBRANCH   2   6
TORSDOF 2
ENDMDL
MODEL 3
REMARK VINA RESULT:      -3.8      1.713      2.679
REMARK  2 active torsions:
REMARK  status: ('A' for Active; 'I' for Inactive)
REMARK    1  A    between atoms: C1_1  and  C8_8 
REMARK    2  A    between atoms: C3_3  and  C8_8 
ROOT
HETATM    1  C2  UNL     1     -33.752  17.130  -5.012  1.00 20.00     0.153 A 
HETATM    2  C3  UNL     1     -34.129  15.907  -4.196  1.00 20.00     0.093 A 
HETATM    3  C5  UNL     1     -33.535  18.475  -4.418  1.00 20.00     0.042 C 
HETATM    4  C6  UNL     1     -34.313  15.984  -2.713  1.00 20.00     0.049 C 
HETATM    5  O10 UNL     1     -32.781  16.144  -4.633  1.00 20.00    -0.369 OA
ENDROOT
BRANCH   2   6
HETATM    6  C8  UNL     1     -34.794  14.760  -4.891  1.00 20.00     0.087 C 
HETATM    7  C7  UNL     1     -34.170  13.414  -4.496  1.00 20.00     0.021 C 
BRANCH   6   8
HETATM    8  C1  UNL     1     -36.302  14.744  -4.603  1.00 20.00     0.129 C 
HETATM    9  C4  UNL     1     -37.126  15.828  -5.250  1.00 20.00     0.091 C 
HETATM   10  O9  UNL     1     -36.823  13.925  -3.846  1.00 20.00    -0.298 OA
ENDBRANCH   6   8
ENDBRANCH   2   6
TORSDOF 2
ENDMDL
MODEL 4
REMARK VINA RESULT:      -3.8      1.578      2.725
REMARK  2 active torsions:
REMARK  status: ('A' for Active; 'I' for Inactive)
REMARK    1  A    between atoms: C1_1  and  C8_8 
REMARK    2  A    between atoms: C3_3  and  C8_8 
ROOT
HETATM    1  C2  UNL     1     -34.438  16.808  -2.954  1.00 20.00     0.153 A 
HETATM    2  C3  UNL     1     -34.054  15.716  -3.936  1.00 20.00     0.093 A 
HETATM    3  C5  UNL     1     -33.771  16.997  -1.638  1.00 20.00     0.042 C 
HETATM    4  C6  UNL     1     -32.962  14.741  -3.631  1.00 20.00     0.049 C 
HETATM    5  O10 UNL     1     -33.604  17.071  -4.091  1.00 20.00    -0.369 OA
ENDROOT
BRANCH   2   6
HETATM    6  C8  UNL     1     -35.058  15.294  -4.964  1.00 20.00     0.087 C 
HETATM    7  C7  UNL     1     -34.383  14.809  -6.255  1.00 20.00     0.021 C 
BRANCH   6   8
HETATM    8  C1  UNL     1     -35.982  14.199  -4.411  1.00 20.00     0.129 C 
HETATM    9  C4  UNL     1     -37.314  14.649  -3.869  1.00 20.00     0.091 C 
HETATM   10  O9  UNL     1     -35.648  13.015  -4.360  1.00 20.00    -0.298 OA
ENDBRANCH   6   8
ENDBRANCH   2   6
TORSDOF 2
ENDMDL
MODEL 5
REMARK VINA RESULT:      -3.7      1.502      2.571
REMARK  2 active torsions:
REMARK  status: ('A' for Active; 'I' for Inactive)
REMARK    1  A    between atoms: C1_1  and  C8_8 
REMARK    2  A    between atoms: C3_3  and  C8_8 
ROOT
HETATM    1  C2  UNL     1     -34.417  17.176  -3.884  1.00 20.00     0.153 A 
HETATM    2  C3  UNL     1     -34.676  15.693  -3.694  1.00 20.00     0.093 A 
HETATM    3  C5  UNL     1     -35.437  18.226  -3.625  1.00 20.00     0.042 C 
HETATM    4  C6  UNL     1     -36.004  15.187  -3.228  1.00 20.00     0.049 C 
HETATM    5  O10 UNL     1     -33.970  16.474  -2.717  1.00 20.00    -0.369 OA
ENDROOT
BRANCH   2   6
HETATM    6  C8  UNL     1     -33.809  14.716  -4.425  1.00 20.00     0.087 C 
HETATM    7  C7  UNL     1     -32.892  13.941  -3.467  1.00 20.00     0.021 C 
BRANCH   6   8
HETATM    8  C1  UNL     1     -34.659  13.735  -5.246  1.00 20.00     0.129 C 
HETATM    9  C4  UNL     1     -35.238  14.259  -6.535  1.00 20.00     0.091 C 
HETATM   10  O9  UNL     1     -34.906  12.592  -4.863  1.00 20.00    -0.298 OA
ENDBRANCH   6   8
ENDBRANCH   2   6
TORSDOF 2
ENDMDL
MODEL 6
REMARK VINA RESULT:      -3.7      1.950      3.155
REMARK  2 active torsions:
REMARK  status: ('A' for Active; 'I' for Inactive)
REMARK    1  A    between atoms: C1_1  and  C8_8 
REMARK    2  A    between atoms: C3_3  and  C8_8 
ROOT
HETATM    1  C2  UNL     1     -37.168  15.377  -3.399  1.00 20.00     0.153 A 
HETATM    2  C3  UNL     1     -36.014  14.851  -4.232  1.00 20.00     0.093 A 
HETATM    3  C5  UNL     1     -38.265  16.212  -3.956  1.00 20.00     0.042 C 
HETATM    4  C6  UNL     1     -35.906  15.148  -5.694  1.00 20.00     0.049 C 
HETATM    5  O10 UNL     1     -37.138  14.028  -3.882  1.00 20.00    -0.369 OA
ENDROOT
BRANCH   2   6
HETATM    6  C8  UNL     1     -34.746  14.466  -3.535  1.00 20.00     0.087 C 
HETATM    7  C7  UNL     1     -34.006  13.342  -4.275  1.00 20.00     0.021 C 
BRANCH   6   8
HETATM    8  C1  UNL     1     -33.822  15.680  -3.367  1.00 20.00     0.129 C 
HETATM    9  C4  UNL     1     -33.988  16.488  -2.105  1.00 20.00     0.091 C 
HETATM   10  O9  UNL     1     -33.014  16.021  -4.231  1.00 20.00    -0.298 OA
ENDBRANCH   6   8
ENDBRANCH   2   6
TORSDOF 2
ENDMDL
MODEL 7
REMARK VINA RESULT:      -3.7      1.507      2.767
REMARK  2 active torsions:
REMARK  status: ('A' for Active; 'I' for Inactive)
REMARK    1  A    between atoms: C1_1  and  C8_8 
REMARK    2  A    between atoms: C3_3  and  C8_8 
ROOT
HETATM    1  C2  UNL     1     -36.787  15.248  -6.907  1.00 20.00     0.153 A 
HETATM    2  C3  UNL     1     -35.972  15.286  -5.627  1.00 20.00     0.093 A 
HETATM    3  C5  UNL     1     -38.273  15.192  -6.930  1.00 20.00     0.042 C 
HETATM    4  C6  UNL     1     -36.628  15.264  -4.283  1.00 20.00     0.049 C 
HETATM    5  O10 UNL     1     -36.242  16.471  -6.392  1.00 20.00    -0.369 OA
ENDROOT
BRANCH   2   6
HETATM    6  C8  UNL     1     -34.541  14.850  -5.677  1.00 20.00     0.087 C 
HETATM    7  C7  UNL     1     -33.583  15.996  -5.318  1.00 20.00     0.021 C 
BRANCH   6   8
HETATM    8  C1  UNL     1     -34.299  13.653  -4.747  1.00 20.00     0.129 C 
HETATM    9  C4  UNL     1     -33.281  13.842  -3.652  1.00 20.00     0.091 C 
HETATM   10  O9  UNL     1     -34.863  12.570  -4.902  1.00 20.00    -0.298 OA
ENDBRANCH   6   8
ENDBRANCH   2   6
TORSDOF 2
ENDMDL
MODEL 8
REMARK VINA RESULT:      -3.6      1.867      2.952
REMARK  2 active torsions:
REMARK  status: ('A' for Active; 'I' for Inactive)
REMARK    1  A    between atoms: C1_1  and  C8_8 
REMARK    2  A    between atoms: C3_3  and  C8_8 
ROOT
HETATM    1  C2  UNL     1     -35.254  17.670  -3.697  1.00 20.00     0.153 A 
HETATM    2  C3  UNL     1     -34.489  16.510  -3.086  1.00 20.00     0.093 A 
HETATM    3  C5  UNL     1     -36.181  18.537  -2.923  1.00 20.00     0.042 C 
HETATM    4  C6  UNL     1     -34.628  16.159  -1.638  1.00 20.00     0.049 C 
HETATM    5  O10 UNL     1     -33.874  17.786  -3.324  1.00 20.00    -0.369 OA
ENDROOT
BRANCH   2   6
HETATM    6  C8  UNL     1     -33.994  15.425  -3.991  1.00 20.00     0.087 C 
HETATM    7  C7  UNL     1     -32.519  15.089  -3.724  1.00 20.00     0.021 C 
BRANCH   6   8
HETATM    8  C1  UNL     1     -34.853  14.160  -3.852  1.00 20.00     0.129 C 
HETATM    9  C4  UNL     1     -36.324  14.306  -4.147  1.00 20.00     0.091 C 
HETATM   10  O9  UNL     1     -34.390  13.084  -3.473  1.00 20.00    -0.298 OA
ENDBRANCH   6   8
ENDBRANCH   2   6
TORSDOF 2
ENDMDL
MODEL 9
REMARK VINA RESULT:      -3.6      1.466      2.318
REMARK  2 active torsions:
REMARK  status: ('A' for Active; 'I' for Inactive)
REMARK    1  A    between atoms: C1_1  and  C8_8 
REMARK    2  A    between atoms: C3_3  and  C8_8 
ROOT
HETATM    1  C2  UNL     1     -33.963  15.878  -6.041  1.00 20.00     0.153 A 
HETATM    2  C3  UNL     1     -34.273  16.259  -4.605  1.00 20.00     0.093 A 
HETATM    3  C5  UNL     1     -34.371  16.699  -7.212  1.00 20.00     0.042 C 
HETATM    4  C6  UNL     1     -35.026  17.508  -4.274  1.00 20.00     0.049 C 
HETATM    5  O10 UNL     1     -32.983  16.491  -5.193  1.00 20.00    -0.369 OA
ENDROOT
BRANCH   2   6
HETATM    6  C8  UNL     1     -34.275  15.183  -3.564  1.00 20.00     0.087 C 
HETATM    7  C7  UNL     1     -34.614  15.736  -2.172  1.00 20.00     0.021 C 
BRANCH   6   8
HETATM    8  C1  UNL     1     -35.258  14.063  -3.937  1.00 20.00     0.129 C 
HETATM    9  C4  UNL     1     -36.718  14.433  -3.986  1.00 20.00     0.091 C 
HETATM   10  O9  UNL     1     -34.894  12.904  -4.141  1.00 20.00    -0.298 OA
ENDBRANCH   6   8
ENDBRANCH   2   6
TORSDOF 2
ENDMDL
