MODEL 1
REMARK VINA RESULT:      -4.1      0.000      0.000
REMARK  3 active torsions:
REMARK  status: ('A' for Active; 'I' for Inactive)
REMARK    1  A    between atoms: C1_1  and  C7_7 
REMARK    2  A    between atoms: C7_7  and  O10_10 
REMARK    3  A    between atoms: C8_8  and  N9_9 
ROOT
HETATM    1  C1  UNL     1     -34.927  15.050  -3.632  1.00 20.00     0.032 C 
HETATM    2  C2  UNL     1     -33.429  15.102  -3.421  1.00 20.00     0.068 C 
HETATM    3  N9  UNL     1     -35.758  15.919  -3.161  1.00 20.00    -0.287 NA
ENDROOT
BRANCH   1   4
HETATM    4  C7  UNL     1     -35.500  13.928  -4.487  1.00 20.00     0.161 C 
HETATM    5  C3  UNL     1     -35.088  14.082  -5.941  1.00 20.00     0.045 C 
BRANCH   4   6
HETATM    6  O10 UNL     1     -35.037  12.683  -3.997  1.00 20.00    -0.390 OA
HETATM    7  H27 UNL     1     -34.388  12.875  -3.298  1.00 20.00     0.210 HD
ENDBRANCH   4   6
ENDBRANCH   1   4
BRANCH   3   8
HETATM    8  C8  UNL     1     -35.240  17.022  -2.368  1.00 20.00     0.043 C 
HETATM    9  C4  UNL     1     -34.200  17.770  -3.204  1.00 20.00     0.039 C 
HETATM   10  C5  UNL     1     -36.411  17.940  -2.021  1.00 20.00     0.039 C 
HETATM   11  C6  UNL     1     -34.608  16.452  -1.098  1.00 20.00     0.039 C 
ENDBRANCH   3   8
TORSDOF 3
ENDMDL
MODEL 2
REMARK VINA RESULT:      -4.0      0.019      1.381
REMARK  3 active torsions:
REMARK  status: ('A' for Active; 'I' for Inactive)
REMARK    1  A    between atoms: C1_1  and  C7_7 
REMARK    2  A    between atoms: C7_7  and  O10_10 
REMARK    3  A    between atoms: C8_8  and  N9_9 
ROOT
HETATM    1  C1  UNL     1     -34.926  15.058  -3.634  1.00 20.00     0.032 C 
HETATM    2  C2  UNL     1     -33.427  15.132  -3.440  1.00 20.00     0.068 C 
HETATM    3  N9  UNL     1     -35.765  15.915  -3.156  1.00 20.00    -0.287 NA
ENDROOT
BRANCH   1   4
HETATM    4  C7  UNL     1     -35.491  13.925  -4.480  1.00 20.00     0.161 C 
HETATM    5  C3  UNL     1     -35.092  14.078  -5.938  1.00 20.00     0.045 C 
BRANCH   4   6
HETATM    6  O10 UNL     1     -35.009  12.688  -3.988  1.00 20.00    -0.390 OA
HETATM    7  H27 UNL     1     -35.787  12.140  -3.781  1.00 20.00     0.210 HD
ENDBRANCH   4   6
ENDBRANCH   1   4
BRANCH   3   8
HETATM    8  C8  UNL     1     -35.254  17.028  -2.371  1.00 20.00     0.043 C 
HETATM    9  C4  UNL     1     -36.427  17.941  -2.010  1.00 20.00     0.039 C 
HETATM   10  C5  UNL     1     -34.610  16.456  -1.110  1.00 20.00     0.039 C 
HETATM   11  C6  UNL     1     -34.220  17.778  -3.211  1.00 20.00     0.039 C 
ENDBRANCH   3   8
TORSDOF 3
ENDMDL
MODEL 3
REMARK VINA RESULT:      -3.9      2.065      2.756
REMARK  3 active torsions:
REMARK  status: ('A' for Active; 'I' for Inactive)
REMARK    1  A    between atoms: C1_1  and  C7_7 
REMARK    2  A    between atoms: C7_7  and  O10_10 
REMARK    3  A    between atoms: C8_8  and  N9_9 
ROOT
HETATM    1  C1  UNL     1     -33.887  15.953  -2.807  1.00 20.00     0.032 C 
HETATM    2  C2  UNL     1     -35.373  15.679  -2.738  1.00 20.00     0.068 C 
HETATM    3  N9  UNL     1     -33.294  16.912  -2.176  1.00 20.00    -0.287 NA
ENDROOT
BRANCH   1   4
HETATM    4  C7  UNL     1     -33.015  15.021  -3.638  1.00 20.00     0.161 C 
HETATM    5  C3  UNL     1     -33.814  13.833  -4.147  1.00 20.00     0.045 C 
BRANCH   4   6
HETATM    6  O10 UNL     1     -32.483  15.736  -4.738  1.00 20.00    -0.390 OA
HETATM    7  H27 UNL     1     -33.139  16.411  -4.985  1.00 20.00     0.210 HD
ENDBRANCH   4   6
ENDBRANCH   1   4
BRANCH   3   8
HETATM    8  C8  UNL     1     -34.093  17.799  -1.346  1.00 20.00     0.043 C 
HETATM    9  C4  UNL     1     -34.780  16.962  -0.267  1.00 20.00     0.039 C 
HETATM   10  C5  UNL     1     -33.151  18.822  -0.713  1.00 20.00     0.039 C 
HETATM   11  C6  UNL     1     -35.124  18.495  -2.233  1.00 20.00     0.039 C 
ENDBRANCH   3   8
TORSDOF 3
ENDMDL
MODEL 4
REMARK VINA RESULT:      -3.9      2.121      3.214
REMARK  3 active torsions:
REMARK  status: ('A' for Active; 'I' for Inactive)
REMARK    1  A    between atoms: C1_1  and  C7_7 
REMARK    2  A    between atoms: C7_7  and  O10_10 
REMARK    3  A    between atoms: C8_8  and  N9_9 
ROOT
HETATM    1  C1  UNL     1     -34.951  14.483  -5.560  1.00 20.00     0.032 C 
HETATM    2  C2  UNL     1     -35.238  14.311  -7.036  1.00 20.00     0.068 C 
HETATM    3  N9  UNL     1     -35.209  15.556  -4.890  1.00 20.00    -0.287 NA
ENDROOT
BRANCH   1   4
HETATM    4  C7  UNL     1     -34.358  13.308  -4.795  1.00 20.00     0.161 C 
HETATM    5  C3  UNL     1     -33.378  13.782  -3.736  1.00 20.00     0.045 C 
BRANCH   4   6
HETATM    6  O10 UNL     1     -35.402  12.578  -4.177  1.00 20.00    -0.390 OA
HETATM    7  H27 UNL     1     -35.849  12.070  -4.876  1.00 20.00     0.210 HD
ENDBRANCH   4   6
ENDBRANCH   1   4
BRANCH   3   8
HETATM    8  C8  UNL     1     -35.807  16.686  -5.584  1.00 20.00     0.043 C 
HETATM    9  C4  UNL     1     -37.146  16.238  -6.169  1.00 20.00     0.039 C 
HETATM   10  C5  UNL     1     -36.014  17.806  -4.565  1.00 20.00     0.039 C 
HETATM   11  C6  UNL     1     -34.853  17.135  -6.690  1.00 20.00     0.039 C 
ENDBRANCH   3   8
TORSDOF 3
ENDMDL
MODEL 5
REMARK VINA RESULT:      -3.9      2.123      3.271
REMARK  3 active torsions:
REMARK  status: ('A' for Active; 'I' for Inactive)
REMARK    1  A    between atoms: C1_1  and  C7_7 
REMARK    2  A    between atoms: C7_7  and  O10_10 
REMARK    3  A    between atoms: C8_8  and  N9_9 
ROOT
HETATM    1  C1  UNL     1     -34.942  14.483  -5.558  1.00 20.00     0.032 C 
HETATM    2  C2  UNL     1     -35.236  14.313  -7.032  1.00 20.00     0.068 C 
HETATM    3  N9  UNL     1     -35.178  15.562  -4.888  1.00 20.00    -0.287 NA
ENDROOT
BRANCH   1   4
HETATM    4  C7  UNL     1     -34.369  13.298  -4.792  1.00 20.00     0.161 C 
HETATM    5  C3  UNL     1     -33.383  13.756  -3.731  1.00 20.00     0.045 C 
BRANCH   4   6
HETATM    6  O10 UNL     1     -35.424  12.584  -4.176  1.00 20.00    -0.390 OA
HETATM    7  H27 UNL     1     -35.862  13.197  -3.559  1.00 20.00     0.210 HD
ENDBRANCH   4   6
ENDBRANCH   1   4
BRANCH   3   8
HETATM    8  C8  UNL     1     -35.757  16.701  -5.583  1.00 20.00     0.043 C 
HETATM    9  C4  UNL     1     -35.934  17.839  -4.577  1.00 20.00     0.039 C 
HETATM   10  C5  UNL     1     -34.793  17.112  -6.694  1.00 20.00     0.039 C 
HETATM   11  C6  UNL     1     -37.104  16.278  -6.168  1.00 20.00     0.039 C 
ENDBRANCH   3   8
TORSDOF 3
ENDMDL
MODEL 6
REMARK VINA RESULT:      -3.9      2.127      3.074
REMARK  3 active torsions:
REMARK  status: ('A' for Active; 'I' for Inactive)
REMARK    1  A    between atoms: C1_1  and  C7_7 
REMARK    2  A    between atoms: C7_7  and  O10_10 
REMARK    3  A    between atoms: C8_8  and  N9_9 
ROOT
HETATM    1  C1  UNL     1     -34.945  14.484  -5.559  1.00 20.00     0.032 C 
HETATM    2  C2  UNL     1     -35.214  14.319  -7.039  1.00 20.00     0.068 C 
HETATM    3  N9  UNL     1     -35.208  15.554  -4.887  1.00 20.00    -0.287 NA
ENDROOT
BRANCH   1   4
HETATM    4  C7  UNL     1     -34.363  13.303  -4.793  1.00 20.00     0.161 C 
HETATM    5  C3  UNL     1     -33.374  13.768  -3.737  1.00 20.00     0.045 C 
BRANCH   4   6
HETATM    6  O10 UNL     1     -35.413  12.587  -4.169  1.00 20.00    -0.390 OA
HETATM    7  H27 UNL     1     -36.235  12.823  -4.634  1.00 20.00     0.210 HD
ENDBRANCH   4   6
ENDBRANCH   1   4
BRANCH   3   8
HETATM    8  C8  UNL     1     -35.795  16.688  -5.582  1.00 20.00     0.043 C 
HETATM    9  C4  UNL     1     -34.838  17.120  -6.694  1.00 20.00     0.039 C 
HETATM   10  C5  UNL     1     -37.132  16.237  -6.169  1.00 20.00     0.039 C 
HETATM   11  C6  UNL     1     -36.004  17.819  -4.575  1.00 20.00     0.039 C 
ENDBRANCH   3   8
TORSDOF 3
ENDMDL
MODEL 7
REMARK VINA RESULT:      -3.7      1.255      1.918
REMARK  3 active torsions:
REMARK  status: ('A' for Active; 'I' for Inactive)
REMARK    1  A    between atoms: C1_1  and  C7_7 
REMARK    2  A    between atoms: C7_7  and  O10_10 
REMARK    3  A    between atoms: C8_8  and  N9_9 
ROOT
HETATM    1  C1  UNL     1     -34.485  15.116  -3.535  1.00 20.00     0.032 C 
HETATM    2  C2  UNL     1     -34.641  16.093  -4.679  1.00 20.00     0.068 C 
HETATM    3  N9  UNL     1     -34.557  15.439  -2.287  1.00 20.00    -0.287 NA
ENDROOT
BRANCH   1   4
HETATM    4  C7  UNL     1     -34.270  13.645  -3.863  1.00 20.00     0.161 C 
HETATM    5  C3  UNL     1     -34.840  13.298  -5.228  1.00 20.00     0.045 C 
BRANCH   4   6
HETATM    6  O10 UNL     1     -32.884  13.359  -3.846  1.00 20.00    -0.390 OA
HETATM    7  H27 UNL     1     -32.734  12.634  -4.477  1.00 20.00     0.210 HD
ENDBRANCH   4   6
ENDBRANCH   1   4
BRANCH   3   8
HETATM    8  C8  UNL     1     -34.796  16.832  -1.939  1.00 20.00     0.043 C 
HETATM    9  C4  UNL     1     -34.742  16.964  -0.417  1.00 20.00     0.039 C 
HETATM   10  C5  UNL     1     -33.699  17.672  -2.591  1.00 20.00     0.039 C 
HETATM   11  C6  UNL     1     -36.171  17.235  -2.472  1.00 20.00     0.039 C 
ENDBRANCH   3   8
TORSDOF 3
ENDMDL
MODEL 8
REMARK VINA RESULT:      -3.7      1.936      3.928
REMARK  3 active torsions:
REMARK  status: ('A' for Active; 'I' for Inactive)
REMARK    1  A    between atoms: C1_1  and  C7_7 
REMARK    2  A    between atoms: C7_7  and  O10_10 
REMARK    3  A    between atoms: C8_8  and  N9_9 
ROOT
HETATM    1  C1  UNL     1     -34.440  15.562  -3.246  1.00 20.00     0.032 C 
HETATM    2  C2  UNL     1     -33.040  15.074  -3.548  1.00 20.00     0.068 C 
HETATM    3  N9  UNL     1     -35.421  15.523  -4.084  1.00 20.00    -0.287 NA
ENDROOT
BRANCH   1   4
HETATM    4  C7  UNL     1     -34.734  16.100  -1.852  1.00 20.00     0.161 C 
HETATM    5  C3  UNL     1     -33.732  17.171  -1.455  1.00 20.00     0.045 C 
BRANCH   4   6
HETATM    6  O10 UNL     1     -36.040  16.646  -1.827  1.00 20.00    -0.390 OA
HETATM    7  H27 UNL     1     -36.651  15.938  -2.099  1.00 20.00     0.210 HD
ENDBRANCH   4   6
ENDBRANCH   1   4
BRANCH   3   8
HETATM    8  C8  UNL     1     -35.182  14.983  -5.414  1.00 20.00     0.043 C 
HETATM    9  C4  UNL     1     -34.759  13.521  -5.271  1.00 20.00     0.039 C 
HETATM   10  C5  UNL     1     -36.484  15.091  -6.205  1.00 20.00     0.039 C 
HETATM   11  C6  UNL     1     -34.078  15.805  -6.079  1.00 20.00     0.039 C 
ENDBRANCH   3   8
TORSDOF 3
ENDMDL
MODEL 9
REMARK VINA RESULT:      -3.7      2.230      4.173
REMARK  3 active torsions:
REMARK  status: ('A' for Active; 'I' for Inactive)
REMARK    1  A    between atoms: C1_1  and  C7_7 
REMARK    2  A    between atoms: C7_7  and  O10_10 
REMARK    3  A    between atoms: C8_8  and  N9_9 
ROOT
HETATM    1  C1  UNL     1     -34.069  15.234  -4.968  1.00 20.00     0.032 C 
HETATM    2  C2  UNL     1     -34.480  13.778  -4.986  1.00 20.00     0.068 C 
HETATM    3  N9  UNL     1     -34.557  16.137  -5.752  1.00 20.00    -0.287 NA
ENDROOT
BRANCH   1   4
HETATM    4  C7  UNL     1     -33.045  15.685  -3.936  1.00 20.00     0.161 C 
HETATM    5  C3  UNL     1     -33.708  15.991  -2.603  1.00 20.00     0.045 C 
BRANCH   4   6
HETATM    6  O10 UNL     1     -32.080  14.665  -3.757  1.00 20.00    -0.390 OA
HETATM    7  H27 UNL     1     -31.385  15.027  -3.180  1.00 20.00     0.210 HD
ENDBRANCH   4   6
ENDBRANCH   1   4
BRANCH   3   8
HETATM    8  C8  UNL     1     -35.562  15.745  -6.728  1.00 20.00     0.043 C 
HETATM    9  C4  UNL     1     -36.786  15.221  -5.974  1.00 20.00     0.039 C 
HETATM   10  C5  UNL     1     -35.925  16.981  -7.549  1.00 20.00     0.039 C 
HETATM   11  C6  UNL     1     -34.970  14.658  -7.624  1.00 20.00     0.039 C 
ENDBRANCH   3   8
TORSDOF 3
ENDMDL
