MODEL 1
REMARK VINA RESULT:      -4.0      0.000      0.000
REMARK  1 active torsions:
REMARK  status: ('A' for Active; 'I' for Inactive)
REMARK    1  A    between atoms: C1_1  and  C3_3 
ROOT
HETATM    1  C2  UNL     1     -33.273  14.994  -3.442  1.00 20.00     0.080 C 
HETATM    2  C3  UNL     1     -34.103  15.113  -4.740  1.00 20.00     0.310 C 
HETATM    3  C4  UNL     1     -34.043  16.257  -2.992  1.00 20.00     0.222 C 
HETATM    4  C5  UNL     1     -34.527  16.274  -1.555  1.00 20.00     0.043 C 
HETATM    5  C6  UNL     1     -35.604  17.018  -4.684  1.00 20.00     0.311 C 
HETATM    6  N7  UNL     1     -35.117  15.859  -3.943  1.00 20.00     0.101 N 
ENDROOT
BRANCH   2   7
HETATM    7  C1  UNL     1     -34.714  13.845  -5.342  1.00 20.00     0.252 C 
HETATM    8  O8  UNL     1     -34.740  12.785  -4.723  1.00 20.00    -0.277 OA
HETATM    9 CL9  UNL     1     -35.334  14.113  -6.943  1.00 20.00    -0.042 Cl
ENDBRANCH   2   7
TORSDOF 1
ENDMDL
MODEL 2
REMARK VINA RESULT:      -4.0      1.903      2.283
REMARK  1 active torsions:
REMARK  status: ('A' for Active; 'I' for Inactive)
REMARK    1  A    between atoms: C1_1  and  C3_3 
ROOT
HETATM    1  C2  UNL     1     -33.252  15.617  -3.785  1.00 20.00     0.080 C 
HETATM    2  C3  UNL     1     -33.940  14.611  -4.735  1.00 20.00     0.310 C 
HETATM    3  C4  UNL     1     -33.254  16.567  -5.006  1.00 20.00     0.222 C 
HETATM    4  C5  UNL     1     -33.620  18.013  -4.734  1.00 20.00     0.043 C 
HETATM    5  C6  UNL     1     -34.252  15.531  -6.958  1.00 20.00     0.311 C 
HETATM    6  N7  UNL     1     -34.406  15.782  -5.529  1.00 20.00     0.101 N 
ENDROOT
BRANCH   2   7
HETATM    7  C1  UNL     1     -35.130  13.802  -4.213  1.00 20.00     0.252 C 
HETATM    8  O8  UNL     1     -35.168  12.578  -4.302  1.00 20.00    -0.277 OA
HETATM    9 CL9  UNL     1     -36.354  14.817  -3.512  1.00 20.00    -0.042 Cl
ENDBRANCH   2   7
TORSDOF 1
ENDMDL
MODEL 3
REMARK VINA RESULT:      -3.9     12.116     12.672
REMARK  1 active torsions:
REMARK  status: ('A' for Active; 'I' for Inactive)
REMARK    1  A    between atoms: C1_1  and  C3_3 
ROOT
HETATM    1  C2  UNL     1     -33.509   6.416   5.642  1.00 20.00     0.080 C 
HETATM    2  C3  UNL     1     -33.724   6.718   4.142  1.00 20.00     0.310 C 
HETATM    3  C4  UNL     1     -34.809   5.588   5.526  1.00 20.00     0.222 C 
HETATM    4  C5  UNL     1     -34.819   4.246   6.231  1.00 20.00     0.043 C 
HETATM    5  C6  UNL     1     -35.728   5.655   3.283  1.00 20.00     0.311 C 
HETATM    6  N7  UNL     1     -34.517   5.458   4.072  1.00 20.00     0.101 N 
ENDROOT
BRANCH   2   7
HETATM    7  C1  UNL     1     -32.521   6.654   3.198  1.00 20.00     0.252 C 
HETATM    8  O8  UNL     1     -31.866   5.625   3.057  1.00 20.00    -0.277 OA
HETATM    9 CL9  UNL     1     -32.235   8.169   2.397  1.00 20.00    -0.042 Cl
ENDBRANCH   2   7
TORSDOF 1
ENDMDL
MODEL 4
REMARK VINA RESULT:      -3.8      1.596      2.033
REMARK  1 active torsions:
REMARK  status: ('A' for Active; 'I' for Inactive)
REMARK    1  A    between atoms: C1_1  and  C3_3 
ROOT
HETATM    1  C2  UNL     1     -34.666  15.826  -2.308  1.00 20.00     0.080 C 
HETATM    2  C3  UNL     1     -33.682  15.258  -3.356  1.00 20.00     0.310 C 
HETATM    3  C4  UNL     1     -34.761  17.046  -3.254  1.00 20.00     0.222 C 
HETATM    4  C5  UNL     1     -36.146  17.623  -3.471  1.00 20.00     0.043 C 
HETATM    5  C6  UNL     1     -33.361  16.783  -5.216  1.00 20.00     0.311 C 
HETATM    6  N7  UNL     1     -34.349  16.137  -4.358  1.00 20.00     0.101 N 
ENDROOT
BRANCH   2   7
HETATM    7  C1  UNL     1     -33.805  13.787  -3.759  1.00 20.00     0.252 C 
HETATM    8  O8  UNL     1     -32.848  13.020  -3.702  1.00 20.00    -0.277 OA
HETATM    9 CL9  UNL     1     -35.413  13.383  -4.281  1.00 20.00    -0.042 Cl
ENDBRANCH   2   7
TORSDOF 1
ENDMDL
MODEL 5
REMARK VINA RESULT:      -3.8      2.072      2.551
REMARK  1 active torsions:
REMARK  status: ('A' for Active; 'I' for Inactive)
REMARK    1  A    between atoms: C1_1  and  C3_3 
ROOT
HETATM    1  C2  UNL     1     -34.167  15.489  -6.389  1.00 20.00     0.080 C 
HETATM    2  C3  UNL     1     -35.052  14.836  -5.303  1.00 20.00     0.310 C 
HETATM    3  C4  UNL     1     -34.676  16.829  -5.811  1.00 20.00     0.222 C 
HETATM    4  C5  UNL     1     -33.646  17.931  -5.655  1.00 20.00     0.043 C 
HETATM    5  C6  UNL     1     -36.212  16.494  -3.965  1.00 20.00     0.311 C 
HETATM    6  N7  UNL     1     -34.925  16.106  -4.534  1.00 20.00     0.101 N 
ENDROOT
BRANCH   2   7
HETATM    7  C1  UNL     1     -34.488  13.660  -4.502  1.00 20.00     0.252 C 
HETATM    8  O8  UNL     1     -35.061  12.574  -4.461  1.00 20.00    -0.277 OA
HETATM    9 CL9  UNL     1     -32.998  14.064  -3.705  1.00 20.00    -0.042 Cl
ENDBRANCH   2   7
TORSDOF 1
ENDMDL
MODEL 6
REMARK VINA RESULT:      -3.8      1.792      1.836
REMARK  1 active torsions:
REMARK  status: ('A' for Active; 'I' for Inactive)
REMARK    1  A    between atoms: C1_1  and  C3_3 
ROOT
HETATM    1  C2  UNL     1     -34.034  15.550  -2.874  1.00 20.00     0.080 C 
HETATM    2  C3  UNL     1     -35.299  15.568  -3.761  1.00 20.00     0.310 C 
HETATM    3  C4  UNL     1     -34.680  16.758  -2.157  1.00 20.00     0.222 C 
HETATM    4  C5  UNL     1     -34.585  16.774  -0.645  1.00 20.00     0.043 C 
HETATM    5  C6  UNL     1     -36.821  17.348  -3.129  1.00 20.00     0.311 C 
HETATM    6  N7  UNL     1     -35.996  16.251  -2.635  1.00 20.00     0.101 N 
ENDROOT
BRANCH   2   7
HETATM    7  C1  UNL     1     -35.983  14.240  -4.095  1.00 20.00     0.252 C 
HETATM    8  O8  UNL     1     -37.177  14.056  -3.874  1.00 20.00    -0.277 OA
HETATM    9 CL9  UNL     1     -34.882  13.094  -4.797  1.00 20.00    -0.042 Cl
ENDBRANCH   2   7
TORSDOF 1
ENDMDL
MODEL 7
REMARK VINA RESULT:      -3.7      2.990      3.821
REMARK  1 active torsions:
REMARK  status: ('A' for Active; 'I' for Inactive)
REMARK    1  A    between atoms: C1_1  and  C3_3 
ROOT
HETATM    1  C2  UNL     1     -33.727  14.278  -4.030  1.00 20.00     0.080 C 
HETATM    2  C3  UNL     1     -34.639  14.996  -3.010  1.00 20.00     0.310 C 
HETATM    3  C4  UNL     1     -35.035  14.006  -4.808  1.00 20.00     0.222 C 
HETATM    4  C5  UNL     1     -34.974  14.185  -6.312  1.00 20.00     0.043 C 
HETATM    5  C6  UNL     1     -36.972  14.921  -3.672  1.00 20.00     0.311 C 
HETATM    6  N7  UNL     1     -35.611  15.195  -4.122  1.00 20.00     0.101 N 
ENDROOT
BRANCH   2   7
HETATM    7  C1  UNL     1     -34.188  16.343  -2.438  1.00 20.00     0.252 C 
HETATM    8  O8  UNL     1     -33.593  17.168  -3.125  1.00 20.00    -0.277 OA
HETATM    9 CL9  UNL     1     -34.622  16.522  -0.765  1.00 20.00    -0.042 Cl
ENDBRANCH   2   7
TORSDOF 1
ENDMDL
MODEL 8
REMARK VINA RESULT:      -3.6      2.525      3.034
REMARK  1 active torsions:
REMARK  status: ('A' for Active; 'I' for Inactive)
REMARK    1  A    between atoms: C1_1  and  C3_3 
ROOT
HETATM    1  C2  UNL     1     -34.729  15.311  -3.038  1.00 20.00     0.080 C 
HETATM    2  C3  UNL     1     -35.814  14.545  -3.828  1.00 20.00     0.310 C 
HETATM    3  C4  UNL     1     -33.923  15.262  -4.356  1.00 20.00     0.222 C 
HETATM    4  C5  UNL     1     -33.188  16.530  -4.744  1.00 20.00     0.043 C 
HETATM    5  C6  UNL     1     -35.132  14.112  -6.116  1.00 20.00     0.311 C 
HETATM    6  N7  UNL     1     -35.223  15.123  -5.068  1.00 20.00     0.101 N 
ENDROOT
BRANCH   2   7
HETATM    7  C1  UNL     1     -37.276  14.973  -3.675  1.00 20.00     0.252 C 
HETATM    8  O8  UNL     1     -38.196  14.162  -3.740  1.00 20.00    -0.277 OA
HETATM    9 CL9  UNL     1     -37.434  16.682  -3.409  1.00 20.00    -0.042 Cl
ENDBRANCH   2   7
TORSDOF 1
ENDMDL
MODEL 9
REMARK VINA RESULT:      -3.6      2.280      3.217
REMARK  1 active torsions:
REMARK  status: ('A' for Active; 'I' for Inactive)
REMARK    1  A    between atoms: C1_1  and  C3_3 
ROOT
HETATM    1  C2  UNL     1     -36.251  15.112  -5.444  1.00 20.00     0.080 C 
HETATM    2  C3  UNL     1     -34.970  14.996  -4.588  1.00 20.00     0.310 C 
HETATM    3  C4  UNL     1     -35.522  16.286  -6.138  1.00 20.00     0.222 C 
HETATM    4  C5  UNL     1     -35.648  16.360  -7.646  1.00 20.00     0.043 C 
HETATM    5  C6  UNL     1     -33.319  16.665  -5.200  1.00 20.00     0.311 C 
HETATM    6  N7  UNL     1     -34.243  15.657  -5.709  1.00 20.00     0.101 N 
ENDROOT
BRANCH   2   7
HETATM    7  C1  UNL     1     -34.391  13.606  -4.313  1.00 20.00     0.252 C 
HETATM    8  O8  UNL     1     -34.985  12.583  -4.642  1.00 20.00    -0.277 OA
HETATM    9 CL9  UNL     1     -32.851  13.684  -3.512  1.00 20.00    -0.042 Cl
ENDBRANCH   2   7
TORSDOF 1
ENDMDL
