MODEL 1
REMARK VINA RESULT:      -5.1      0.000      0.000
REMARK  1 active torsions:
REMARK  status: ('A' for Active; 'I' for Inactive)
REMARK    1  A    between atoms: C3_3  and  C7_7 
ROOT
HETATM    1  C1  UNL     1     -36.159  15.649  -2.931  1.00 20.00    -0.020 C 
HETATM    2  C2  UNL     1     -36.422  15.481  -4.239  1.00 20.00    -0.086 C 
HETATM    3  C4  UNL     1     -35.339  15.184  -5.248  1.00 20.00     0.049 C 
HETATM    4  C5  UNL     1     -33.668  15.665  -3.401  1.00 20.00     0.023 C 
HETATM    5  C6  UNL     1     -34.776  15.593  -2.336  1.00 20.00     0.005 C 
HETATM    6  C7  UNL     1     -33.981  14.819  -4.635  1.00 20.00     0.091 C 
HETATM    7  C8  UNL     1     -37.818  15.572  -4.782  1.00 20.00     0.043 C 
HETATM    8  C9  UNL     1     -34.583  16.710  -1.308  1.00 20.00     0.014 C 
ENDROOT
BRANCH   6   9
HETATM    9  C3  UNL     1     -33.918  13.357  -4.295  1.00 20.00     0.177 C 
HETATM   10  O10 UNL     1     -32.875  12.990  -3.686  1.00 20.00    -0.648 OA
HETATM   11  O11 UNL     1     -34.920  12.684  -4.664  1.00 20.00    -0.648 OA
ENDBRANCH   6   9
TORSDOF 1
ENDMDL
MODEL 2
REMARK VINA RESULT:      -4.9      1.229      3.019
REMARK  1 active torsions:
REMARK  status: ('A' for Active; 'I' for Inactive)
REMARK    1  A    between atoms: C3_3  and  C7_7 
ROOT
HETATM    1  C1  UNL     1     -33.666  16.659  -4.123  1.00 20.00    -0.020 C 
HETATM    2  C2  UNL     1     -34.203  16.349  -2.930  1.00 20.00    -0.086 C 
HETATM    3  C4  UNL     1     -35.311  15.334  -2.783  1.00 20.00     0.049 C 
HETATM    4  C5  UNL     1     -35.469  15.333  -5.315  1.00 20.00     0.023 C 
HETATM    5  C6  UNL     1     -34.120  16.064  -5.432  1.00 20.00     0.005 C 
HETATM    6  C7  UNL     1     -35.578  14.497  -4.040  1.00 20.00     0.091 C 
HETATM    7  C8  UNL     1     -33.729  16.992  -1.660  1.00 20.00     0.043 C 
HETATM    8  C9  UNL     1     -34.203  17.140  -6.516  1.00 20.00     0.014 C 
ENDROOT
BRANCH   6   9
HETATM    9  C3  UNL     1     -34.650  13.318  -4.110  1.00 20.00     0.177 C 
HETATM   10  O10 UNL     1     -33.794  13.250  -3.185  1.00 20.00    -0.648 OA
HETATM   11  O11 UNL     1     -34.848  12.545  -5.089  1.00 20.00    -0.648 OA
ENDBRANCH   6   9
TORSDOF 1
ENDMDL
MODEL 3
REMARK VINA RESULT:      -4.7      1.900      3.589
REMARK  1 active torsions:
REMARK  status: ('A' for Active; 'I' for Inactive)
REMARK    1  A    between atoms: C3_3  and  C7_7 
ROOT
HETATM    1  C1  UNL     1     -34.141  16.139  -6.630  1.00 20.00    -0.020 C 
HETATM    2  C2  UNL     1     -34.079  16.918  -5.535  1.00 20.00    -0.086 C 
HETATM    3  C4  UNL     1     -34.491  16.425  -4.170  1.00 20.00     0.049 C 
HETATM    4  C5  UNL     1     -35.402  14.363  -5.332  1.00 20.00     0.023 C 
HETATM    5  C6  UNL     1     -34.649  14.720  -6.626  1.00 20.00     0.005 C 
HETATM    6  C7  UNL     1     -34.717  14.911  -4.081  1.00 20.00     0.091 C 
HETATM    7  C8  UNL     1     -33.587  18.335  -5.601  1.00 20.00     0.043 C 
HETATM    8  C9  UNL     1     -35.545  14.463  -7.839  1.00 20.00     0.014 C 
ENDROOT
BRANCH   6   9
HETATM    9  C3  UNL     1     -33.424  14.187  -3.835  1.00 20.00     0.177 C 
HETATM   10  O10 UNL     1     -32.436  14.924  -3.564  1.00 20.00    -0.648 OA
HETATM   11  O11 UNL     1     -33.494  12.930  -3.934  1.00 20.00    -0.648 OA
ENDBRANCH   6   9
TORSDOF 1
ENDMDL
MODEL 4
REMARK VINA RESULT:      -4.6      1.529      1.885
REMARK  1 active torsions:
REMARK  status: ('A' for Active; 'I' for Inactive)
REMARK    1  A    between atoms: C3_3  and  C7_7 
ROOT
HETATM    1  C1  UNL     1     -35.247  16.964  -3.664  1.00 20.00    -0.020 C 
HETATM    2  C2  UNL     1     -34.745  17.049  -4.909  1.00 20.00    -0.086 C 
HETATM    3  C4  UNL     1     -33.836  15.991  -5.486  1.00 20.00     0.049 C 
HETATM    4  C5  UNL     1     -33.746  14.984  -3.160  1.00 20.00     0.023 C 
HETATM    5  C6  UNL     1     -34.942  15.840  -2.707  1.00 20.00     0.005 C 
HETATM    6  C7  UNL     1     -33.758  14.700  -4.661  1.00 20.00     0.091 C 
HETATM    7  C8  UNL     1     -35.062  18.205  -5.811  1.00 20.00     0.043 C 
HETATM    8  C9  UNL     1     -34.693  16.381  -1.298  1.00 20.00     0.014 C 
ENDROOT
BRANCH   6   9
HETATM    9  C3  UNL     1     -34.886  13.770  -5.006  1.00 20.00     0.177 C 
HETATM   10  O10 UNL     1     -34.995  12.756  -4.262  1.00 20.00    -0.648 OA
HETATM   11  O11 UNL     1     -35.579  14.124  -6.000  1.00 20.00    -0.648 OA
ENDBRANCH   6   9
TORSDOF 1
ENDMDL
MODEL 5
REMARK VINA RESULT:      -4.5      1.729      3.287
REMARK  1 active torsions:
REMARK  status: ('A' for Active; 'I' for Inactive)
REMARK    1  A    between atoms: C3_3  and  C7_7 
ROOT
HETATM    1  C1  UNL     1     -36.022  16.045  -2.927  1.00 20.00    -0.020 C 
HETATM    2  C2  UNL     1     -34.791  15.939  -2.396  1.00 20.00    -0.086 C 
HETATM    3  C4  UNL     1     -33.701  15.120  -3.043  1.00 20.00     0.049 C 
HETATM    4  C5  UNL     1     -35.479  14.241  -4.623  1.00 20.00     0.023 C 
HETATM    5  C6  UNL     1     -36.458  15.346  -4.189  1.00 20.00     0.005 C 
HETATM    6  C7  UNL     1     -34.016  14.655  -4.470  1.00 20.00     0.091 C 
HETATM    7  C8  UNL     1     -34.418  16.638  -1.121  1.00 20.00     0.043 C 
HETATM    8  C9  UNL     1     -37.864  14.763  -4.027  1.00 20.00     0.014 C 
ENDROOT
BRANCH   6   9
HETATM    9  C3  UNL     1     -33.668  15.718  -5.473  1.00 20.00     0.177 C 
HETATM   10  O10 UNL     1     -34.163  15.556  -6.623  1.00 20.00    -0.648 OA
HETATM   11  O11 UNL     1     -32.923  16.637  -5.034  1.00 20.00    -0.648 OA
ENDBRANCH   6   9
TORSDOF 1
ENDMDL
MODEL 6
REMARK VINA RESULT:      -4.4      2.766      4.030
REMARK  1 active torsions:
REMARK  status: ('A' for Active; 'I' for Inactive)
REMARK    1  A    between atoms: C3_3  and  C7_7 
ROOT
HETATM    1  C1  UNL     1     -34.548  15.472  -2.362  1.00 20.00    -0.020 C 
HETATM    2  C2  UNL     1     -34.354  16.684  -1.812  1.00 20.00    -0.086 C 
HETATM    3  C4  UNL     1     -33.776  17.840  -2.590  1.00 20.00     0.049 C 
HETATM    4  C5  UNL     1     -33.277  16.177  -4.439  1.00 20.00     0.023 C 
HETATM    5  C6  UNL     1     -34.190  15.126  -3.784  1.00 20.00     0.005 C 
HETATM    6  C7  UNL     1     -33.692  17.609  -4.104  1.00 20.00     0.091 C 
HETATM    7  C8  UNL     1     -34.706  16.967  -0.380  1.00 20.00     0.043 C 
HETATM    8  C9  UNL     1     -33.532  13.746  -3.856  1.00 20.00     0.014 C 
ENDROOT
BRANCH   6   9
HETATM    9  C3  UNL     1     -34.993  17.945  -4.775  1.00 20.00     0.177 C 
HETATM   10  O10 UNL     1     -35.821  18.573  -4.060  1.00 20.00    -0.648 OA
HETATM   11  O11 UNL     1     -35.090  17.551  -5.971  1.00 20.00    -0.648 OA
ENDBRANCH   6   9
TORSDOF 1
ENDMDL
MODEL 7
REMARK VINA RESULT:      -4.4      2.568      3.173
REMARK  1 active torsions:
REMARK  status: ('A' for Active; 'I' for Inactive)
REMARK    1  A    between atoms: C3_3  and  C7_7 
ROOT
HETATM    1  C1  UNL     1     -34.366  15.192  -2.608  1.00 20.00    -0.020 C 
HETATM    2  C2  UNL     1     -34.881  14.846  -3.801  1.00 20.00    -0.086 C 
HETATM    3  C4  UNL     1     -35.363  15.869  -4.800  1.00 20.00     0.049 C 
HETATM    4  C5  UNL     1     -35.062  17.603  -2.973  1.00 20.00     0.023 C 
HETATM    5  C6  UNL     1     -34.241  16.615  -2.126  1.00 20.00     0.005 C 
HETATM    6  C7  UNL     1     -34.969  17.314  -4.471  1.00 20.00     0.091 C 
HETATM    7  C8  UNL     1     -35.006  13.410  -4.219  1.00 20.00     0.043 C 
HETATM    8  C9  UNL     1     -34.648  16.726  -0.655  1.00 20.00     0.014 C 
ENDROOT
BRANCH   6   9
HETATM    9  C3  UNL     1     -33.589  17.625  -4.976  1.00 20.00     0.177 C 
HETATM   10  O10 UNL     1     -32.938  16.635  -5.410  1.00 20.00    -0.648 OA
HETATM   11  O11 UNL     1     -33.258  18.841  -4.900  1.00 20.00    -0.648 OA
ENDBRANCH   6   9
TORSDOF 1
ENDMDL
MODEL 8
REMARK VINA RESULT:      -4.4      1.731      3.091
REMARK  1 active torsions:
REMARK  status: ('A' for Active; 'I' for Inactive)
REMARK    1  A    between atoms: C3_3  and  C7_7 
ROOT
HETATM    1  C1  UNL     1     -35.720  16.046  -5.815  1.00 20.00    -0.020 C 
HETATM    2  C2  UNL     1     -36.511  15.870  -4.741  1.00 20.00    -0.086 C 
HETATM    3  C4  UNL     1     -36.508  14.593  -3.937  1.00 20.00     0.049 C 
HETATM    4  C5  UNL     1     -35.053  13.600  -5.762  1.00 20.00     0.023 C 
HETATM    5  C6  UNL     1     -34.778  14.997  -6.348  1.00 20.00     0.005 C 
HETATM    6  C7  UNL     1     -35.354  13.638  -4.264  1.00 20.00     0.091 C 
HETATM    7  C8  UNL     1     -37.449  16.942  -4.269  1.00 20.00     0.043 C 
HETATM    8  C9  UNL     1     -34.838  14.942  -7.876  1.00 20.00     0.014 C 
ENDROOT
BRANCH   6   9
HETATM    9  C3  UNL     1     -34.117  14.002  -3.494  1.00 20.00     0.177 C 
HETATM   10  O10 UNL     1     -34.226  15.013  -2.746  1.00 20.00    -0.648 OA
HETATM   11  O11 UNL     1     -33.125  13.247  -3.696  1.00 20.00    -0.648 OA
ENDBRANCH   6   9
TORSDOF 1
ENDMDL
MODEL 9
REMARK VINA RESULT:      -4.3     11.598     12.632
REMARK  1 active torsions:
REMARK  status: ('A' for Active; 'I' for Inactive)
REMARK    1  A    between atoms: C3_3  and  C7_7 
ROOT
HETATM    1  C1  UNL     1     -42.680   4.988  -3.047  1.00 20.00    -0.020 C 
HETATM    2  C2  UNL     1     -41.837   4.107  -2.478  1.00 20.00    -0.086 C 
HETATM    3  C4  UNL     1     -40.994   4.457  -1.276  1.00 20.00     0.049 C 
HETATM    4  C5  UNL     1     -41.742   6.857  -1.613  1.00 20.00     0.023 C 
HETATM    5  C6  UNL     1     -42.855   6.409  -2.577  1.00 20.00     0.005 C 
HETATM    6  C7  UNL     1     -41.374   5.778  -0.596  1.00 20.00     0.091 C 
HETATM    7  C8  UNL     1     -41.684   2.710  -3.003  1.00 20.00     0.043 C 
HETATM    8  C9  UNL     1     -42.930   7.367  -3.768  1.00 20.00     0.014 C 
ENDROOT
BRANCH   6   9
HETATM    9  C3  UNL     1     -42.497   5.579   0.381  1.00 20.00     0.177 C 
HETATM   10  O10 UNL     1     -43.204   6.600   0.606  1.00 20.00    -0.648 OA
HETATM   11  O11 UNL     1     -42.588   4.411   0.853  1.00 20.00    -0.648 OA
ENDBRANCH   6   9
TORSDOF 1
ENDMDL
