MODEL 1
REMARK VINA RESULT:      -4.4      0.000      0.000
REMARK  2 active torsions:
REMARK  status: ('A' for Active; 'I' for Inactive)
REMARK    1  A    between atoms: C1_1  and  N9_9 
REMARK    2  A    between atoms: C4_4  and  C8_8 
ROOT
HETATM    1  C2  UNL     1     -33.491  15.480  -3.371  1.00 20.00     0.031 C 
HETATM    2  C3  UNL     1     -35.689  15.988  -2.591  1.00 20.00     0.130 C 
HETATM    3  C4  UNL     1     -34.305  16.612  -2.735  1.00 20.00     0.005 C 
HETATM    4  C5  UNL     1     -34.489  14.811  -4.327  1.00 20.00     0.083 C 
HETATM    5  C6  UNL     1     -34.217  13.319  -4.467  1.00 20.00     0.032 C 
HETATM    6  N9  UNL     1     -35.797  15.114  -3.749  1.00 20.00    -0.355 N 
ENDROOT
BRANCH   3   7
HETATM    7  C8  UNL     1     -33.727  17.099  -1.418  1.00 20.00     0.002 C 
HETATM    8  C7  UNL     1     -34.714  16.993  -0.299  1.00 20.00     0.005 C 
ENDBRANCH   3   7
BRANCH   6   9
HETATM    9  C1  UNL     1     -37.003  14.747  -4.301  1.00 20.00     0.351 C 
HETATM   10  O10 UNL     1     -37.931  14.178  -3.737  1.00 20.00    -0.284 OA
ENDBRANCH   6   9
TORSDOF 2
ENDMDL
MODEL 2
REMARK VINA RESULT:      -4.3      1.417      2.280
REMARK  2 active torsions:
REMARK  status: ('A' for Active; 'I' for Inactive)
REMARK    1  A    between atoms: C1_1  and  N9_9 
REMARK    2  A    between atoms: C4_4  and  C8_8 
ROOT
HETATM    1  C2  UNL     1     -35.939  16.302  -2.748  1.00 20.00     0.031 C 
HETATM    2  C3  UNL     1     -33.788  15.361  -3.176  1.00 20.00     0.130 C 
HETATM    3  C4  UNL     1     -34.639  15.915  -2.038  1.00 20.00     0.005 C 
HETATM    4  C5  UNL     1     -36.116  15.201  -3.804  1.00 20.00     0.083 C 
HETATM    5  C6  UNL     1     -36.815  15.726  -5.051  1.00 20.00     0.032 C 
HETATM    6  N9  UNL     1     -34.757  14.724  -4.053  1.00 20.00    -0.355 N 
ENDROOT
BRANCH   3   7
HETATM    7  C8  UNL     1     -33.985  17.076  -1.310  1.00 20.00     0.002 C 
HETATM    8  C7  UNL     1     -34.640  17.353   0.007  1.00 20.00     0.005 C 
ENDBRANCH   3   7
BRANCH   6   9
HETATM    9  C1  UNL     1     -34.431  13.695  -4.907  1.00 20.00     0.351 C 
HETATM   10  O10 UNL     1     -34.781  12.523  -4.820  1.00 20.00    -0.284 OA
ENDBRANCH   6   9
TORSDOF 2
ENDMDL
MODEL 3
REMARK VINA RESULT:      -4.3      1.613      2.119
REMARK  2 active torsions:
REMARK  status: ('A' for Active; 'I' for Inactive)
REMARK    1  A    between atoms: C1_1  and  N9_9 
REMARK    2  A    between atoms: C4_4  and  C8_8 
ROOT
HETATM    1  C2  UNL     1     -34.562  17.108  -3.933  1.00 20.00     0.031 C 
HETATM    2  C3  UNL     1     -34.060  14.952  -3.042  1.00 20.00     0.130 C 
HETATM    3  C4  UNL     1     -34.642  16.301  -2.633  1.00 20.00     0.005 C 
HETATM    4  C5  UNL     1     -34.875  16.072  -5.022  1.00 20.00     0.083 C 
HETATM    5  C6  UNL     1     -34.144  16.385  -6.321  1.00 20.00     0.032 C 
HETATM    6  N9  UNL     1     -34.484  14.797  -4.424  1.00 20.00    -0.355 N 
ENDROOT
BRANCH   3   7
HETATM    7  C8  UNL     1     -33.899  16.949  -1.478  1.00 20.00     0.002 C 
HETATM    8  C7  UNL     1     -34.745  17.037  -0.247  1.00 20.00     0.005 C 
ENDBRANCH   3   7
BRANCH   6   9
HETATM    9  C1  UNL     1     -34.629  13.569  -5.030  1.00 20.00     0.351 C 
HETATM   10  O10 UNL     1     -35.040  12.535  -4.516  1.00 20.00    -0.284 OA
ENDBRANCH   6   9
TORSDOF 2
ENDMDL
MODEL 4
REMARK VINA RESULT:      -4.2      2.332      3.725
REMARK  2 active torsions:
REMARK  status: ('A' for Active; 'I' for Inactive)
REMARK    1  A    between atoms: C1_1  and  N9_9 
REMARK    2  A    between atoms: C4_4  and  C8_8 
ROOT
HETATM    1  C2  UNL     1     -33.659  17.246  -3.869  1.00 20.00     0.031 C 
HETATM    2  C3  UNL     1     -34.382  15.488  -5.312  1.00 20.00     0.130 C 
HETATM    3  C4  UNL     1     -33.521  16.746  -5.310  1.00 20.00     0.005 C 
HETATM    4  C5  UNL     1     -33.700  15.953  -3.041  1.00 20.00     0.083 C 
HETATM    5  C6  UNL     1     -34.557  16.114  -1.792  1.00 20.00     0.032 C 
HETATM    6  N9  UNL     1     -34.208  14.948  -3.973  1.00 20.00    -0.355 N 
ENDROOT
BRANCH   3   7
HETATM    7  C8  UNL     1     -33.954  17.771  -6.343  1.00 20.00     0.002 C 
HETATM    8  C7  UNL     1     -34.597  17.130  -7.533  1.00 20.00     0.005 C 
ENDBRANCH   3   7
BRANCH   6   9
HETATM    9  C1  UNL     1     -34.371  13.614  -3.675  1.00 20.00     0.351 C 
HETATM   10  O10 UNL     1     -34.881  12.756  -4.387  1.00 20.00    -0.284 OA
ENDBRANCH   6   9
TORSDOF 2
ENDMDL
MODEL 5
REMARK VINA RESULT:      -4.1      2.457      3.150
REMARK  2 active torsions:
REMARK  status: ('A' for Active; 'I' for Inactive)
REMARK    1  A    between atoms: C1_1  and  N9_9 
REMARK    2  A    between atoms: C4_4  and  C8_8 
ROOT
HETATM    1  C2  UNL     1     -34.677  16.328  -1.132  1.00 20.00     0.031 C 
HETATM    2  C3  UNL     1     -33.765  18.218  -2.269  1.00 20.00     0.130 C 
HETATM    3  C4  UNL     1     -33.699  17.490  -0.931  1.00 20.00     0.005 C 
HETATM    4  C5  UNL     1     -34.468  15.930  -2.600  1.00 20.00     0.083 C 
HETATM    5  C6  UNL     1     -35.751  15.398  -3.225  1.00 20.00     0.032 C 
HETATM    6  N9  UNL     1     -33.972  17.151  -3.234  1.00 20.00    -0.355 N 
ENDROOT
BRANCH   3   7
HETATM    7  C8  UNL     1     -34.053  18.373   0.252  1.00 20.00     0.002 C 
HETATM    8  C7  UNL     1     -35.161  17.793   1.074  1.00 20.00     0.005 C 
ENDBRANCH   3   7
BRANCH   6   9
HETATM    9  C1  UNL     1     -33.603  17.254  -4.556  1.00 20.00     0.351 C 
HETATM   10  O10 UNL     1     -32.830  16.524  -5.166  1.00 20.00    -0.284 OA
ENDBRANCH   6   9
TORSDOF 2
ENDMDL
MODEL 6
REMARK VINA RESULT:      -4.0      2.119      2.259
REMARK  2 active torsions:
REMARK  status: ('A' for Active; 'I' for Inactive)
REMARK    1  A    between atoms: C1_1  and  N9_9 
REMARK    2  A    between atoms: C4_4  and  C8_8 
ROOT
HETATM    1  C2  UNL     1     -33.949  14.966  -2.970  1.00 20.00     0.031 C 
HETATM    2  C3  UNL     1     -34.507  16.799  -4.393  1.00 20.00     0.130 C 
HETATM    3  C4  UNL     1     -33.624  16.445  -3.202  1.00 20.00     0.005 C 
HETATM    4  C5  UNL     1     -34.137  14.411  -4.390  1.00 20.00     0.083 C 
HETATM    5  C6  UNL     1     -35.155  13.279  -4.419  1.00 20.00     0.032 C 
HETATM    6  N9  UNL     1     -34.535  15.576  -5.179  1.00 20.00    -0.355 N 
ENDROOT
BRANCH   3   7
HETATM    7  C8  UNL     1     -33.883  17.313  -1.983  1.00 20.00     0.002 C 
HETATM    8  C7  UNL     1     -34.629  16.574  -0.917  1.00 20.00     0.005 C 
ENDBRANCH   3   7
BRANCH   6   9
HETATM    9  C1  UNL     1     -34.772  15.561  -6.534  1.00 20.00     0.351 C 
HETATM   10  O10 UNL     1     -34.186  14.894  -7.379  1.00 20.00    -0.284 OA
ENDBRANCH   6   9
TORSDOF 2
ENDMDL
MODEL 7
REMARK VINA RESULT:      -3.9      1.718      3.575
REMARK  2 active torsions:
REMARK  status: ('A' for Active; 'I' for Inactive)
REMARK    1  A    between atoms: C1_1  and  N9_9 
REMARK    2  A    between atoms: C4_4  and  C8_8 
ROOT
HETATM    1  C2  UNL     1     -34.056  14.985  -4.616  1.00 20.00     0.031 C 
HETATM    2  C3  UNL     1     -36.228  15.155  -5.590  1.00 20.00     0.130 C 
HETATM    3  C4  UNL     1     -34.841  14.587  -5.870  1.00 20.00     0.005 C 
HETATM    4  C5  UNL     1     -35.084  14.839  -3.485  1.00 20.00     0.083 C 
HETATM    5  C6  UNL     1     -34.833  15.842  -2.366  1.00 20.00     0.032 C 
HETATM    6  N9  UNL     1     -36.374  15.017  -4.150  1.00 20.00    -0.355 N 
ENDROOT
BRANCH   3   7
HETATM    7  C8  UNL     1     -34.226  15.113  -7.155  1.00 20.00     0.002 C 
HETATM    8  C7  UNL     1     -34.548  16.557  -7.380  1.00 20.00     0.005 C 
ENDBRANCH   3   7
BRANCH   6   9
HETATM    9  C1  UNL     1     -37.597  14.924  -3.525  1.00 20.00     0.351 C 
HETATM   10  O10 UNL     1     -38.518  14.167  -3.813  1.00 20.00    -0.284 OA
ENDBRANCH   6   9
TORSDOF 2
ENDMDL
MODEL 8
REMARK VINA RESULT:      -3.8      1.186      1.240
REMARK  2 active torsions:
REMARK  status: ('A' for Active; 'I' for Inactive)
REMARK    1  A    between atoms: C1_1  and  N9_9 
REMARK    2  A    between atoms: C4_4  and  C8_8 
ROOT
HETATM    1  C2  UNL     1     -33.986  17.134  -3.769  1.00 20.00     0.031 C 
HETATM    2  C3  UNL     1     -35.229  15.549  -2.489  1.00 20.00     0.130 C 
HETATM    3  C4  UNL     1     -34.698  16.977  -2.422  1.00 20.00     0.005 C 
HETATM    4  C5  UNL     1     -34.875  16.346  -4.742  1.00 20.00     0.083 C 
HETATM    5  C6  UNL     1     -34.060  15.722  -5.867  1.00 20.00     0.032 C 
HETATM    6  N9  UNL     1     -35.549  15.364  -3.895  1.00 20.00    -0.355 N 
ENDROOT
BRANCH   3   7
HETATM    7  C8  UNL     1     -33.790  17.225  -1.231  1.00 20.00     0.002 C 
HETATM    8  C7  UNL     1     -34.562  17.374   0.042  1.00 20.00     0.005 C 
ENDBRANCH   3   7
BRANCH   6   9
HETATM    9  C1  UNL     1     -36.487  14.459  -4.337  1.00 20.00     0.351 C 
HETATM   10  O10 UNL     1     -37.545  14.165  -3.792  1.00 20.00    -0.284 OA
ENDBRANCH   6   9
TORSDOF 2
ENDMDL
MODEL 9
REMARK VINA RESULT:      -3.8      2.940      4.248
REMARK  2 active torsions:
REMARK  status: ('A' for Active; 'I' for Inactive)
REMARK    1  A    between atoms: C1_1  and  N9_9 
REMARK    2  A    between atoms: C4_4  and  C8_8 
ROOT
HETATM    1  C2  UNL     1     -33.644  15.889  -5.072  1.00 20.00     0.031 C 
HETATM    2  C3  UNL     1     -33.798  15.990  -2.693  1.00 20.00     0.130 C 
HETATM    3  C4  UNL     1     -33.152  15.176  -3.809  1.00 20.00     0.005 C 
HETATM    4  C5  UNL     1     -33.653  17.371  -4.671  1.00 20.00     0.083 C 
HETATM    5  C6  UNL     1     -34.754  18.140  -5.391  1.00 20.00     0.032 C 
HETATM    6  N9  UNL     1     -33.812  17.346  -3.218  1.00 20.00    -0.355 N 
ENDROOT
BRANCH   3   7
HETATM    7  C8  UNL     1     -33.522  13.704  -3.769  1.00 20.00     0.002 C 
HETATM    8  C7  UNL     1     -34.786  13.422  -4.518  1.00 20.00     0.005 C 
ENDBRANCH   3   7
BRANCH   6   9
HETATM    9  C1  UNL     1     -33.830  18.462  -2.412  1.00 20.00     0.351 C 
HETATM   10  O10 UNL     1     -32.918  19.263  -2.240  1.00 20.00    -0.284 OA
ENDBRANCH   6   9
TORSDOF 2
ENDMDL
