MODEL 1
REMARK VINA RESULT:      -4.4      0.000      0.000
REMARK  0 active torsions:
REMARK  status: ('A' for Active; 'I' for Inactive)
ROOT
HETATM    1  C1  UNL     1     -32.816   6.299   2.503  1.00 20.00     0.020 A 
HETATM    2  C2  UNL     1     -32.490   6.892   3.758  1.00 20.00     0.038 A 
HETATM    3  C3  UNL     1     -33.877   5.428   2.695  1.00 20.00     0.093 A 
HETATM    4  C4  UNL     1     -33.367   6.349   4.651  1.00 20.00     0.073 A 
HETATM    5  C5  UNL     1     -35.125   4.803   4.802  1.00 20.00     0.085 A 
HETATM    6  C6  UNL     1     -35.080   5.308   6.065  1.00 20.00     0.065 A 
HETATM    7  C7  UNL     1     -34.915   3.904   5.920  1.00 20.00     0.061 A 
HETATM    8  N8  UNL     1     -34.170   5.438   4.032  1.00 20.00    -0.337 N 
HETATM    9  S9  UNL     1     -33.812   6.497   6.316  1.00 20.00    -0.097 SA
ENDROOT
TORSDOF 0
ENDMDL
MODEL 2
REMARK VINA RESULT:      -4.2      1.559      3.639
REMARK  0 active torsions:
REMARK  status: ('A' for Active; 'I' for Inactive)
ROOT
HETATM    1  C1  UNL     1     -34.957   4.997   6.523  1.00 20.00     0.020 A 
HETATM    2  C2  UNL     1     -35.211   4.398   5.254  1.00 20.00     0.038 A 
HETATM    3  C3  UNL     1     -34.121   6.086   6.331  1.00 20.00     0.093 A 
HETATM    4  C4  UNL     1     -34.514   5.151   4.355  1.00 20.00     0.073 A 
HETATM    5  C5  UNL     1     -33.070   6.995   4.220  1.00 20.00     0.085 A 
HETATM    6  C6  UNL     1     -33.251   6.678   2.909  1.00 20.00     0.065 A 
HETATM    7  C7  UNL     1     -31.917   6.678   3.400  1.00 20.00     0.061 A 
HETATM    8  N8  UNL     1     -33.823   6.135   4.996  1.00 20.00    -0.337 N 
HETATM    9  S9  UNL     1     -34.277   5.277   2.646  1.00 20.00    -0.097 SA
ENDROOT
TORSDOF 0
ENDMDL
MODEL 3
REMARK VINA RESULT:      -3.8     12.471     13.792
REMARK  0 active torsions:
REMARK  status: ('A' for Active; 'I' for Inactive)
ROOT
HETATM    1  C1  UNL     1     -34.738  15.948  -7.527  1.00 20.00     0.020 A 
HETATM    2  C2  UNL     1     -35.138  14.623  -7.185  1.00 20.00     0.038 A 
HETATM    3  C3  UNL     1     -34.113  16.512  -6.426  1.00 20.00     0.093 A 
HETATM    4  C4  UNL     1     -34.740  14.449  -5.892  1.00 20.00     0.073 A 
HETATM    5  C5  UNL     1     -33.697  15.573  -4.116  1.00 20.00     0.085 A 
HETATM    6  C6  UNL     1     -33.874  14.327  -3.601  1.00 20.00     0.065 A 
HETATM    7  C7  UNL     1     -34.462  15.411  -2.895  1.00 20.00     0.061 A 
HETATM    8  N8  UNL     1     -34.166  15.590  -5.416  1.00 20.00    -0.337 N 
HETATM    9  S9  UNL     1     -34.688  13.211  -4.685  1.00 20.00    -0.097 SA
ENDROOT
TORSDOF 0
ENDMDL
MODEL 4
REMARK VINA RESULT:      -3.7     12.342     12.851
REMARK  0 active torsions:
REMARK  status: ('A' for Active; 'I' for Inactive)
ROOT
HETATM    1  C1  UNL     1     -33.840  16.679  -1.937  1.00 20.00     0.020 A 
HETATM    2  C2  UNL     1     -35.235  16.388  -1.912  1.00 20.00     0.038 A 
HETATM    3  C3  UNL     1     -33.284  16.052  -3.041  1.00 20.00     0.093 A 
HETATM    4  C4  UNL     1     -35.458  15.595  -2.999  1.00 20.00     0.073 A 
HETATM    5  C5  UNL     1     -34.344  14.567  -4.791  1.00 20.00     0.085 A 
HETATM    6  C6  UNL     1     -35.643  14.250  -5.042  1.00 20.00     0.065 A 
HETATM    7  C7  UNL     1     -34.727  13.173  -4.893  1.00 20.00     0.061 A 
HETATM    8  N8  UNL     1     -34.287  15.352  -3.654  1.00 20.00    -0.337 N 
HETATM    9  S9  UNL     1     -36.773  14.845  -3.836  1.00 20.00    -0.097 SA
ENDROOT
TORSDOF 0
ENDMDL
MODEL 5
REMARK VINA RESULT:      -3.7     12.522     13.787
REMARK  0 active torsions:
REMARK  status: ('A' for Active; 'I' for Inactive)
ROOT
HETATM    1  C1  UNL     1     -35.068  15.235  -7.767  1.00 20.00     0.020 A 
HETATM    2  C2  UNL     1     -34.356  16.288  -7.121  1.00 20.00     0.038 A 
HETATM    3  C3  UNL     1     -35.260  14.213  -6.850  1.00 20.00     0.093 A 
HETATM    4  C4  UNL     1     -34.148  15.852  -5.845  1.00 20.00     0.073 A 
HETATM    5  C5  UNL     1     -34.523  14.010  -4.440  1.00 20.00     0.085 A 
HETATM    6  C6  UNL     1     -33.952  14.907  -3.590  1.00 20.00     0.065 A 
HETATM    7  C7  UNL     1     -33.306  13.650  -3.741  1.00 20.00     0.061 A 
HETATM    8  N8  UNL     1     -34.646  14.593  -5.688  1.00 20.00    -0.337 N 
HETATM    9  S9  UNL     1     -33.496  16.424  -4.348  1.00 20.00    -0.097 SA
ENDROOT
TORSDOF 0
ENDMDL
MODEL 6
REMARK VINA RESULT:      -3.7     12.585     14.044
REMARK  0 active torsions:
REMARK  status: ('A' for Active; 'I' for Inactive)
ROOT
HETATM    1  C1  UNL     1     -34.118  13.614  -3.556  1.00 20.00     0.020 A 
HETATM    2  C2  UNL     1     -33.823  15.007  -3.490  1.00 20.00     0.038 A 
HETATM    3  C3  UNL     1     -34.479  13.307  -4.859  1.00 20.00     0.093 A 
HETATM    4  C4  UNL     1     -34.022  15.479  -4.754  1.00 20.00     0.073 A 
HETATM    5  C5  UNL     1     -34.698  14.791  -6.893  1.00 20.00     0.085 A 
HETATM    6  C6  UNL     1     -34.366  16.094  -7.104  1.00 20.00     0.065 A 
HETATM    7  C7  UNL     1     -35.693  15.701  -7.427  1.00 20.00     0.061 A 
HETATM    8  N8  UNL     1     -34.459  14.477  -5.569  1.00 20.00    -0.337 N 
HETATM    9  S9  UNL     1     -33.841  16.942  -5.658  1.00 20.00    -0.097 SA
ENDROOT
TORSDOF 0
ENDMDL
MODEL 7
REMARK VINA RESULT:      -3.7     12.589     13.780
REMARK  0 active torsions:
REMARK  status: ('A' for Active; 'I' for Inactive)
ROOT
HETATM    1  C1  UNL     1     -33.903  17.835  -0.496  1.00 20.00     0.020 A 
HETATM    2  C2  UNL     1     -34.631  16.629  -0.714  1.00 20.00     0.038 A 
HETATM    3  C3  UNL     1     -33.504  18.332  -1.727  1.00 20.00     0.093 A 
HETATM    4  C4  UNL     1     -34.636  16.451  -2.066  1.00 20.00     0.073 A 
HETATM    5  C5  UNL     1     -33.842  17.408  -4.056  1.00 20.00     0.085 A 
HETATM    6  C6  UNL     1     -34.586  16.366  -4.517  1.00 20.00     0.065 A 
HETATM    7  C7  UNL     1     -33.214  16.401  -4.888  1.00 20.00     0.061 A 
HETATM    8  N8  UNL     1     -33.925  17.440  -2.676  1.00 20.00    -0.337 N 
HETATM    9  S9  UNL     1     -35.311  15.387  -3.252  1.00 20.00    -0.097 SA
ENDROOT
TORSDOF 0
ENDMDL
MODEL 8
REMARK VINA RESULT:      -3.6     12.125     13.112
REMARK  0 active torsions:
REMARK  status: ('A' for Active; 'I' for Inactive)
ROOT
HETATM    1  C1  UNL     1     -34.489  13.487  -5.082  1.00 20.00     0.020 A 
HETATM    2  C2  UNL     1     -34.535  14.772  -5.698  1.00 20.00     0.038 A 
HETATM    3  C3  UNL     1     -34.600  13.657  -3.711  1.00 20.00     0.093 A 
HETATM    4  C4  UNL     1     -34.668  15.660  -4.671  1.00 20.00     0.073 A 
HETATM    5  C5  UNL     1     -34.798  15.766  -2.330  1.00 20.00     0.085 A 
HETATM    6  C6  UNL     1     -34.979  17.067  -2.687  1.00 20.00     0.065 A 
HETATM    7  C7  UNL     1     -33.892  16.775  -1.818  1.00 20.00     0.061 A 
HETATM    8  N8  UNL     1     -34.661  15.004  -3.476  1.00 20.00    -0.337 N 
HETATM    9  S9  UNL     1     -34.896  17.355  -4.417  1.00 20.00    -0.097 SA
ENDROOT
TORSDOF 0
ENDMDL
MODEL 9
REMARK VINA RESULT:      -3.6     12.415     13.084
REMARK  0 active torsions:
REMARK  status: ('A' for Active; 'I' for Inactive)
ROOT
HETATM    1  C1  UNL     1     -35.558  16.826  -2.286  1.00 20.00     0.020 A 
HETATM    2  C2  UNL     1     -34.421  15.977  -2.153  1.00 20.00     0.038 A 
HETATM    3  C3  UNL     1     -36.258  16.443  -3.420  1.00 20.00     0.093 A 
HETATM    4  C4  UNL     1     -34.483  15.121  -3.215  1.00 20.00     0.073 A 
HETATM    5  C5  UNL     1     -35.765  14.638  -5.120  1.00 20.00     0.085 A 
HETATM    6  C6  UNL     1     -34.832  13.648  -5.144  1.00 20.00     0.065 A 
HETATM    7  C7  UNL     1     -34.911  14.495  -6.282  1.00 20.00     0.061 A 
HETATM    8  N8  UNL     1     -35.554  15.423  -4.002  1.00 20.00    -0.337 N 
HETATM    9  S9  UNL     1     -33.656  13.738  -3.843  1.00 20.00    -0.097 SA
ENDROOT
TORSDOF 0
ENDMDL
