MODEL 1
REMARK VINA RESULT:      -4.6      0.000      0.000
REMARK  0 active torsions:
REMARK  status: ('A' for Active; 'I' for Inactive)
ROOT
HETATM    1  C1  UNL     1     -34.672  16.624  -0.712  1.00 20.00     0.015 C 
HETATM    2  C2  UNL     1     -34.664  16.273  -1.860  1.00 20.00    -0.075 C 
HETATM    3  C3  UNL     1     -32.567  14.769  -3.707  1.00 20.00     0.034 C 
HETATM    4  C4  UNL     1     -36.907  15.383  -3.925  1.00 20.00     0.034 C 
HETATM    5  C5  UNL     1     -33.284  16.097  -3.900  1.00 20.00     0.057 C 
HETATM    6  C6  UNL     1     -35.834  16.458  -4.027  1.00 20.00     0.057 C 
HETATM    7  C7  UNL     1     -33.678  13.758  -3.939  1.00 20.00     0.275 C 
HETATM    8  C8  UNL     1     -36.102  14.102  -4.060  1.00 20.00     0.275 C 
HETATM    9  C9  UNL     1     -34.655  15.842  -3.274  1.00 20.00     0.221 C 
HETATM   10  N10 UNL     1     -34.860  14.377  -3.328  1.00 20.00     0.110 N 
ENDROOT
TORSDOF 0
ENDMDL
MODEL 2
REMARK VINA RESULT:      -4.6      1.142      1.740
REMARK  0 active torsions:
REMARK  status: ('A' for Active; 'I' for Inactive)
ROOT
HETATM    1  C1  UNL     1     -34.596  16.511  -1.074  1.00 20.00     0.015 C 
HETATM    2  C2  UNL     1     -34.293  16.276  -2.211  1.00 20.00    -0.075 C 
HETATM    3  C3  UNL     1     -33.516  13.640  -3.800  1.00 20.00     0.034 C 
HETATM    4  C4  UNL     1     -34.996  17.589  -5.015  1.00 20.00     0.034 C 
HETATM    5  C5  UNL     1     -32.781  14.964  -3.658  1.00 20.00     0.057 C 
HETATM    6  C6  UNL     1     -33.651  17.285  -4.371  1.00 20.00     0.057 C 
HETATM    7  C7  UNL     1     -34.670  14.000  -4.722  1.00 20.00     0.275 C 
HETATM    8  C8  UNL     1     -35.497  16.207  -5.400  1.00 20.00     0.275 C 
HETATM    9  C9  UNL     1     -33.917  15.986  -3.611  1.00 20.00     0.221 C 
HETATM   10  N10 UNL     1     -35.067  15.346  -4.291  1.00 20.00     0.110 N 
ENDROOT
TORSDOF 0
ENDMDL
MODEL 3
REMARK VINA RESULT:      -4.4      1.155      3.041
REMARK  0 active torsions:
REMARK  status: ('A' for Active; 'I' for Inactive)
ROOT
HETATM    1  C1  UNL     1     -34.652  16.760  -0.546  1.00 20.00     0.015 C 
HETATM    2  C2  UNL     1     -34.783  16.323  -1.655  1.00 20.00    -0.075 C 
HETATM    3  C3  UNL     1     -36.767  16.927  -4.059  1.00 20.00     0.034 C 
HETATM    4  C4  UNL     1     -32.806  15.058  -3.794  1.00 20.00     0.034 C 
HETATM    5  C5  UNL     1     -36.429  15.620  -3.358  1.00 20.00     0.057 C 
HETATM    6  C6  UNL     1     -34.100  14.522  -3.201  1.00 20.00     0.057 C 
HETATM    7  C7  UNL     1     -35.511  17.202  -4.868  1.00 20.00     0.275 C 
HETATM    8  C8  UNL     1     -33.298  16.158  -4.720  1.00 20.00     0.275 C 
HETATM    9  C9  UNL     1     -34.947  15.783  -3.022  1.00 20.00     0.221 C 
HETATM   10  N10 UNL     1     -34.417  16.768  -3.992  1.00 20.00     0.110 N 
ENDROOT
TORSDOF 0
ENDMDL
MODEL 4
REMARK VINA RESULT:      -4.3      1.568      3.046
REMARK  0 active torsions:
REMARK  status: ('A' for Active; 'I' for Inactive)
ROOT
HETATM    1  C1  UNL     1     -34.656  14.811  -7.171  1.00 20.00     0.015 C 
HETATM    2  C2  UNL     1     -34.741  14.701  -5.979  1.00 20.00    -0.075 C 
HETATM    3  C3  UNL     1     -32.661  14.832  -3.584  1.00 20.00     0.034 C 
HETATM    4  C4  UNL     1     -37.015  15.309  -3.847  1.00 20.00     0.034 C 
HETATM    5  C5  UNL     1     -33.667  13.756  -3.965  1.00 20.00     0.057 C 
HETATM    6  C6  UNL     1     -36.226  14.037  -4.121  1.00 20.00     0.057 C 
HETATM    7  C7  UNL     1     -33.550  15.934  -3.032  1.00 20.00     0.275 C 
HETATM    8  C8  UNL     1     -35.982  16.200  -3.180  1.00 20.00     0.275 C 
HETATM    9  C9  UNL     1     -34.845  14.564  -4.510  1.00 20.00     0.221 C 
HETATM   10  N10 UNL     1     -34.735  15.907  -3.896  1.00 20.00     0.110 N 
ENDROOT
TORSDOF 0
ENDMDL
MODEL 5
REMARK VINA RESULT:      -4.2      1.824      3.322
REMARK  0 active torsions:
REMARK  status: ('A' for Active; 'I' for Inactive)
ROOT
HETATM    1  C1  UNL     1     -37.588  14.825  -3.801  1.00 20.00     0.015 C 
HETATM    2  C2  UNL     1     -36.434  14.782  -4.128  1.00 20.00    -0.075 C 
HETATM    3  C3  UNL     1     -34.922  14.632  -6.915  1.00 20.00     0.034 C 
HETATM    4  C4  UNL     1     -33.728  15.883  -2.882  1.00 20.00     0.034 C 
HETATM    5  C5  UNL     1     -34.823  13.743  -5.685  1.00 20.00     0.057 C 
HETATM    6  C6  UNL     1     -34.122  14.478  -3.314  1.00 20.00     0.057 C 
HETATM    7  C7  UNL     1     -34.216  15.899  -6.464  1.00 20.00     0.275 C 
HETATM    8  C8  UNL     1     -33.550  16.598  -4.211  1.00 20.00     0.275 C 
HETATM    9  C9  UNL     1     -35.012  14.728  -4.532  1.00 20.00     0.221 C 
HETATM   10  N10 UNL     1     -34.615  16.053  -5.060  1.00 20.00     0.110 N 
ENDROOT
TORSDOF 0
ENDMDL
MODEL 6
REMARK VINA RESULT:      -4.2      1.929      3.528
REMARK  0 active torsions:
REMARK  status: ('A' for Active; 'I' for Inactive)
ROOT
HETATM    1  C1  UNL     1     -37.463  14.775  -4.227  1.00 20.00     0.015 C 
HETATM    2  C2  UNL     1     -36.351  14.695  -4.670  1.00 20.00    -0.075 C 
HETATM    3  C3  UNL     1     -34.728  16.275  -6.894  1.00 20.00     0.034 C 
HETATM    4  C4  UNL     1     -33.552  13.767  -3.490  1.00 20.00     0.034 C 
HETATM    5  C5  UNL     1     -34.996  14.786  -6.732  1.00 20.00     0.057 C 
HETATM    6  C6  UNL     1     -34.306  13.312  -4.731  1.00 20.00     0.057 C 
HETATM    7  C7  UNL     1     -33.719  16.550  -5.791  1.00 20.00     0.275 C 
HETATM    8  C8  UNL     1     -33.063  15.149  -3.889  1.00 20.00     0.275 C 
HETATM    9  C9  UNL     1     -34.980  14.596  -5.216  1.00 20.00     0.221 C 
HETATM   10  N10 UNL     1     -34.168  15.710  -4.675  1.00 20.00     0.110 N 
ENDROOT
TORSDOF 0
ENDMDL
MODEL 7
REMARK VINA RESULT:      -4.1      2.057      3.581
REMARK  0 active torsions:
REMARK  status: ('A' for Active; 'I' for Inactive)
ROOT
HETATM    1  C1  UNL     1     -34.767  14.980  -7.830  1.00 20.00     0.015 C 
HETATM    2  C2  UNL     1     -34.543  15.118  -6.659  1.00 20.00    -0.075 C 
HETATM    3  C3  UNL     1     -33.863  17.606  -4.809  1.00 20.00     0.034 C 
HETATM    4  C4  UNL     1     -35.454  13.592  -4.027  1.00 20.00     0.034 C 
HETATM    5  C5  UNL     1     -33.129  16.288  -5.006  1.00 20.00     0.057 C 
HETATM    6  C6  UNL     1     -34.065  13.929  -4.548  1.00 20.00     0.057 C 
HETATM    7  C7  UNL     1     -35.082  17.187  -4.004  1.00 20.00     0.275 C 
HETATM    8  C8  UNL     1     -35.971  14.945  -3.568  1.00 20.00     0.275 C 
HETATM    9  C9  UNL     1     -34.267  15.289  -5.216  1.00 20.00     0.221 C 
HETATM   10  N10 UNL     1     -35.457  15.886  -4.569  1.00 20.00     0.110 N 
ENDROOT
TORSDOF 0
ENDMDL
MODEL 8
REMARK VINA RESULT:      -4.1      1.911      3.430
REMARK  0 active torsions:
REMARK  status: ('A' for Active; 'I' for Inactive)
ROOT
HETATM    1  C1  UNL     1     -35.173  14.515  -7.439  1.00 20.00     0.015 C 
HETATM    2  C2  UNL     1     -35.047  14.854  -6.295  1.00 20.00    -0.075 C 
HETATM    3  C3  UNL     1     -33.524  13.657  -3.780  1.00 20.00     0.034 C 
HETATM    4  C4  UNL     1     -35.020  17.655  -4.798  1.00 20.00     0.034 C 
HETATM    5  C5  UNL     1     -34.981  14.059  -3.957  1.00 20.00     0.057 C 
HETATM    6  C6  UNL     1     -35.860  16.409  -4.556  1.00 20.00     0.057 C 
HETATM    7  C7  UNL     1     -32.816  15.000  -3.721  1.00 20.00     0.275 C 
HETATM    8  C8  UNL     1     -33.652  17.233  -4.290  1.00 20.00     0.275 C 
HETATM    9  C9  UNL     1     -34.893  15.271  -4.884  1.00 20.00     0.221 C 
HETATM   10  N10 UNL     1     -33.533  15.828  -4.697  1.00 20.00     0.110 N 
ENDROOT
TORSDOF 0
ENDMDL
MODEL 9
REMARK VINA RESULT:      -4.1      1.582      3.261
REMARK  0 active torsions:
REMARK  status: ('A' for Active; 'I' for Inactive)
ROOT
HETATM    1  C1  UNL     1     -34.677  13.262  -4.618  1.00 20.00     0.015 C 
HETATM    2  C2  UNL     1     -34.438  14.413  -4.375  1.00 20.00    -0.075 C 
HETATM    3  C3  UNL     1     -34.330  17.070  -6.109  1.00 20.00     0.034 C 
HETATM    4  C4  UNL     1     -34.792  16.265  -1.820  1.00 20.00     0.034 C 
HETATM    5  C5  UNL     1     -33.292  16.444  -5.189  1.00 20.00     0.057 C 
HETATM    6  C6  UNL     1     -33.564  15.969  -2.668  1.00 20.00     0.057 C 
HETATM    7  C7  UNL     1     -35.357  17.609  -5.128  1.00 20.00     0.275 C 
HETATM    8  C8  UNL     1     -35.616  17.158  -2.732  1.00 20.00     0.275 C 
HETATM    9  C9  UNL     1     -34.143  15.831  -4.077  1.00 20.00     0.221 C 
HETATM   10  N10 UNL     1     -35.413  16.593  -4.071  1.00 20.00     0.110 N 
ENDROOT
TORSDOF 0
ENDMDL
