MODEL 1
REMARK VINA RESULT:      -4.1      0.000      0.000
REMARK  3 active torsions:
REMARK  status: ('A' for Active; 'I' for Inactive)
REMARK    1  A    between atoms: C8_8  and  C9_9 
REMARK    2  A    between atoms: C8_8  and  O11_11 
REMARK    3  A    between atoms: N10_10  and  O11_11 
ROOT
HETATM    1  C1  UNL     1     -35.488  15.063  -3.349  1.00 20.00     0.107 A 
HETATM    2  C2  UNL     1     -34.508  14.484  -4.361  1.00 20.00     0.049 A 
HETATM    3  C3  UNL     1     -36.952  15.154  -3.611  1.00 20.00     0.031 C 
HETATM    4  C4  UNL     1     -34.992  14.049  -5.721  1.00 20.00     0.036 C 
HETATM    5  C5  UNL     1     -33.366  13.658  -3.829  1.00 20.00     0.036 C 
HETATM    6  N10 UNL     1     -34.583  15.932  -4.090  1.00 20.00    -0.180 NA
ENDROOT
BRANCH   6   7
HETATM    7  O11 UNL     1     -33.506  16.332  -3.201  1.00 20.00    -0.302 OA
BRANCH   7   8
HETATM    8  C8  UNL     1     -33.918  17.515  -2.531  1.00 20.00     0.197 C 
BRANCH   8   9
HETATM    9  C9  UNL     1     -33.578  17.415  -1.041  1.00 20.00     0.003 C 
HETATM   10  C6  UNL     1     -32.984  18.725  -0.516  1.00 20.00     0.011 C 
HETATM   11  C7  UNL     1     -34.818  17.035  -0.236  1.00 20.00     0.011 C 
ENDBRANCH   8   9
ENDBRANCH   7   8
ENDBRANCH   6   7
TORSDOF 3
ENDMDL
MODEL 2
REMARK VINA RESULT:      -4.1      1.428      2.013
REMARK  3 active torsions:
REMARK  status: ('A' for Active; 'I' for Inactive)
REMARK    1  A    between atoms: C8_8  and  C9_9 
REMARK    2  A    between atoms: C8_8  and  O11_11 
REMARK    3  A    between atoms: N10_10  and  O11_11 
ROOT
HETATM    1  C1  UNL     1     -33.844  14.810  -4.050  1.00 20.00     0.107 A 
HETATM    2  C2  UNL     1     -34.121  15.755  -5.212  1.00 20.00     0.049 A 
HETATM    3  C3  UNL     1     -33.839  13.328  -4.204  1.00 20.00     0.031 C 
HETATM    4  C4  UNL     1     -34.483  15.204  -6.567  1.00 20.00     0.036 C 
HETATM    5  C5  UNL     1     -33.331  17.037  -5.268  1.00 20.00     0.036 C 
HETATM    6  N10 UNL     1     -35.111  15.525  -4.143  1.00 20.00    -0.180 NA
ENDROOT
BRANCH   6   7
HETATM    7  O11 UNL     1     -35.086  16.621  -3.192  1.00 20.00    -0.302 OA
BRANCH   7   8
HETATM    8  C8  UNL     1     -34.911  16.064  -1.896  1.00 20.00     0.197 C 
BRANCH   8   9
HETATM    9  C9  UNL     1     -34.100  17.024  -1.020  1.00 20.00     0.003 C 
HETATM   10  C6  UNL     1     -33.733  18.299  -1.783  1.00 20.00     0.011 C 
HETATM   11  C7  UNL     1     -34.876  17.370   0.249  1.00 20.00     0.011 C 
ENDBRANCH   8   9
ENDBRANCH   7   8
ENDBRANCH   6   7
TORSDOF 3
ENDMDL
MODEL 3
REMARK VINA RESULT:      -4.0      1.438      2.070
REMARK  3 active torsions:
REMARK  status: ('A' for Active; 'I' for Inactive)
REMARK    1  A    between atoms: C8_8  and  C9_9 
REMARK    2  A    between atoms: C8_8  and  O11_11 
REMARK    3  A    between atoms: N10_10  and  O11_11 
ROOT
HETATM    1  C1  UNL     1     -34.499  16.126  -4.372  1.00 20.00     0.107 A 
HETATM    2  C2  UNL     1     -34.792  14.713  -3.885  1.00 20.00     0.049 A 
HETATM    3  C3  UNL     1     -33.214  16.498  -5.028  1.00 20.00     0.031 C 
HETATM    4  C4  UNL     1     -33.735  13.643  -3.984  1.00 20.00     0.036 C 
HETATM    5  C5  UNL     1     -36.198  14.196  -4.055  1.00 20.00     0.036 C 
HETATM    6  N10 UNL     1     -34.501  15.815  -2.949  1.00 20.00    -0.180 NA
ENDROOT
BRANCH   6   7
HETATM    7  O11 UNL     1     -35.733  16.323  -2.373  1.00 20.00    -0.302 OA
BRANCH   7   8
HETATM    8  C8  UNL     1     -35.423  17.525  -1.683  1.00 20.00     0.197 C 
BRANCH   8   9
HETATM    9  C9  UNL     1     -34.447  17.233  -0.540  1.00 20.00     0.003 C 
HETATM   10  C6  UNL     1     -33.216  18.140  -0.612  1.00 20.00     0.011 C 
HETATM   11  C7  UNL     1     -35.145  17.391   0.810  1.00 20.00     0.011 C 
ENDBRANCH   8   9
ENDBRANCH   7   8
ENDBRANCH   6   7
TORSDOF 3
ENDMDL
MODEL 4
REMARK VINA RESULT:      -4.0      1.094      1.956
REMARK  3 active torsions:
REMARK  status: ('A' for Active; 'I' for Inactive)
REMARK    1  A    between atoms: C8_8  and  C9_9 
REMARK    2  A    between atoms: C8_8  and  O11_11 
REMARK    3  A    between atoms: N10_10  and  O11_11 
ROOT
HETATM    1  C1  UNL     1     -35.085  15.624  -5.657  1.00 20.00     0.107 A 
HETATM    2  C2  UNL     1     -35.267  14.620  -4.527  1.00 20.00     0.049 A 
HETATM    3  C3  UNL     1     -34.345  15.298  -6.908  1.00 20.00     0.031 C 
HETATM    4  C4  UNL     1     -34.622  13.260  -4.609  1.00 20.00     0.036 C 
HETATM    5  C5  UNL     1     -36.588  14.623  -3.800  1.00 20.00     0.036 C 
HETATM    6  N10 UNL     1     -34.340  15.762  -4.412  1.00 20.00    -0.180 NA
ENDROOT
BRANCH   6   7
HETATM    7  O11 UNL     1     -34.949  16.825  -3.633  1.00 20.00    -0.302 OA
BRANCH   7   8
HETATM    8  C8  UNL     1     -33.900  17.601  -3.071  1.00 20.00     0.197 C 
BRANCH   8   9
HETATM    9  C9  UNL     1     -33.615  17.135  -1.640  1.00 20.00     0.003 C 
HETATM   10  C6  UNL     1     -33.138  18.294  -0.761  1.00 20.00     0.011 C 
HETATM   11  C7  UNL     1     -34.857  16.486  -1.034  1.00 20.00     0.011 C 
ENDBRANCH   8   9
ENDBRANCH   7   8
ENDBRANCH   6   7
TORSDOF 3
ENDMDL
MODEL 5
REMARK VINA RESULT:      -4.0      0.804      1.297
REMARK  3 active torsions:
REMARK  status: ('A' for Active; 'I' for Inactive)
REMARK    1  A    between atoms: C8_8  and  C9_9 
REMARK    2  A    between atoms: C8_8  and  O11_11 
REMARK    3  A    between atoms: N10_10  and  O11_11 
ROOT
HETATM    1  C1  UNL     1     -35.630  15.028  -3.366  1.00 20.00     0.107 A 
HETATM    2  C2  UNL     1     -34.419  14.764  -4.252  1.00 20.00     0.049 A 
HETATM    3  C3  UNL     1     -37.011  15.148  -3.910  1.00 20.00     0.031 C 
HETATM    4  C4  UNL     1     -34.577  14.694  -5.750  1.00 20.00     0.036 C 
HETATM    5  C5  UNL     1     -33.346  13.855  -3.710  1.00 20.00     0.036 C 
HETATM    6  N10 UNL     1     -34.666  16.085  -3.644  1.00 20.00    -0.180 NA
ENDROOT
BRANCH   6   7
HETATM    7  O11 UNL     1     -33.831  16.261  -2.470  1.00 20.00    -0.302 OA
BRANCH   7   8
HETATM    8  C8  UNL     1     -34.682  16.260  -1.332  1.00 20.00     0.197 C 
BRANCH   8   9
HETATM    9  C9  UNL     1     -34.607  17.616  -0.623  1.00 20.00     0.003 C 
HETATM   10  C6  UNL     1     -35.123  17.522   0.815  1.00 20.00     0.011 C 
HETATM   11  C7  UNL     1     -33.176  18.147  -0.641  1.00 20.00     0.011 C 
ENDBRANCH   8   9
ENDBRANCH   7   8
ENDBRANCH   6   7
TORSDOF 3
ENDMDL
MODEL 6
REMARK VINA RESULT:      -4.0      1.281      1.447
REMARK  3 active torsions:
REMARK  status: ('A' for Active; 'I' for Inactive)
REMARK    1  A    between atoms: C8_8  and  C9_9 
REMARK    2  A    between atoms: C8_8  and  O11_11 
REMARK    3  A    between atoms: N10_10  and  O11_11 
ROOT
HETATM    1  C1  UNL     1     -35.626  15.724  -4.695  1.00 20.00     0.107 A 
HETATM    2  C2  UNL     1     -34.703  14.718  -5.371  1.00 20.00     0.049 A 
HETATM    3  C3  UNL     1     -36.370  16.767  -5.455  1.00 20.00     0.031 C 
HETATM    4  C4  UNL     1     -34.449  14.801  -6.855  1.00 20.00     0.036 C 
HETATM    5  C5  UNL     1     -34.692  13.311  -4.830  1.00 20.00     0.036 C 
HETATM    6  N10 UNL     1     -34.179  15.839  -4.569  1.00 20.00    -0.180 NA
ENDROOT
BRANCH   6   7
HETATM    7  O11 UNL     1     -33.799  15.375  -3.247  1.00 20.00    -0.302 OA
BRANCH   7   8
HETATM    8  C8  UNL     1     -34.714  15.933  -2.314  1.00 20.00     0.197 C 
BRANCH   8   9
HETATM    9  C9  UNL     1     -33.981  16.894  -1.374  1.00 20.00     0.003 C 
HETATM   10  C6  UNL     1     -33.738  18.250  -2.042  1.00 20.00     0.011 C 
HETATM   11  C7  UNL     1     -34.768  17.074  -0.077  1.00 20.00     0.011 C 
ENDBRANCH   8   9
ENDBRANCH   7   8
ENDBRANCH   6   7
TORSDOF 3
ENDMDL
MODEL 7
REMARK VINA RESULT:      -3.9      1.389      4.558
REMARK  3 active torsions:
REMARK  status: ('A' for Active; 'I' for Inactive)
REMARK    1  A    between atoms: C8_8  and  C9_9 
REMARK    2  A    between atoms: C8_8  and  O11_11 
REMARK    3  A    between atoms: N10_10  and  O11_11 
ROOT
HETATM    1  C1  UNL     1     -34.104  17.055  -3.363  1.00 20.00     0.107 A 
HETATM    2  C2  UNL     1     -34.956  17.362  -2.138  1.00 20.00     0.049 A 
HETATM    3  C3  UNL     1     -33.766  18.085  -4.384  1.00 20.00     0.031 C 
HETATM    4  C4  UNL     1     -35.562  18.730  -1.961  1.00 20.00     0.036 C 
HETATM    5  C5  UNL     1     -34.578  16.691  -0.842  1.00 20.00     0.036 C 
HETATM    6  N10 UNL     1     -35.477  16.574  -3.272  1.00 20.00    -0.180 NA
ENDROOT
BRANCH   6   7
HETATM    7  O11 UNL     1     -35.444  15.158  -2.956  1.00 20.00    -0.302 OA
BRANCH   7   8
HETATM    8  C8  UNL     1     -36.062  14.462  -4.029  1.00 20.00     0.197 C 
BRANCH   8   9
HETATM    9  C9  UNL     1     -35.004  13.707  -4.840  1.00 20.00     0.003 C 
HETATM   10  C6  UNL     1     -34.651  14.454  -6.128  1.00 20.00     0.011 C 
HETATM   11  C7  UNL     1     -33.750  13.479  -3.997  1.00 20.00     0.011 C 
ENDBRANCH   8   9
ENDBRANCH   7   8
ENDBRANCH   6   7
TORSDOF 3
ENDMDL
MODEL 8
REMARK VINA RESULT:      -3.8     10.835     11.866
REMARK  3 active torsions:
REMARK  status: ('A' for Active; 'I' for Inactive)
REMARK    1  A    between atoms: C8_8  and  C9_9 
REMARK    2  A    between atoms: C8_8  and  O11_11 
REMARK    3  A    between atoms: N10_10  and  O11_11 
ROOT
HETATM    1  C1  UNL     1     -34.705   6.289   4.216  1.00 20.00     0.107 A 
HETATM    2  C2  UNL     1     -33.963   5.984   5.510  1.00 20.00     0.049 A 
HETATM    3  C3  UNL     1     -35.805   5.428   3.699  1.00 20.00     0.031 C 
HETATM    4  C4  UNL     1     -34.275   4.729   6.285  1.00 20.00     0.036 C 
HETATM    5  C5  UNL     1     -33.570   7.152   6.378  1.00 20.00     0.036 C 
HETATM    6  N10 UNL     1     -33.339   5.782   4.189  1.00 20.00    -0.180 NA
ENDROOT
BRANCH   6   7
HETATM    7  O11 UNL     1     -32.449   6.886   3.881  1.00 20.00    -0.302 OA
BRANCH   7   8
HETATM    8  C8  UNL     1     -32.484   7.089   2.475  1.00 20.00     0.197 C 
BRANCH   8   9
HETATM    9  C9  UNL     1     -31.915   8.469   2.132  1.00 20.00     0.003 C 
HETATM   10  C6  UNL     1     -31.430   8.526   0.682  1.00 20.00     0.011 C 
HETATM   11  C7  UNL     1     -32.960   9.554   2.386  1.00 20.00     0.011 C 
ENDBRANCH   8   9
ENDBRANCH   7   8
ENDBRANCH   6   7
TORSDOF 3
ENDMDL
MODEL 9
REMARK VINA RESULT:      -3.8      1.704      4.396
REMARK  3 active torsions:
REMARK  status: ('A' for Active; 'I' for Inactive)
REMARK    1  A    between atoms: C8_8  and  C9_9 
REMARK    2  A    between atoms: C8_8  and  O11_11 
REMARK    3  A    between atoms: N10_10  and  O11_11 
ROOT
HETATM    1  C1  UNL     1     -36.179  17.543  -2.800  1.00 20.00     0.107 A 
HETATM    2  C2  UNL     1     -34.839  16.881  -2.510  1.00 20.00     0.049 A 
HETATM    3  C3  UNL     1     -37.007  18.179  -1.737  1.00 20.00     0.031 C 
HETATM    4  C4  UNL     1     -34.336  16.778  -1.093  1.00 20.00     0.036 C 
HETATM    5  C5  UNL     1     -33.745  17.049  -3.533  1.00 20.00     0.036 C 
HETATM    6  N10 UNL     1     -36.046  16.092  -2.819  1.00 20.00    -0.180 NA
ENDROOT
BRANCH   6   7
HETATM    7  O11 UNL     1     -36.019  15.655  -4.203  1.00 20.00    -0.302 OA
BRANCH   7   8
HETATM    8  C8  UNL     1     -36.133  14.239  -4.210  1.00 20.00     0.197 C 
BRANCH   8   9
HETATM    9  C9  UNL     1     -34.945  13.624  -4.955  1.00 20.00     0.003 C 
HETATM   10  C6  UNL     1     -34.579  14.444  -6.195  1.00 20.00     0.011 C 
HETATM   11  C7  UNL     1     -33.739  13.502  -4.025  1.00 20.00     0.011 C 
ENDBRANCH   8   9
ENDBRANCH   7   8
ENDBRANCH   6   7
TORSDOF 3
ENDMDL
