MODEL 1
REMARK VINA RESULT:      -3.7      0.000      0.000
REMARK  0 active torsions:
REMARK  status: ('A' for Active; 'I' for Inactive)
ROOT
HETATM    1  C1  UNL     1     -35.741  15.231  -3.534  1.00 20.00     0.080 A 
HETATM    2  C2  UNL     1     -34.629  16.278  -1.437  1.00 20.00     0.019 A 
HETATM    3  C3  UNL     1     -33.375  15.138  -3.442  1.00 20.00     0.128 A 
HETATM    4  C4  UNL     1     -35.319  16.425  -2.767  1.00 20.00     0.053 A 
HETATM    5  C5  UNL     1     -33.813  16.362  -2.697  1.00 20.00     0.015 A 
HETATM    6  C6  UNL     1     -34.556  13.290  -4.679  1.00 20.00     0.150 C 
HETATM    7  N7  UNL     1     -34.613  14.525  -3.915  1.00 20.00    -0.379 N 
HETATM    8  S8  UNL     1     -37.355  14.961  -3.773  1.00 20.00    -0.065 SA
ENDROOT
TORSDOF 0
ENDMDL
MODEL 2
REMARK VINA RESULT:      -3.6     12.298     12.734
REMARK  0 active torsions:
REMARK  status: ('A' for Active; 'I' for Inactive)
ROOT
HETATM    1  C1  UNL     1     -34.268   5.577   3.836  1.00 20.00     0.080 A 
HETATM    2  C2  UNL     1     -34.721   4.061   5.892  1.00 20.00     0.019 A 
HETATM    3  C3  UNL     1     -33.598   6.434   5.941  1.00 20.00     0.128 A 
HETATM    4  C4  UNL     1     -35.210   5.003   4.825  1.00 20.00     0.053 A 
HETATM    5  C5  UNL     1     -34.778   5.539   6.167  1.00 20.00     0.015 A 
HETATM    6  C6  UNL     1     -32.274   7.158   3.925  1.00 20.00     0.150 C 
HETATM    7  N7  UNL     1     -33.371   6.396   4.499  1.00 20.00    -0.379 N 
HETATM    8  S8  UNL     1     -34.430   5.164   2.243  1.00 20.00    -0.065 SA
ENDROOT
TORSDOF 0
ENDMDL
MODEL 3
REMARK VINA RESULT:      -3.6      2.336      2.795
REMARK  0 active torsions:
REMARK  status: ('A' for Active; 'I' for Inactive)
ROOT
HETATM    1  C1  UNL     1     -33.886  15.973  -5.109  1.00 20.00     0.080 A 
HETATM    2  C2  UNL     1     -34.708  15.089  -2.812  1.00 20.00     0.019 A 
HETATM    3  C3  UNL     1     -34.434  13.669  -5.003  1.00 20.00     0.128 A 
HETATM    4  C4  UNL     1     -33.598  15.552  -3.718  1.00 20.00     0.053 A 
HETATM    5  C5  UNL     1     -33.957  14.088  -3.646  1.00 20.00     0.015 A 
HETATM    6  C6  UNL     1     -34.753  14.832  -7.214  1.00 20.00     0.150 C 
HETATM    7  N7  UNL     1     -34.349  14.878  -5.818  1.00 20.00    -0.379 N 
HETATM    8  S8  UNL     1     -33.639  17.551  -5.535  1.00 20.00    -0.065 SA
ENDROOT
TORSDOF 0
ENDMDL
MODEL 4
REMARK VINA RESULT:      -3.5     12.159     12.643
REMARK  0 active torsions:
REMARK  status: ('A' for Active; 'I' for Inactive)
ROOT
HETATM    1  C1  UNL     1     -33.860   6.335   5.272  1.00 20.00     0.080 A 
HETATM    2  C2  UNL     1     -32.351   6.122   3.172  1.00 20.00     0.019 A 
HETATM    3  C3  UNL     1     -34.562   4.780   3.626  1.00 20.00     0.128 A 
HETATM    4  C4  UNL     1     -33.379   6.871   3.977  1.00 20.00     0.053 A 
HETATM    5  C5  UNL     1     -33.815   5.877   2.929  1.00 20.00     0.015 A 
HETATM    6  C6  UNL     1     -35.175   4.287   6.018  1.00 20.00     0.150 C 
HETATM    7  N7  UNL     1     -34.540   5.152   5.038  1.00 20.00    -0.379 N 
HETATM    8  S8  UNL     1     -33.520   7.168   6.659  1.00 20.00    -0.065 SA
ENDROOT
TORSDOF 0
ENDMDL
MODEL 5
REMARK VINA RESULT:      -3.5      2.327      3.144
REMARK  0 active torsions:
REMARK  status: ('A' for Active; 'I' for Inactive)
ROOT
HETATM    1  C1  UNL     1     -34.334  15.313  -5.579  1.00 20.00     0.080 A 
HETATM    2  C2  UNL     1     -33.464  13.629  -3.807  1.00 20.00     0.019 A 
HETATM    3  C3  UNL     1     -33.819  16.206  -3.445  1.00 20.00     0.128 A 
HETATM    4  C4  UNL     1     -34.591  14.222  -4.611  1.00 20.00     0.053 A 
HETATM    5  C5  UNL     1     -34.253  14.784  -3.253  1.00 20.00     0.015 A 
HETATM    6  C6  UNL     1     -33.542  17.729  -5.431  1.00 20.00     0.150 C 
HETATM    7  N7  UNL     1     -33.908  16.433  -4.884  1.00 20.00    -0.379 N 
HETATM    8  S8  UNL     1     -34.569  15.027  -7.190  1.00 20.00    -0.065 SA
ENDROOT
TORSDOF 0
ENDMDL
MODEL 6
REMARK VINA RESULT:      -3.4      1.456      2.746
REMARK  0 active torsions:
REMARK  status: ('A' for Active; 'I' for Inactive)
ROOT
HETATM    1  C1  UNL     1     -35.254  15.484  -3.858  1.00 20.00     0.080 A 
HETATM    2  C2  UNL     1     -34.432  13.263  -4.918  1.00 20.00     0.019 A 
HETATM    3  C3  UNL     1     -32.918  15.090  -3.793  1.00 20.00     0.128 A 
HETATM    4  C4  UNL     1     -35.093  14.013  -3.793  1.00 20.00     0.053 A 
HETATM    5  C5  UNL     1     -33.607  13.759  -3.763  1.00 20.00     0.015 A 
HETATM    6  C6  UNL     1     -33.682  17.487  -3.896  1.00 20.00     0.150 C 
HETATM    7  N7  UNL     1     -33.999  16.069  -3.845  1.00 20.00    -0.379 N 
HETATM    8  S8  UNL     1     -36.777  16.121  -3.942  1.00 20.00    -0.065 SA
ENDROOT
TORSDOF 0
ENDMDL
MODEL 7
REMARK VINA RESULT:      -3.4     11.326     12.175
REMARK  0 active torsions:
REMARK  status: ('A' for Active; 'I' for Inactive)
ROOT
HETATM    1  C1  UNL     1     -42.237   6.123  -2.482  1.00 20.00     0.080 A 
HETATM    2  C2  UNL     1     -41.463   6.204  -0.007  1.00 20.00     0.019 A 
HETATM    3  C3  UNL     1     -41.379   4.105  -1.582  1.00 20.00     0.128 A 
HETATM    4  C4  UNL     1     -41.242   6.526  -1.462  1.00 20.00     0.053 A 
HETATM    5  C5  UNL     1     -40.703   5.243  -0.879  1.00 20.00     0.015 A 
HETATM    6  C6  UNL     1     -43.119   3.914  -3.392  1.00 20.00     0.150 C 
HETATM    7  N7  UNL     1     -42.284   4.740  -2.536  1.00 20.00    -0.379 N 
HETATM    8  S8  UNL     1     -43.061   7.296  -3.305  1.00 20.00    -0.065 SA
ENDROOT
TORSDOF 0
ENDMDL
MODEL 8
REMARK VINA RESULT:      -3.3      1.935      2.407
REMARK  0 active torsions:
REMARK  status: ('A' for Active; 'I' for Inactive)
ROOT
HETATM    1  C1  UNL     1     -34.358  15.553  -3.323  1.00 20.00     0.080 A 
HETATM    2  C2  UNL     1     -34.340  16.691  -0.991  1.00 20.00     0.019 A 
HETATM    3  C3  UNL     1     -34.425  17.922  -3.309  1.00 20.00     0.128 A 
HETATM    4  C4  UNL     1     -35.059  15.930  -2.073  1.00 20.00     0.053 A 
HETATM    5  C5  UNL     1     -35.093  17.439  -2.057  1.00 20.00     0.015 A 
HETATM    6  C6  UNL     1     -33.323  16.809  -5.281  1.00 20.00     0.150 C 
HETATM    7  N7  UNL     1     -34.021  16.706  -4.010  1.00 20.00    -0.379 N 
HETATM    8  S8  UNL     1     -34.109  13.951  -3.648  1.00 20.00    -0.065 SA
ENDROOT
TORSDOF 0
ENDMDL
MODEL 9
REMARK VINA RESULT:      -3.3      1.625      2.393
REMARK  0 active torsions:
REMARK  status: ('A' for Active; 'I' for Inactive)
ROOT
HETATM    1  C1  UNL     1     -35.052  14.534  -3.791  1.00 20.00     0.080 A 
HETATM    2  C2  UNL     1     -33.575  16.630  -3.392  1.00 20.00     0.019 A 
HETATM    3  C3  UNL     1     -36.030  16.283  -2.526  1.00 20.00     0.128 A 
HETATM    4  C4  UNL     1     -33.931  15.199  -3.087  1.00 20.00     0.053 A 
HETATM    5  C5  UNL     1     -34.550  16.320  -2.289  1.00 20.00     0.015 A 
HETATM    6  C6  UNL     1     -37.576  14.846  -3.898  1.00 20.00     0.150 C 
HETATM    7  N7  UNL     1     -36.234  15.165  -3.443  1.00 20.00    -0.379 N 
HETATM    8  S8  UNL     1     -34.724  13.265  -4.799  1.00 20.00    -0.065 SA
ENDROOT
TORSDOF 0
ENDMDL
