MODEL 1
REMARK VINA RESULT:      -4.5      0.000      0.000
REMARK  3 active torsions:
REMARK  status: ('A' for Active; 'I' for Inactive)
REMARK    1  A    between atoms: C3_3  and  C7_7 
REMARK    2  A    between atoms: C4_4  and  C6_6 
REMARK    3  A    between atoms: C4_4  and  O11_11 
ROOT
HETATM    1  C1  UNL     1     -37.000  14.468  -4.068  1.00 20.00     0.074 C 
HETATM    2  C5  UNL     1     -34.731  13.388  -4.092  1.00 20.00     0.046 A 
HETATM    3  C6  UNL     1     -34.639  14.599  -3.211  1.00 20.00     0.114 A 
HETATM    4  C7  UNL     1     -35.598  14.597  -4.401  1.00 20.00     0.079 A 
HETATM    5  N9  UNL     1     -38.124  14.364  -3.801  1.00 20.00    -0.196 NA
ENDROOT
BRANCH   4   6
HETATM    6  C3  UNL     1     -35.205  15.370  -5.591  1.00 20.00    -0.012 C 
HETATM    7  C2  UNL     1     -34.752  14.822  -6.724  1.00 20.00     0.008 C 
ENDBRANCH   4   6
BRANCH   3   8
HETATM    8  C4  UNL     1     -33.408  15.403  -3.221  1.00 20.00     0.264 C 
HETATM    9  O10 UNL     1     -32.350  15.032  -3.711  1.00 20.00    -0.265 OA
BRANCH   8  10
HETATM   10  O11 UNL     1     -33.640  16.599  -2.605  1.00 20.00    -0.326 OA
HETATM   11  C8  UNL     1     -34.434  16.533  -1.416  1.00 20.00     0.213 C 
ENDBRANCH   8  10
ENDBRANCH   3   8
TORSDOF 3
ENDMDL
MODEL 2
REMARK VINA RESULT:      -4.5      2.704      4.047
REMARK  3 active torsions:
REMARK  status: ('A' for Active; 'I' for Inactive)
REMARK    1  A    between atoms: C3_3  and  C7_7 
REMARK    2  A    between atoms: C4_4  and  C6_6 
REMARK    3  A    between atoms: C4_4  and  O11_11 
ROOT
HETATM    1  C1  UNL     1     -33.761  17.417  -3.829  1.00 20.00     0.074 C 
HETATM    2  C5  UNL     1     -32.953  15.040  -3.714  1.00 20.00     0.046 A 
HETATM    3  C6  UNL     1     -34.224  15.040  -4.510  1.00 20.00     0.114 A 
HETATM    4  C7  UNL     1     -34.029  16.064  -3.392  1.00 20.00     0.079 A 
HETATM    5  N9  UNL     1     -33.546  18.501  -4.180  1.00 20.00    -0.196 NA
ENDROOT
BRANCH   4   6
HETATM    6  C3  UNL     1     -34.758  15.841  -2.133  1.00 20.00    -0.012 C 
HETATM    7  C2  UNL     1     -34.581  16.572  -1.026  1.00 20.00     0.008 C 
ENDBRANCH   4   6
BRANCH   3   8
HETATM    8  C4  UNL     1     -35.164  13.918  -4.365  1.00 20.00     0.264 C 
HETATM    9  O10 UNL     1     -34.834  12.786  -4.037  1.00 20.00    -0.265 OA
BRANCH   8  10
HETATM   10  O11 UNL     1     -36.428  14.343  -4.651  1.00 20.00    -0.326 OA
HETATM   11  C8  UNL     1     -36.558  15.130  -5.839  1.00 20.00     0.213 C 
ENDBRANCH   8  10
ENDBRANCH   3   8
TORSDOF 3
ENDMDL
MODEL 3
REMARK VINA RESULT:      -4.3      1.897      3.524
REMARK  3 active torsions:
REMARK  status: ('A' for Active; 'I' for Inactive)
REMARK    1  A    between atoms: C3_3  and  C7_7 
REMARK    2  A    between atoms: C4_4  and  C6_6 
REMARK    3  A    between atoms: C4_4  and  O11_11 
ROOT
HETATM    1  C1  UNL     1     -36.183  17.023  -3.182  1.00 20.00     0.074 C 
HETATM    2  C5  UNL     1     -33.737  17.062  -3.754  1.00 20.00     0.046 A 
HETATM    3  C6  UNL     1     -34.224  15.661  -3.977  1.00 20.00     0.114 A 
HETATM    4  C7  UNL     1     -34.860  16.521  -2.885  1.00 20.00     0.079 A 
HETATM    5  N9  UNL     1     -37.245  17.426  -3.421  1.00 20.00    -0.196 NA
ENDROOT
BRANCH   4   6
HETATM    6  C3  UNL     1     -34.494  16.226  -1.490  1.00 20.00    -0.012 C 
HETATM    7  C2  UNL     1     -34.782  17.024  -0.456  1.00 20.00     0.008 C 
ENDBRANCH   4   6
BRANCH   3   8
HETATM    8  C4  UNL     1     -33.343  14.532  -3.646  1.00 20.00     0.264 C 
HETATM    9  O10 UNL     1     -32.128  14.621  -3.529  1.00 20.00    -0.265 OA
BRANCH   8  10
HETATM   10  O11 UNL     1     -34.089  13.399  -3.497  1.00 20.00    -0.326 OA
HETATM   11  C8  UNL     1     -35.141  13.227  -4.452  1.00 20.00     0.213 C 
ENDBRANCH   8  10
ENDBRANCH   3   8
TORSDOF 3
ENDMDL
MODEL 4
REMARK VINA RESULT:      -4.2      2.633      3.861
REMARK  3 active torsions:
REMARK  status: ('A' for Active; 'I' for Inactive)
REMARK    1  A    between atoms: C3_3  and  C7_7 
REMARK    2  A    between atoms: C4_4  and  C6_6 
REMARK    3  A    between atoms: C4_4  and  O11_11 
ROOT
HETATM    1  C1  UNL     1     -35.006  17.553  -3.998  1.00 20.00     0.074 C 
HETATM    2  C5  UNL     1     -33.844  15.432  -4.678  1.00 20.00     0.046 A 
HETATM    3  C6  UNL     1     -35.317  15.149  -4.666  1.00 20.00     0.114 A 
HETATM    4  C7  UNL     1     -34.731  16.168  -3.688  1.00 20.00     0.079 A 
HETATM    5  N9  UNL     1     -35.226  18.665  -4.246  1.00 20.00    -0.196 NA
ENDROOT
BRANCH   4   6
HETATM    6  C3  UNL     1     -34.588  15.754  -2.282  1.00 20.00    -0.012 C 
HETATM    7  C2  UNL     1     -34.623  16.600  -1.246  1.00 20.00     0.008 C 
ENDBRANCH   4   6
BRANCH   3   8
HETATM    8  C4  UNL     1     -35.792  13.834  -4.208  1.00 20.00     0.264 C 
HETATM    9  O10 UNL     1     -35.101  12.825  -4.186  1.00 20.00    -0.265 OA
BRANCH   8  10
HETATM   10  O11 UNL     1     -37.099  13.930  -3.827  1.00 20.00    -0.326 OA
HETATM   11  C8  UNL     1     -37.883  14.880  -4.555  1.00 20.00     0.213 C 
ENDBRANCH   8  10
ENDBRANCH   3   8
TORSDOF 3
ENDMDL
MODEL 5
REMARK VINA RESULT:      -4.2      2.022      2.399
REMARK  3 active torsions:
REMARK  status: ('A' for Active; 'I' for Inactive)
REMARK    1  A    between atoms: C3_3  and  C7_7 
REMARK    2  A    between atoms: C4_4  and  C6_6 
REMARK    3  A    between atoms: C4_4  and  O11_11 
ROOT
HETATM    1  C1  UNL     1     -34.716  13.852  -4.416  1.00 20.00     0.074 C 
HETATM    2  C5  UNL     1     -33.269  15.906  -4.383  1.00 20.00     0.046 A 
HETATM    3  C6  UNL     1     -33.680  15.628  -2.967  1.00 20.00     0.114 A 
HETATM    4  C7  UNL     1     -34.620  15.263  -4.116  1.00 20.00     0.079 A 
HETATM    5  N9  UNL     1     -34.792  12.720  -4.657  1.00 20.00    -0.196 NA
ENDROOT
BRANCH   4   6
HETATM    6  C3  UNL     1     -35.788  16.132  -4.339  1.00 20.00    -0.012 C 
HETATM    7  C2  UNL     1     -36.510  16.142  -5.465  1.00 20.00     0.008 C 
ENDBRANCH   4   6
BRANCH   3   8
HETATM    8  C4  UNL     1     -33.971  16.754  -2.068  1.00 20.00     0.264 C 
HETATM    9  O10 UNL     1     -33.619  17.907  -2.278  1.00 20.00    -0.265 OA
BRANCH   8  10
HETATM   10  O11 UNL     1     -34.677  16.306  -0.990  1.00 20.00    -0.326 OA
HETATM   11  C8  UNL     1     -34.820  17.243   0.083  1.00 20.00     0.213 C 
ENDBRANCH   8  10
ENDBRANCH   3   8
TORSDOF 3
ENDMDL
MODEL 6
REMARK VINA RESULT:      -4.1      2.991      4.175
REMARK  3 active torsions:
REMARK  status: ('A' for Active; 'I' for Inactive)
REMARK    1  A    between atoms: C3_3  and  C7_7 
REMARK    2  A    between atoms: C4_4  and  C6_6 
REMARK    3  A    between atoms: C4_4  and  O11_11 
ROOT
HETATM    1  C1  UNL     1     -33.694  15.809  -4.388  1.00 20.00     0.074 C 
HETATM    2  C5  UNL     1     -35.178  13.807  -4.071  1.00 20.00     0.046 A 
HETATM    3  C6  UNL     1     -36.029  14.908  -4.633  1.00 20.00     0.114 A 
HETATM    4  C7  UNL     1     -34.849  15.249  -3.723  1.00 20.00     0.079 A 
HETATM    5  N9  UNL     1     -32.767  16.258  -4.923  1.00 20.00    -0.196 NA
ENDROOT
BRANCH   4   6
HETATM    6  C3  UNL     1     -35.153  15.650  -2.339  1.00 20.00    -0.012 C 
HETATM    7  C2  UNL     1     -34.386  16.472  -1.613  1.00 20.00     0.008 C 
ENDBRANCH   4   6
BRANCH   3   8
HETATM    8  C4  UNL     1     -37.418  15.050  -4.171  1.00 20.00     0.264 C 
HETATM    9  O10 UNL     1     -38.066  14.148  -3.658  1.00 20.00    -0.265 OA
BRANCH   8  10
HETATM   10  O11 UNL     1     -37.849  16.323  -4.408  1.00 20.00    -0.326 OA
HETATM   11  C8  UNL     1     -37.550  16.841  -5.708  1.00 20.00     0.213 C 
ENDBRANCH   8  10
ENDBRANCH   3   8
TORSDOF 3
ENDMDL
MODEL 7
REMARK VINA RESULT:      -4.1      2.373      3.579
REMARK  3 active torsions:
REMARK  status: ('A' for Active; 'I' for Inactive)
REMARK    1  A    between atoms: C3_3  and  C7_7 
REMARK    2  A    between atoms: C4_4  and  C6_6 
REMARK    3  A    between atoms: C4_4  and  O11_11 
ROOT
HETATM    1  C1  UNL     1     -34.609  16.473  -1.427  1.00 20.00     0.074 C 
HETATM    2  C5  UNL     1     -35.974  15.792  -3.424  1.00 20.00     0.046 A 
HETATM    3  C6  UNL     1     -35.093  14.631  -3.071  1.00 20.00     0.114 A 
HETATM    4  C7  UNL     1     -34.609  16.058  -2.813  1.00 20.00     0.079 A 
HETATM    5  N9  UNL     1     -34.610  16.805  -0.316  1.00 20.00    -0.196 NA
ENDROOT
BRANCH   4   6
HETATM    6  C3  UNL     1     -33.601  16.610  -3.733  1.00 20.00    -0.012 C 
HETATM    7  C2  UNL     1     -33.676  17.827  -4.283  1.00 20.00     0.008 C 
ENDBRANCH   4   6
BRANCH   3   8
HETATM    8  C4  UNL     1     -34.518  13.811  -4.148  1.00 20.00     0.264 C 
HETATM    9  O10 UNL     1     -33.481  13.170  -4.043  1.00 20.00    -0.265 OA
BRANCH   8  10
HETATM   10  O11 UNL     1     -35.315  13.887  -5.253  1.00 20.00    -0.326 OA
HETATM   11  C8  UNL     1     -34.684  14.401  -6.431  1.00 20.00     0.213 C 
ENDBRANCH   8  10
ENDBRANCH   3   8
TORSDOF 3
ENDMDL
MODEL 8
REMARK VINA RESULT:      -4.1      1.980      2.381
REMARK  3 active torsions:
REMARK  status: ('A' for Active; 'I' for Inactive)
REMARK    1  A    between atoms: C3_3  and  C7_7 
REMARK    2  A    between atoms: C4_4  and  C6_6 
REMARK    3  A    between atoms: C4_4  and  O11_11 
ROOT
HETATM    1  C1  UNL     1     -34.468  13.644  -4.689  1.00 20.00     0.074 C 
HETATM    2  C5  UNL     1     -32.919  15.210  -3.481  1.00 20.00     0.046 A 
HETATM    3  C6  UNL     1     -34.318  15.556  -3.063  1.00 20.00     0.114 A 
HETATM    4  C7  UNL     1     -34.058  15.012  -4.467  1.00 20.00     0.079 A 
HETATM    5  N9  UNL     1     -34.797  12.545  -4.867  1.00 20.00    -0.196 NA
ENDROOT
BRANCH   4   6
HETATM    6  C3  UNL     1     -34.100  15.971  -5.584  1.00 20.00    -0.012 C 
HETATM    7  C2  UNL     1     -34.230  15.619  -6.868  1.00 20.00     0.008 C 
ENDBRANCH   4   6
BRANCH   3   8
HETATM    8  C4  UNL     1     -34.674  16.965  -2.841  1.00 20.00     0.264 C 
HETATM    9  O10 UNL     1     -35.791  17.428  -3.029  1.00 20.00    -0.265 OA
BRANCH   8  10
HETATM   10  O11 UNL     1     -33.577  17.649  -2.405  1.00 20.00    -0.326 OA
HETATM   11  C8  UNL     1     -33.545  17.929  -1.001  1.00 20.00     0.213 C 
ENDBRANCH   8  10
ENDBRANCH   3   8
TORSDOF 3
ENDMDL
MODEL 9
REMARK VINA RESULT:      -4.0      2.977      4.195
REMARK  3 active torsions:
REMARK  status: ('A' for Active; 'I' for Inactive)
REMARK    1  A    between atoms: C3_3  and  C7_7 
REMARK    2  A    between atoms: C4_4  and  C6_6 
REMARK    3  A    between atoms: C4_4  and  O11_11 
ROOT
HETATM    1  C1  UNL     1     -34.746  16.132  -1.823  1.00 20.00     0.074 C 
HETATM    2  C5  UNL     1     -35.336  16.477  -4.241  1.00 20.00     0.046 A 
HETATM    3  C6  UNL     1     -36.543  15.895  -3.567  1.00 20.00     0.114 A 
HETATM    4  C7  UNL     1     -35.145  15.524  -3.073  1.00 20.00     0.079 A 
HETATM    5  N9  UNL     1     -34.427  16.620  -0.820  1.00 20.00    -0.196 NA
ENDROOT
BRANCH   4   6
HETATM    6  C3  UNL     1     -34.635  14.188  -3.423  1.00 20.00    -0.012 C 
HETATM    7  C2  UNL     1     -33.360  13.933  -3.738  1.00 20.00     0.008 C 
ENDBRANCH   4   6
BRANCH   3   8
HETATM    8  C4  UNL     1     -37.379  14.930  -4.296  1.00 20.00     0.264 C 
HETATM    9  O10 UNL     1     -38.139  14.137  -3.758  1.00 20.00    -0.265 OA
BRANCH   8  10
HETATM   10  O11 UNL     1     -37.166  15.065  -5.637  1.00 20.00    -0.326 OA
HETATM   11  C8  UNL     1     -38.322  15.398  -6.413  1.00 20.00     0.213 C 
ENDBRANCH   8  10
ENDBRANCH   3   8
TORSDOF 3
ENDMDL
