MODEL 1
REMARK VINA RESULT:      -4.6      0.000      0.000
REMARK  0 active torsions:
REMARK  status: ('A' for Active; 'I' for Inactive)
ROOT
HETATM    1  C1  UNL     1     -35.271  16.099  -2.209  1.00 20.00    -0.014 C 
HETATM    2  C2  UNL     1     -33.951  16.124  -2.460  1.00 20.00    -0.004 C 
HETATM    3  C3  UNL     1     -34.535  13.624  -4.142  1.00 20.00     0.203 A 
HETATM    4  C4  UNL     1     -36.058  15.405  -3.287  1.00 20.00     0.126 C 
HETATM    5  C5  UNL     1     -33.091  14.067  -3.831  1.00 20.00     0.126 A 
HETATM    6  C6  UNL     1     -33.655  15.504  -3.782  1.00 20.00     0.042 A 
HETATM    7  C7  UNL     1     -33.174  16.473  -4.845  1.00 20.00     0.038 C 
HETATM    8  N8  UNL     1     -34.977  14.920  -4.131  1.00 20.00    -0.237 NA
HETATM    9  O9  UNL     1     -35.115  12.565  -4.236  1.00 20.00    -0.280 OA
ENDROOT
TORSDOF 0
ENDMDL
MODEL 2
REMARK VINA RESULT:      -4.2      0.908      2.395
REMARK  0 active torsions:
REMARK  status: ('A' for Active; 'I' for Inactive)
ROOT
HETATM    1  C1  UNL     1     -33.257  16.486  -4.562  1.00 20.00    -0.014 C 
HETATM    2  C2  UNL     1     -34.400  16.885  -3.978  1.00 20.00    -0.004 C 
HETATM    3  C3  UNL     1     -34.971  13.878  -3.748  1.00 20.00     0.203 A 
HETATM    4  C4  UNL     1     -32.835  15.106  -4.139  1.00 20.00     0.126 C 
HETATM    5  C5  UNL     1     -36.055  14.930  -3.438  1.00 20.00     0.126 A 
HETATM    6  C6  UNL     1     -34.889  15.853  -3.021  1.00 20.00     0.042 A 
HETATM    7  C7  UNL     1     -34.813  16.256  -1.561  1.00 20.00     0.038 C 
HETATM    8  N8  UNL     1     -33.977  14.720  -3.325  1.00 20.00    -0.237 NA
HETATM    9  O9  UNL     1     -34.948  12.787  -4.274  1.00 20.00    -0.280 OA
ENDROOT
TORSDOF 0
ENDMDL
MODEL 3
REMARK VINA RESULT:      -4.1      1.469      1.832
REMARK  0 active torsions:
REMARK  status: ('A' for Active; 'I' for Inactive)
ROOT
HETATM    1  C1  UNL     1     -34.364  15.981  -2.382  1.00 20.00    -0.014 C 
HETATM    2  C2  UNL     1     -33.762  15.152  -3.251  1.00 20.00    -0.004 C 
HETATM    3  C3  UNL     1     -36.629  14.415  -4.062  1.00 20.00     0.203 A 
HETATM    4  C4  UNL     1     -35.742  16.391  -2.825  1.00 20.00     0.126 C 
HETATM    5  C5  UNL     1     -35.416  13.608  -4.567  1.00 20.00     0.126 A 
HETATM    6  C6  UNL     1     -34.622  14.927  -4.446  1.00 20.00     0.042 A 
HETATM    7  C7  UNL     1     -34.096  15.538  -5.731  1.00 20.00     0.038 C 
HETATM    8  N8  UNL     1     -35.891  15.568  -4.015  1.00 20.00    -0.237 NA
HETATM    9  O9  UNL     1     -37.758  14.153  -3.710  1.00 20.00    -0.280 OA
ENDROOT
TORSDOF 0
ENDMDL
MODEL 4
REMARK VINA RESULT:      -4.1      1.627      2.693
REMARK  0 active torsions:
REMARK  status: ('A' for Active; 'I' for Inactive)
ROOT
HETATM    1  C1  UNL     1     -34.423  15.359  -6.409  1.00 20.00    -0.014 C 
HETATM    2  C2  UNL     1     -33.841  15.767  -5.268  1.00 20.00    -0.004 C 
HETATM    3  C3  UNL     1     -36.213  14.363  -3.918  1.00 20.00     0.203 A 
HETATM    4  C4  UNL     1     -35.285  14.141  -6.223  1.00 20.00     0.126 C 
HETATM    5  C5  UNL     1     -35.249  15.262  -3.119  1.00 20.00     0.126 A 
HETATM    6  C6  UNL     1     -34.175  14.843  -4.148  1.00 20.00     0.042 A 
HETATM    7  C7  UNL     1     -33.010  14.019  -3.636  1.00 20.00     0.038 C 
HETATM    8  N8  UNL     1     -35.215  13.988  -4.778  1.00 20.00    -0.237 NA
HETATM    9  O9  UNL     1     -37.405  14.147  -3.907  1.00 20.00    -0.280 OA
ENDROOT
TORSDOF 0
ENDMDL
MODEL 5
REMARK VINA RESULT:      -4.0      1.451      2.029
REMARK  0 active torsions:
REMARK  status: ('A' for Active; 'I' for Inactive)
ROOT
HETATM    1  C1  UNL     1     -33.287  16.143  -3.666  1.00 20.00    -0.014 C 
HETATM    2  C2  UNL     1     -33.490  16.367  -4.976  1.00 20.00    -0.004 C 
HETATM    3  C3  UNL     1     -35.017  13.706  -4.879  1.00 20.00     0.203 A 
HETATM    4  C4  UNL     1     -34.343  15.265  -3.052  1.00 20.00     0.126 C 
HETATM    5  C5  UNL     1     -34.683  14.395  -6.217  1.00 20.00     0.126 A 
HETATM    6  C6  UNL     1     -34.754  15.722  -5.430  1.00 20.00     0.042 A 
HETATM    7  C7  UNL     1     -35.862  16.689  -5.800  1.00 20.00     0.038 C 
HETATM    8  N8  UNL     1     -35.111  14.911  -4.236  1.00 20.00    -0.237 NA
HETATM    9  O9  UNL     1     -35.059  12.563  -4.481  1.00 20.00    -0.280 OA
ENDROOT
TORSDOF 0
ENDMDL
MODEL 6
REMARK VINA RESULT:      -4.0      1.953      2.540
REMARK  0 active torsions:
REMARK  status: ('A' for Active; 'I' for Inactive)
ROOT
HETATM    1  C1  UNL     1     -36.081  15.695  -6.719  1.00 20.00    -0.014 C 
HETATM    2  C2  UNL     1     -35.696  16.413  -5.650  1.00 20.00    -0.004 C 
HETATM    3  C3  UNL     1     -34.756  13.703  -4.556  1.00 20.00     0.203 A 
HETATM    4  C4  UNL     1     -35.297  14.422  -6.882  1.00 20.00     0.126 C 
HETATM    5  C5  UNL     1     -34.796  14.962  -3.666  1.00 20.00     0.126 A 
HETATM    6  C6  UNL     1     -34.546  15.759  -4.965  1.00 20.00     0.042 A 
HETATM    7  C7  UNL     1     -33.232  16.509  -5.075  1.00 20.00     0.038 C 
HETATM    8  N8  UNL     1     -34.492  14.453  -5.671  1.00 20.00    -0.237 NA
HETATM    9  O9  UNL     1     -34.989  12.525  -4.400  1.00 20.00    -0.280 OA
ENDROOT
TORSDOF 0
ENDMDL
MODEL 7
REMARK VINA RESULT:      -4.0      1.615      2.782
REMARK  0 active torsions:
REMARK  status: ('A' for Active; 'I' for Inactive)
ROOT
HETATM    1  C1  UNL     1     -33.664  16.386  -5.742  1.00 20.00    -0.014 C 
HETATM    2  C2  UNL     1     -34.688  15.634  -6.180  1.00 20.00    -0.004 C 
HETATM    3  C3  UNL     1     -33.757  13.657  -4.025  1.00 20.00     0.203 A 
HETATM    4  C4  UNL     1     -33.291  16.090  -4.316  1.00 20.00     0.126 C 
HETATM    5  C5  UNL     1     -34.815  13.264  -5.076  1.00 20.00     0.126 A 
HETATM    6  C6  UNL     1     -35.203  14.759  -5.090  1.00 20.00     0.042 A 
HETATM    7  C7  UNL     1     -36.587  15.120  -4.587  1.00 20.00     0.038 C 
HETATM    8  N8  UNL     1     -34.169  14.963  -4.042  1.00 20.00    -0.237 NA
HETATM    9  O9  UNL     1     -32.832  13.100  -3.478  1.00 20.00    -0.280 OA
ENDROOT
TORSDOF 0
ENDMDL
MODEL 8
REMARK VINA RESULT:      -4.0     11.094     12.312
REMARK  0 active torsions:
REMARK  status: ('A' for Active; 'I' for Inactive)
ROOT
HETATM    1  C1  UNL     1     -41.202   3.977  -2.026  1.00 20.00    -0.014 C 
HETATM    2  C2  UNL     1     -40.812   4.618  -0.911  1.00 20.00    -0.004 C 
HETATM    3  C3  UNL     1     -42.035   7.084  -2.270  1.00 20.00     0.203 A 
HETATM    4  C4  UNL     1     -42.359   4.650  -2.713  1.00 20.00     0.126 C 
HETATM    5  C5  UNL     1     -41.185   7.208  -0.990  1.00 20.00     0.126 A 
HETATM    6  C6  UNL     1     -41.691   5.790  -0.643  1.00 20.00     0.042 A 
HETATM    7  C7  UNL     1     -42.579   5.651   0.579  1.00 20.00     0.038 C 
HETATM    8  N8  UNL     1     -42.489   5.847  -1.896  1.00 20.00    -0.237 NA
HETATM    9  O9  UNL     1     -42.173   7.732  -3.284  1.00 20.00    -0.280 OA
ENDROOT
TORSDOF 0
ENDMDL
MODEL 9
REMARK VINA RESULT:      -3.9      2.139      2.879
REMARK  0 active torsions:
REMARK  status: ('A' for Active; 'I' for Inactive)
ROOT
HETATM    1  C1  UNL     1     -35.049  16.088  -2.148  1.00 20.00    -0.014 C 
HETATM    2  C2  UNL     1     -35.315  15.104  -3.024  1.00 20.00    -0.004 C 
HETATM    3  C3  UNL     1     -33.434  16.664  -4.880  1.00 20.00     0.203 A 
HETATM    4  C4  UNL     1     -33.726  16.756  -2.404  1.00 20.00     0.126 C 
HETATM    5  C5  UNL     1     -34.284  15.488  -5.399  1.00 20.00     0.126 A 
HETATM    6  C6  UNL     1     -34.178  14.918  -3.967  1.00 20.00     0.042 A 
HETATM    7  C7  UNL     1     -33.417  13.617  -3.795  1.00 20.00     0.038 C 
HETATM    8  N8  UNL     1     -33.332  16.095  -3.639  1.00 20.00    -0.237 NA
HETATM    9  O9  UNL     1     -33.084  17.738  -5.316  1.00 20.00    -0.280 OA
ENDROOT
TORSDOF 0
ENDMDL
