MODEL 1
REMARK VINA RESULT:      -4.4      0.000      0.000
REMARK  2 active torsions:
REMARK  status: ('A' for Active; 'I' for Inactive)
REMARK    1  A    between atoms: C1_1  and  C7_7 
REMARK    2  A    between atoms: C1_1  and  C9_9 
ROOT
HETATM    1  C2  UNL     1     -34.469  17.448  -2.851  1.00 20.00     0.000 C 
HETATM    2  C3  UNL     1     -34.784  16.167  -2.088  1.00 20.00     0.001 C 
HETATM    3  C4  UNL     1     -33.425  17.211  -3.936  1.00 20.00     0.001 C 
HETATM    4  C5  UNL     1     -35.221  15.042  -3.027  1.00 20.00     0.017 C 
HETATM    5  C6  UNL     1     -33.849  16.097  -4.895  1.00 20.00     0.017 C 
HETATM    6  C7  UNL     1     -34.231  14.803  -4.170  1.00 20.00     0.018 C 
HETATM    7  C8  UNL     1     -32.971  14.133  -3.623  1.00 20.00     0.023 C 
ENDROOT
BRANCH   6   8
HETATM    8  C1  UNL     1     -34.765  13.759  -5.152  1.00 20.00     0.148 C 
HETATM    9  O10 UNL     1     -34.817  12.572  -4.836  1.00 20.00    -0.296 OA
BRANCH   8  10
HETATM   10  C9  UNL     1     -35.208  14.289  -6.496  1.00 20.00     0.193 C 
HETATM   11 CL11 UNL     1     -36.823  15.005  -6.386  1.00 20.00    -0.123 Cl
ENDBRANCH   8  10
ENDBRANCH   6   8
TORSDOF 2
ENDMDL
MODEL 2
REMARK VINA RESULT:      -4.4     12.091     13.109
REMARK  2 active torsions:
REMARK  status: ('A' for Active; 'I' for Inactive)
REMARK    1  A    between atoms: C1_1  and  C7_7 
REMARK    2  A    between atoms: C1_1  and  C9_9 
ROOT
HETATM    1  C2  UNL     1     -40.809   7.153  -0.807  1.00 20.00     0.000 C 
HETATM    2  C3  UNL     1     -42.174   7.332  -1.461  1.00 20.00     0.001 C 
HETATM    3  C4  UNL     1     -40.667   5.771  -0.180  1.00 20.00     0.001 C 
HETATM    4  C5  UNL     1     -42.457   6.236  -2.489  1.00 20.00     0.017 C 
HETATM    5  C6  UNL     1     -40.934   4.658  -1.195  1.00 20.00     0.017 C 
HETATM    6  C7  UNL     1     -42.272   4.827  -1.922  1.00 20.00     0.018 C 
HETATM    7  C8  UNL     1     -43.417   4.507  -0.963  1.00 20.00     0.023 C 
ENDROOT
BRANCH   6   8
HETATM    8  C1  UNL     1     -42.443   3.767  -3.012  1.00 20.00     0.148 C 
HETATM    9  O10 UNL     1     -43.390   3.821  -3.794  1.00 20.00    -0.296 OA
BRANCH   8  10
HETATM   10  C9  UNL     1     -41.388   2.686  -3.047  1.00 20.00     0.193 C 
HETATM   11 CL11 UNL     1     -41.660   1.591  -4.411  1.00 20.00    -0.123 Cl
ENDBRANCH   8  10
ENDBRANCH   6   8
TORSDOF 2
ENDMDL
MODEL 3
REMARK VINA RESULT:      -4.3     11.472     12.598
REMARK  2 active torsions:
REMARK  status: ('A' for Active; 'I' for Inactive)
REMARK    1  A    between atoms: C1_1  and  C7_7 
REMARK    2  A    between atoms: C1_1  and  C9_9 
ROOT
HETATM    1  C2  UNL     1     -35.056   4.603   6.022  1.00 20.00     0.000 C 
HETATM    2  C3  UNL     1     -34.487   5.958   6.425  1.00 20.00     0.001 C 
HETATM    3  C4  UNL     1     -35.479   4.588   4.557  1.00 20.00     0.001 C 
HETATM    4  C5  UNL     1     -33.328   6.377   5.519  1.00 20.00     0.017 C 
HETATM    5  C6  UNL     1     -34.330   4.992   3.632  1.00 20.00     0.017 C 
HETATM    6  C7  UNL     1     -33.686   6.323   4.032  1.00 20.00     0.018 C 
HETATM    7  C8  UNL     1     -34.636   7.472   3.693  1.00 20.00     0.023 C 
ENDROOT
BRANCH   6   8
HETATM    8  C1  UNL     1     -32.468   6.629   3.161  1.00 20.00     0.148 C 
HETATM    9  O10 UNL     1     -31.771   5.718   2.717  1.00 20.00    -0.296 OA
BRANCH   8  10
HETATM   10  C9  UNL     1     -32.199   8.093   2.899  1.00 20.00     0.193 C 
HETATM   11 CL11 UNL     1     -31.802   8.361   1.195  1.00 20.00    -0.123 Cl
ENDBRANCH   8  10
ENDBRANCH   6   8
TORSDOF 2
ENDMDL
MODEL 4
REMARK VINA RESULT:      -4.3      2.752      4.201
REMARK  2 active torsions:
REMARK  status: ('A' for Active; 'I' for Inactive)
REMARK    1  A    between atoms: C1_1  and  C7_7 
REMARK    2  A    between atoms: C1_1  and  C9_9 
ROOT
HETATM    1  C2  UNL     1     -35.046  14.053  -6.332  1.00 20.00     0.000 C 
HETATM    2  C3  UNL     1     -34.335  15.402  -6.356  1.00 20.00     0.001 C 
HETATM    3  C4  UNL     1     -34.789  13.309  -5.026  1.00 20.00     0.001 C 
HETATM    4  C5  UNL     1     -34.719  16.265  -5.153  1.00 20.00     0.017 C 
HETATM    5  C6  UNL     1     -35.178  14.151  -3.809  1.00 20.00     0.017 C 
HETATM    6  C7  UNL     1     -34.532  15.540  -3.818  1.00 20.00     0.018 C 
HETATM    7  C8  UNL     1     -33.041  15.412  -3.509  1.00 20.00     0.023 C 
ENDROOT
BRANCH   6   8
HETATM    8  C1  UNL     1     -35.042  16.391  -2.654  1.00 20.00     0.148 C 
HETATM    9  O10 UNL     1     -36.214  16.762  -2.616  1.00 20.00    -0.296 OA
BRANCH   8  10
HETATM   10  C9  UNL     1     -34.022  16.726  -1.590  1.00 20.00     0.193 C 
HETATM   11 CL11 UNL     1     -34.814  17.009  -0.032  1.00 20.00    -0.123 Cl
ENDBRANCH   8  10
ENDBRANCH   6   8
TORSDOF 2
ENDMDL
MODEL 5
REMARK VINA RESULT:      -4.3      2.978      4.268
REMARK  2 active torsions:
REMARK  status: ('A' for Active; 'I' for Inactive)
REMARK    1  A    between atoms: C1_1  and  C7_7 
REMARK    2  A    between atoms: C1_1  and  C9_9 
ROOT
HETATM    1  C2  UNL     1     -34.573  13.324  -4.553  1.00 20.00     0.000 C 
HETATM    2  C3  UNL     1     -33.374  13.706  -3.693  1.00 20.00     0.001 C 
HETATM    3  C4  UNL     1     -35.809  14.136  -4.182  1.00 20.00     0.001 C 
HETATM    4  C5  UNL     1     -33.082  15.205  -3.763  1.00 20.00     0.017 C 
HETATM    5  C6  UNL     1     -35.541  15.640  -4.258  1.00 20.00     0.017 C 
HETATM    6  C7  UNL     1     -34.309  16.065  -3.453  1.00 20.00     0.018 C 
HETATM    7  C8  UNL     1     -34.624  15.989  -1.960  1.00 20.00     0.023 C 
ENDROOT
BRANCH   6   8
HETATM    8  C1  UNL     1     -34.006  17.550  -3.655  1.00 20.00     0.148 C 
HETATM    9  O10 UNL     1     -33.422  17.938  -4.665  1.00 20.00    -0.296 OA
BRANCH   8  10
HETATM   10  C9  UNL     1     -34.468  18.470  -2.549  1.00 20.00     0.193 C 
HETATM   11 CL11 UNL     1     -33.086  19.260  -1.773  1.00 20.00    -0.123 Cl
ENDBRANCH   8  10
ENDBRANCH   6   8
TORSDOF 2
ENDMDL
MODEL 6
REMARK VINA RESULT:      -4.3      1.403      1.569
REMARK  2 active torsions:
REMARK  status: ('A' for Active; 'I' for Inactive)
REMARK    1  A    between atoms: C1_1  and  C7_7 
REMARK    2  A    between atoms: C1_1  and  C9_9 
ROOT
HETATM    1  C2  UNL     1     -34.024  18.275  -2.373  1.00 20.00     0.000 C 
HETATM    2  C3  UNL     1     -33.868  17.045  -1.488  1.00 20.00     0.001 C 
HETATM    3  C4  UNL     1     -33.737  17.952  -3.835  1.00 20.00     0.001 C 
HETATM    4  C5  UNL     1     -34.740  15.886  -1.970  1.00 20.00     0.017 C 
HETATM    5  C6  UNL     1     -34.609  16.802  -4.342  1.00 20.00     0.017 C 
HETATM    6  C7  UNL     1     -34.529  15.559  -3.451  1.00 20.00     0.018 C 
HETATM    7  C8  UNL     1     -33.171  14.883  -3.637  1.00 20.00     0.023 C 
ENDROOT
BRANCH   6   8
HETATM    8  C1  UNL     1     -35.506  14.481  -3.922  1.00 20.00     0.148 C 
HETATM    9  O10 UNL     1     -36.661  14.455  -3.500  1.00 20.00    -0.296 OA
BRANCH   8  10
HETATM   10  C9  UNL     1     -34.954  13.484  -4.914  1.00 20.00     0.193 C 
HETATM   11 CL11 UNL     1     -35.194  14.053  -6.573  1.00 20.00    -0.123 Cl
ENDBRANCH   8  10
ENDBRANCH   6   8
TORSDOF 2
ENDMDL
MODEL 7
REMARK VINA RESULT:      -4.2      2.351      3.881
REMARK  2 active torsions:
REMARK  status: ('A' for Active; 'I' for Inactive)
REMARK    1  A    between atoms: C1_1  and  C7_7 
REMARK    2  A    between atoms: C1_1  and  C9_9 
ROOT
HETATM    1  C2  UNL     1     -36.721  15.283  -6.925  1.00 20.00     0.000 C 
HETATM    2  C3  UNL     1     -35.447  14.472  -7.133  1.00 20.00     0.001 C 
HETATM    3  C4  UNL     1     -37.216  15.187  -5.486  1.00 20.00     0.001 C 
HETATM    4  C5  UNL     1     -34.349  14.881  -6.151  1.00 20.00     0.017 C 
HETATM    5  C6  UNL     1     -36.135  15.605  -4.487  1.00 20.00     0.017 C 
HETATM    6  C7  UNL     1     -34.815  14.856  -4.693  1.00 20.00     0.018 C 
HETATM    7  C8  UNL     1     -34.972  13.408  -4.231  1.00 20.00     0.023 C 
ENDROOT
BRANCH   6   8
HETATM    8  C1  UNL     1     -33.729  15.389  -3.759  1.00 20.00     0.148 C 
HETATM    9  O10 UNL     1     -32.653  14.803  -3.651  1.00 20.00    -0.296 OA
BRANCH   8  10
HETATM   10  C9  UNL     1     -34.074  16.652  -3.004  1.00 20.00     0.193 C 
HETATM   11 CL11 UNL     1     -34.550  16.276  -1.340  1.00 20.00    -0.123 Cl
ENDBRANCH   8  10
ENDBRANCH   6   8
TORSDOF 2
ENDMDL
MODEL 8
REMARK VINA RESULT:      -4.2      2.551      4.145
REMARK  2 active torsions:
REMARK  status: ('A' for Active; 'I' for Inactive)
REMARK    1  A    between atoms: C1_1  and  C7_7 
REMARK    2  A    between atoms: C1_1  and  C9_9 
ROOT
HETATM    1  C2  UNL     1     -36.809  15.217  -7.576  1.00 20.00     0.000 C 
HETATM    2  C3  UNL     1     -35.494  14.496  -7.851  1.00 20.00     0.001 C 
HETATM    3  C4  UNL     1     -37.153  15.204  -6.090  1.00 20.00     0.001 C 
HETATM    4  C5  UNL     1     -34.347  15.074  -7.022  1.00 20.00     0.017 C 
HETATM    5  C6  UNL     1     -36.022  15.790  -5.243  1.00 20.00     0.017 C 
HETATM    6  C7  UNL     1     -34.667  15.135  -5.526  1.00 20.00     0.018 C 
HETATM    7  C8  UNL     1     -34.650  13.724  -4.941  1.00 20.00     0.023 C 
ENDROOT
BRANCH   6   8
HETATM    8  C1  UNL     1     -33.547  15.831  -4.751  1.00 20.00     0.148 C 
HETATM    9  O10 UNL     1     -32.958  16.797  -5.234  1.00 20.00    -0.296 OA
BRANCH   8  10
HETATM   10  C9  UNL     1     -33.234  15.254  -3.390  1.00 20.00     0.193 C 
HETATM   11 CL11 UNL     1     -34.109  16.128  -2.124  1.00 20.00    -0.123 Cl
ENDBRANCH   8  10
ENDBRANCH   6   8
TORSDOF 2
ENDMDL
MODEL 9
REMARK VINA RESULT:      -4.2      2.832      4.204
REMARK  2 active torsions:
REMARK  status: ('A' for Active; 'I' for Inactive)
REMARK    1  A    between atoms: C1_1  and  C7_7 
REMARK    2  A    between atoms: C1_1  and  C9_9 
ROOT
HETATM    1  C2  UNL     1     -34.909  13.271  -4.616  1.00 20.00     0.000 C 
HETATM    2  C3  UNL     1     -35.476  14.414  -5.450  1.00 20.00     0.001 C 
HETATM    3  C4  UNL     1     -33.573  13.648  -3.986  1.00 20.00     0.001 C 
HETATM    4  C5  UNL     1     -35.603  15.701  -4.634  1.00 20.00     0.017 C 
HETATM    5  C6  UNL     1     -33.681  14.928  -3.155  1.00 20.00     0.017 C 
HETATM    6  C7  UNL     1     -34.299  16.092  -3.934  1.00 20.00     0.018 C 
HETATM    7  C8  UNL     1     -33.297  16.604  -4.968  1.00 20.00     0.023 C 
ENDROOT
BRANCH   6   8
HETATM    8  C1  UNL     1     -34.502  17.311  -3.034  1.00 20.00     0.148 C 
HETATM    9  O10 UNL     1     -35.251  18.224  -3.375  1.00 20.00    -0.296 OA
BRANCH   8  10
HETATM   10  C9  UNL     1     -33.731  17.302  -1.734  1.00 20.00     0.193 C 
HETATM   11 CL11 UNL     1     -34.774  16.805  -0.392  1.00 20.00    -0.123 Cl
ENDBRANCH   8  10
ENDBRANCH   6   8
TORSDOF 2
ENDMDL
