MODEL 1
REMARK VINA RESULT:      -5.1      0.000      0.000
REMARK  1 active torsions:
REMARK  status: ('A' for Active; 'I' for Inactive)
REMARK    1  A    between atoms: C2_2  and  C3_3 
ROOT
HETATM    1  C1  UNL     1     -35.067  13.893  -3.935  1.00 20.00    -0.015 C 
HETATM    2  C2  UNL     1     -35.826  14.962  -4.234  1.00 20.00    -0.012 C 
HETATM    3  C4  UNL     1     -33.588  14.065  -3.651  1.00 20.00     0.033 C 
HETATM    4  C5  UNL     1     -33.789  16.140  -5.115  1.00 20.00     0.016 C 
HETATM    5  C6  UNL     1     -35.126  16.287  -4.300  1.00 20.00     0.030 C 
HETATM    6  C7  UNL     1     -33.212  15.559  -3.780  1.00 20.00    -0.002 C 
HETATM    7  C8  UNL     1     -34.188  16.580  -3.042  1.00 20.00    -0.036 C 
HETATM    8  C10 UNL     1     -33.669  18.028  -2.945  1.00 20.00     0.016 C 
HETATM    9  C11 UNL     1     -34.700  16.183  -1.651  1.00 20.00     0.016 C 
ENDROOT
BRANCH   2  10
HETATM   10  C3  UNL     1     -37.253  14.808  -4.490  1.00 20.00     0.151 C 
HETATM   11  C9  UNL     1     -37.836  15.465  -5.720  1.00 20.00     0.096 C 
HETATM   12  O12 UNL     1     -37.970  14.162  -3.717  1.00 20.00    -0.293 OA
ENDBRANCH   2  10
TORSDOF 1
ENDMDL
MODEL 2
REMARK VINA RESULT:      -5.1      2.146      2.940
REMARK  1 active torsions:
REMARK  status: ('A' for Active; 'I' for Inactive)
REMARK    1  A    between atoms: C2_2  and  C3_3 
ROOT
HETATM    1  C1  UNL     1     -34.667  14.358  -5.826  1.00 20.00    -0.015 C 
HETATM    2  C2  UNL     1     -34.346  15.649  -5.633  1.00 20.00    -0.012 C 
HETATM    3  C4  UNL     1     -34.619  13.381  -4.667  1.00 20.00     0.033 C 
HETATM    4  C5  UNL     1     -32.892  14.981  -3.696  1.00 20.00     0.016 C 
HETATM    5  C6  UNL     1     -33.918  16.038  -4.249  1.00 20.00     0.030 C 
HETATM    6  C7  UNL     1     -34.166  14.124  -3.389  1.00 20.00    -0.002 C 
HETATM    7  C8  UNL     1     -34.896  15.510  -3.104  1.00 20.00    -0.036 C 
HETATM    8  C10 UNL     1     -34.641  16.110  -1.707  1.00 20.00     0.016 C 
HETATM    9  C11 UNL     1     -36.408  15.574  -3.359  1.00 20.00     0.016 C 
ENDROOT
BRANCH   2  10
HETATM   10  C3  UNL     1     -34.408  16.599  -6.738  1.00 20.00     0.151 C 
HETATM   11  C9  UNL     1     -34.074  18.046  -6.458  1.00 20.00     0.096 C 
HETATM   12  O12 UNL     1     -34.731  16.231  -7.873  1.00 20.00    -0.293 OA
ENDBRANCH   2  10
TORSDOF 1
ENDMDL
MODEL 3
REMARK VINA RESULT:      -5.0      1.897      4.064
REMARK  1 active torsions:
REMARK  status: ('A' for Active; 'I' for Inactive)
REMARK    1  A    between atoms: C2_2  and  C3_3 
ROOT
HETATM    1  C1  UNL     1     -33.729  17.608  -3.348  1.00 20.00    -0.015 C 
HETATM    2  C2  UNL     1     -33.921  16.725  -2.353  1.00 20.00    -0.012 C 
HETATM    3  C4  UNL     1     -33.627  17.126  -4.783  1.00 20.00     0.033 C 
HETATM    4  C5  UNL     1     -32.825  14.943  -3.744  1.00 20.00     0.016 C 
HETATM    5  C6  UNL     1     -33.989  15.277  -2.739  1.00 20.00     0.030 C 
HETATM    6  C7  UNL     1     -33.767  15.587  -4.817  1.00 20.00    -0.002 C 
HETATM    7  C8  UNL     1     -34.970  14.986  -3.964  1.00 20.00    -0.036 C 
HETATM    8  C10 UNL     1     -35.270  13.495  -4.213  1.00 20.00     0.016 C 
HETATM    9  C11 UNL     1     -36.308  15.735  -4.011  1.00 20.00     0.016 C 
ENDROOT
BRANCH   2  10
HETATM   10  C3  UNL     1     -34.040  17.182  -0.973  1.00 20.00     0.151 C 
HETATM   11  C9  UNL     1     -33.140  18.304  -0.509  1.00 20.00     0.096 C 
HETATM   12  O12 UNL     1     -34.852  16.660  -0.200  1.00 20.00    -0.293 OA
ENDBRANCH   2  10
TORSDOF 1
ENDMDL
MODEL 4
REMARK VINA RESULT:      -4.9      1.961      3.827
REMARK  1 active torsions:
REMARK  status: ('A' for Active; 'I' for Inactive)
REMARK    1  A    between atoms: C2_2  and  C3_3 
ROOT
HETATM    1  C1  UNL     1     -33.625  14.618  -3.389  1.00 20.00    -0.015 C 
HETATM    2  C2  UNL     1     -34.450  15.678  -3.329  1.00 20.00    -0.012 C 
HETATM    3  C4  UNL     1     -33.925  13.472  -4.335  1.00 20.00     0.033 C 
HETATM    4  C5  UNL     1     -36.348  14.221  -4.097  1.00 20.00     0.016 C 
HETATM    5  C6  UNL     1     -35.666  15.635  -4.207  1.00 20.00     0.030 C 
HETATM    6  C7  UNL     1     -35.234  13.770  -5.101  1.00 20.00    -0.002 C 
HETATM    7  C8  UNL     1     -35.352  15.234  -5.719  1.00 20.00    -0.036 C 
HETATM    8  C10 UNL     1     -36.523  15.440  -6.700  1.00 20.00     0.016 C 
HETATM    9  C11 UNL     1     -34.096  15.823  -6.376  1.00 20.00     0.016 C 
ENDROOT
BRANCH   2  10
HETATM   10  C3  UNL     1     -34.158  16.793  -2.436  1.00 20.00     0.151 C 
HETATM   11  C9  UNL     1     -34.527  16.657  -0.977  1.00 20.00     0.096 C 
HETATM   12  O12 UNL     1     -33.629  17.826  -2.863  1.00 20.00    -0.293 OA
ENDBRANCH   2  10
TORSDOF 1
ENDMDL
MODEL 5
REMARK VINA RESULT:      -4.9      2.154      4.138
REMARK  1 active torsions:
REMARK  status: ('A' for Active; 'I' for Inactive)
REMARK    1  A    between atoms: C2_2  and  C3_3 
ROOT
HETATM    1  C1  UNL     1     -33.957  15.814  -5.398  1.00 20.00    -0.015 C 
HETATM    2  C2  UNL     1     -34.562  14.614  -5.441  1.00 20.00    -0.012 C 
HETATM    3  C4  UNL     1     -34.283  16.868  -6.438  1.00 20.00     0.033 C 
HETATM    4  C5  UNL     1     -34.883  14.883  -7.918  1.00 20.00     0.016 C 
HETATM    5  C6  UNL     1     -35.522  14.383  -6.570  1.00 20.00     0.030 C 
HETATM    6  C7  UNL     1     -35.327  16.303  -7.429  1.00 20.00    -0.002 C 
HETATM    7  C8  UNL     1     -36.574  15.566  -6.768  1.00 20.00    -0.036 C 
HETATM    8  C10 UNL     1     -37.733  15.246  -7.732  1.00 20.00     0.016 C 
HETATM    9  C11 UNL     1     -37.186  16.206  -5.515  1.00 20.00     0.016 C 
ENDROOT
BRANCH   2  10
HETATM   10  C3  UNL     1     -34.268  13.602  -4.432  1.00 20.00     0.151 C 
HETATM   11  C9  UNL     1     -33.041  13.785  -3.570  1.00 20.00     0.096 C 
HETATM   12  O12 UNL     1     -35.001  12.616  -4.292  1.00 20.00    -0.293 OA
ENDBRANCH   2  10
TORSDOF 1
ENDMDL
MODEL 6
REMARK VINA RESULT:      -4.9      1.741      3.524
REMARK  1 active torsions:
REMARK  status: ('A' for Active; 'I' for Inactive)
REMARK    1  A    between atoms: C2_2  and  C3_3 
ROOT
HETATM    1  C1  UNL     1     -33.701  15.013  -2.901  1.00 20.00    -0.015 C 
HETATM    2  C2  UNL     1     -34.886  15.616  -3.104  1.00 20.00    -0.012 C 
HETATM    3  C4  UNL     1     -33.242  13.906  -3.830  1.00 20.00     0.033 C 
HETATM    4  C5  UNL     1     -35.729  13.539  -4.239  1.00 20.00     0.016 C 
HETATM    5  C6  UNL     1     -35.710  15.112  -4.252  1.00 20.00     0.030 C 
HETATM    6  C7  UNL     1     -34.320  13.665  -4.911  1.00 20.00    -0.002 C 
HETATM    7  C8  UNL     1     -34.894  14.973  -5.615  1.00 20.00    -0.036 C 
HETATM    8  C10 UNL     1     -35.759  14.719  -6.865  1.00 20.00     0.016 C 
HETATM    9  C11 UNL     1     -33.890  16.077  -5.972  1.00 20.00     0.016 C 
ENDROOT
BRANCH   2  10
HETATM   10  C3  UNL     1     -35.327  16.694  -2.227  1.00 20.00     0.151 C 
HETATM   11  C9  UNL     1     -34.708  16.798  -0.852  1.00 20.00     0.096 C 
HETATM   12  O12 UNL     1     -36.189  17.500  -2.597  1.00 20.00    -0.293 OA
ENDBRANCH   2  10
TORSDOF 1
ENDMDL
MODEL 7
REMARK VINA RESULT:      -4.8      1.512      2.620
REMARK  1 active torsions:
REMARK  status: ('A' for Active; 'I' for Inactive)
REMARK    1  A    between atoms: C2_2  and  C3_3 
ROOT
HETATM    1  C1  UNL     1     -35.566  15.332  -2.924  1.00 20.00    -0.015 C 
HETATM    2  C2  UNL     1     -36.442  15.006  -3.891  1.00 20.00    -0.012 C 
HETATM    3  C4  UNL     1     -34.076  15.202  -3.172  1.00 20.00     0.033 C 
HETATM    4  C5  UNL     1     -34.752  13.422  -4.864  1.00 20.00     0.016 C 
HETATM    5  C6  UNL     1     -35.865  14.488  -5.176  1.00 20.00     0.030 C 
HETATM    6  C7  UNL     1     -33.840  14.668  -4.604  1.00 20.00    -0.002 C 
HETATM    7  C8  UNL     1     -34.678  15.385  -5.753  1.00 20.00    -0.036 C 
HETATM    8  C10 UNL     1     -34.247  15.040  -7.192  1.00 20.00     0.016 C 
HETATM    9  C11 UNL     1     -34.820  16.911  -5.672  1.00 20.00     0.016 C 
ENDROOT
BRANCH   2  10
HETATM   10  C3  UNL     1     -37.876  15.147  -3.668  1.00 20.00     0.151 C 
HETATM   11  C9  UNL     1     -38.411  16.507  -3.284  1.00 20.00     0.096 C 
HETATM   12  O12 UNL     1     -38.634  14.176  -3.782  1.00 20.00    -0.293 OA
ENDBRANCH   2  10
TORSDOF 1
ENDMDL
MODEL 8
REMARK VINA RESULT:      -4.7      2.007      3.385
REMARK  1 active torsions:
REMARK  status: ('A' for Active; 'I' for Inactive)
REMARK    1  A    between atoms: C2_2  and  C3_3 
ROOT
HETATM    1  C1  UNL     1     -34.442  14.782  -6.671  1.00 20.00    -0.015 C 
HETATM    2  C2  UNL     1     -34.799  14.757  -5.375  1.00 20.00    -0.012 C 
HETATM    3  C4  UNL     1     -34.844  15.951  -7.549  1.00 20.00     0.033 C 
HETATM    4  C5  UNL     1     -36.776  16.213  -5.909  1.00 20.00     0.016 C 
HETATM    5  C6  UNL     1     -35.624  15.908  -4.881  1.00 20.00     0.030 C 
HETATM    6  C7  UNL     1     -35.660  16.963  -6.711  1.00 20.00    -0.002 C 
HETATM    7  C8  UNL     1     -35.042  17.336  -5.291  1.00 20.00    -0.036 C 
HETATM    8  C10 UNL     1     -35.706  18.533  -4.582  1.00 20.00     0.016 C 
HETATM    9  C11 UNL     1     -33.524  17.546  -5.218  1.00 20.00     0.016 C 
ENDROOT
BRANCH   2  10
HETATM   10  C3  UNL     1     -34.399  13.646  -4.519  1.00 20.00     0.151 C 
HETATM   11  C9  UNL     1     -33.170  13.812  -3.656  1.00 20.00     0.096 C 
HETATM   12  O12 UNL     1     -35.046  12.592  -4.505  1.00 20.00    -0.293 OA
ENDBRANCH   2  10
TORSDOF 1
ENDMDL
MODEL 9
REMARK VINA RESULT:      -4.6      1.274      2.719
REMARK  1 active torsions:
REMARK  status: ('A' for Active; 'I' for Inactive)
REMARK    1  A    between atoms: C2_2  and  C3_3 
ROOT
HETATM    1  C1  UNL     1     -36.109  16.872  -4.415  1.00 20.00    -0.015 C 
HETATM    2  C2  UNL     1     -36.471  15.755  -3.761  1.00 20.00    -0.012 C 
HETATM    3  C4  UNL     1     -34.642  17.234  -4.548  1.00 20.00     0.033 C 
HETATM    4  C5  UNL     1     -34.358  15.882  -2.408  1.00 20.00     0.016 C 
HETATM    5  C6  UNL     1     -35.366  14.937  -3.160  1.00 20.00     0.030 C 
HETATM    6  C7  UNL     1     -33.784  16.161  -3.838  1.00 20.00    -0.002 C 
HETATM    7  C8  UNL     1     -34.162  14.649  -4.167  1.00 20.00    -0.036 C 
HETATM    8  C10 UNL     1     -33.147  13.598  -3.677  1.00 20.00     0.016 C 
HETATM    9  C11 UNL     1     -34.504  14.311  -5.624  1.00 20.00     0.016 C 
ENDROOT
BRANCH   2  10
HETATM   10  C3  UNL     1     -37.879  15.390  -3.646  1.00 20.00     0.151 C 
HETATM   11  C9  UNL     1     -38.888  16.491  -3.418  1.00 20.00     0.096 C 
HETATM   12  O12 UNL     1     -38.236  14.209  -3.725  1.00 20.00    -0.293 OA
ENDBRANCH   2  10
TORSDOF 1
ENDMDL
