MODEL 1
REMARK VINA RESULT:      -3.9      0.000      0.000
REMARK  1 active torsions:
REMARK  status: ('A' for Active; 'I' for Inactive)
REMARK    1  A    between atoms: C1_1  and  C4_4 
ROOT
HETATM    1  C2  UNL     1     -33.365  16.693  -4.919  1.00 20.00     0.180 C 
HETATM    2  C3  UNL     1     -34.279  17.285  -3.862  1.00 20.00     0.103 C 
HETATM    3  C4  UNL     1     -34.023  14.701  -3.910  1.00 20.00     0.165 C 
HETATM    4  C6  UNL     1     -32.826  13.856  -3.502  1.00 20.00     0.067 C 
HETATM    5  O8  UNL     1     -33.769  15.340  -5.165  1.00 20.00    -0.362 OA
HETATM    6  S9  UNL     1     -34.410  15.952  -2.662  1.00 20.00    -0.122 SA
ENDROOT
BRANCH   3   7
HETATM    7  C1  UNL     1     -35.237  13.853  -4.114  1.00 20.00     0.167 C 
HETATM    8  C5  UNL     1     -36.570  14.537  -3.979  1.00 20.00     0.095 C 
HETATM    9  O7  UNL     1     -35.151  12.656  -4.384  1.00 20.00    -0.294 OA
ENDBRANCH   3   7
TORSDOF 1
ENDMDL
MODEL 2
REMARK VINA RESULT:      -3.9      1.563      1.851
REMARK  1 active torsions:
REMARK  status: ('A' for Active; 'I' for Inactive)
REMARK    1  A    between atoms: C1_1  and  C4_4 
ROOT
HETATM    1  C2  UNL     1     -33.384  17.159  -5.170  1.00 20.00     0.180 C 
HETATM    2  C3  UNL     1     -34.673  16.850  -5.910  1.00 20.00     0.103 C 
HETATM    3  C4  UNL     1     -34.149  15.452  -3.785  1.00 20.00     0.165 C 
HETATM    4  C6  UNL     1     -34.186  15.885  -2.328  1.00 20.00     0.067 C 
HETATM    5  O8  UNL     1     -32.993  15.995  -4.430  1.00 20.00    -0.362 OA
HETATM    6  S9  UNL     1     -35.638  15.972  -4.672  1.00 20.00    -0.122 SA
ENDROOT
BRANCH   3   7
HETATM    7  C1  UNL     1     -34.030  13.966  -3.903  1.00 20.00     0.167 C 
HETATM    8  C5  UNL     1     -35.245  13.227  -4.396  1.00 20.00     0.095 C 
HETATM    9  O7  UNL     1     -32.990  13.377  -3.615  1.00 20.00    -0.294 OA
ENDBRANCH   3   7
TORSDOF 1
ENDMDL
MODEL 3
REMARK VINA RESULT:      -3.9      1.779      2.372
REMARK  1 active torsions:
REMARK  status: ('A' for Active; 'I' for Inactive)
REMARK    1  A    between atoms: C1_1  and  C4_4 
ROOT
HETATM    1  C2  UNL     1     -36.176  16.662  -4.887  1.00 20.00     0.180 C 
HETATM    2  C3  UNL     1     -34.924  17.200  -4.219  1.00 20.00     0.103 C 
HETATM    3  C4  UNL     1     -34.775  14.855  -5.324  1.00 20.00     0.165 C 
HETATM    4  C6  UNL     1     -34.763  14.499  -6.802  1.00 20.00     0.067 C 
HETATM    5  O8  UNL     1     -36.096  15.231  -4.920  1.00 20.00    -0.362 OA
HETATM    6  S9  UNL     1     -33.623  16.199  -4.953  1.00 20.00    -0.122 SA
ENDROOT
BRANCH   3   7
HETATM    7  C1  UNL     1     -34.404  13.676  -4.482  1.00 20.00     0.167 C 
HETATM    8  C5  UNL     1     -33.166  13.811  -3.638  1.00 20.00     0.095 C 
HETATM    9  O7  UNL     1     -35.080  12.649  -4.477  1.00 20.00    -0.294 OA
ENDBRANCH   3   7
TORSDOF 1
ENDMDL
MODEL 4
REMARK VINA RESULT:      -3.9      1.717      2.458
REMARK  1 active torsions:
REMARK  status: ('A' for Active; 'I' for Inactive)
REMARK    1  A    between atoms: C1_1  and  C4_4 
ROOT
HETATM    1  C2  UNL     1     -35.905  16.689  -5.254  1.00 20.00     0.180 C 
HETATM    2  C3  UNL     1     -37.104  15.766  -5.378  1.00 20.00     0.103 C 
HETATM    3  C4  UNL     1     -35.229  15.075  -3.719  1.00 20.00     0.165 C 
HETATM    4  C6  UNL     1     -34.872  15.691  -2.376  1.00 20.00     0.067 C 
HETATM    5  O8  UNL     1     -34.788  15.924  -4.783  1.00 20.00    -0.362 OA
HETATM    6  S9  UNL     1     -37.010  14.792  -3.870  1.00 20.00    -0.122 SA
ENDROOT
BRANCH   3   7
HETATM    7  C1  UNL     1     -34.530  13.767  -3.915  1.00 20.00     0.167 C 
HETATM    8  C5  UNL     1     -33.055  13.738  -3.622  1.00 20.00     0.095 C 
HETATM    9  O7  UNL     1     -35.132  12.764  -4.295  1.00 20.00    -0.294 OA
ENDBRANCH   3   7
TORSDOF 1
ENDMDL
MODEL 5
REMARK VINA RESULT:      -3.8      1.624      2.290
REMARK  1 active torsions:
REMARK  status: ('A' for Active; 'I' for Inactive)
REMARK    1  A    between atoms: C1_1  and  C4_4 
ROOT
HETATM    1  C2  UNL     1     -34.008  16.041  -2.579  1.00 20.00     0.180 C 
HETATM    2  C3  UNL     1     -33.634  16.842  -3.813  1.00 20.00     0.103 C 
HETATM    3  C4  UNL     1     -35.372  14.936  -4.107  1.00 20.00     0.165 C 
HETATM    4  C6  UNL     1     -36.817  14.884  -3.635  1.00 20.00     0.067 C 
HETATM    5  O8  UNL     1     -34.486  14.756  -2.998  1.00 20.00    -0.362 OA
HETATM    6  S9  UNL     1     -34.998  16.501  -4.934  1.00 20.00    -0.122 SA
ENDROOT
BRANCH   3   7
HETATM    7  C1  UNL     1     -35.076  13.821  -5.059  1.00 20.00     0.167 C 
HETATM    8  C5  UNL     1     -35.059  14.169  -6.523  1.00 20.00     0.095 C 
HETATM    9  O7  UNL     1     -34.853  12.678  -4.665  1.00 20.00    -0.294 OA
ENDBRANCH   3   7
TORSDOF 1
ENDMDL
MODEL 6
REMARK VINA RESULT:      -3.7      1.684      3.371
REMARK  1 active torsions:
REMARK  status: ('A' for Active; 'I' for Inactive)
REMARK    1  A    between atoms: C1_1  and  C4_4 
ROOT
HETATM    1  C2  UNL     1     -36.048  14.167  -4.237  1.00 20.00     0.180 C 
HETATM    2  C3  UNL     1     -34.841  13.359  -4.677  1.00 20.00     0.103 C 
HETATM    3  C4  UNL     1     -34.395  15.615  -3.471  1.00 20.00     0.165 C 
HETATM    4  C6  UNL     1     -34.590  15.965  -2.004  1.00 20.00     0.067 C 
HETATM    5  O8  UNL     1     -35.662  15.544  -4.132  1.00 20.00    -0.362 OA
HETATM    6  S9  UNL     1     -33.519  14.045  -3.670  1.00 20.00    -0.122 SA
ENDROOT
BRANCH   3   7
HETATM    7  C1  UNL     1     -33.617  16.678  -4.179  1.00 20.00     0.167 C 
HETATM    8  C5  UNL     1     -33.845  18.096  -3.732  1.00 20.00     0.095 C 
HETATM    9  O7  UNL     1     -32.827  16.406  -5.082  1.00 20.00    -0.294 OA
ENDBRANCH   3   7
TORSDOF 1
ENDMDL
MODEL 7
REMARK VINA RESULT:      -3.7      1.908      2.747
REMARK  1 active torsions:
REMARK  status: ('A' for Active; 'I' for Inactive)
REMARK    1  A    between atoms: C1_1  and  C4_4 
ROOT
HETATM    1  C2  UNL     1     -34.738  16.860  -5.743  1.00 20.00     0.180 C 
HETATM    2  C3  UNL     1     -34.404  16.073  -6.998  1.00 20.00     0.103 C 
HETATM    3  C4  UNL     1     -35.415  14.761  -4.997  1.00 20.00     0.165 C 
HETATM    4  C6  UNL     1     -36.839  14.788  -4.464  1.00 20.00     0.067 C 
HETATM    5  O8  UNL     1     -34.730  15.961  -4.626  1.00 20.00    -0.362 OA
HETATM    6  S9  UNL     1     -35.381  14.577  -6.797  1.00 20.00    -0.122 SA
ENDROOT
BRANCH   3   7
HETATM    7  C1  UNL     1     -34.635  13.636  -4.397  1.00 20.00     0.167 C 
HETATM    8  C5  UNL     1     -33.319  13.989  -3.759  1.00 20.00     0.095 C 
HETATM    9  O7  UNL     1     -35.050  12.478  -4.421  1.00 20.00    -0.294 OA
ENDBRANCH   3   7
TORSDOF 1
ENDMDL
MODEL 8
REMARK VINA RESULT:      -3.7      1.992      2.249
REMARK  1 active torsions:
REMARK  status: ('A' for Active; 'I' for Inactive)
REMARK    1  A    between atoms: C1_1  and  C4_4 
ROOT
HETATM    1  C2  UNL     1     -34.554  14.878  -6.561  1.00 20.00     0.180 C 
HETATM    2  C3  UNL     1     -34.132  16.327  -6.397  1.00 20.00     0.103 C 
HETATM    3  C4  UNL     1     -34.315  14.883  -4.246  1.00 20.00     0.165 C 
HETATM    4  C6  UNL     1     -33.405  13.760  -3.773  1.00 20.00     0.067 C 
HETATM    5  O8  UNL     1     -35.133  14.429  -5.328  1.00 20.00    -0.362 OA
HETATM    6  S9  UNL     1     -33.368  16.333  -4.769  1.00 20.00    -0.122 SA
ENDROOT
BRANCH   3   7
HETATM    7  C1  UNL     1     -35.257  15.306  -3.164  1.00 20.00     0.167 C 
HETATM    8  C5  UNL     1     -34.660  16.051  -2.001  1.00 20.00     0.095 C 
HETATM    9  O7  UNL     1     -36.460  15.060  -3.223  1.00 20.00    -0.294 OA
ENDBRANCH   3   7
TORSDOF 1
ENDMDL
MODEL 9
REMARK VINA RESULT:      -3.7     11.172     12.466
REMARK  1 active torsions:
REMARK  status: ('A' for Active; 'I' for Inactive)
REMARK    1  A    between atoms: C1_1  and  C4_4 
ROOT
HETATM    1  C2  UNL     1     -41.551   7.649  -1.194  1.00 20.00     0.180 C 
HETATM    2  C3  UNL     1     -42.982   7.503  -0.709  1.00 20.00     0.103 C 
HETATM    3  C4  UNL     1     -41.783   5.361  -1.556  1.00 20.00     0.165 C 
HETATM    4  C6  UNL     1     -40.664   4.572  -0.893  1.00 20.00     0.067 C 
HETATM    5  O8  UNL     1     -41.267   6.578  -2.104  1.00 20.00    -0.362 OA
HETATM    6  S9  UNL     1     -43.112   5.738  -0.388  1.00 20.00    -0.122 SA
ENDROOT
BRANCH   3   7
HETATM    7  C1  UNL     1     -42.370   4.605  -2.704  1.00 20.00     0.167 C 
HETATM    8  C5  UNL     1     -41.942   3.170  -2.859  1.00 20.00     0.095 C 
HETATM    9  O7  UNL     1     -43.166   5.128  -3.482  1.00 20.00    -0.294 OA
ENDBRANCH   3   7
TORSDOF 1
ENDMDL
