MODEL 1
REMARK VINA RESULT:      -4.5      0.000      0.000
REMARK  1 active torsions:
REMARK  status: ('A' for Active; 'I' for Inactive)
REMARK    1  A    between atoms: C1_1  and  C7_7 
ROOT
HETATM    1  C2  UNL     1     -36.394  16.630  -3.349  1.00 20.00     0.004 C 
HETATM    2  C3  UNL     1     -35.290  17.500  -2.747  1.00 20.00     0.037 C 
HETATM    3  C4  UNL     1     -36.010  15.157  -3.498  1.00 20.00     0.016 C 
HETATM    4  C5  UNL     1     -33.561  15.663  -2.966  1.00 20.00     0.053 C 
HETATM    5  C6  UNL     1     -34.221  16.684  -2.040  1.00 20.00     0.171 C 
HETATM    6  C7  UNL     1     -34.547  14.944  -3.920  1.00 20.00     0.012 C 
HETATM    7  C8  UNL     1     -34.328  15.400  -5.371  1.00 20.00     0.023 C 
HETATM    8  F10 UNL     1     -34.803  16.019  -1.001  1.00 20.00    -0.249 F 
ENDROOT
BRANCH   6   9
HETATM    9  C1  UNL     1     -34.259  13.463  -3.893  1.00 20.00     0.240 C 
HETATM   10  O9  UNL     1     -34.897  12.638  -4.539  1.00 20.00    -0.306 OA
ENDBRANCH   6   9
TORSDOF 1
ENDMDL
MODEL 2
REMARK VINA RESULT:      -4.4      1.855      2.929
REMARK  1 active torsions:
REMARK  status: ('A' for Active; 'I' for Inactive)
REMARK    1  A    between atoms: C1_1  and  C7_7 
ROOT
HETATM    1  C2  UNL     1     -33.740  16.085  -2.728  1.00 20.00     0.004 C 
HETATM    2  C3  UNL     1     -33.080  15.222  -3.804  1.00 20.00     0.037 C 
HETATM    3  C4  UNL     1     -35.246  15.863  -2.594  1.00 20.00     0.016 C 
HETATM    4  C5  UNL     1     -35.311  14.481  -4.745  1.00 20.00     0.053 C 
HETATM    5  C6  UNL     1     -33.943  14.044  -4.222  1.00 20.00     0.171 C 
HETATM    6  C7  UNL     1     -35.955  15.637  -3.939  1.00 20.00     0.012 C 
HETATM    7  C8  UNL     1     -35.972  16.932  -4.768  1.00 20.00     0.023 C 
HETATM    8  F10 UNL     1     -34.127  13.238  -3.137  1.00 20.00    -0.249 F 
ENDROOT
BRANCH   6   9
HETATM    9  C1  UNL     1     -37.397  15.294  -3.661  1.00 20.00     0.240 C 
HETATM   10  O9  UNL     1     -37.843  14.152  -3.715  1.00 20.00    -0.306 OA
ENDBRANCH   6   9
TORSDOF 1
ENDMDL
MODEL 3
REMARK VINA RESULT:      -4.3      2.325      3.330
REMARK  1 active torsions:
REMARK  status: ('A' for Active; 'I' for Inactive)
REMARK    1  A    between atoms: C1_1  and  C7_7 
ROOT
HETATM    1  C2  UNL     1     -33.375  17.065  -4.926  1.00 20.00     0.004 C 
HETATM    2  C3  UNL     1     -34.419  17.253  -6.026  1.00 20.00     0.037 C 
HETATM    3  C4  UNL     1     -33.331  15.651  -4.347  1.00 20.00     0.016 C 
HETATM    4  C5  UNL     1     -35.497  15.012  -5.548  1.00 20.00     0.053 C 
HETATM    5  C6  UNL     1     -34.900  15.935  -6.609  1.00 20.00     0.171 C 
HETATM    6  C7  UNL     1     -34.718  15.002  -4.208  1.00 20.00     0.012 C 
HETATM    7  C8  UNL     1     -35.533  15.693  -3.103  1.00 20.00     0.023 C 
HETATM    8  F10 UNL     1     -33.836  15.306  -7.187  1.00 20.00    -0.249 F 
ENDROOT
BRANCH   6   9
HETATM    9  C1  UNL     1     -34.529  13.573  -3.765  1.00 20.00     0.240 C 
HETATM   10  O9  UNL     1     -34.975  12.609  -4.380  1.00 20.00    -0.306 OA
ENDBRANCH   6   9
TORSDOF 1
ENDMDL
MODEL 4
REMARK VINA RESULT:      -4.3      1.540      2.114
REMARK  1 active torsions:
REMARK  status: ('A' for Active; 'I' for Inactive)
REMARK    1  A    between atoms: C1_1  and  C7_7 
ROOT
HETATM    1  C2  UNL     1     -33.420  16.882  -5.068  1.00 20.00     0.004 C 
HETATM    2  C3  UNL     1     -33.676  17.566  -3.725  1.00 20.00     0.037 C 
HETATM    3  C4  UNL     1     -34.201  15.581  -5.259  1.00 20.00     0.016 C 
HETATM    4  C5  UNL     1     -34.910  15.557  -2.802  1.00 20.00     0.053 C 
HETATM    5  C6  UNL     1     -34.938  17.066  -3.043  1.00 20.00     0.171 C 
HETATM    6  C7  UNL     1     -34.316  14.740  -3.977  1.00 20.00     0.012 C 
HETATM    7  C8  UNL     1     -32.950  14.150  -3.591  1.00 20.00     0.023 C 
HETATM    8  F10 UNL     1     -36.005  17.361  -3.839  1.00 20.00    -0.249 F 
ENDROOT
BRANCH   6   9
HETATM    9  C1  UNL     1     -35.219  13.567  -4.262  1.00 20.00     0.240 C 
HETATM   10  O9  UNL     1     -34.829  12.519  -4.766  1.00 20.00    -0.306 OA
ENDBRANCH   6   9
TORSDOF 1
ENDMDL
MODEL 5
REMARK VINA RESULT:      -4.3      1.699      2.305
REMARK  1 active torsions:
REMARK  status: ('A' for Active; 'I' for Inactive)
REMARK    1  A    between atoms: C1_1  and  C7_7 
ROOT
HETATM    1  C2  UNL     1     -34.333  16.130  -2.282  1.00 20.00     0.004 C 
HETATM    2  C3  UNL     1     -34.579  17.415  -3.073  1.00 20.00     0.037 C 
HETATM    3  C4  UNL     1     -34.255  14.874  -3.150  1.00 20.00     0.016 C 
HETATM    4  C5  UNL     1     -35.106  16.145  -5.199  1.00 20.00     0.053 C 
HETATM    5  C6  UNL     1     -34.281  17.258  -4.555  1.00 20.00     0.171 C 
HETATM    6  C7  UNL     1     -35.250  14.875  -4.322  1.00 20.00     0.012 C 
HETATM    7  C8  UNL     1     -36.693  14.731  -3.811  1.00 20.00     0.023 C 
HETATM    8  F10 UNL     1     -32.957  16.960  -4.699  1.00 20.00    -0.249 F 
ENDROOT
BRANCH   6   9
HETATM    9  C1  UNL     1     -34.979  13.661  -5.174  1.00 20.00     0.240 C 
HETATM   10  O9  UNL     1     -34.828  12.533  -4.715  1.00 20.00    -0.306 OA
ENDBRANCH   6   9
TORSDOF 1
ENDMDL
MODEL 6
REMARK VINA RESULT:      -4.2      2.522      3.581
REMARK  1 active torsions:
REMARK  status: ('A' for Active; 'I' for Inactive)
REMARK    1  A    between atoms: C1_1  and  C7_7 
ROOT
HETATM    1  C2  UNL     1     -34.839  14.089  -5.846  1.00 20.00     0.004 C 
HETATM    2  C3  UNL     1     -35.012  13.295  -4.551  1.00 20.00     0.037 C 
HETATM    3  C4  UNL     1     -34.148  15.440  -5.657  1.00 20.00     0.016 C 
HETATM    4  C5  UNL     1     -34.345  15.270  -3.113  1.00 20.00     0.053 C 
HETATM    5  C6  UNL     1     -34.112  13.794  -3.433  1.00 20.00     0.171 C 
HETATM    6  C7  UNL     1     -34.556  16.162  -4.363  1.00 20.00     0.012 C 
HETATM    7  C8  UNL     1     -36.014  16.642  -4.445  1.00 20.00     0.023 C 
HETATM    8  F10 UNL     1     -32.814  13.629  -3.818  1.00 20.00    -0.249 F 
ENDROOT
BRANCH   6   9
HETATM    9  C1  UNL     1     -33.708  17.402  -4.226  1.00 20.00     0.240 C 
HETATM   10  O9  UNL     1     -33.323  18.066  -5.183  1.00 20.00    -0.306 OA
ENDBRANCH   6   9
TORSDOF 1
ENDMDL
MODEL 7
REMARK VINA RESULT:      -4.2      1.897      2.648
REMARK  1 active torsions:
REMARK  status: ('A' for Active; 'I' for Inactive)
REMARK    1  A    between atoms: C1_1  and  C7_7 
ROOT
HETATM    1  C2  UNL     1     -34.113  15.920  -5.902  1.00 20.00     0.004 C 
HETATM    2  C3  UNL     1     -33.083  16.196  -4.807  1.00 20.00     0.037 C 
HETATM    3  C4  UNL     1     -35.539  15.739  -5.381  1.00 20.00     0.016 C 
HETATM    4  C5  UNL     1     -34.720  15.626  -2.961  1.00 20.00     0.053 C 
HETATM    5  C6  UNL     1     -33.720  16.646  -3.503  1.00 20.00     0.171 C 
HETATM    6  C7  UNL     1     -35.612  14.975  -4.048  1.00 20.00     0.012 C 
HETATM    7  C8  UNL     1     -35.234  13.498  -4.246  1.00 20.00     0.023 C 
HETATM    8  F10 UNL     1     -34.374  17.823  -3.727  1.00 20.00    -0.249 F 
ENDROOT
BRANCH   6   9
HETATM    9  C1  UNL     1     -37.044  14.987  -3.575  1.00 20.00     0.240 C 
HETATM   10  O9  UNL     1     -37.853  14.106  -3.847  1.00 20.00    -0.306 OA
ENDBRANCH   6   9
TORSDOF 1
ENDMDL
MODEL 8
REMARK VINA RESULT:      -4.2      2.319      3.561
REMARK  1 active torsions:
REMARK  status: ('A' for Active; 'I' for Inactive)
REMARK    1  A    between atoms: C1_1  and  C7_7 
ROOT
HETATM    1  C2  UNL     1     -33.771  15.770  -5.603  1.00 20.00     0.004 C 
HETATM    2  C3  UNL     1     -34.470  14.412  -5.549  1.00 20.00     0.037 C 
HETATM    3  C4  UNL     1     -33.438  16.351  -4.229  1.00 20.00     0.016 C 
HETATM    4  C5  UNL     1     -34.859  14.580  -3.053  1.00 20.00     0.053 C 
HETATM    5  C6  UNL     1     -34.320  13.728  -4.201  1.00 20.00     0.171 C 
HETATM    6  C7  UNL     1     -34.524  16.088  -3.173  1.00 20.00     0.012 C 
HETATM    7  C8  UNL     1     -35.791  16.902  -3.481  1.00 20.00     0.023 C 
HETATM    8  F10 UNL     1     -32.994  13.491  -3.983  1.00 20.00    -0.249 F 
ENDROOT
BRANCH   6   9
HETATM    9  C1  UNL     1     -34.017  16.583  -1.841  1.00 20.00     0.240 C 
HETATM   10  O9  UNL     1     -34.646  16.469  -0.793  1.00 20.00    -0.306 OA
ENDBRANCH   6   9
TORSDOF 1
ENDMDL
MODEL 9
REMARK VINA RESULT:      -4.1      1.866      2.564
REMARK  1 active torsions:
REMARK  status: ('A' for Active; 'I' for Inactive)
REMARK    1  A    between atoms: C1_1  and  C7_7 
ROOT
HETATM    1  C2  UNL     1     -33.868  16.589  -4.758  1.00 20.00     0.004 C 
HETATM    2  C3  UNL     1     -33.081  15.467  -4.081  1.00 20.00     0.037 C 
HETATM    3  C4  UNL     1     -35.384  16.390  -4.726  1.00 20.00     0.016 C 
HETATM    4  C5  UNL     1     -35.126  13.985  -3.897  1.00 20.00     0.053 C 
HETATM    5  C6  UNL     1     -33.944  14.617  -3.164  1.00 20.00     0.171 C 
HETATM    6  C7  UNL     1     -35.814  14.926  -4.917  1.00 20.00     0.012 C 
HETATM    7  C8  UNL     1     -35.538  14.462  -6.356  1.00 20.00     0.023 C 
HETATM    8  F10 UNL     1     -34.424  15.412  -2.165  1.00 20.00    -0.249 F 
ENDROOT
BRANCH   6   9
HETATM    9  C1  UNL     1     -37.308  14.845  -4.725  1.00 20.00     0.240 C 
HETATM   10  O9  UNL     1     -37.839  14.233  -3.804  1.00 20.00    -0.306 OA
ENDBRANCH   6   9
TORSDOF 1
ENDMDL
