MODEL 1
REMARK VINA RESULT:      -5.1      0.000      0.000
REMARK  1 active torsions:
REMARK  status: ('A' for Active; 'I' for Inactive)
REMARK    1  A    between atoms: C2_2  and  C5_5 
ROOT
HETATM    1  C1  UNL     1     -34.373  14.998  -2.969  1.00 20.00     0.016 C 
HETATM    2  C2  UNL     1     -34.185  14.811  -4.284  1.00 20.00    -0.019 C 
HETATM    3  C3  UNL     1     -34.277  16.313  -2.358  1.00 20.00    -0.066 C 
HETATM    4  C4  UNL     1     -34.615  16.516  -1.076  1.00 20.00     0.019 C 
HETATM    5  C6  UNL     1     -33.894  15.919  -5.256  1.00 20.00     0.050 C 
HETATM    6  C7  UNL     1     -33.780  17.439  -3.238  1.00 20.00     0.047 C 
HETATM    7  C8  UNL     1     -34.264  17.321  -4.707  1.00 20.00    -0.040 C 
HETATM    8  C9  UNL     1     -35.790  17.548  -4.793  1.00 20.00     0.015 C 
HETATM    9  C10 UNL     1     -33.573  18.399  -5.559  1.00 20.00     0.015 C 
ENDROOT
BRANCH   2  10
HETATM   10  C5  UNL     1     -34.300  13.444  -4.798  1.00 20.00     0.265 C 
HETATM   11  O11 UNL     1     -35.081  12.626  -4.329  1.00 20.00    -0.302 OA
ENDBRANCH   2  10
TORSDOF 1
ENDMDL
MODEL 2
REMARK VINA RESULT:      -4.8      1.923      3.060
REMARK  1 active torsions:
REMARK  status: ('A' for Active; 'I' for Inactive)
REMARK    1  A    between atoms: C2_2  and  C5_5 
ROOT
HETATM    1  C1  UNL     1     -35.563  14.556  -3.687  1.00 20.00     0.016 C 
HETATM    2  C2  UNL     1     -36.420  15.564  -3.468  1.00 20.00    -0.019 C 
HETATM    3  C3  UNL     1     -34.124  14.731  -3.569  1.00 20.00    -0.066 C 
HETATM    4  C4  UNL     1     -33.285  13.687  -3.638  1.00 20.00     0.019 C 
HETATM    5  C6  UNL     1     -36.002  16.946  -3.053  1.00 20.00     0.050 C 
HETATM    6  C7  UNL     1     -33.624  16.144  -3.362  1.00 20.00     0.047 C 
HETATM    7  C8  UNL     1     -34.565  16.997  -2.472  1.00 20.00    -0.040 C 
HETATM    8  C9  UNL     1     -34.553  16.478  -1.018  1.00 20.00     0.015 C 
HETATM    9  C10 UNL     1     -34.072  18.455  -2.462  1.00 20.00     0.015 C 
ENDROOT
BRANCH   2  10
HETATM   10  C5  UNL     1     -37.851  15.283  -3.618  1.00 20.00     0.265 C 
HETATM   11  O11 UNL     1     -38.287  14.151  -3.779  1.00 20.00    -0.302 OA
ENDBRANCH   2  10
TORSDOF 1
ENDMDL
MODEL 3
REMARK VINA RESULT:      -4.7      2.198      3.670
REMARK  1 active torsions:
REMARK  status: ('A' for Active; 'I' for Inactive)
REMARK    1  A    between atoms: C2_2  and  C5_5 
ROOT
HETATM    1  C1  UNL     1     -34.129  17.356  -3.166  1.00 20.00     0.016 C 
HETATM    2  C2  UNL     1     -33.950  17.064  -4.463  1.00 20.00    -0.019 C 
HETATM    3  C3  UNL     1     -34.559  16.353  -2.205  1.00 20.00    -0.066 C 
HETATM    4  C4  UNL     1     -34.588  16.612  -0.889  1.00 20.00     0.019 C 
HETATM    5  C6  UNL     1     -34.138  15.693  -5.049  1.00 20.00     0.050 C 
HETATM    6  C7  UNL     1     -34.971  15.008  -2.762  1.00 20.00     0.047 C 
HETATM    7  C8  UNL     1     -34.119  14.569  -3.981  1.00 20.00    -0.040 C 
HETATM    8  C9  UNL     1     -32.669  14.263  -3.546  1.00 20.00     0.015 C 
HETATM    9  C10 UNL     1     -34.716  13.285  -4.584  1.00 20.00     0.015 C 
ENDROOT
BRANCH   2  10
HETATM   10  C5  UNL     1     -33.518  18.148  -5.349  1.00 20.00     0.265 C 
HETATM   11  O11 UNL     1     -33.213  19.258  -4.933  1.00 20.00    -0.302 OA
ENDBRANCH   2  10
TORSDOF 1
ENDMDL
MODEL 4
REMARK VINA RESULT:      -4.5      1.445      1.664
REMARK  1 active torsions:
REMARK  status: ('A' for Active; 'I' for Inactive)
REMARK    1  A    between atoms: C2_2  and  C5_5 
ROOT
HETATM    1  C1  UNL     1     -34.318  15.179  -2.725  1.00 20.00     0.016 C 
HETATM    2  C2  UNL     1     -34.624  14.825  -3.982  1.00 20.00    -0.019 C 
HETATM    3  C3  UNL     1     -34.780  16.430  -2.146  1.00 20.00    -0.066 C 
HETATM    4  C4  UNL     1     -34.601  16.707  -0.846  1.00 20.00     0.019 C 
HETATM    5  C6  UNL     1     -35.485  15.645  -4.900  1.00 20.00     0.050 C 
HETATM    6  C7  UNL     1     -35.472  17.399  -3.079  1.00 20.00     0.047 C 
HETATM    7  C8  UNL     1     -36.345  16.694  -4.149  1.00 20.00    -0.040 C 
HETATM    8  C9  UNL     1     -37.567  16.018  -3.490  1.00 20.00     0.015 C 
HETATM    9  C10 UNL     1     -36.863  17.739  -5.153  1.00 20.00     0.015 C 
ENDROOT
BRANCH   2  10
HETATM   10  C5  UNL     1     -34.105  13.544  -4.471  1.00 20.00     0.265 C 
HETATM   11  O11 UNL     1     -34.832  12.594  -4.730  1.00 20.00    -0.302 OA
ENDBRANCH   2  10
TORSDOF 1
ENDMDL
MODEL 5
REMARK VINA RESULT:      -4.5      2.279      3.851
REMARK  1 active torsions:
REMARK  status: ('A' for Active; 'I' for Inactive)
REMARK    1  A    between atoms: C2_2  and  C5_5 
ROOT
HETATM    1  C1  UNL     1     -36.287  15.014  -5.937  1.00 20.00     0.016 C 
HETATM    2  C2  UNL     1     -36.779  15.150  -4.697  1.00 20.00    -0.019 C 
HETATM    3  C3  UNL     1     -34.888  15.264  -6.241  1.00 20.00    -0.066 C 
HETATM    4  C4  UNL     1     -34.371  14.978  -7.446  1.00 20.00     0.019 C 
HETATM    5  C6  UNL     1     -35.952  15.537  -3.504  1.00 20.00     0.050 C 
HETATM    6  C7  UNL     1     -34.046  15.859  -5.134  1.00 20.00     0.047 C 
HETATM    7  C8  UNL     1     -34.431  15.332  -3.727  1.00 20.00    -0.040 C 
HETATM    8  C9  UNL     1     -34.063  13.838  -3.590  1.00 20.00     0.015 C 
HETATM    9  C10 UNL     1     -33.650  16.115  -2.658  1.00 20.00     0.015 C 
ENDROOT
BRANCH   2  10
HETATM   10  C5  UNL     1     -38.205  14.878  -4.498  1.00 20.00     0.265 C 
HETATM   11  O11 UNL     1     -38.639  14.344  -3.486  1.00 20.00    -0.302 OA
ENDBRANCH   2  10
TORSDOF 1
ENDMDL
MODEL 6
REMARK VINA RESULT:      -4.5     11.949     13.397
REMARK  1 active torsions:
REMARK  status: ('A' for Active; 'I' for Inactive)
REMARK    1  A    between atoms: C2_2  and  C5_5 
ROOT
HETATM    1  C1  UNL     1     -42.722   5.397  -3.042  1.00 20.00     0.016 C 
HETATM    2  C2  UNL     1     -42.450   6.657  -2.669  1.00 20.00    -0.019 C 
HETATM    3  C3  UNL     1     -42.125   4.252  -2.375  1.00 20.00    -0.066 C 
HETATM    4  C4  UNL     1     -42.516   2.999  -2.650  1.00 20.00     0.019 C 
HETATM    5  C6  UNL     1     -41.545   7.017  -1.526  1.00 20.00     0.050 C 
HETATM    6  C7  UNL     1     -41.044   4.544  -1.357  1.00 20.00     0.047 C 
HETATM    7  C8  UNL     1     -41.307   5.839  -0.546  1.00 20.00    -0.040 C 
HETATM    8  C9  UNL     1     -42.527   5.657   0.383  1.00 20.00     0.015 C 
HETATM    9  C10 UNL     1     -40.082   6.148   0.332  1.00 20.00     0.015 C 
ENDROOT
BRANCH   2  10
HETATM   10  C5  UNL     1     -43.103   7.740  -3.411  1.00 20.00     0.265 C 
HETATM   11  O11 UNL     1     -43.417   7.636  -4.589  1.00 20.00    -0.302 OA
ENDBRANCH   2  10
TORSDOF 1
ENDMDL
MODEL 7
REMARK VINA RESULT:      -4.4      1.850      3.774
REMARK  1 active torsions:
REMARK  status: ('A' for Active; 'I' for Inactive)
REMARK    1  A    between atoms: C2_2  and  C5_5 
ROOT
HETATM    1  C1  UNL     1     -33.763  17.431  -3.638  1.00 20.00     0.016 C 
HETATM    2  C2  UNL     1     -33.995  16.513  -2.687  1.00 20.00    -0.019 C 
HETATM    3  C3  UNL     1     -33.777  17.093  -5.052  1.00 20.00    -0.066 C 
HETATM    4  C4  UNL     1     -33.698  18.040  -5.998  1.00 20.00     0.019 C 
HETATM    5  C6  UNL     1     -34.318  15.074  -2.970  1.00 20.00     0.050 C 
HETATM    6  C7  UNL     1     -33.886  15.625  -5.400  1.00 20.00     0.047 C 
HETATM    7  C8  UNL     1     -34.798  14.835  -4.426  1.00 20.00    -0.040 C 
HETATM    8  C9  UNL     1     -36.270  15.273  -4.587  1.00 20.00     0.015 C 
HETATM    9  C10 UNL     1     -34.710  13.333  -4.750  1.00 20.00     0.015 C 
ENDROOT
BRANCH   2  10
HETATM   10  C5  UNL     1     -33.954  16.958  -1.291  1.00 20.00     0.265 C 
HETATM   11  O11 UNL     1     -34.727  16.534  -0.441  1.00 20.00    -0.302 OA
ENDBRANCH   2  10
TORSDOF 1
ENDMDL
MODEL 8
REMARK VINA RESULT:      -4.4      1.244      2.919
REMARK  1 active torsions:
REMARK  status: ('A' for Active; 'I' for Inactive)
REMARK    1  A    between atoms: C2_2  and  C5_5 
ROOT
HETATM    1  C1  UNL     1     -35.909  15.702  -4.953  1.00 20.00     0.016 C 
HETATM    2  C2  UNL     1     -35.050  14.885  -4.326  1.00 20.00    -0.019 C 
HETATM    3  C3  UNL     1     -36.486  16.862  -4.293  1.00 20.00    -0.066 C 
HETATM    4  C4  UNL     1     -37.222  17.757  -4.969  1.00 20.00     0.019 C 
HETATM    5  C6  UNL     1     -34.572  15.089  -2.917  1.00 20.00     0.050 C 
HETATM    6  C7  UNL     1     -36.215  17.009  -2.812  1.00 20.00     0.047 C 
HETATM    7  C8  UNL     1     -34.795  16.536  -2.404  1.00 20.00    -0.040 C 
HETATM    8  C9  UNL     1     -33.723  17.485  -2.982  1.00 20.00     0.015 C 
HETATM    9  C10 UNL     1     -34.672  16.557  -0.871  1.00 20.00     0.015 C 
ENDROOT
BRANCH   2  10
HETATM   10  C5  UNL     1     -34.529  13.741  -5.080  1.00 20.00     0.265 C 
HETATM   11  O11 UNL     1     -34.769  12.582  -4.768  1.00 20.00    -0.302 OA
ENDBRANCH   2  10
TORSDOF 1
ENDMDL
MODEL 9
REMARK VINA RESULT:      -4.4      1.993      2.705
REMARK  1 active torsions:
REMARK  status: ('A' for Active; 'I' for Inactive)
REMARK    1  A    between atoms: C2_2  and  C5_5 
ROOT
HETATM    1  C1  UNL     1     -36.247  16.471  -3.003  1.00 20.00     0.016 C 
HETATM    2  C2  UNL     1     -36.162  15.320  -3.686  1.00 20.00    -0.019 C 
HETATM    3  C3  UNL     1     -35.086  17.080  -2.376  1.00 20.00    -0.066 C 
HETATM    4  C4  UNL     1     -35.147  18.303  -1.827  1.00 20.00     0.019 C 
HETATM    5  C6  UNL     1     -34.882  14.565  -3.903  1.00 20.00     0.050 C 
HETATM    6  C7  UNL     1     -33.809  16.269  -2.374  1.00 20.00     0.047 C 
HETATM    7  C8  UNL     1     -33.618  15.432  -3.666  1.00 20.00    -0.040 C 
HETATM    8  C9  UNL     1     -33.363  16.356  -4.876  1.00 20.00     0.015 C 
HETATM    9  C10 UNL     1     -32.395  14.514  -3.502  1.00 20.00     0.015 C 
ENDROOT
BRANCH   2  10
HETATM   10  C5  UNL     1     -37.394  14.789  -4.276  1.00 20.00     0.265 C 
HETATM   11  O11 UNL     1     -38.279  14.274  -3.604  1.00 20.00    -0.302 OA
ENDBRANCH   2  10
TORSDOF 1
ENDMDL
