MODEL 1
REMARK VINA RESULT:      -5.5      0.000      0.000
REMARK  1 active torsions:
REMARK  status: ('A' for Active; 'I' for Inactive)
REMARK    1  A    between atoms: C7_7  and  C9_9 
ROOT
HETATM    1  C1  UNL     1     -35.011   4.766   5.840  1.00 20.00    -0.004 A 
HETATM    2  C2  UNL     1     -34.193   5.801   6.413  1.00 20.00    -0.004 A 
HETATM    3  C3  UNL     1     -35.243   4.701   4.522  1.00 20.00    -0.017 A 
HETATM    4  C4  UNL     1     -33.667   6.778   5.663  1.00 20.00    -0.020 A 
HETATM    5  C5  UNL     1     -33.700   5.062   2.608  1.00 20.00    -0.021 C 
HETATM    6  C6  UNL     1     -32.545   5.728   2.546  1.00 20.00    -0.017 C 
HETATM    7  C8  UNL     1     -34.685   5.697   3.542  1.00 20.00     0.039 A 
HETATM    8  C9  UNL     1     -32.536   6.937   3.417  1.00 20.00     0.086 C 
HETATM    9  C10 UNL     1     -33.883   6.882   4.172  1.00 20.00     0.034 A 
ENDROOT
BRANCH   8  10
HETATM   10  C7  UNL     1     -32.447   8.129   2.516  1.00 20.00     0.131 C 
HETATM   11  C11 UNL     1     -31.643   7.965   1.254  1.00 20.00     0.091 C 
HETATM   12  O12 UNL     1     -33.006   9.189   2.791  1.00 20.00    -0.298 OA
ENDBRANCH   8  10
TORSDOF 1
ENDMDL
MODEL 2
REMARK VINA RESULT:      -5.1     10.596     12.383
REMARK  1 active torsions:
REMARK  status: ('A' for Active; 'I' for Inactive)
REMARK    1  A    between atoms: C7_7  and  C9_9 
ROOT
HETATM    1  C1  UNL     1     -34.014  18.654  -1.829  1.00 20.00    -0.004 A 
HETATM    2  C2  UNL     1     -34.441  17.602  -0.947  1.00 20.00    -0.004 A 
HETATM    3  C3  UNL     1     -33.705  18.416  -3.110  1.00 20.00    -0.017 A 
HETATM    4  C4  UNL     1     -34.500  16.327  -1.350  1.00 20.00    -0.020 A 
HETATM    5  C5  UNL     1     -34.827  16.959  -4.782  1.00 20.00    -0.021 C 
HETATM    6  C6  UNL     1     -35.645  15.920  -4.607  1.00 20.00    -0.017 C 
HETATM    7  C8  UNL     1     -33.767  17.045  -3.726  1.00 20.00     0.039 A 
HETATM    8  C9  UNL     1     -35.287  15.107  -3.410  1.00 20.00     0.086 C 
HETATM    9  C10 UNL     1     -34.129  15.884  -2.746  1.00 20.00     0.034 A 
ENDROOT
BRANCH   8  10
HETATM   10  C7  UNL     1     -34.849  13.764  -3.906  1.00 20.00     0.131 C 
HETATM   11  C11 UNL     1     -33.382  13.447  -3.798  1.00 20.00     0.091 C 
HETATM   12  O12 UNL     1     -35.650  12.957  -4.377  1.00 20.00    -0.298 OA
ENDBRANCH   8  10
TORSDOF 1
ENDMDL
MODEL 3
REMARK VINA RESULT:      -5.0     10.718     12.311
REMARK  1 active torsions:
REMARK  status: ('A' for Active; 'I' for Inactive)
REMARK    1  A    between atoms: C7_7  and  C9_9 
ROOT
HETATM    1  C1  UNL     1     -35.112  13.959  -5.722  1.00 20.00    -0.004 A 
HETATM    2  C2  UNL     1     -34.328  13.364  -4.673  1.00 20.00    -0.004 A 
HETATM    3  C3  UNL     1     -35.670  15.169  -5.582  1.00 20.00    -0.017 A 
HETATM    4  C4  UNL     1     -34.161  13.968  -3.490  1.00 20.00    -0.020 A 
HETATM    5  C5  UNL     1     -34.751  17.247  -4.575  1.00 20.00    -0.021 C 
HETATM    6  C6  UNL     1     -33.760  17.414  -3.698  1.00 20.00    -0.017 C 
HETATM    7  C8  UNL     1     -35.535  15.994  -4.331  1.00 20.00     0.039 A 
HETATM    8  C9  UNL     1     -33.693  16.313  -2.696  1.00 20.00     0.086 C 
HETATM    9  C10 UNL     1     -34.773  15.307  -3.152  1.00 20.00     0.034 A 
ENDROOT
BRANCH   8  10
HETATM   10  C7  UNL     1     -34.014  16.912  -1.362  1.00 20.00     0.131 C 
HETATM   11  C11 UNL     1     -33.359  18.227  -1.035  1.00 20.00     0.091 C 
HETATM   12  O12 UNL     1     -34.777  16.358  -0.572  1.00 20.00    -0.298 OA
ENDBRANCH   8  10
TORSDOF 1
ENDMDL
MODEL 4
REMARK VINA RESULT:      -5.0     10.893     13.715
REMARK  1 active torsions:
REMARK  status: ('A' for Active; 'I' for Inactive)
REMARK    1  A    between atoms: C7_7  and  C9_9 
ROOT
HETATM    1  C1  UNL     1     -34.183  18.240  -7.084  1.00 20.00    -0.004 A 
HETATM    2  C2  UNL     1     -33.667  18.261  -5.742  1.00 20.00    -0.004 A 
HETATM    3  C3  UNL     1     -34.580  17.100  -7.666  1.00 20.00    -0.017 A 
HETATM    4  C4  UNL     1     -33.512  17.139  -5.029  1.00 20.00    -0.020 A 
HETATM    5  C5  UNL     1     -35.879  15.197  -6.735  1.00 20.00    -0.021 C 
HETATM    6  C6  UNL     1     -36.058  14.814  -5.469  1.00 20.00    -0.017 C 
HETATM    7  C8  UNL     1     -34.513  15.763  -6.980  1.00 20.00     0.039 A 
HETATM    8  C9  UNL     1     -34.849  15.041  -4.627  1.00 20.00     0.086 C 
HETATM    9  C10 UNL     1     -33.857  15.768  -5.562  1.00 20.00     0.034 A 
ENDROOT
BRANCH   8  10
HETATM   10  C7  UNL     1     -34.344  13.695  -4.211  1.00 20.00     0.131 C 
HETATM   11  C11 UNL     1     -32.982  13.650  -3.573  1.00 20.00     0.091 C 
HETATM   12  O12 UNL     1     -35.011  12.675  -4.381  1.00 20.00    -0.298 OA
ENDBRANCH   8  10
TORSDOF 1
ENDMDL
MODEL 5
REMARK VINA RESULT:      -4.9     11.113     12.278
REMARK  1 active torsions:
REMARK  status: ('A' for Active; 'I' for Inactive)
REMARK    1  A    between atoms: C7_7  and  C9_9 
ROOT
HETATM    1  C1  UNL     1     -32.907  14.886  -3.272  1.00 20.00    -0.004 A 
HETATM    2  C2  UNL     1     -33.752  15.907  -2.713  1.00 20.00    -0.004 A 
HETATM    3  C3  UNL     1     -33.407  13.890  -4.016  1.00 20.00    -0.017 A 
HETATM    4  C4  UNL     1     -35.081  15.883  -2.866  1.00 20.00    -0.020 A 
HETATM    5  C5  UNL     1     -35.159  13.934  -5.778  1.00 20.00    -0.021 C 
HETATM    6  C6  UNL     1     -36.130  14.821  -6.005  1.00 20.00    -0.017 C 
HETATM    7  C8  UNL     1     -34.874  13.750  -4.318  1.00 20.00     0.039 A 
HETATM    8  C9  UNL     1     -36.686  15.394  -4.747  1.00 20.00     0.086 C 
HETATM    9  C10 UNL     1     -35.805  14.797  -3.627  1.00 20.00     0.034 A 
ENDROOT
BRANCH   8  10
HETATM   10  C7  UNL     1     -38.107  14.936  -4.646  1.00 20.00     0.131 C 
HETATM   11  C11 UNL     1     -39.039  15.372  -5.745  1.00 20.00     0.091 C 
HETATM   12  O12 UNL     1     -38.496  14.237  -3.711  1.00 20.00    -0.298 OA
ENDBRANCH   8  10
TORSDOF 1
ENDMDL
MODEL 6
REMARK VINA RESULT:      -4.8     11.396     12.780
REMARK  1 active torsions:
REMARK  status: ('A' for Active; 'I' for Inactive)
REMARK    1  A    between atoms: C7_7  and  C9_9 
ROOT
HETATM    1  C1  UNL     1     -34.429  18.590   0.797  1.00 20.00    -0.004 A 
HETATM    2  C2  UNL     1     -35.121  17.376   0.456  1.00 20.00    -0.004 A 
HETATM    3  C3  UNL     1     -33.456  19.087   0.022  1.00 20.00    -0.017 A 
HETATM    4  C4  UNL     1     -34.792  16.659  -0.625  1.00 20.00    -0.020 A 
HETATM    5  C5  UNL     1     -33.315  19.259  -2.453  1.00 20.00    -0.021 C 
HETATM    6  C6  UNL     1     -33.959  18.577  -3.402  1.00 20.00    -0.017 C 
HETATM    7  C8  UNL     1     -33.003  18.423  -1.250  1.00 20.00     0.039 A 
HETATM    8  C9  UNL     1     -34.194  17.155  -3.022  1.00 20.00     0.086 C 
HETATM    9  C10 UNL     1     -33.679  17.051  -1.570  1.00 20.00     0.034 A 
ENDROOT
BRANCH   8  10
HETATM   10  C7  UNL     1     -33.391  16.310  -3.963  1.00 20.00     0.131 C 
HETATM   11  C11 UNL     1     -33.164  14.878  -3.561  1.00 20.00     0.091 C 
HETATM   12  O12 UNL     1     -32.940  16.765  -5.013  1.00 20.00    -0.298 OA
ENDBRANCH   8  10
TORSDOF 1
ENDMDL
MODEL 7
REMARK VINA RESULT:      -4.8     11.680     12.715
REMARK  1 active torsions:
REMARK  status: ('A' for Active; 'I' for Inactive)
REMARK    1  A    between atoms: C7_7  and  C9_9 
ROOT
HETATM    1  C1  UNL     1     -32.702  18.770   2.359  1.00 20.00    -0.004 A 
HETATM    2  C2  UNL     1     -31.677  18.868   1.355  1.00 20.00    -0.004 A 
HETATM    3  C3  UNL     1     -33.993  18.620   2.033  1.00 20.00    -0.017 A 
HETATM    4  C4  UNL     1     -31.969  18.866   0.048  1.00 20.00    -0.020 A 
HETATM    5  C5  UNL     1     -35.048  17.207   0.282  1.00 20.00    -0.021 C 
HETATM    6  C6  UNL     1     -34.529  16.685  -0.831  1.00 20.00    -0.017 C 
HETATM    7  C8  UNL     1     -34.477  18.554   0.610  1.00 20.00     0.039 A 
HETATM    8  C9  UNL     1     -33.520  17.581  -1.465  1.00 20.00     0.086 C 
HETATM    9  C10 UNL     1     -33.380  18.764  -0.483  1.00 20.00     0.034 A 
ENDROOT
BRANCH   8  10
HETATM   10  C7  UNL     1     -34.082  18.011  -2.784  1.00 20.00     0.131 C 
HETATM   11  C11 UNL     1     -33.721  17.173  -3.981  1.00 20.00     0.091 C 
HETATM   12  O12 UNL     1     -34.806  19.001  -2.885  1.00 20.00    -0.298 OA
ENDBRANCH   8  10
TORSDOF 1
ENDMDL
MODEL 8
REMARK VINA RESULT:      -4.8     10.910     12.860
REMARK  1 active torsions:
REMARK  status: ('A' for Active; 'I' for Inactive)
REMARK    1  A    between atoms: C7_7  and  C9_9 
ROOT
HETATM    1  C1  UNL     1     -36.622  14.957  -7.600  1.00 20.00    -0.004 A 
HETATM    2  C2  UNL     1     -37.179  15.926  -6.695  1.00 20.00    -0.004 A 
HETATM    3  C3  UNL     1     -35.470  14.327  -7.333  1.00 20.00    -0.017 A 
HETATM    4  C4  UNL     1     -36.548  16.282  -5.569  1.00 20.00    -0.020 A 
HETATM    5  C5  UNL     1     -34.624  13.376  -5.199  1.00 20.00    -0.021 C 
HETATM    6  C6  UNL     1     -34.963  13.653  -3.939  1.00 20.00    -0.017 C 
HETATM    7  C8  UNL     1     -34.666  14.582  -6.088  1.00 20.00     0.039 A 
HETATM    8  C9  UNL     1     -35.288  15.094  -3.738  1.00 20.00     0.086 C 
HETATM    9  C10 UNL     1     -35.214  15.708  -5.154  1.00 20.00     0.034 A 
ENDROOT
BRANCH   8  10
HETATM   10  C7  UNL     1     -34.243  15.658  -2.827  1.00 20.00     0.131 C 
HETATM   11  C11 UNL     1     -34.725  16.263  -1.536  1.00 20.00     0.091 C 
HETATM   12  O12 UNL     1     -33.048  15.627  -3.117  1.00 20.00    -0.298 OA
ENDBRANCH   8  10
TORSDOF 1
ENDMDL
MODEL 9
REMARK VINA RESULT:      -4.8     11.244     12.242
REMARK  1 active torsions:
REMARK  status: ('A' for Active; 'I' for Inactive)
REMARK    1  A    between atoms: C7_7  and  C9_9 
ROOT
HETATM    1  C1  UNL     1     -35.698  17.936  -1.514  1.00 20.00    -0.004 A 
HETATM    2  C2  UNL     1     -34.706  16.958  -1.155  1.00 20.00    -0.004 A 
HETATM    3  C3  UNL     1     -36.328  17.897  -2.695  1.00 20.00    -0.017 A 
HETATM    4  C4  UNL     1     -34.329  15.993  -2.004  1.00 20.00    -0.020 A 
HETATM    5  C5  UNL     1     -37.237  15.961  -3.960  1.00 20.00    -0.021 C 
HETATM    6  C6  UNL     1     -36.931  14.664  -3.887  1.00 20.00    -0.017 C 
HETATM    7  C8  UNL     1     -36.050  16.849  -3.738  1.00 20.00     0.039 A 
HETATM    8  C9  UNL     1     -35.484  14.434  -3.611  1.00 20.00     0.086 C 
HETATM    9  C10 UNL     1     -34.901  15.847  -3.395  1.00 20.00     0.034 A 
ENDROOT
BRANCH   8  10
HETATM   10  C7  UNL     1     -34.906  13.768  -4.821  1.00 20.00     0.131 C 
HETATM   11  C11 UNL     1     -34.444  14.669  -5.934  1.00 20.00     0.091 C 
HETATM   12  O12 UNL     1     -34.812  12.544  -4.901  1.00 20.00    -0.298 OA
ENDBRANCH   8  10
TORSDOF 1
ENDMDL
