MODEL 1
REMARK VINA RESULT:      -4.0      0.000      0.000
REMARK  1 active torsions:
REMARK  status: ('A' for Active; 'I' for Inactive)
REMARK    1  A    between atoms: C1_1  and  C4_4 
ROOT
HETATM    1  C2  UNL     1     -35.280   4.363   4.727  1.00 20.00     0.014 A 
HETATM    2  C3  UNL     1     -34.585   3.890   5.968  1.00 20.00     0.014 A 
HETATM    3  C4  UNL     1     -34.907   5.351   5.798  1.00 20.00     0.066 A 
ENDROOT
BRANCH   3   4
HETATM    4  C1  UNL     1     -33.818   6.303   5.553  1.00 20.00     0.193 C 
HETATM    5  O5  UNL     1     -33.361   7.011   6.438  1.00 20.00    -0.286 OA
HETATM    6  I6  UNL     1     -32.997   6.486   3.657  1.00 20.00    -0.001 I 
ENDBRANCH   3   4
TORSDOF 1
ENDMDL
MODEL 2
REMARK VINA RESULT:      -3.9      2.318      3.053
REMARK  1 active torsions:
REMARK  status: ('A' for Active; 'I' for Inactive)
REMARK    1  A    between atoms: C1_1  and  C4_4 
ROOT
HETATM    1  C2  UNL     1     -32.230   7.226   3.392  1.00 20.00     0.014 A 
HETATM    2  C3  UNL     1     -32.295   5.763   3.073  1.00 20.00     0.014 A 
HETATM    3  C4  UNL     1     -33.479   6.448   3.702  1.00 20.00     0.066 A 
ENDROOT
BRANCH   3   4
HETATM    4  C1  UNL     1     -33.820   6.157   5.098  1.00 20.00     0.193 C 
HETATM    5  O5  UNL     1     -33.500   6.900   6.015  1.00 20.00    -0.286 OA
HETATM    6  I6  UNL     1     -34.880   4.441   5.580  1.00 20.00    -0.001 I 
ENDBRANCH   3   4
TORSDOF 1
ENDMDL
MODEL 3
REMARK VINA RESULT:      -3.8      1.865      1.911
REMARK  1 active torsions:
REMARK  status: ('A' for Active; 'I' for Inactive)
REMARK    1  A    between atoms: C1_1  and  C4_4 
ROOT
HETATM    1  C2  UNL     1     -35.271   4.503   6.098  1.00 20.00     0.014 A 
HETATM    2  C3  UNL     1     -33.781   4.510   6.257  1.00 20.00     0.014 A 
HETATM    3  C4  UNL     1     -34.464   5.647   5.545  1.00 20.00     0.066 A 
ENDROOT
BRANCH   3   4
HETATM    4  C1  UNL     1     -34.309   5.783   4.093  1.00 20.00     0.193 C 
HETATM    5  O5  UNL     1     -35.179   5.434   3.309  1.00 20.00    -0.286 OA
HETATM    6  I6  UNL     1     -32.571   6.592   3.299  1.00 20.00    -0.001 I 
ENDBRANCH   3   4
TORSDOF 1
ENDMDL
MODEL 4
REMARK VINA RESULT:      -3.4     13.077     13.405
REMARK  1 active torsions:
REMARK  status: ('A' for Active; 'I' for Inactive)
REMARK    1  A    between atoms: C1_1  and  C4_4 
ROOT
HETATM    1  C2  UNL     1     -33.267  15.763  -3.825  1.00 20.00     0.014 A 
HETATM    2  C3  UNL     1     -34.284  15.387  -2.790  1.00 20.00     0.014 A 
HETATM    3  C4  UNL     1     -33.687  14.326  -3.676  1.00 20.00     0.066 A 
ENDROOT
BRANCH   3   4
HETATM    4  C1  UNL     1     -34.518  13.707  -4.714  1.00 20.00     0.193 C 
HETATM    5  O5  UNL     1     -34.997  12.590  -4.584  1.00 20.00    -0.286 OA
HETATM    6  I6  UNL     1     -34.918  14.724  -6.477  1.00 20.00    -0.001 I 
ENDBRANCH   3   4
TORSDOF 1
ENDMDL
MODEL 5
REMARK VINA RESULT:      -3.4      2.889      3.543
REMARK  1 active torsions:
REMARK  status: ('A' for Active; 'I' for Inactive)
REMARK    1  A    between atoms: C1_1  and  C4_4 
ROOT
HETATM    1  C2  UNL     1     -32.832   6.917   2.557  1.00 20.00     0.014 A 
HETATM    2  C3  UNL     1     -32.373   7.026   3.979  1.00 20.00     0.014 A 
HETATM    3  C4  UNL     1     -33.065   5.775   3.507  1.00 20.00     0.066 A 
ENDROOT
BRANCH   3   4
HETATM    4  C1  UNL     1     -34.427   5.489   3.970  1.00 20.00     0.193 C 
HETATM    5  O5  UNL     1     -35.408   5.687   3.268  1.00 20.00    -0.286 OA
HETATM    6  I6  UNL     1     -34.746   4.722   5.871  1.00 20.00    -0.001 I 
ENDBRANCH   3   4
TORSDOF 1
ENDMDL
MODEL 6
REMARK VINA RESULT:      -3.3      1.236      1.691
REMARK  1 active torsions:
REMARK  status: ('A' for Active; 'I' for Inactive)
REMARK    1  A    between atoms: C1_1  and  C4_4 
ROOT
HETATM    1  C2  UNL     1     -35.246   4.536   4.813  1.00 20.00     0.014 A 
HETATM    2  C3  UNL     1     -35.825   5.498   3.820  1.00 20.00     0.014 A 
HETATM    3  C4  UNL     1     -34.340   5.254   3.850  1.00 20.00     0.066 A 
ENDROOT
BRANCH   3   4
HETATM    4  C1  UNL     1     -33.449   6.308   4.348  1.00 20.00     0.193 C 
HETATM    5  O5  UNL     1     -33.456   6.668   5.516  1.00 20.00    -0.286 OA
HETATM    6  I6  UNL     1     -32.117   7.243   3.063  1.00 20.00    -0.001 I 
ENDBRANCH   3   4
TORSDOF 1
ENDMDL
MODEL 7
REMARK VINA RESULT:      -3.3      2.807      3.454
REMARK  1 active torsions:
REMARK  status: ('A' for Active; 'I' for Inactive)
REMARK    1  A    between atoms: C1_1  and  C4_4 
ROOT
HETATM    1  C2  UNL     1     -32.419   6.810   4.165  1.00 20.00     0.014 A 
HETATM    2  C3  UNL     1     -32.447   5.958   2.932  1.00 20.00     0.014 A 
HETATM    3  C4  UNL     1     -33.715   6.597   3.431  1.00 20.00     0.066 A 
ENDROOT
BRANCH   3   4
HETATM    4  C1  UNL     1     -34.755   5.756   4.033  1.00 20.00     0.193 C 
HETATM    5  O5  UNL     1     -35.787   5.473   3.442  1.00 20.00    -0.286 OA
HETATM    6  I6  UNL     1     -34.509   5.000   5.949  1.00 20.00    -0.001 I 
ENDBRANCH   3   4
TORSDOF 1
ENDMDL
MODEL 8
REMARK VINA RESULT:      -3.1     12.891     13.225
REMARK  1 active torsions:
REMARK  status: ('A' for Active; 'I' for Inactive)
REMARK    1  A    between atoms: C1_1  and  C4_4 
ROOT
HETATM    1  C2  UNL     1     -35.326  16.528  -2.763  1.00 20.00     0.014 A 
HETATM    2  C3  UNL     1     -34.452  16.283  -1.571  1.00 20.00     0.014 A 
HETATM    3  C4  UNL     1     -33.856  16.272  -2.954  1.00 20.00     0.066 A 
ENDROOT
BRANCH   3   4
HETATM    4  C1  UNL     1     -33.416  15.000  -3.537  1.00 20.00     0.193 C 
HETATM    5  O5  UNL     1     -32.241  14.663  -3.551  1.00 20.00    -0.286 OA
HETATM    6  I6  UNL     1     -34.798  13.700  -4.374  1.00 20.00    -0.001 I 
ENDBRANCH   3   4
TORSDOF 1
ENDMDL
MODEL 9
REMARK VINA RESULT:      -3.1     12.642     12.957
REMARK  1 active torsions:
REMARK  status: ('A' for Active; 'I' for Inactive)
REMARK    1  A    between atoms: C1_1  and  C4_4 
ROOT
HETATM    1  C2  UNL     1     -35.859  13.918  -4.185  1.00 20.00     0.014 A 
HETATM    2  C3  UNL     1     -34.878  13.645  -5.285  1.00 20.00     0.014 A 
HETATM    3  C4  UNL     1     -34.411  13.680  -3.855  1.00 20.00     0.066 A 
ENDROOT
BRANCH   3   4
HETATM    4  C1  UNL     1     -33.582  14.801  -3.396  1.00 20.00     0.193 C 
HETATM    5  O5  UNL     1     -32.380  14.851  -3.609  1.00 20.00    -0.286 OA
HETATM    6  I6  UNL     1     -34.438  16.373  -2.349  1.00 20.00    -0.001 I 
ENDBRANCH   3   4
TORSDOF 1
ENDMDL
