MODEL 1
REMARK VINA RESULT:      -5.2      0.000      0.000
REMARK  0 active torsions:
REMARK  status: ('A' for Active; 'I' for Inactive)
ROOT
HETATM    1  C1  UNL     1     -33.535   6.464   4.675  1.00 20.00     0.352 C 
HETATM    2  C2  UNL     1     -34.685   5.084   6.029  1.00 20.00     0.451 C 
HETATM    3  C3  UNL     1     -35.004   4.762   4.607  1.00 20.00     0.451 C 
HETATM    4  O4  UNL     1     -34.121   6.387   5.982  1.00 20.00    -0.294 OA
HETATM    5  O5  UNL     1     -33.954   5.360   3.862  1.00 20.00    -0.294 OA
HETATM    6  F6  UNL     1     -33.756   4.242   6.531  1.00 20.00    -0.166 F 
HETATM    7  F7  UNL     1     -35.763   5.062   6.830  1.00 20.00    -0.166 F 
HETATM    8  F8  UNL     1     -36.168   5.328   4.220  1.00 20.00    -0.166 F 
HETATM    9  F9  UNL     1     -35.065   3.441   4.367  1.00 20.00    -0.166 F 
ENDROOT
TORSDOF 0
ENDMDL
MODEL 2
REMARK VINA RESULT:      -5.2      0.245      2.557
REMARK  0 active torsions:
REMARK  status: ('A' for Active; 'I' for Inactive)
ROOT
HETATM    1  C1  UNL     1     -33.483   6.369   4.321  1.00 20.00     0.352 C 
HETATM    2  C2  UNL     1     -35.045   4.765   4.531  1.00 20.00     0.451 C 
HETATM    3  C3  UNL     1     -34.585   5.189   5.886  1.00 20.00     0.451 C 
HETATM    4  O4  UNL     1     -34.032   5.227   3.649  1.00 20.00    -0.294 OA
HETATM    5  O5  UNL     1     -33.955   6.443   5.672  1.00 20.00    -0.294 OA
HETATM    6  F6  UNL     1     -36.206   5.368   4.191  1.00 20.00    -0.166 F 
HETATM    7  F7  UNL     1     -35.203   3.436   4.419  1.00 20.00    -0.166 F 
HETATM    8  F8  UNL     1     -33.664   4.336   6.386  1.00 20.00    -0.166 F 
HETATM    9  F9  UNL     1     -35.590   5.307   6.771  1.00 20.00    -0.166 F 
ENDROOT
TORSDOF 0
ENDMDL
MODEL 3
REMARK VINA RESULT:      -4.6      0.819      2.549
REMARK  0 active torsions:
REMARK  status: ('A' for Active; 'I' for Inactive)
ROOT
HETATM    1  C1  UNL     1     -33.861   6.682   5.678  1.00 20.00     0.352 C 
HETATM    2  C2  UNL     1     -34.857   5.036   4.513  1.00 20.00     0.451 C 
HETATM    3  C3  UNL     1     -34.720   4.620   5.939  1.00 20.00     0.451 C 
HETATM    4  O4  UNL     1     -33.941   6.111   4.365  1.00 20.00    -0.294 OA
HETATM    5  O5  UNL     1     -34.492   5.831   6.643  1.00 20.00    -0.294 OA
HETATM    6  F6  UNL     1     -36.098   5.502   4.250  1.00 20.00    -0.166 F 
HETATM    7  F7  UNL     1     -34.576   4.049   3.645  1.00 20.00    -0.166 F 
HETATM    8  F8  UNL     1     -33.645   3.820   6.121  1.00 20.00    -0.166 F 
HETATM    9  F9  UNL     1     -35.810   3.991   6.412  1.00 20.00    -0.166 F 
ENDROOT
TORSDOF 0
ENDMDL
MODEL 4
REMARK VINA RESULT:      -4.6      1.443      1.699
REMARK  0 active torsions:
REMARK  status: ('A' for Active; 'I' for Inactive)
ROOT
HETATM    1  C1  UNL     1     -34.052   6.626   6.426  1.00 20.00     0.352 C 
HETATM    2  C2  UNL     1     -34.604   4.718   5.371  1.00 20.00     0.451 C 
HETATM    3  C3  UNL     1     -34.085   5.702   4.376  1.00 20.00     0.451 C 
HETATM    4  O4  UNL     1     -34.940   5.502   6.506  1.00 20.00    -0.294 OA
HETATM    5  O5  UNL     1     -33.390   6.663   5.156  1.00 20.00    -0.294 OA
HETATM    6  F6  UNL     1     -33.652   3.833   5.738  1.00 20.00    -0.166 F 
HETATM    7  F7  UNL     1     -35.676   4.037   4.930  1.00 20.00    -0.166 F 
HETATM    8  F8  UNL     1     -35.090   6.332   3.730  1.00 20.00    -0.166 F 
HETATM    9  F9  UNL     1     -33.267   5.148   3.465  1.00 20.00    -0.166 F 
ENDROOT
TORSDOF 0
ENDMDL
MODEL 5
REMARK VINA RESULT:      -4.6      1.438      2.586
REMARK  0 active torsions:
REMARK  status: ('A' for Active; 'I' for Inactive)
ROOT
HETATM    1  C1  UNL     1     -34.058   6.623   6.424  1.00 20.00     0.352 C 
HETATM    2  C2  UNL     1     -34.106   5.696   4.375  1.00 20.00     0.451 C 
HETATM    3  C3  UNL     1     -34.623   4.716   5.375  1.00 20.00     0.451 C 
HETATM    4  O4  UNL     1     -33.401   6.656   5.149  1.00 20.00    -0.294 OA
HETATM    5  O5  UNL     1     -34.948   5.504   6.510  1.00 20.00    -0.294 OA
HETATM    6  F6  UNL     1     -35.112   6.329   3.734  1.00 20.00    -0.166 F 
HETATM    7  F7  UNL     1     -33.296   5.138   3.459  1.00 20.00    -0.166 F 
HETATM    8  F8  UNL     1     -33.672   3.828   5.738  1.00 20.00    -0.166 F 
HETATM    9  F9  UNL     1     -35.701   4.040   4.941  1.00 20.00    -0.166 F 
ENDROOT
TORSDOF 0
ENDMDL
MODEL 6
REMARK VINA RESULT:      -4.6      1.591      2.543
REMARK  0 active torsions:
REMARK  status: ('A' for Active; 'I' for Inactive)
ROOT
HETATM    1  C1  UNL     1     -35.505   5.408   3.672  1.00 20.00     0.352 C 
HETATM    2  C2  UNL     1     -34.569   4.765   5.613  1.00 20.00     0.451 C 
HETATM    3  C3  UNL     1     -33.865   5.976   5.101  1.00 20.00     0.451 C 
HETATM    4  O4  UNL     1     -35.262   4.252   4.485  1.00 20.00    -0.294 OA
HETATM    5  O5  UNL     1     -34.760   6.534   4.151  1.00 20.00    -0.294 OA
HETATM    6  F6  UNL     1     -35.481   5.083   6.558  1.00 20.00    -0.166 F 
HETATM    7  F7  UNL     1     -33.733   3.841   6.118  1.00 20.00    -0.166 F 
HETATM    8  F8  UNL     1     -32.721   5.651   4.460  1.00 20.00    -0.166 F 
HETATM    9  F9  UNL     1     -33.579   6.868   6.067  1.00 20.00    -0.166 F 
ENDROOT
TORSDOF 0
ENDMDL
MODEL 7
REMARK VINA RESULT:      -4.5      1.591      2.201
REMARK  0 active torsions:
REMARK  status: ('A' for Active; 'I' for Inactive)
ROOT
HETATM    1  C1  UNL     1     -35.505   5.409   3.669  1.00 20.00     0.352 C 
HETATM    2  C2  UNL     1     -33.863   5.974   5.097  1.00 20.00     0.451 C 
HETATM    3  C3  UNL     1     -34.569   4.763   5.609  1.00 20.00     0.451 C 
HETATM    4  O4  UNL     1     -34.758   6.535   4.148  1.00 20.00    -0.294 OA
HETATM    5  O5  UNL     1     -35.264   4.253   4.481  1.00 20.00    -0.294 OA
HETATM    6  F6  UNL     1     -32.720   5.646   4.455  1.00 20.00    -0.166 F 
HETATM    7  F7  UNL     1     -33.574   6.864   6.062  1.00 20.00    -0.166 F 
HETATM    8  F8  UNL     1     -35.481   5.083   6.554  1.00 20.00    -0.166 F 
HETATM    9  F9  UNL     1     -33.734   3.838   6.111  1.00 20.00    -0.166 F 
ENDROOT
TORSDOF 0
ENDMDL
MODEL 8
REMARK VINA RESULT:      -4.2      8.450      9.417
REMARK  0 active torsions:
REMARK  status: ('A' for Active; 'I' for Inactive)
ROOT
HETATM    1  C1  UNL     1     -42.199   5.892  -2.344  1.00 20.00     0.352 C 
HETATM    2  C2  UNL     1     -42.248   5.225  -0.196  1.00 20.00     0.451 C 
HETATM    3  C3  UNL     1     -40.850   5.588  -0.571  1.00 20.00     0.451 C 
HETATM    4  O4  UNL     1     -42.913   5.040  -1.438  1.00 20.00    -0.294 OA
HETATM    5  O5  UNL     1     -40.987   6.370  -1.747  1.00 20.00    -0.294 OA
HETATM    6  F6  UNL     1     -42.862   6.232   0.463  1.00 20.00    -0.166 F 
HETATM    7  F7  UNL     1     -42.322   4.112   0.553  1.00 20.00    -0.166 F 
HETATM    8  F8  UNL     1     -40.119   4.493  -0.878  1.00 20.00    -0.166 F 
HETATM    9  F9  UNL     1     -40.209   6.279   0.388  1.00 20.00    -0.166 F 
ENDROOT
TORSDOF 0
ENDMDL
MODEL 9
REMARK VINA RESULT:      -4.2      8.435      9.324
REMARK  0 active torsions:
REMARK  status: ('A' for Active; 'I' for Inactive)
ROOT
HETATM    1  C1  UNL     1     -42.178   5.954  -2.344  1.00 20.00     0.352 C 
HETATM    2  C2  UNL     1     -40.842   5.609  -0.568  1.00 20.00     0.451 C 
HETATM    3  C3  UNL     1     -42.245   5.249  -0.209  1.00 20.00     0.451 C 
HETATM    4  O4  UNL     1     -40.967   6.415  -1.731  1.00 20.00    -0.294 OA
HETATM    5  O5  UNL     1     -42.902   5.091  -1.457  1.00 20.00    -0.294 OA
HETATM    6  F6  UNL     1     -40.116   4.516  -0.890  1.00 20.00    -0.166 F 
HETATM    7  F7  UNL     1     -40.202   6.277   0.407  1.00 20.00    -0.166 F 
HETATM    8  F8  UNL     1     -42.856   6.248   0.465  1.00 20.00    -0.166 F 
HETATM    9  F9  UNL     1     -42.330   4.122   0.519  1.00 20.00    -0.166 F 
ENDROOT
TORSDOF 0
ENDMDL
