MODEL 1
REMARK VINA RESULT:      -4.1      0.000      0.000
REMARK  1 active torsions:
REMARK  status: ('A' for Active; 'I' for Inactive)
REMARK    1  A    between atoms: C1_1  and  C4_4 
ROOT
HETATM    1  C1  UNL     1     -33.517   6.404   3.842  1.00 20.00    -0.049 C 
HETATM    2  C2  UNL     1     -32.799   7.007   3.093  1.00 20.00     0.008 C 
HETATM    3 CL8  UNL     1     -31.750   7.889   1.998  1.00 20.00    -0.023 Cl
ENDROOT
BRANCH   1   4
HETATM    4  C4  UNL     1     -34.375   5.684   4.736  1.00 20.00     0.147 A 
HETATM    5  C3  UNL     1     -34.407   6.027   6.212  1.00 20.00     0.166 A 
HETATM    6  C5  UNL     1     -33.586   7.110   6.820  1.00 20.00     0.044 C 
HETATM    7  O7  UNL     1     -33.650   4.919   5.714  1.00 20.00    -0.356 OA
HETATM    8  C6  UNL     1     -35.525   4.944   4.135  1.00 20.00     0.063 C 
ENDBRANCH   1   4
TORSDOF 1
ENDMDL
MODEL 2
REMARK VINA RESULT:      -3.7     11.561     12.790
REMARK  1 active torsions:
REMARK  status: ('A' for Active; 'I' for Inactive)
REMARK    1  A    between atoms: C1_1  and  C4_4 
ROOT
HETATM    1  C1  UNL     1     -34.028  16.418  -2.491  1.00 20.00    -0.049 C 
HETATM    2  C2  UNL     1     -34.380  16.679  -1.374  1.00 20.00     0.008 C 
HETATM    3 CL8  UNL     1     -34.893  17.063   0.259  1.00 20.00    -0.023 Cl
ENDROOT
BRANCH   1   4
HETATM    4  C4  UNL     1     -33.609  16.105  -3.825  1.00 20.00     0.147 A 
HETATM    5  C3  UNL     1     -33.809  14.712  -4.386  1.00 20.00     0.166 A 
HETATM    6  C5  UNL     1     -34.447  13.604  -3.622  1.00 20.00     0.044 C 
HETATM    7  O7  UNL     1     -32.546  15.138  -3.867  1.00 20.00    -0.356 OA
HETATM    8  C6  UNL     1     -33.411  17.249  -4.767  1.00 20.00     0.063 C 
ENDBRANCH   1   4
TORSDOF 1
ENDMDL
MODEL 3
REMARK VINA RESULT:      -3.7     11.929     13.021
REMARK  1 active torsions:
REMARK  status: ('A' for Active; 'I' for Inactive)
REMARK    1  A    between atoms: C1_1  and  C4_4 
ROOT
HETATM    1  C1  UNL     1     -34.262  15.815  -2.615  1.00 20.00    -0.049 C 
HETATM    2  C2  UNL     1     -34.503  16.320  -1.554  1.00 20.00     0.008 C 
HETATM    3 CL8  UNL     1     -34.857  17.057  -0.002  1.00 20.00    -0.023 Cl
ENDROOT
BRANCH   1   4
HETATM    4  C4  UNL     1     -33.974  15.213  -3.883  1.00 20.00     0.147 A 
HETATM    5  C3  UNL     1     -33.594  16.071  -5.072  1.00 20.00     0.166 A 
HETATM    6  C5  UNL     1     -33.484  17.554  -5.011  1.00 20.00     0.044 C 
HETATM    7  O7  UNL     1     -34.923  15.568  -4.903  1.00 20.00    -0.356 OA
HETATM    8  C6  UNL     1     -33.613  13.762  -3.885  1.00 20.00     0.063 C 
ENDBRANCH   1   4
TORSDOF 1
ENDMDL
MODEL 4
REMARK VINA RESULT:      -3.6     11.784     12.588
REMARK  1 active torsions:
REMARK  status: ('A' for Active; 'I' for Inactive)
REMARK    1  A    between atoms: C1_1  and  C4_4 
ROOT
HETATM    1  C1  UNL     1     -35.285  15.297  -2.935  1.00 20.00    -0.049 C 
HETATM    2  C2  UNL     1     -34.831  15.999  -2.073  1.00 20.00     0.008 C 
HETATM    3 CL8  UNL     1     -34.170  17.024  -0.813  1.00 20.00    -0.023 Cl
ENDROOT
BRANCH   1   4
HETATM    4  C4  UNL     1     -35.825  14.459  -3.964  1.00 20.00     0.147 A 
HETATM    5  C3  UNL     1     -36.903  14.982  -4.891  1.00 20.00     0.166 A 
HETATM    6  C5  UNL     1     -37.455  16.362  -4.813  1.00 20.00     0.044 C 
HETATM    7  O7  UNL     1     -37.216  14.154  -3.767  1.00 20.00    -0.356 OA
HETATM    8  C6  UNL     1     -35.010  13.279  -4.385  1.00 20.00     0.063 C 
ENDBRANCH   1   4
TORSDOF 1
ENDMDL
MODEL 5
REMARK VINA RESULT:      -3.5      9.827     10.906
REMARK  1 active torsions:
REMARK  status: ('A' for Active; 'I' for Inactive)
REMARK    1  A    between atoms: C1_1  and  C4_4 
ROOT
HETATM    1  C1  UNL     1     -41.637   4.287  -1.996  1.00 20.00    -0.049 C 
HETATM    2  C2  UNL     1     -41.576   3.288  -2.657  1.00 20.00     0.008 C 
HETATM    3 CL8  UNL     1     -41.485   1.828  -3.624  1.00 20.00    -0.023 Cl
ENDROOT
BRANCH   1   4
HETATM    4  C4  UNL     1     -41.710   5.481  -1.206  1.00 20.00     0.147 A 
HETATM    5  C3  UNL     1     -42.207   6.776  -1.816  1.00 20.00     0.166 A 
HETATM    6  C5  UNL     1     -42.653   6.898  -3.231  1.00 20.00     0.044 C 
HETATM    7  O7  UNL     1     -40.811   6.508  -1.655  1.00 20.00    -0.356 OA
HETATM    8  C6  UNL     1     -41.734   5.318   0.280  1.00 20.00     0.063 C 
ENDBRANCH   1   4
TORSDOF 1
ENDMDL
MODEL 6
REMARK VINA RESULT:      -3.5     11.768     12.265
REMARK  1 active torsions:
REMARK  status: ('A' for Active; 'I' for Inactive)
REMARK    1  A    between atoms: C1_1  and  C4_4 
ROOT
HETATM    1  C1  UNL     1     -35.147  15.715  -2.493  1.00 20.00    -0.049 C 
HETATM    2  C2  UNL     1     -34.744  16.384  -1.582  1.00 20.00     0.008 C 
HETATM    3 CL8  UNL     1     -34.154  17.363  -0.251  1.00 20.00    -0.023 Cl
ENDROOT
BRANCH   1   4
HETATM    4  C4  UNL     1     -35.628  14.916  -3.581  1.00 20.00     0.147 A 
HETATM    5  C3  UNL     1     -34.737  13.868  -4.216  1.00 20.00     0.166 A 
HETATM    6  C5  UNL     1     -33.345  13.592  -3.766  1.00 20.00     0.044 C 
HETATM    7  O7  UNL     1     -34.923  15.157  -4.810  1.00 20.00    -0.356 OA
HETATM    8  C6  UNL     1     -37.109  14.816  -3.754  1.00 20.00     0.063 C 
ENDBRANCH   1   4
TORSDOF 1
ENDMDL
MODEL 7
REMARK VINA RESULT:      -3.5      2.492      3.346
REMARK  1 active torsions:
REMARK  status: ('A' for Active; 'I' for Inactive)
REMARK    1  A    between atoms: C1_1  and  C4_4 
ROOT
HETATM    1  C1  UNL     1     -34.176   6.099   5.710  1.00 20.00    -0.049 C 
HETATM    2  C2  UNL     1     -33.872   6.901   6.549  1.00 20.00     0.008 C 
HETATM    3 CL8  UNL     1     -33.428   8.074   7.775  1.00 20.00    -0.023 Cl
ENDROOT
BRANCH   1   4
HETATM    4  C4  UNL     1     -34.539   5.141   4.708  1.00 20.00     0.147 A 
HETATM    5  C3  UNL     1     -33.969   5.240   3.308  1.00 20.00     0.166 A 
HETATM    6  C5  UNL     1     -33.011   6.299   2.886  1.00 20.00     0.044 C 
HETATM    7  O7  UNL     1     -35.281   5.719   3.621  1.00 20.00    -0.356 OA
HETATM    8  C6  UNL     1     -35.093   3.834   5.179  1.00 20.00     0.063 C 
ENDBRANCH   1   4
TORSDOF 1
ENDMDL
MODEL 8
REMARK VINA RESULT:      -3.4     11.867     12.978
REMARK  1 active torsions:
REMARK  status: ('A' for Active; 'I' for Inactive)
REMARK    1  A    between atoms: C1_1  and  C4_4 
ROOT
HETATM    1  C1  UNL     1     -36.443  14.457  -4.111  1.00 20.00    -0.049 C 
HETATM    2  C2  UNL     1     -37.582  14.739  -3.861  1.00 20.00     0.008 C 
HETATM    3 CL8  UNL     1     -39.247  15.152  -3.493  1.00 20.00    -0.023 Cl
ENDROOT
BRANCH   1   4
HETATM    4  C4  UNL     1     -35.083  14.119  -4.411  1.00 20.00     0.147 A 
HETATM    5  C3  UNL     1     -34.602  14.073  -5.847  1.00 20.00     0.166 A 
HETATM    6  C5  UNL     1     -35.475  14.377  -7.015  1.00 20.00     0.044 C 
HETATM    7  O7  UNL     1     -34.957  12.884  -5.135  1.00 20.00    -0.356 OA
HETATM    8  C6  UNL     1     -34.082  14.269  -3.311  1.00 20.00     0.063 C 
ENDBRANCH   1   4
TORSDOF 1
ENDMDL
MODEL 9
REMARK VINA RESULT:      -3.3     11.369     12.321
REMARK  1 active torsions:
REMARK  status: ('A' for Active; 'I' for Inactive)
REMARK    1  A    between atoms: C1_1  and  C4_4 
ROOT
HETATM    1  C1  UNL     1     -34.627  15.076  -3.109  1.00 20.00    -0.049 C 
HETATM    2  C2  UNL     1     -35.069  15.994  -2.476  1.00 20.00     0.008 C 
HETATM    3 CL8  UNL     1     -35.716  17.337  -1.551  1.00 20.00    -0.023 Cl
ENDROOT
BRANCH   1   4
HETATM    4  C4  UNL     1     -34.099  13.979  -3.865  1.00 20.00     0.147 A 
HETATM    5  C3  UNL     1     -34.619  13.686  -5.258  1.00 20.00     0.166 A 
HETATM    6  C5  UNL     1     -35.673  14.495  -5.927  1.00 20.00     0.044 C 
HETATM    7  O7  UNL     1     -35.071  12.950  -4.117  1.00 20.00    -0.356 OA
HETATM    8  C6  UNL     1     -32.762  13.448  -3.459  1.00 20.00     0.063 C 
ENDBRANCH   1   4
TORSDOF 1
ENDMDL
