MODEL 1
REMARK VINA RESULT:      -4.6      0.000      0.000
REMARK  0 active torsions:
REMARK  status: ('A' for Active; 'I' for Inactive)
ROOT
HETATM    1  C1  UNL     1     -33.683  18.961  -4.750  1.00 20.00     0.015 C 
HETATM    2  C2  UNL     1     -34.658  17.041  -0.307  1.00 20.00     0.015 C 
HETATM    3  C3  UNL     1     -33.641  17.870  -4.252  1.00 20.00    -0.082 C 
HETATM    4  C4  UNL     1     -34.736  16.668  -1.446  1.00 20.00    -0.082 C 
HETATM    5  C5  UNL     1     -33.589  16.539  -3.645  1.00 20.00     0.243 C 
HETATM    6  C6  UNL     1     -34.830  16.215  -2.834  1.00 20.00     0.243 C 
HETATM    7  C7  UNL     1     -34.258  14.408  -4.102  1.00 20.00     0.160 C 
HETATM    8  C8  UNL     1     -35.310  13.929  -5.093  1.00 20.00     0.078 C 
HETATM    9  C9  UNL     1     -33.243  13.312  -3.800  1.00 20.00     0.078 C 
HETATM   10  O10 UNL     1     -33.578  15.537  -4.666  1.00 20.00    -0.335 OA
HETATM   11  O11 UNL     1     -34.899  14.785  -2.877  1.00 20.00    -0.335 OA
ENDROOT
TORSDOF 0
ENDMDL
MODEL 2
REMARK VINA RESULT:      -4.6      0.162      2.988
REMARK  0 active torsions:
REMARK  status: ('A' for Active; 'I' for Inactive)
ROOT
HETATM    1  C1  UNL     1     -34.755  17.026  -0.294  1.00 20.00     0.015 C 
HETATM    2  C2  UNL     1     -33.593  19.098  -4.622  1.00 20.00     0.015 C 
HETATM    3  C3  UNL     1     -34.813  16.705  -1.449  1.00 20.00    -0.082 C 
HETATM    4  C4  UNL     1     -33.601  17.985  -4.171  1.00 20.00    -0.082 C 
HETATM    5  C5  UNL     1     -34.886  16.314  -2.858  1.00 20.00     0.243 C 
HETATM    6  C6  UNL     1     -33.612  16.629  -3.620  1.00 20.00     0.243 C 
HETATM    7  C7  UNL     1     -34.339  14.543  -4.186  1.00 20.00     0.160 C 
HETATM    8  C8  UNL     1     -33.371  13.402  -3.904  1.00 20.00     0.078 C 
HETATM    9  C9  UNL     1     -35.379  14.143  -5.224  1.00 20.00     0.078 C 
HETATM   10  O10 UNL     1     -35.002  14.892  -2.964  1.00 20.00    -0.335 OA
HETATM   11  O11 UNL     1     -33.607  15.670  -4.684  1.00 20.00    -0.335 OA
ENDROOT
TORSDOF 0
ENDMDL
MODEL 3
REMARK VINA RESULT:      -4.3      1.848      4.348
REMARK  0 active torsions:
REMARK  status: ('A' for Active; 'I' for Inactive)
ROOT
HETATM    1  C1  UNL     1     -38.583  14.792  -3.957  1.00 20.00     0.015 C 
HETATM    2  C2  UNL     1     -35.636  14.718  -7.918  1.00 20.00     0.015 C 
HETATM    3  C3  UNL     1     -37.414  14.611  -4.161  1.00 20.00    -0.082 C 
HETATM    4  C4  UNL     1     -35.525  15.031  -6.764  1.00 20.00    -0.082 C 
HETATM    5  C5  UNL     1     -35.989  14.389  -4.411  1.00 20.00     0.243 C 
HETATM    6  C6  UNL     1     -35.392  15.414  -5.358  1.00 20.00     0.243 C 
HETATM    7  C7  UNL     1     -33.969  15.080  -3.607  1.00 20.00     0.160 C 
HETATM    8  C8  UNL     1     -33.646  16.309  -2.768  1.00 20.00     0.078 C 
HETATM    9  C9  UNL     1     -32.918  13.993  -3.424  1.00 20.00     0.078 C 
HETATM   10  O10 UNL     1     -35.247  14.573  -3.200  1.00 20.00    -0.335 OA
HETATM   11  O11 UNL     1     -34.008  15.449  -4.991  1.00 20.00    -0.335 OA
ENDROOT
TORSDOF 0
ENDMDL
MODEL 4
REMARK VINA RESULT:      -4.2      1.433      3.446
REMARK  0 active torsions:
REMARK  status: ('A' for Active; 'I' for Inactive)
ROOT
HETATM    1  C1  UNL     1     -33.355  13.539  -3.736  1.00 20.00     0.015 C 
HETATM    2  C2  UNL     1     -34.680  16.880  -0.350  1.00 20.00     0.015 C 
HETATM    3  C3  UNL     1     -33.949  14.582  -3.737  1.00 20.00    -0.082 C 
HETATM    4  C4  UNL     1     -34.365  16.901  -1.509  1.00 20.00    -0.082 C 
HETATM    5  C5  UNL     1     -34.675  15.853  -3.739  1.00 20.00     0.243 C 
HETATM    6  C6  UNL     1     -33.980  16.927  -2.921  1.00 20.00     0.243 C 
HETATM    7  C7  UNL     1     -34.702  17.822  -4.890  1.00 20.00     0.160 C 
HETATM    8  C8  UNL     1     -33.625  18.419  -5.784  1.00 20.00     0.078 C 
HETATM    9  C9  UNL     1     -36.080  18.368  -5.243  1.00 20.00     0.078 C 
HETATM   10  O10 UNL     1     -34.701  16.398  -5.062  1.00 20.00    -0.335 OA
HETATM   11  O11 UNL     1     -34.417  18.150  -3.524  1.00 20.00    -0.335 OA
ENDROOT
TORSDOF 0
ENDMDL
MODEL 5
REMARK VINA RESULT:      -4.2      1.436      3.705
REMARK  0 active torsions:
REMARK  status: ('A' for Active; 'I' for Inactive)
ROOT
HETATM    1  C1  UNL     1     -34.667  16.875  -0.387  1.00 20.00     0.015 C 
HETATM    2  C2  UNL     1     -33.447  13.510  -3.788  1.00 20.00     0.015 C 
HETATM    3  C3  UNL     1     -34.362  16.891  -1.548  1.00 20.00    -0.082 C 
HETATM    4  C4  UNL     1     -34.018  14.566  -3.783  1.00 20.00    -0.082 C 
HETATM    5  C5  UNL     1     -33.989  16.910  -2.964  1.00 20.00     0.243 C 
HETATM    6  C6  UNL     1     -34.714  15.854  -3.777  1.00 20.00     0.243 C 
HETATM    7  C7  UNL     1     -34.710  17.824  -4.925  1.00 20.00     0.160 C 
HETATM    8  C8  UNL     1     -36.078  18.401  -5.262  1.00 20.00     0.078 C 
HETATM    9  C9  UNL     1     -33.628  18.401  -5.829  1.00 20.00     0.078 C 
HETATM   10  O10 UNL     1     -34.404  18.143  -3.561  1.00 20.00    -0.335 OA
HETATM   11  O11 UNL     1     -34.741  16.402  -5.099  1.00 20.00    -0.335 OA
ENDROOT
TORSDOF 0
ENDMDL
MODEL 6
REMARK VINA RESULT:      -4.2      2.032      3.560
REMARK  0 active torsions:
REMARK  status: ('A' for Active; 'I' for Inactive)
ROOT
HETATM    1  C1  UNL     1     -36.385  14.798  -7.918  1.00 20.00     0.015 C 
HETATM    2  C2  UNL     1     -38.841  15.106  -3.646  1.00 20.00     0.015 C 
HETATM    3  C3  UNL     1     -36.110  15.064  -6.780  1.00 20.00    -0.082 C 
HETATM    4  C4  UNL     1     -37.732  14.795  -3.985  1.00 20.00    -0.082 C 
HETATM    5  C5  UNL     1     -35.775  15.389  -5.393  1.00 20.00     0.243 C 
HETATM    6  C6  UNL     1     -36.381  14.415  -4.399  1.00 20.00     0.243 C 
HETATM    7  C7  UNL     1     -34.216  14.841  -3.822  1.00 20.00     0.160 C 
HETATM    8  C8  UNL     1     -33.289  13.634  -3.777  1.00 20.00     0.078 C 
HETATM    9  C9  UNL     1     -33.654  16.000  -3.007  1.00 20.00     0.078 C 
HETATM   10  O10 UNL     1     -34.365  15.253  -5.187  1.00 20.00    -0.335 OA
HETATM   11  O11 UNL     1     -35.491  14.477  -3.278  1.00 20.00    -0.335 OA
ENDROOT
TORSDOF 0
ENDMDL
MODEL 7
REMARK VINA RESULT:      -4.2      2.091      3.692
REMARK  0 active torsions:
REMARK  status: ('A' for Active; 'I' for Inactive)
ROOT
HETATM    1  C1  UNL     1     -34.565  17.002  -0.456  1.00 20.00     0.015 C 
HETATM    2  C2  UNL     1     -33.165  13.643  -3.793  1.00 20.00     0.015 C 
HETATM    3  C3  UNL     1     -34.923  16.672  -1.553  1.00 20.00    -0.082 C 
HETATM    4  C4  UNL     1     -34.201  14.148  -3.458  1.00 20.00    -0.082 C 
HETATM    5  C5  UNL     1     -35.359  16.271  -2.891  1.00 20.00     0.243 C 
HETATM    6  C6  UNL     1     -35.464  14.765  -3.048  1.00 20.00     0.243 C 
HETATM    7  C7  UNL     1     -37.287  15.755  -3.994  1.00 20.00     0.160 C 
HETATM    8  C8  UNL     1     -38.638  15.352  -3.418  1.00 20.00     0.078 C 
HETATM    9  C9  UNL     1     -37.436  16.348  -5.390  1.00 20.00     0.078 C 
HETATM   10  O10 UNL     1     -36.694  16.731  -3.128  1.00 20.00    -0.335 OA
HETATM   11  O11 UNL     1     -36.445  14.598  -4.078  1.00 20.00    -0.335 OA
ENDROOT
TORSDOF 0
ENDMDL
MODEL 8
REMARK VINA RESULT:      -4.2      1.784      2.598
REMARK  0 active torsions:
REMARK  status: ('A' for Active; 'I' for Inactive)
ROOT
HETATM    1  C1  UNL     1     -38.576  16.648  -3.176  1.00 20.00     0.015 C 
HETATM    2  C2  UNL     1     -34.633  17.085  -0.236  1.00 20.00     0.015 C 
HETATM    3  C3  UNL     1     -37.385  16.677  -3.325  1.00 20.00    -0.082 C 
HETATM    4  C4  UNL     1     -34.886  16.520  -1.265  1.00 20.00    -0.082 C 
HETATM    5  C5  UNL     1     -35.933  16.713  -3.508  1.00 20.00     0.243 C 
HETATM    6  C6  UNL     1     -35.194  15.831  -2.519  1.00 20.00     0.243 C 
HETATM    7  C7  UNL     1     -34.303  15.550  -4.599  1.00 20.00     0.160 C 
HETATM    8  C8  UNL     1     -34.352  14.136  -5.159  1.00 20.00     0.078 C 
HETATM    9  C9  UNL     1     -33.246  16.389  -5.306  1.00 20.00     0.078 C 
HETATM   10  O10 UNL     1     -35.588  16.159  -4.782  1.00 20.00    -0.335 OA
HETATM   11  O11 UNL     1     -33.982  15.495  -3.203  1.00 20.00    -0.335 OA
ENDROOT
TORSDOF 0
ENDMDL
MODEL 9
REMARK VINA RESULT:      -4.2      1.796      2.993
REMARK  0 active torsions:
REMARK  status: ('A' for Active; 'I' for Inactive)
ROOT
HETATM    1  C1  UNL     1     -34.498  17.018  -0.418  1.00 20.00     0.015 C 
HETATM    2  C2  UNL     1     -38.544  16.603  -3.217  1.00 20.00     0.015 C 
HETATM    3  C3  UNL     1     -34.792  16.448  -1.432  1.00 20.00    -0.082 C 
HETATM    4  C4  UNL     1     -37.359  16.617  -3.408  1.00 20.00    -0.082 C 
HETATM    5  C5  UNL     1     -35.152  15.751  -2.668  1.00 20.00     0.243 C 
HETATM    6  C6  UNL     1     -35.914  16.634  -3.640  1.00 20.00     0.243 C 
HETATM    7  C7  UNL     1     -34.334  15.443  -4.775  1.00 20.00     0.160 C 
HETATM    8  C8  UNL     1     -33.293  16.263  -5.523  1.00 20.00     0.078 C 
HETATM    9  C9  UNL     1     -34.418  14.023  -5.321  1.00 20.00     0.078 C 
HETATM   10  O10 UNL     1     -33.968  15.394  -3.389  1.00 20.00    -0.335 OA
HETATM   11  O11 UNL     1     -35.618  16.064  -4.920  1.00 20.00    -0.335 OA
ENDROOT
TORSDOF 0
ENDMDL
