MODEL 1
REMARK VINA RESULT:      -4.7      0.000      0.000
REMARK  2 active torsions:
REMARK  status: ('A' for Active; 'I' for Inactive)
REMARK    1  A    between atoms: C1_1  and  C7_7 
REMARK    2  A    between atoms: C4_4  and  C7_7 
ROOT
HETATM    1  C6  UNL     1     -34.943   5.481   3.316  1.00 20.00     0.018 C 
HETATM    2  C7  UNL     1     -33.922   6.394   3.988  1.00 20.00     0.055 C 
ENDROOT
BRANCH   2   3
HETATM    3  C1  UNL     1     -32.639   6.478   3.166  1.00 20.00     0.127 C 
HETATM    4  C5  UNL     1     -32.312   7.814   2.548  1.00 20.00     0.091 C 
HETATM    5  O8  UNL     1     -31.908   5.504   2.983  1.00 20.00    -0.298 OA
ENDBRANCH   2   3
BRANCH   2   6
HETATM    6  C4  UNL     1     -33.606   5.908   5.397  1.00 20.00    -0.004 A 
HETATM    7  C2  UNL     1     -34.042   6.712   6.590  1.00 20.00     0.006 A 
HETATM    8  C3  UNL     1     -34.706   5.399   6.286  1.00 20.00     0.006 A 
ENDBRANCH   2   6
TORSDOF 2
ENDMDL
MODEL 2
REMARK VINA RESULT:      -4.7      1.799      3.451
REMARK  2 active torsions:
REMARK  status: ('A' for Active; 'I' for Inactive)
REMARK    1  A    between atoms: C1_1  and  C7_7 
REMARK    2  A    between atoms: C4_4  and  C7_7 
ROOT
HETATM    1  C6  UNL     1     -35.716   5.912   3.327  1.00 20.00     0.018 C 
HETATM    2  C7  UNL     1     -34.448   5.302   3.917  1.00 20.00     0.055 C 
ENDROOT
BRANCH   2   3
HETATM    3  C1  UNL     1     -34.712   4.731   5.308  1.00 20.00     0.127 C 
HETATM    4  C5  UNL     1     -34.485   5.655   6.478  1.00 20.00     0.091 C 
HETATM    5  O8  UNL     1     -35.067   3.565   5.486  1.00 20.00    -0.298 OA
ENDBRANCH   2   3
BRANCH   2   6
HETATM    6  C4  UNL     1     -33.330   6.335   3.982  1.00 20.00    -0.004 A 
HETATM    7  C2  UNL     1     -32.052   6.116   3.220  1.00 20.00     0.006 A 
HETATM    8  C3  UNL     1     -33.014   7.184   2.782  1.00 20.00     0.006 A 
ENDBRANCH   2   6
TORSDOF 2
ENDMDL
MODEL 3
REMARK VINA RESULT:      -4.6      1.751      3.657
REMARK  2 active torsions:
REMARK  status: ('A' for Active; 'I' for Inactive)
REMARK    1  A    between atoms: C1_1  and  C7_7 
REMARK    2  A    between atoms: C4_4  and  C7_7 
ROOT
HETATM    1  C6  UNL     1     -33.673   6.666   6.325  1.00 20.00     0.018 C 
HETATM    2  C7  UNL     1     -34.063   6.435   4.867  1.00 20.00     0.055 C 
ENDROOT
BRANCH   2   3
HETATM    3  C1  UNL     1     -35.016   5.250   4.737  1.00 20.00     0.127 C 
HETATM    4  C5  UNL     1     -34.854   4.132   5.735  1.00 20.00     0.091 C 
HETATM    5  O8  UNL     1     -35.866   5.182   3.848  1.00 20.00    -0.298 OA
ENDBRANCH   2   3
BRANCH   2   6
HETATM    6  C4  UNL     1     -32.827   6.205   4.007  1.00 20.00    -0.004 A 
HETATM    7  C2  UNL     1     -32.691   6.895   2.678  1.00 20.00     0.006 A 
HETATM    8  C3  UNL     1     -31.814   7.302   3.829  1.00 20.00     0.006 A 
ENDBRANCH   2   6
TORSDOF 2
ENDMDL
MODEL 4
REMARK VINA RESULT:      -4.2     11.274     11.838
REMARK  2 active torsions:
REMARK  status: ('A' for Active; 'I' for Inactive)
REMARK    1  A    between atoms: C1_1  and  C7_7 
REMARK    2  A    between atoms: C4_4  and  C7_7 
ROOT
HETATM    1  C6  UNL     1     -32.829  14.786  -3.785  1.00 20.00     0.018 C 
HETATM    2  C7  UNL     1     -34.153  14.609  -3.047  1.00 20.00     0.055 C 
ENDROOT
BRANCH   2   3
HETATM    3  C1  UNL     1     -35.157  13.840  -3.900  1.00 20.00     0.127 C 
HETATM    4  C5  UNL     1     -36.509  14.476  -4.103  1.00 20.00     0.091 C 
HETATM    5  O8  UNL     1     -34.901  12.737  -4.386  1.00 20.00    -0.298 OA
ENDBRANCH   2   3
BRANCH   2   6
HETATM    6  C4  UNL     1     -34.736  15.960  -2.649  1.00 20.00    -0.004 A 
HETATM    7  C2  UNL     1     -34.752  16.381  -1.205  1.00 20.00     0.006 A 
HETATM    8  C3  UNL     1     -33.831  17.065  -2.177  1.00 20.00     0.006 A 
ENDBRANCH   2   6
TORSDOF 2
ENDMDL
MODEL 5
REMARK VINA RESULT:      -4.1      1.257      2.027
REMARK  2 active torsions:
REMARK  status: ('A' for Active; 'I' for Inactive)
REMARK    1  A    between atoms: C1_1  and  C7_7 
REMARK    2  A    between atoms: C4_4  and  C7_7 
ROOT
HETATM    1  C6  UNL     1     -33.378   7.132   5.867  1.00 20.00     0.018 C 
HETATM    2  C7  UNL     1     -33.463   5.874   5.007  1.00 20.00     0.055 C 
ENDROOT
BRANCH   2   3
HETATM    3  C1  UNL     1     -33.198   6.196   3.540  1.00 20.00     0.127 C 
HETATM    4  C5  UNL     1     -32.129   7.219   3.249  1.00 20.00     0.091 C 
HETATM    5  O8  UNL     1     -33.836   5.675   2.624  1.00 20.00    -0.298 OA
ENDBRANCH   2   3
BRANCH   2   6
HETATM    6  C4  UNL     1     -34.826   5.209   5.156  1.00 20.00    -0.004 A 
HETATM    7  C2  UNL     1     -34.926   3.715   5.304  1.00 20.00     0.006 A 
HETATM    8  C3  UNL     1     -35.235   4.609   6.473  1.00 20.00     0.006 A 
ENDBRANCH   2   6
TORSDOF 2
ENDMDL
MODEL 6
REMARK VINA RESULT:      -3.9     11.528     12.047
REMARK  2 active torsions:
REMARK  status: ('A' for Active; 'I' for Inactive)
REMARK    1  A    between atoms: C1_1  and  C7_7 
REMARK    2  A    between atoms: C4_4  and  C7_7 
ROOT
HETATM    1  C6  UNL     1     -36.949  14.990  -3.546  1.00 20.00     0.018 C 
HETATM    2  C7  UNL     1     -35.497  15.051  -4.011  1.00 20.00     0.055 C 
ENDROOT
BRANCH   2   3
HETATM    3  C1  UNL     1     -35.143  13.835  -4.862  1.00 20.00     0.127 C 
HETATM    4  C5  UNL     1     -35.000  14.060  -6.346  1.00 20.00     0.091 C 
HETATM    5  O8  UNL     1     -35.004  12.710  -4.379  1.00 20.00    -0.298 OA
ENDBRANCH   2   3
BRANCH   2   6
HETATM    6  C4  UNL     1     -34.551  15.146  -2.820  1.00 20.00    -0.004 A 
HETATM    7  C2  UNL     1     -33.639  16.332  -2.670  1.00 20.00     0.006 A 
HETATM    8  C3  UNL     1     -34.801  16.155  -1.733  1.00 20.00     0.006 A 
ENDBRANCH   2   6
TORSDOF 2
ENDMDL
MODEL 7
REMARK VINA RESULT:      -3.7     11.784     12.350
REMARK  2 active torsions:
REMARK  status: ('A' for Active; 'I' for Inactive)
REMARK    1  A    between atoms: C1_1  and  C7_7 
REMARK    2  A    between atoms: C4_4  and  C7_7 
ROOT
HETATM    1  C6  UNL     1     -35.823  15.854  -3.093  1.00 20.00     0.018 C 
HETATM    2  C7  UNL     1     -34.434  16.484  -3.055  1.00 20.00     0.055 C 
ENDROOT
BRANCH   2   3
HETATM    3  C1  UNL     1     -33.472  15.745  -3.980  1.00 20.00     0.127 C 
HETATM    4  C5  UNL     1     -33.348  14.255  -3.785  1.00 20.00     0.091 C 
HETATM    5  O8  UNL     1     -32.800  16.326  -4.833  1.00 20.00    -0.298 OA
ENDBRANCH   2   3
BRANCH   2   6
HETATM    6  C4  UNL     1     -33.884  16.495  -1.633  1.00 20.00    -0.004 A 
HETATM    7  C2  UNL     1     -33.627  17.800  -0.932  1.00 20.00     0.006 A 
HETATM    8  C3  UNL     1     -34.760  16.918  -0.487  1.00 20.00     0.006 A 
ENDBRANCH   2   6
TORSDOF 2
ENDMDL
MODEL 8
REMARK VINA RESULT:      -3.7     11.225     13.440
REMARK  2 active torsions:
REMARK  status: ('A' for Active; 'I' for Inactive)
REMARK    1  A    between atoms: C1_1  and  C7_7 
REMARK    2  A    between atoms: C4_4  and  C7_7 
ROOT
HETATM    1  C6  UNL     1     -34.636  16.139  -4.609  1.00 20.00     0.018 C 
HETATM    2  C7  UNL     1     -35.039  14.831  -5.284  1.00 20.00     0.055 C 
ENDROOT
BRANCH   2   3
HETATM    3  C1  UNL     1     -34.486  13.629  -4.523  1.00 20.00     0.127 C 
HETATM    4  C5  UNL     1     -33.253  13.861  -3.687  1.00 20.00     0.091 C 
HETATM    5  O8  UNL     1     -34.994  12.510  -4.599  1.00 20.00    -0.298 OA
ENDBRANCH   2   3
BRANCH   2   6
HETATM    6  C4  UNL     1     -34.559  14.798  -6.729  1.00 20.00    -0.004 A 
HETATM    7  C2  UNL     1     -35.531  14.528  -7.844  1.00 20.00     0.006 A 
HETATM    8  C3  UNL     1     -34.940  15.900  -7.679  1.00 20.00     0.006 A 
ENDBRANCH   2   6
TORSDOF 2
ENDMDL
MODEL 9
REMARK VINA RESULT:      -3.7      1.158      2.335
REMARK  2 active torsions:
REMARK  status: ('A' for Active; 'I' for Inactive)
REMARK    1  A    between atoms: C1_1  and  C7_7 
REMARK    2  A    between atoms: C4_4  and  C7_7 
ROOT
HETATM    1  C6  UNL     1     -32.353   6.866   3.573  1.00 20.00     0.018 C 
HETATM    2  C7  UNL     1     -33.390   5.934   4.194  1.00 20.00     0.055 C 
ENDROOT
BRANCH   2   3
HETATM    3  C1  UNL     1     -34.400   5.465   3.151  1.00 20.00     0.127 C 
HETATM    4  C5  UNL     1     -35.859   5.586   3.512  1.00 20.00     0.091 C 
HETATM    5  O8  UNL     1     -34.056   4.982   2.071  1.00 20.00    -0.298 OA
ENDBRANCH   2   3
BRANCH   2   6
HETATM    6  C4  UNL     1     -34.113   6.621   5.347  1.00 20.00    -0.004 A 
HETATM    7  C2  UNL     1     -34.353   5.884   6.635  1.00 20.00     0.006 A 
HETATM    8  C3  UNL     1     -33.359   7.011   6.588  1.00 20.00     0.006 A 
ENDBRANCH   2   6
TORSDOF 2
ENDMDL
