MODEL 1
REMARK VINA RESULT:      -5.3      0.000      0.000
REMARK  1 active torsions:
REMARK  status: ('A' for Active; 'I' for Inactive)
REMARK    1  A    between atoms: C4_4  and  O11_11 
ROOT
HETATM    1  C1  UNL     1     -34.551   5.737   6.474  1.00 20.00     0.034 C 
HETATM    2  C2  UNL     1     -33.604   6.616   6.086  1.00 20.00     0.003 C 
HETATM    3  C3  UNL     1     -34.739   4.733   4.251  1.00 20.00     0.017 C 
HETATM    4  C4  UNL     1     -34.972   4.659   5.577  1.00 20.00     0.062 C 
HETATM    5  C5  UNL     1     -32.464   7.261   2.812  1.00 20.00     0.004 C 
HETATM    6  C6  UNL     1     -33.240   6.005   2.472  1.00 20.00     0.065 C 
HETATM    7  C7  UNL     1     -34.062   5.966   3.740  1.00 20.00     0.045 C 
HETATM    8  C8  UNL     1     -32.986   6.409   4.739  1.00 20.00     0.139 C 
HETATM    9  C9  UNL     1     -31.865   8.098   1.730  1.00 20.00     0.065 C 
HETATM   10  N10 UNL     1     -32.360   7.571   4.080  1.00 20.00    -0.289 NA
ENDROOT
BRANCH   4  11
HETATM   11  O11 UNL     1     -35.647   3.626   6.182  1.00 20.00    -0.361 OA
HETATM   12  H22 UNL     1     -36.599   3.774   6.127  1.00 20.00     0.217 HD
ENDBRANCH   4  11
TORSDOF 1
ENDMDL
MODEL 2
REMARK VINA RESULT:      -4.9     11.668     13.102
REMARK  1 active torsions:
REMARK  status: ('A' for Active; 'I' for Inactive)
REMARK    1  A    between atoms: C4_4  and  O11_11 
ROOT
HETATM    1  C1  UNL     1     -34.423  14.535  -5.483  1.00 20.00     0.034 C 
HETATM    2  C2  UNL     1     -34.313  15.879  -5.491  1.00 20.00     0.003 C 
HETATM    3  C3  UNL     1     -34.437  14.403  -3.040  1.00 20.00     0.017 C 
HETATM    4  C4  UNL     1     -34.684  13.821  -4.232  1.00 20.00     0.062 C 
HETATM    5  C5  UNL     1     -33.744  18.018  -2.746  1.00 20.00     0.004 C 
HETATM    6  C6  UNL     1     -34.045  16.777  -1.929  1.00 20.00     0.065 C 
HETATM    7  C7  UNL     1     -33.867  15.787  -3.056  1.00 20.00     0.045 C 
HETATM    8  C8  UNL     1     -34.512  16.592  -4.190  1.00 20.00     0.139 C 
HETATM    9  C9  UNL     1     -33.256  19.263  -2.081  1.00 20.00     0.065 C 
HETATM   10  N10 UNL     1     -33.921  17.935  -4.041  1.00 20.00    -0.289 NA
ENDROOT
BRANCH   4  11
HETATM   11  O11 UNL     1     -35.137  12.533  -4.378  1.00 20.00    -0.361 OA
HETATM   12  H22 UNL     1     -36.102  12.520  -4.396  1.00 20.00     0.217 HD
ENDBRANCH   4  11
TORSDOF 1
ENDMDL
MODEL 3
REMARK VINA RESULT:      -4.8     11.883     13.730
REMARK  1 active torsions:
REMARK  status: ('A' for Active; 'I' for Inactive)
REMARK    1  A    between atoms: C4_4  and  O11_11 
ROOT
HETATM    1  C1  UNL     1     -34.252  14.560  -3.251  1.00 20.00     0.034 C 
HETATM    2  C2  UNL     1     -33.611  15.738  -3.400  1.00 20.00     0.003 C 
HETATM    3  C3  UNL     1     -35.051  14.533  -5.563  1.00 20.00     0.017 C 
HETATM    4  C4  UNL     1     -34.811  13.869  -4.414  1.00 20.00     0.062 C 
HETATM    5  C5  UNL     1     -33.734  17.931  -6.159  1.00 20.00     0.004 C 
HETATM    6  C6  UNL     1     -34.414  16.763  -6.846  1.00 20.00     0.065 C 
HETATM    7  C7  UNL     1     -34.747  15.998  -5.586  1.00 20.00     0.045 C 
HETATM    8  C8  UNL     1     -33.463  16.267  -4.793  1.00 20.00     0.139 C 
HETATM    9  C9  UNL     1     -33.647  19.260  -6.833  1.00 20.00     0.065 C 
HETATM   10  N10 UNL     1     -33.248  17.716  -4.962  1.00 20.00    -0.289 NA
ENDROOT
BRANCH   4  11
HETATM   11  O11 UNL     1     -35.106  12.541  -4.218  1.00 20.00    -0.361 OA
HETATM   12  H22 UNL     1     -35.418  12.145  -5.041  1.00 20.00     0.217 HD
ENDBRANCH   4  11
TORSDOF 1
ENDMDL
MODEL 4
REMARK VINA RESULT:      -4.6     12.212     13.299
REMARK  1 active torsions:
REMARK  status: ('A' for Active; 'I' for Inactive)
REMARK    1  A    between atoms: C4_4  and  O11_11 
ROOT
HETATM    1  C1  UNL     1     -33.617  16.051  -5.370  1.00 20.00     0.034 C 
HETATM    2  C2  UNL     1     -33.465  17.200  -4.681  1.00 20.00     0.003 C 
HETATM    3  C3  UNL     1     -34.582  14.861  -3.462  1.00 20.00     0.017 C 
HETATM    4  C4  UNL     1     -34.367  14.935  -4.792  1.00 20.00     0.062 C 
HETATM    5  C5  UNL     1     -33.930  17.727  -1.226  1.00 20.00     0.004 C 
HETATM    6  C6  UNL     1     -34.568  16.352  -1.270  1.00 20.00     0.065 C 
HETATM    7  C7  UNL     1     -34.002  15.949  -2.612  1.00 20.00     0.045 C 
HETATM    8  C8  UNL     1     -34.128  17.291  -3.342  1.00 20.00     0.139 C 
HETATM    9  C9  UNL     1     -33.694  18.411   0.081  1.00 20.00     0.065 C 
HETATM   10  N10 UNL     1     -33.594  18.265  -2.371  1.00 20.00    -0.289 NA
ENDROOT
BRANCH   4  11
HETATM   11  O11 UNL     1     -34.774  13.977  -5.689  1.00 20.00    -0.361 OA
HETATM   12  H22 UNL     1     -35.631  14.214  -6.062  1.00 20.00     0.217 HD
ENDBRANCH   4  11
TORSDOF 1
ENDMDL
MODEL 5
REMARK VINA RESULT:      -4.5     11.705     12.717
REMARK  1 active torsions:
REMARK  status: ('A' for Active; 'I' for Inactive)
REMARK    1  A    between atoms: C4_4  and  O11_11 
ROOT
HETATM    1  C1  UNL     1     -33.337  13.971  -3.814  1.00 20.00     0.034 C 
HETATM    2  C2  UNL     1     -32.946  15.226  -3.511  1.00 20.00     0.003 C 
HETATM    3  C3  UNL     1     -35.717  14.516  -3.660  1.00 20.00     0.017 C 
HETATM    4  C4  UNL     1     -34.746  13.678  -4.079  1.00 20.00     0.062 C 
HETATM    5  C5  UNL     1     -34.957  17.913  -2.429  1.00 20.00     0.004 C 
HETATM    6  C6  UNL     1     -36.100  17.008  -2.844  1.00 20.00     0.065 C 
HETATM    7  C7  UNL     1     -35.293  15.732  -2.898  1.00 20.00     0.045 C 
HETATM    8  C8  UNL     1     -34.000  16.290  -3.505  1.00 20.00     0.139 C 
HETATM    9  C9  UNL     1     -35.227  19.197  -1.716  1.00 20.00     0.065 C 
HETATM   10  N10 UNL     1     -33.745  17.510  -2.716  1.00 20.00    -0.289 NA
ENDROOT
BRANCH   4  11
HETATM   11  O11 UNL     1     -34.985  12.489  -4.725  1.00 20.00    -0.361 OA
HETATM   12  H22 UNL     1     -34.569  11.761  -4.246  1.00 20.00     0.217 HD
ENDBRANCH   4  11
TORSDOF 1
ENDMDL
MODEL 6
REMARK VINA RESULT:      -4.5     11.703     12.807
REMARK  1 active torsions:
REMARK  status: ('A' for Active; 'I' for Inactive)
REMARK    1  A    between atoms: C4_4  and  O11_11 
ROOT
HETATM    1  C1  UNL     1     -35.946  14.611  -5.114  1.00 20.00     0.034 C 
HETATM    2  C2  UNL     1     -36.534  15.696  -4.570  1.00 20.00     0.003 C 
HETATM    3  C3  UNL     1     -34.395  14.330  -3.243  1.00 20.00     0.017 C 
HETATM    4  C4  UNL     1     -34.996  13.815  -4.335  1.00 20.00     0.062 C 
HETATM    5  C5  UNL     1     -35.537  17.484  -1.700  1.00 20.00     0.004 C 
HETATM    6  C6  UNL     1     -34.623  16.296  -1.479  1.00 20.00     0.065 C 
HETATM    7  C7  UNL     1     -34.721  15.746  -2.883  1.00 20.00     0.045 C 
HETATM    8  C8  UNL     1     -36.209  16.010  -3.143  1.00 20.00     0.139 C 
HETATM    9  C9  UNL     1     -35.430  18.694  -0.831  1.00 20.00     0.065 C 
HETATM   10  N10 UNL     1     -36.400  17.398  -2.681  1.00 20.00    -0.289 NA
ENDROOT
BRANCH   4  11
HETATM   11  O11 UNL     1     -34.744  12.558  -4.829  1.00 20.00    -0.361 OA
HETATM   12  H22 UNL     1     -35.572  12.088  -4.982  1.00 20.00     0.217 HD
ENDBRANCH   4  11
TORSDOF 1
ENDMDL
MODEL 7
REMARK VINA RESULT:      -4.5     12.074     13.475
REMARK  1 active torsions:
REMARK  status: ('A' for Active; 'I' for Inactive)
REMARK    1  A    between atoms: C4_4  and  O11_11 
ROOT
HETATM    1  C1  UNL     1     -34.041  14.041  -4.630  1.00 20.00     0.034 C 
HETATM    2  C2  UNL     1     -35.213  13.558  -4.168  1.00 20.00     0.003 C 
HETATM    3  C3  UNL     1     -34.908  16.314  -4.890  1.00 20.00     0.017 C 
HETATM    4  C4  UNL     1     -33.850  15.481  -4.803  1.00 20.00     0.062 C 
HETATM    5  C5  UNL     1     -38.326  15.209  -4.034  1.00 20.00     0.004 C 
HETATM    6  C6  UNL     1     -37.501  16.439  -4.352  1.00 20.00     0.065 C 
HETATM    7  C7  UNL     1     -36.272  15.699  -4.826  1.00 20.00     0.045 C 
HETATM    8  C8  UNL     1     -36.270  14.555  -3.806  1.00 20.00     0.139 C 
HETATM    9  C9  UNL     1     -39.818  15.281  -4.015  1.00 20.00     0.065 C 
HETATM   10  N10 UNL     1     -37.673  14.100  -3.793  1.00 20.00    -0.289 NA
ENDROOT
BRANCH   4  11
HETATM   11  O11 UNL     1     -32.543  15.888  -4.918  1.00 20.00    -0.361 OA
HETATM   12  H22 UNL     1     -31.948  15.149  -4.742  1.00 20.00     0.217 HD
ENDBRANCH   4  11
TORSDOF 1
ENDMDL
MODEL 8
REMARK VINA RESULT:      -4.3     10.162     11.007
REMARK  1 active torsions:
REMARK  status: ('A' for Active; 'I' for Inactive)
REMARK    1  A    between atoms: C4_4  and  O11_11 
ROOT
HETATM    1  C1  UNL     1     -41.401   7.426  -0.780  1.00 20.00     0.034 C 
HETATM    2  C2  UNL     1     -40.795   6.222  -0.839  1.00 20.00     0.003 C 
HETATM    3  C3  UNL     1     -43.355   6.669  -2.044  1.00 20.00     0.017 C 
HETATM    4  C4  UNL     1     -42.787   7.579  -1.226  1.00 20.00     0.062 C 
HETATM    5  C5  UNL     1     -41.777   3.396  -2.705  1.00 20.00     0.004 C 
HETATM    6  C6  UNL     1     -43.060   4.178  -2.903  1.00 20.00     0.065 C 
HETATM    7  C7  UNL     1     -42.503   5.521  -2.490  1.00 20.00     0.045 C 
HETATM    8  C8  UNL     1     -41.610   5.066  -1.330  1.00 20.00     0.139 C 
HETATM    9  C9  UNL     1     -41.549   2.116  -3.439  1.00 20.00     0.065 C 
HETATM   10  N10 UNL     1     -40.893   3.901  -1.881  1.00 20.00    -0.289 NA
ENDROOT
BRANCH   4  11
HETATM   11  O11 UNL     1     -43.417   8.720  -0.792  1.00 20.00    -0.361 OA
HETATM   12  H22 UNL     1     -43.655   9.275  -1.545  1.00 20.00     0.217 HD
ENDBRANCH   4  11
TORSDOF 1
ENDMDL
MODEL 9
REMARK VINA RESULT:      -4.2     12.302     13.308
REMARK  1 active torsions:
REMARK  status: ('A' for Active; 'I' for Inactive)
REMARK    1  A    between atoms: C4_4  and  O11_11 
ROOT
HETATM    1  C1  UNL     1     -35.134  14.191  -5.353  1.00 20.00     0.034 C 
HETATM    2  C2  UNL     1     -35.235  14.164  -4.008  1.00 20.00     0.003 C 
HETATM    3  C3  UNL     1     -33.931  16.321  -5.369  1.00 20.00     0.017 C 
HETATM    4  C4  UNL     1     -34.297  15.194  -6.013  1.00 20.00     0.062 C 
HETATM    5  C5  UNL     1     -34.395  16.718  -1.727  1.00 20.00     0.004 C 
HETATM    6  C6  UNL     1     -33.733  17.352  -2.935  1.00 20.00     0.065 C 
HETATM    7  C7  UNL     1     -34.438  16.509  -3.973  1.00 20.00     0.045 C 
HETATM    8  C8  UNL     1     -34.427  15.163  -3.239  1.00 20.00     0.139 C 
HETATM    9  C9  UNL     1     -34.498  17.468  -0.439  1.00 20.00     0.065 C 
HETATM   10  N10 UNL     1     -34.871  15.508  -1.876  1.00 20.00    -0.289 NA
ENDROOT
BRANCH   4  11
HETATM   11  O11 UNL     1     -33.971  14.916  -7.318  1.00 20.00    -0.361 OA
HETATM   12  H22 UNL     1     -34.592  14.275  -7.687  1.00 20.00     0.217 HD
ENDBRANCH   4  11
TORSDOF 1
ENDMDL
