MODEL 1
REMARK VINA RESULT:      -4.3      0.000      0.000
REMARK  1 active torsions:
REMARK  status: ('A' for Active; 'I' for Inactive)
REMARK    1  A    between atoms: C3_3  and  C7_7 
ROOT
HETATM    1  C1  UNL     1     -34.790  16.271  -1.535  1.00 20.00    -0.023 C 
HETATM    2  C2  UNL     1     -33.763  17.029  -1.955  1.00 20.00    -0.015 C 
HETATM    3  C4  UNL     1     -35.200  16.797  -3.751  1.00 20.00     0.029 C 
HETATM    4  C5  UNL     1     -35.448  15.655  -2.752  1.00 20.00     0.029 C 
HETATM    5  C6  UNL     1     -33.712  16.972  -3.459  1.00 20.00     0.071 C 
HETATM    6  C7  UNL     1     -34.584  14.476  -3.246  1.00 20.00     0.116 C 
HETATM    7  S9  UNL     1     -33.086  15.309  -3.919  1.00 20.00    -0.148 SA
ENDROOT
BRANCH   6   8
HETATM    8  C3  UNL     1     -35.228  13.703  -4.349  1.00 20.00     0.246 C 
HETATM    9  O8  UNL     1     -34.870  12.579  -4.686  1.00 20.00    -0.306 OA
ENDBRANCH   6   8
TORSDOF 1
ENDMDL
MODEL 2
REMARK VINA RESULT:      -4.1      1.830      2.390
REMARK  1 active torsions:
REMARK  status: ('A' for Active; 'I' for Inactive)
REMARK    1  A    between atoms: C3_3  and  C7_7 
ROOT
HETATM    1  C1  UNL     1     -33.386  13.962  -3.734  1.00 20.00    -0.023 C 
HETATM    2  C2  UNL     1     -32.734  15.132  -3.839  1.00 20.00    -0.015 C 
HETATM    3  C4  UNL     1     -34.622  15.531  -2.565  1.00 20.00     0.029 C 
HETATM    4  C5  UNL     1     -34.834  14.258  -3.402  1.00 20.00     0.029 C 
HETATM    5  C6  UNL     1     -33.707  16.247  -3.555  1.00 20.00     0.071 C 
HETATM    6  C7  UNL     1     -35.559  14.719  -4.684  1.00 20.00     0.116 C 
HETATM    7  S9  UNL     1     -34.823  16.376  -5.006  1.00 20.00    -0.148 SA
ENDROOT
BRANCH   6   8
HETATM    8  C3  UNL     1     -37.030  14.886  -4.494  1.00 20.00     0.246 C 
HETATM    9  O8  UNL     1     -37.707  14.153  -3.780  1.00 20.00    -0.306 OA
ENDBRANCH   6   8
TORSDOF 1
ENDMDL
MODEL 3
REMARK VINA RESULT:      -3.9      1.584      2.231
REMARK  1 active torsions:
REMARK  status: ('A' for Active; 'I' for Inactive)
REMARK    1  A    between atoms: C3_3  and  C7_7 
ROOT
HETATM    1  C1  UNL     1     -33.227  16.669  -5.075  1.00 20.00    -0.023 C 
HETATM    2  C2  UNL     1     -33.781  17.695  -4.407  1.00 20.00    -0.015 C 
HETATM    3  C4  UNL     1     -33.647  15.927  -2.923  1.00 20.00     0.029 C 
HETATM    4  C5  UNL     1     -33.602  15.386  -4.363  1.00 20.00     0.029 C 
HETATM    5  C6  UNL     1     -34.520  17.144  -3.215  1.00 20.00     0.071 C 
HETATM    6  C7  UNL     1     -35.060  15.024  -4.716  1.00 20.00     0.116 C 
HETATM    7  S9  UNL     1     -36.035  16.322  -3.847  1.00 20.00    -0.148 SA
ENDROOT
BRANCH   6   8
HETATM    8  C3  UNL     1     -35.475  13.691  -4.187  1.00 20.00     0.246 C 
HETATM    9  O8  UNL     1     -34.939  12.637  -4.515  1.00 20.00    -0.306 OA
ENDBRANCH   6   8
TORSDOF 1
ENDMDL
MODEL 4
REMARK VINA RESULT:      -3.8      2.437      3.483
REMARK  1 active torsions:
REMARK  status: ('A' for Active; 'I' for Inactive)
REMARK    1  A    between atoms: C3_3  and  C7_7 
ROOT
HETATM    1  C1  UNL     1     -33.958  13.702  -4.175  1.00 20.00    -0.023 C 
HETATM    2  C2  UNL     1     -34.585  14.149  -5.276  1.00 20.00    -0.015 C 
HETATM    3  C4  UNL     1     -33.236  15.872  -4.529  1.00 20.00     0.029 C 
HETATM    4  C5  UNL     1     -33.512  14.902  -3.367  1.00 20.00     0.029 C 
HETATM    5  C6  UNL     1     -34.558  15.655  -5.261  1.00 20.00     0.071 C 
HETATM    6  C7  UNL     1     -34.729  15.485  -2.619  1.00 20.00     0.116 C 
HETATM    7  S9  UNL     1     -35.745  16.208  -3.975  1.00 20.00    -0.148 SA
ENDROOT
BRANCH   6   8
HETATM    8  C3  UNL     1     -34.362  16.579  -1.671  1.00 20.00     0.246 C 
HETATM    9  O8  UNL     1     -34.674  16.577  -0.485  1.00 20.00    -0.306 OA
ENDBRANCH   6   8
TORSDOF 1
ENDMDL
MODEL 5
REMARK VINA RESULT:      -3.8      1.395      1.789
REMARK  1 active torsions:
REMARK  status: ('A' for Active; 'I' for Inactive)
REMARK    1  A    between atoms: C3_3  and  C7_7 
ROOT
HETATM    1  C1  UNL     1     -35.206  17.328  -4.257  1.00 20.00    -0.023 C 
HETATM    2  C2  UNL     1     -33.881  17.549  -4.257  1.00 20.00    -0.015 C 
HETATM    3  C4  UNL     1     -34.291  15.952  -5.878  1.00 20.00     0.029 C 
HETATM    4  C5  UNL     1     -35.456  15.967  -4.874  1.00 20.00     0.029 C 
HETATM    5  C6  UNL     1     -33.200  16.366  -4.894  1.00 20.00     0.071 C 
HETATM    6  C7  UNL     1     -35.122  14.876  -3.835  1.00 20.00     0.116 C 
HETATM    7  S9  UNL     1     -33.289  14.978  -3.697  1.00 20.00    -0.148 SA
ENDROOT
BRANCH   6   8
HETATM    8  C3  UNL     1     -35.485  13.502  -4.294  1.00 20.00     0.246 C 
HETATM    9  O8  UNL     1     -34.660  12.673  -4.662  1.00 20.00    -0.306 OA
ENDBRANCH   6   8
TORSDOF 1
ENDMDL
MODEL 6
REMARK VINA RESULT:      -3.7      2.734      3.574
REMARK  1 active torsions:
REMARK  status: ('A' for Active; 'I' for Inactive)
REMARK    1  A    between atoms: C3_3  and  C7_7 
ROOT
HETATM    1  C1  UNL     1     -34.883  14.538  -6.887  1.00 20.00    -0.023 C 
HETATM    2  C2  UNL     1     -34.111  15.637  -6.830  1.00 20.00    -0.015 C 
HETATM    3  C4  UNL     1     -34.121  14.716  -4.709  1.00 20.00     0.029 C 
HETATM    4  C5  UNL     1     -35.354  14.221  -5.483  1.00 20.00     0.029 C 
HETATM    5  C6  UNL     1     -34.014  16.077  -5.392  1.00 20.00     0.071 C 
HETATM    6  C7  UNL     1     -36.496  15.187  -5.106  1.00 20.00     0.116 C 
HETATM    7  S9  UNL     1     -35.635  16.805  -4.936  1.00 20.00    -0.148 SA
ENDROOT
BRANCH   6   8
HETATM    8  C3  UNL     1     -37.135  14.853  -3.798  1.00 20.00     0.246 C 
HETATM    9  O8  UNL     1     -38.150  14.172  -3.696  1.00 20.00    -0.306 OA
ENDBRANCH   6   8
TORSDOF 1
ENDMDL
MODEL 7
REMARK VINA RESULT:      -3.7      2.138      2.975
REMARK  1 active torsions:
REMARK  status: ('A' for Active; 'I' for Inactive)
REMARK    1  A    between atoms: C3_3  and  C7_7 
ROOT
HETATM    1  C1  UNL     1     -34.702  13.578  -3.935  1.00 20.00    -0.023 C 
HETATM    2  C2  UNL     1     -33.389  13.831  -3.800  1.00 20.00    -0.015 C 
HETATM    3  C4  UNL     1     -34.512  15.519  -2.689  1.00 20.00     0.029 C 
HETATM    4  C5  UNL     1     -35.455  14.874  -3.719  1.00 20.00     0.029 C 
HETATM    5  C6  UNL     1     -33.217  15.289  -3.463  1.00 20.00     0.071 C 
HETATM    6  C7  UNL     1     -35.338  15.740  -4.990  1.00 20.00     0.116 C 
HETATM    7  S9  UNL     1     -33.567  16.244  -4.990  1.00 20.00    -0.148 SA
ENDROOT
BRANCH   6   8
HETATM    8  C3  UNL     1     -36.179  16.973  -4.936  1.00 20.00     0.246 C 
HETATM    9  O8  UNL     1     -37.287  17.012  -4.414  1.00 20.00    -0.306 OA
ENDBRANCH   6   8
TORSDOF 1
ENDMDL
MODEL 8
REMARK VINA RESULT:      -3.7      2.172      3.039
REMARK  1 active torsions:
REMARK  status: ('A' for Active; 'I' for Inactive)
REMARK    1  A    between atoms: C3_3  and  C7_7 
ROOT
HETATM    1  C1  UNL     1     -33.603  13.951  -3.874  1.00 20.00    -0.023 C 
HETATM    2  C2  UNL     1     -34.131  14.929  -3.120  1.00 20.00    -0.015 C 
HETATM    3  C4  UNL     1     -35.896  13.871  -4.173  1.00 20.00     0.029 C 
HETATM    4  C5  UNL     1     -34.601  13.601  -4.958  1.00 20.00     0.029 C 
HETATM    5  C6  UNL     1     -35.505  15.250  -3.649  1.00 20.00     0.071 C 
HETATM    6  C7  UNL     1     -34.548  14.682  -6.057  1.00 20.00     0.116 C 
HETATM    7  S9  UNL     1     -35.281  16.155  -5.230  1.00 20.00    -0.148 SA
ENDROOT
BRANCH   6   8
HETATM    8  C3  UNL     1     -35.385  14.346  -7.247  1.00 20.00     0.246 C 
HETATM    9  O8  UNL     1     -36.463  14.879  -7.488  1.00 20.00    -0.306 OA
ENDBRANCH   6   8
TORSDOF 1
ENDMDL
MODEL 9
REMARK VINA RESULT:      -3.7     11.819     12.646
REMARK  1 active torsions:
REMARK  status: ('A' for Active; 'I' for Inactive)
REMARK    1  A    between atoms: C3_3  and  C7_7 
ROOT
HETATM    1  C1  UNL     1     -42.693   5.737   0.438  1.00 20.00    -0.023 C 
HETATM    2  C2  UNL     1     -41.923   4.636   0.399  1.00 20.00    -0.015 C 
HETATM    3  C4  UNL     1     -40.791   6.284  -0.762  1.00 20.00     0.029 C 
HETATM    4  C5  UNL     1     -42.288   6.635  -0.713  1.00 20.00     0.029 C 
HETATM    5  C6  UNL     1     -40.962   4.767  -0.752  1.00 20.00     0.071 C 
HETATM    6  C7  UNL     1     -42.888   6.078  -2.020  1.00 20.00     0.116 C 
HETATM    7  S9  UNL     1     -41.927   4.532  -2.296  1.00 20.00    -0.148 SA
ENDROOT
BRANCH   6   8
HETATM    8  C3  UNL     1     -42.676   6.980  -3.191  1.00 20.00     0.246 C 
HETATM    9  O8  UNL     1     -43.417   7.006  -4.167  1.00 20.00    -0.306 OA
ENDBRANCH   6   8
TORSDOF 1
ENDMDL
