MODEL 1
REMARK VINA RESULT:      -5.2      0.000      0.000
REMARK  1 active torsions:
REMARK  status: ('A' for Active; 'I' for Inactive)
REMARK    1  A    between atoms: C3_3  and  C7_7 
ROOT
HETATM    1  C1  UNL     1     -34.497  15.479  -2.718  1.00 20.00    -0.070 C 
HETATM    2  C2  UNL     1     -34.713  16.299  -1.685  1.00 20.00     0.015 C 
HETATM    3  C4  UNL     1     -33.448  15.977  -4.891  1.00 20.00     0.009 C 
HETATM    4  C5  UNL     1     -34.389  14.956  -5.558  1.00 20.00     0.006 C 
HETATM    5  C6  UNL     1     -33.210  13.865  -3.815  1.00 20.00     0.014 C 
HETATM    6  C7  UNL     1     -35.448  14.452  -3.278  1.00 20.00     0.119 C 
HETATM    7  C8  UNL     1     -33.206  15.363  -3.503  1.00 20.00     0.015 C 
HETATM    8  C9  UNL     1     -34.608  13.901  -4.449  1.00 20.00     0.004 C 
ENDROOT
BRANCH   6   9
HETATM    9  C3  UNL     1     -36.761  15.051  -3.711  1.00 20.00     0.181 C 
HETATM   10  O10 UNL     1     -36.743  16.296  -3.921  1.00 20.00    -0.647 OA
HETATM   11  O11 UNL     1     -37.713  14.227  -3.807  1.00 20.00    -0.647 OA
ENDBRANCH   6   9
TORSDOF 1
ENDMDL
MODEL 2
REMARK VINA RESULT:      -4.8      2.141      3.300
REMARK  1 active torsions:
REMARK  status: ('A' for Active; 'I' for Inactive)
REMARK    1  A    between atoms: C3_3  and  C7_7 
ROOT
HETATM    1  C1  UNL     1     -36.153  15.103  -4.617  1.00 20.00    -0.070 C 
HETATM    2  C2  UNL     1     -37.129  14.723  -3.787  1.00 20.00     0.015 C 
HETATM    3  C4  UNL     1     -36.029  14.868  -7.066  1.00 20.00     0.009 C 
HETATM    4  C5  UNL     1     -34.504  14.681  -6.952  1.00 20.00     0.006 C 
HETATM    5  C6  UNL     1     -35.089  16.730  -5.915  1.00 20.00     0.014 C 
HETATM    6  C7  UNL     1     -34.669  14.945  -4.407  1.00 20.00     0.119 C 
HETATM    7  C8  UNL     1     -36.340  15.848  -5.923  1.00 20.00     0.015 C 
HETATM    8  C9  UNL     1     -34.134  15.545  -5.725  1.00 20.00     0.004 C 
ENDROOT
BRANCH   6   9
HETATM    9  C3  UNL     1     -34.262  13.510  -4.192  1.00 20.00     0.181 C 
HETATM   10  O10 UNL     1     -35.135  12.650  -4.497  1.00 20.00    -0.647 OA
HETATM   11  O11 UNL     1     -33.096  13.353  -3.732  1.00 20.00    -0.647 OA
ENDBRANCH   6   9
TORSDOF 1
ENDMDL
MODEL 3
REMARK VINA RESULT:      -4.8      1.224      2.791
REMARK  1 active torsions:
REMARK  status: ('A' for Active; 'I' for Inactive)
REMARK    1  A    between atoms: C3_3  and  C7_7 
ROOT
HETATM    1  C1  UNL     1     -34.588  15.356  -5.589  1.00 20.00    -0.070 C 
HETATM    2  C2  UNL     1     -34.536  14.705  -6.756  1.00 20.00     0.015 C 
HETATM    3  C4  UNL     1     -32.921  15.409  -3.776  1.00 20.00     0.009 C 
HETATM    4  C5  UNL     1     -34.066  15.514  -2.751  1.00 20.00     0.006 C 
HETATM    5  C6  UNL     1     -34.285  17.288  -4.309  1.00 20.00     0.014 C 
HETATM    6  C7  UNL     1     -35.773  15.471  -4.665  1.00 20.00     0.119 C 
HETATM    7  C8  UNL     1     -33.471  16.183  -4.985  1.00 20.00     0.015 C 
HETATM    8  C9  UNL     1     -35.154  16.299  -3.519  1.00 20.00     0.004 C 
ENDROOT
BRANCH   6   9
HETATM    9  C3  UNL     1     -36.295  14.129  -4.221  1.00 20.00     0.181 C 
HETATM   10  O10 UNL     1     -35.489  13.166  -4.350  1.00 20.00    -0.647 OA
HETATM   11  O11 UNL     1     -37.478  14.142  -3.777  1.00 20.00    -0.647 OA
ENDBRANCH   6   9
TORSDOF 1
ENDMDL
MODEL 4
REMARK VINA RESULT:      -4.7      1.712      2.492
REMARK  1 active torsions:
REMARK  status: ('A' for Active; 'I' for Inactive)
REMARK    1  A    between atoms: C3_3  and  C7_7 
ROOT
HETATM    1  C1  UNL     1     -35.852  15.533  -3.443  1.00 20.00    -0.070 C 
HETATM    2  C2  UNL     1     -37.180  15.418  -3.540  1.00 20.00     0.015 C 
HETATM    3  C4  UNL     1     -34.376  17.246  -4.420  1.00 20.00     0.009 C 
HETATM    4  C5  UNL     1     -33.275  16.180  -4.579  1.00 20.00     0.006 C 
HETATM    5  C6  UNL     1     -33.938  16.243  -2.304  1.00 20.00     0.014 C 
HETATM    6  C7  UNL     1     -34.834  14.426  -3.544  1.00 20.00     0.119 C 
HETATM    7  C8  UNL     1     -35.093  16.808  -3.134  1.00 20.00     0.015 C 
HETATM    8  C9  UNL     1     -33.528  15.233  -3.384  1.00 20.00     0.004 C 
ENDROOT
BRANCH   6   9
HETATM    9  C3  UNL     1     -34.920  13.676  -4.848  1.00 20.00     0.181 C 
HETATM   10  O10 UNL     1     -35.483  14.296  -5.791  1.00 20.00    -0.647 OA
HETATM   11  O11 UNL     1     -34.416  12.517  -4.826  1.00 20.00    -0.647 OA
ENDBRANCH   6   9
TORSDOF 1
ENDMDL
MODEL 5
REMARK VINA RESULT:      -4.7      1.556      2.110
REMARK  1 active torsions:
REMARK  status: ('A' for Active; 'I' for Inactive)
REMARK    1  A    between atoms: C3_3  and  C7_7 
ROOT
HETATM    1  C1  UNL     1     -34.507  15.978  -3.304  1.00 20.00    -0.070 C 
HETATM    2  C2  UNL     1     -34.742  16.007  -1.989  1.00 20.00     0.015 C 
HETATM    3  C4  UNL     1     -35.625  17.239  -5.101  1.00 20.00     0.009 C 
HETATM    4  C5  UNL     1     -35.424  16.038  -6.044  1.00 20.00     0.006 C 
HETATM    5  C6  UNL     1     -33.311  16.680  -5.185  1.00 20.00     0.014 C 
HETATM    6  C7  UNL     1     -34.253  14.759  -4.154  1.00 20.00     0.119 C 
HETATM    7  C8  UNL     1     -34.374  17.186  -4.209  1.00 20.00     0.015 C 
HETATM    8  C9  UNL     1     -34.101  15.414  -5.544  1.00 20.00     0.004 C 
ENDROOT
BRANCH   6   9
HETATM    9  C3  UNL     1     -35.377  13.757  -4.083  1.00 20.00     0.181 C 
HETATM   10  O10 UNL     1     -36.474  14.206  -3.652  1.00 20.00    -0.647 OA
HETATM   11  O11 UNL     1     -35.071  12.592  -4.465  1.00 20.00    -0.647 OA
ENDBRANCH   6   9
TORSDOF 1
ENDMDL
MODEL 6
REMARK VINA RESULT:      -4.7      1.653      3.450
REMARK  1 active torsions:
REMARK  status: ('A' for Active; 'I' for Inactive)
REMARK    1  A    between atoms: C3_3  and  C7_7 
ROOT
HETATM    1  C1  UNL     1     -34.270  14.883  -5.741  1.00 20.00    -0.070 C 
HETATM    2  C2  UNL     1     -34.519  14.905  -7.054  1.00 20.00     0.015 C 
HETATM    3  C4  UNL     1     -35.781  14.276  -3.893  1.00 20.00     0.009 C 
HETATM    4  C5  UNL     1     -35.078  15.317  -3.001  1.00 20.00     0.006 C 
HETATM    5  C6  UNL     1     -33.445  13.815  -3.833  1.00 20.00     0.014 C 
HETATM    6  C7  UNL     1     -33.513  15.914  -4.943  1.00 20.00     0.119 C 
HETATM    7  C8  UNL     1     -34.640  13.766  -4.787  1.00 20.00     0.015 C 
HETATM    8  C9  UNL     1     -33.625  15.308  -3.528  1.00 20.00     0.004 C 
ENDROOT
BRANCH   6   9
HETATM    9  C3  UNL     1     -34.113  17.291  -5.055  1.00 20.00     0.181 C 
HETATM   10  O10 UNL     1     -35.286  17.333  -5.519  1.00 20.00    -0.647 OA
HETATM   11  O11 UNL     1     -33.360  18.230  -4.670  1.00 20.00    -0.647 OA
ENDBRANCH   6   9
TORSDOF 1
ENDMDL
MODEL 7
REMARK VINA RESULT:      -4.6      1.934      3.080
REMARK  1 active torsions:
REMARK  status: ('A' for Active; 'I' for Inactive)
REMARK    1  A    between atoms: C3_3  and  C7_7 
ROOT
HETATM    1  C1  UNL     1     -34.031  15.799  -5.628  1.00 20.00    -0.070 C 
HETATM    2  C2  UNL     1     -33.193  16.373  -4.759  1.00 20.00     0.015 C 
HETATM    3  C4  UNL     1     -36.197  16.627  -6.460  1.00 20.00     0.009 C 
HETATM    4  C5  UNL     1     -36.703  15.173  -6.535  1.00 20.00     0.006 C 
HETATM    5  C6  UNL     1     -34.716  15.346  -7.816  1.00 20.00     0.014 C 
HETATM    6  C7  UNL     1     -34.430  14.346  -5.681  1.00 20.00     0.119 C 
HETATM    7  C8  UNL     1     -34.704  16.488  -6.798  1.00 20.00     0.015 C 
HETATM    8  C9  UNL     1     -35.422  14.372  -6.863  1.00 20.00     0.004 C 
ENDROOT
BRANCH   6   9
HETATM    9  C3  UNL     1     -35.046  13.866  -4.392  1.00 20.00     0.181 C 
HETATM   10  O10 UNL     1     -35.419  14.775  -3.600  1.00 20.00    -0.647 OA
HETATM   11  O11 UNL     1     -35.107  12.610  -4.270  1.00 20.00    -0.647 OA
ENDBRANCH   6   9
TORSDOF 1
ENDMDL
MODEL 8
REMARK VINA RESULT:      -4.6      1.800      2.723
REMARK  1 active torsions:
REMARK  status: ('A' for Active; 'I' for Inactive)
REMARK    1  A    between atoms: C3_3  and  C7_7 
ROOT
HETATM    1  C1  UNL     1     -34.084  16.033  -4.700  1.00 20.00    -0.070 C 
HETATM    2  C2  UNL     1     -33.327  16.936  -5.333  1.00 20.00     0.015 C 
HETATM    3  C4  UNL     1     -33.428  13.849  -3.770  1.00 20.00     0.009 C 
HETATM    4  C5  UNL     1     -34.821  13.298  -4.130  1.00 20.00     0.006 C 
HETATM    5  C6  UNL     1     -35.101  15.213  -2.762  1.00 20.00     0.014 C 
HETATM    6  C7  UNL     1     -35.474  15.590  -5.077  1.00 20.00     0.119 C 
HETATM    7  C8  UNL     1     -33.721  15.315  -3.416  1.00 20.00     0.015 C 
HETATM    8  C9  UNL     1     -35.737  14.534  -3.982  1.00 20.00     0.004 C 
ENDROOT
BRANCH   6   9
HETATM    9  C3  UNL     1     -35.548  15.035  -6.476  1.00 20.00     0.181 C 
HETATM   10  O10 UNL     1     -34.437  14.761  -7.007  1.00 20.00    -0.647 OA
HETATM   11  O11 UNL     1     -36.718  14.916  -6.937  1.00 20.00    -0.647 OA
ENDBRANCH   6   9
TORSDOF 1
ENDMDL
MODEL 9
REMARK VINA RESULT:      -4.5      2.023      3.190
REMARK  1 active torsions:
REMARK  status: ('A' for Active; 'I' for Inactive)
REMARK    1  A    between atoms: C3_3  and  C7_7 
ROOT
HETATM    1  C1  UNL     1     -34.586  16.059  -5.025  1.00 20.00    -0.070 C 
HETATM    2  C2  UNL     1     -33.957  16.046  -6.204  1.00 20.00     0.015 C 
HETATM    3  C4  UNL     1     -33.845  17.040  -2.890  1.00 20.00     0.009 C 
HETATM    4  C5  UNL     1     -34.564  15.903  -2.139  1.00 20.00     0.006 C 
HETATM    5  C6  UNL     1     -36.136  16.989  -3.542  1.00 20.00     0.014 C 
HETATM    6  C7  UNL     1     -35.329  14.917  -4.379  1.00 20.00     0.119 C 
HETATM    7  C8  UNL     1     -34.744  17.262  -4.117  1.00 20.00     0.015 C 
HETATM    8  C9  UNL     1     -35.766  15.581  -3.056  1.00 20.00     0.004 C 
ENDROOT
BRANCH   6   9
HETATM    9  C3  UNL     1     -34.465  13.698  -4.183  1.00 20.00     0.181 C 
HETATM   10  O10 UNL     1     -33.252  13.933  -3.925  1.00 20.00    -0.647 OA
HETATM   11  O11 UNL     1     -35.070  12.596  -4.304  1.00 20.00    -0.647 OA
ENDBRANCH   6   9
TORSDOF 1
ENDMDL
