MODEL 1
REMARK VINA RESULT:      -5.4      0.000      0.000
REMARK  1 active torsions:
REMARK  status: ('A' for Active; 'I' for Inactive)
REMARK    1  A    between atoms: C5_5  and  O10_10 
ROOT
HETATM    1  C1  UNL     1     -34.052   5.278   2.825  1.00 20.00     0.011 A 
HETATM    2  C2  UNL     1     -33.047   6.182   2.477  1.00 20.00     0.040 A 
HETATM    3  C3  UNL     1     -34.432   5.198   4.154  1.00 20.00    -0.049 A 
HETATM    4  C4  UNL     1     -33.836   6.011   5.126  1.00 20.00    -0.010 A 
HETATM    5  C5  UNL     1     -32.449   6.998   3.452  1.00 20.00     0.104 A 
HETATM    6  C6  UNL     1     -32.848   6.920   4.788  1.00 20.00     0.156 A 
HETATM    7  C7  UNL     1     -35.499   4.341   4.758  1.00 20.00     0.039 C 
HETATM    8  C8  UNL     1     -34.451   5.775   6.469  1.00 20.00     0.042 C 
HETATM    9  C9  UNL     1     -35.133   4.416   6.248  1.00 20.00     0.009 C 
HETATM   10  F11 UNL     1     -32.290   7.705   5.718  1.00 20.00    -0.203 F 
ENDROOT
BRANCH   5  11
HETATM   11  O10 UNL     1     -31.475   7.878   3.086  1.00 20.00    -0.358 OA
HETATM   12  H20 UNL     1     -31.075   7.604   2.245  1.00 20.00     0.217 HD
ENDBRANCH   5  11
TORSDOF 1
ENDMDL
MODEL 2
REMARK VINA RESULT:      -5.2      2.013      3.521
REMARK  1 active torsions:
REMARK  status: ('A' for Active; 'I' for Inactive)
REMARK    1  A    between atoms: C5_5  and  O10_10 
ROOT
HETATM    1  C1  UNL     1     -34.453   5.132   3.217  1.00 20.00     0.011 A 
HETATM    2  C2  UNL     1     -35.095   4.857   4.425  1.00 20.00     0.040 A 
HETATM    3  C3  UNL     1     -33.417   6.051   3.218  1.00 20.00    -0.049 A 
HETATM    4  C4  UNL     1     -33.011   6.679   4.402  1.00 20.00    -0.010 A 
HETATM    5  C5  UNL     1     -34.688   5.486   5.613  1.00 20.00     0.104 A 
HETATM    6  C6  UNL     1     -33.633   6.402   5.607  1.00 20.00     0.156 A 
HETATM    7  C7  UNL     1     -32.562   6.479   2.068  1.00 20.00     0.039 C 
HETATM    8  C8  UNL     1     -31.846   7.583   4.153  1.00 20.00     0.042 C 
HETATM    9  C9  UNL     1     -31.928   7.761   2.630  1.00 20.00     0.009 C 
HETATM   10  F11 UNL     1     -33.233   6.995   6.739  1.00 20.00    -0.203 F 
ENDROOT
BRANCH   5  11
HETATM   11  O10 UNL     1     -35.326   5.195   6.781  1.00 20.00    -0.358 OA
HETATM   12  H20 UNL     1     -35.543   6.013   7.257  1.00 20.00     0.217 HD
ENDBRANCH   5  11
TORSDOF 1
ENDMDL
MODEL 3
REMARK VINA RESULT:      -5.1      2.699      4.270
REMARK  1 active torsions:
REMARK  status: ('A' for Active; 'I' for Inactive)
REMARK    1  A    between atoms: C5_5  and  O10_10 
ROOT
HETATM    1  C1  UNL     1     -33.552   6.871   6.013  1.00 20.00     0.011 A 
HETATM    2  C2  UNL     1     -34.383   6.010   6.733  1.00 20.00     0.040 A 
HETATM    3  C3  UNL     1     -33.331   6.602   4.673  1.00 20.00    -0.049 A 
HETATM    4  C4  UNL     1     -33.935   5.504   4.047  1.00 20.00    -0.010 A 
HETATM    5  C5  UNL     1     -34.989   4.909   6.105  1.00 20.00     0.104 A 
HETATM    6  C6  UNL     1     -34.771   4.654   4.750  1.00 20.00     0.156 A 
HETATM    7  C7  UNL     1     -32.519   7.392   3.696  1.00 20.00     0.039 C 
HETATM    8  C8  UNL     1     -33.584   5.460   2.594  1.00 20.00     0.042 C 
HETATM    9  C9  UNL     1     -32.349   6.373   2.559  1.00 20.00     0.009 C 
HETATM   10  F11 UNL     1     -35.356   3.612   4.144  1.00 20.00    -0.203 F 
ENDROOT
BRANCH   5  11
HETATM   11  O10 UNL     1     -35.801   4.087   6.827  1.00 20.00    -0.358 OA
HETATM   12  H20 UNL     1     -35.291   3.634   7.518  1.00 20.00     0.217 HD
ENDBRANCH   5  11
TORSDOF 1
ENDMDL
MODEL 4
REMARK VINA RESULT:      -5.1     11.686     12.327
REMARK  1 active torsions:
REMARK  status: ('A' for Active; 'I' for Inactive)
REMARK    1  A    between atoms: C5_5  and  O10_10 
ROOT
HETATM    1  C1  UNL     1     -36.792  15.323  -3.525  1.00 20.00     0.011 A 
HETATM    2  C2  UNL     1     -36.440  14.154  -4.203  1.00 20.00     0.040 A 
HETATM    3  C3  UNL     1     -35.804  16.004  -2.834  1.00 20.00    -0.049 A 
HETATM    4  C4  UNL     1     -34.481  15.544  -2.825  1.00 20.00    -0.010 A 
HETATM    5  C5  UNL     1     -35.113  13.693  -4.193  1.00 20.00     0.104 A 
HETATM    6  C6  UNL     1     -34.121  14.394  -3.505  1.00 20.00     0.156 A 
HETATM    7  C7  UNL     1     -35.928  17.285  -2.072  1.00 20.00     0.039 C 
HETATM    8  C8  UNL     1     -33.599  16.476  -2.057  1.00 20.00     0.042 C 
HETATM    9  C9  UNL     1     -34.636  17.263  -1.241  1.00 20.00     0.009 C 
HETATM   10  F11 UNL     1     -32.852  13.964  -3.503  1.00 20.00    -0.203 F 
ENDROOT
BRANCH   5  11
HETATM   11  O10 UNL     1     -34.793  12.553  -4.868  1.00 20.00    -0.358 OA
HETATM   12  H20 UNL     1     -34.181  12.013  -4.343  1.00 20.00     0.217 HD
ENDBRANCH   5  11
TORSDOF 1
ENDMDL
MODEL 5
REMARK VINA RESULT:      -5.0     12.301     13.363
REMARK  1 active torsions:
REMARK  status: ('A' for Active; 'I' for Inactive)
REMARK    1  A    between atoms: C5_5  and  O10_10 
ROOT
HETATM    1  C1  UNL     1     -34.631  14.802  -2.984  1.00 20.00     0.011 A 
HETATM    2  C2  UNL     1     -34.366  14.615  -4.342  1.00 20.00     0.040 A 
HETATM    3  C3  UNL     1     -34.355  16.039  -2.425  1.00 20.00    -0.049 A 
HETATM    4  C4  UNL     1     -33.838  17.083  -3.202  1.00 20.00    -0.010 A 
HETATM    5  C5  UNL     1     -33.847  15.662  -5.121  1.00 20.00     0.104 A 
HETATM    6  C6  UNL     1     -33.585  16.910  -4.552  1.00 20.00     0.156 A 
HETATM    7  C7  UNL     1     -34.586  16.487  -1.017  1.00 20.00     0.039 C 
HETATM    8  C8  UNL     1     -33.676  18.326  -2.386  1.00 20.00     0.042 C 
HETATM    9  C9  UNL     1     -33.716  17.752  -0.961  1.00 20.00     0.009 C 
HETATM   10  F11 UNL     1     -33.102  17.915  -5.294  1.00 20.00    -0.203 F 
ENDROOT
BRANCH   5  11
HETATM   11  O10 UNL     1     -33.603  15.457  -6.446  1.00 20.00    -0.358 OA
HETATM   12  H20 UNL     1     -33.105  14.633  -6.571  1.00 20.00     0.217 HD
ENDBRANCH   5  11
TORSDOF 1
ENDMDL
MODEL 6
REMARK VINA RESULT:      -4.9     11.678     12.813
REMARK  1 active torsions:
REMARK  status: ('A' for Active; 'I' for Inactive)
REMARK    1  A    between atoms: C5_5  and  O10_10 
ROOT
HETATM    1  C1  UNL     1     -33.064  15.295  -3.445  1.00 20.00     0.011 A 
HETATM    2  C2  UNL     1     -33.527  14.039  -3.841  1.00 20.00     0.040 A 
HETATM    3  C3  UNL     1     -33.996  16.262  -3.109  1.00 20.00    -0.049 A 
HETATM    4  C4  UNL     1     -35.368  15.988  -3.150  1.00 20.00    -0.010 A 
HETATM    5  C5  UNL     1     -34.904  13.763  -3.882  1.00 20.00     0.104 A 
HETATM    6  C6  UNL     1     -35.836  14.741  -3.529  1.00 20.00     0.156 A 
HETATM    7  C7  UNL     1     -33.745  17.655  -2.624  1.00 20.00     0.039 C 
HETATM    8  C8  UNL     1     -36.162  17.170  -2.695  1.00 20.00     0.042 C 
HETATM    9  C9  UNL     1     -35.126  18.296  -2.835  1.00 20.00     0.009 C 
HETATM   10  F11 UNL     1     -37.149  14.479  -3.555  1.00 20.00    -0.203 F 
ENDROOT
BRANCH   5  11
HETATM   11  O10 UNL     1     -35.330  12.528  -4.266  1.00 20.00    -0.358 OA
HETATM   12  H20 UNL     1     -35.217  12.416  -5.224  1.00 20.00     0.217 HD
ENDBRANCH   5  11
TORSDOF 1
ENDMDL
MODEL 7
REMARK VINA RESULT:      -4.9     12.335     13.957
REMARK  1 active torsions:
REMARK  status: ('A' for Active; 'I' for Inactive)
REMARK    1  A    between atoms: C5_5  and  O10_10 
ROOT
HETATM    1  C1  UNL     1     -33.850  15.788  -3.220  1.00 20.00     0.011 A 
HETATM    2  C2  UNL     1     -34.219  14.442  -3.188  1.00 20.00     0.040 A 
HETATM    3  C3  UNL     1     -33.981  16.477  -4.414  1.00 20.00    -0.049 A 
HETATM    4  C4  UNL     1     -34.483  15.847  -5.560  1.00 20.00    -0.010 A 
HETATM    5  C5  UNL     1     -34.724  13.810  -4.337  1.00 20.00     0.104 A 
HETATM    6  C6  UNL     1     -34.864  14.517  -5.533  1.00 20.00     0.156 A 
HETATM    7  C7  UNL     1     -33.689  17.919  -4.683  1.00 20.00     0.039 C 
HETATM    8  C8  UNL     1     -34.575  16.810  -6.700  1.00 20.00     0.042 C 
HETATM    9  C9  UNL     1     -33.640  17.931  -6.219  1.00 20.00     0.009 C 
HETATM   10  F11 UNL     1     -35.356  13.922  -6.628  1.00 20.00    -0.203 F 
ENDROOT
BRANCH   5  11
HETATM   11  O10 UNL     1     -35.084  12.498  -4.279  1.00 20.00    -0.358 OA
HETATM   12  H20 UNL     1     -34.503  12.017  -3.668  1.00 20.00     0.217 HD
ENDBRANCH   5  11
TORSDOF 1
ENDMDL
MODEL 8
REMARK VINA RESULT:      -4.8     12.195     13.735
REMARK  1 active torsions:
REMARK  status: ('A' for Active; 'I' for Inactive)
REMARK    1  A    between atoms: C5_5  and  O10_10 
ROOT
HETATM    1  C1  UNL     1     -34.488  15.165  -6.691  1.00 20.00     0.011 A 
HETATM    2  C2  UNL     1     -34.839  13.954  -6.091  1.00 20.00     0.040 A 
HETATM    3  C3  UNL     1     -34.138  16.226  -5.872  1.00 20.00    -0.049 A 
HETATM    4  C4  UNL     1     -34.122  16.088  -4.479  1.00 20.00    -0.010 A 
HETATM    5  C5  UNL     1     -34.823  13.815  -4.694  1.00 20.00     0.104 A 
HETATM    6  C6  UNL     1     -34.456  14.887  -3.877  1.00 20.00     0.156 A 
HETATM    7  C7  UNL     1     -33.693  17.595  -6.277  1.00 20.00     0.039 C 
HETATM    8  C8  UNL     1     -33.664  17.351  -3.823  1.00 20.00     0.042 C 
HETATM    9  C9  UNL     1     -33.867  18.366  -4.959  1.00 20.00     0.009 C 
HETATM   10  F11 UNL     1     -34.428  14.756  -2.544  1.00 20.00    -0.203 F 
ENDROOT
BRANCH   5  11
HETATM   11  O10 UNL     1     -35.164  12.621  -4.133  1.00 20.00    -0.358 OA
HETATM   12  H20 UNL     1     -34.485  11.954  -4.326  1.00 20.00     0.217 HD
ENDBRANCH   5  11
TORSDOF 1
ENDMDL
MODEL 9
REMARK VINA RESULT:      -4.7     10.100     11.006
REMARK  1 active torsions:
REMARK  status: ('A' for Active; 'I' for Inactive)
REMARK    1  A    between atoms: C5_5  and  O10_10 
ROOT
HETATM    1  C1  UNL     1     -43.413   5.352  -3.097  1.00 20.00     0.011 A 
HETATM    2  C2  UNL     1     -43.044   4.010  -3.211  1.00 20.00     0.040 A 
HETATM    3  C3  UNL     1     -42.641   6.180  -2.299  1.00 20.00    -0.049 A 
HETATM    4  C4  UNL     1     -41.511   5.691  -1.632  1.00 20.00    -0.010 A 
HETATM    5  C5  UNL     1     -41.910   3.520  -2.543  1.00 20.00     0.104 A 
HETATM    6  C6  UNL     1     -41.131   4.365  -1.751  1.00 20.00     0.156 A 
HETATM    7  C7  UNL     1     -42.813   7.645  -2.053  1.00 20.00     0.039 C 
HETATM    8  C8  UNL     1     -40.821   6.784  -0.881  1.00 20.00     0.042 C 
HETATM    9  C9  UNL     1     -41.932   7.842  -0.809  1.00 20.00     0.009 C 
HETATM   10  F11 UNL     1     -40.042   3.905  -1.122  1.00 20.00    -0.203 F 
ENDROOT
BRANCH   5  11
HETATM   11  O10 UNL     1     -41.567   2.208  -2.675  1.00 20.00    -0.358 OA
HETATM   12  H20 UNL     1     -42.112   1.787  -3.360  1.00 20.00     0.217 HD
ENDBRANCH   5  11
TORSDOF 1
ENDMDL
