MODEL 1
REMARK VINA RESULT:      -4.8      0.000      0.000
REMARK  1 active torsions:
REMARK  status: ('A' for Active; 'I' for Inactive)
REMARK    1  A    between atoms: C1_1  and  C4_4 
ROOT
HETATM    1  C2  UNL     1     -34.984   5.287   3.682  1.00 20.00     0.016 C 
HETATM    2  C3  UNL     1     -33.986   5.563   2.543  1.00 20.00     0.022 C 
HETATM    3  C4  UNL     1     -34.239   6.372   4.506  1.00 20.00     0.090 C 
HETATM    4  C5  UNL     1     -32.996   6.044   3.628  1.00 20.00     0.094 C 
HETATM    5 CL8  UNL     1     -31.859   7.360   3.222  1.00 20.00    -0.124 Cl
ENDROOT
BRANCH   3   6
HETATM    6  C1  UNL     1     -34.118   6.159   6.017  1.00 20.00     0.224 C 
HETATM    7  O6  UNL     1     -33.781   7.067   6.771  1.00 20.00    -0.279 OA
HETATM    8 CL7  UNL     1     -34.504   4.530   6.482  1.00 20.00    -0.043 Cl
ENDBRANCH   3   6
TORSDOF 1
ENDMDL
MODEL 2
REMARK VINA RESULT:      -4.6      2.190      3.429
REMARK  1 active torsions:
REMARK  status: ('A' for Active; 'I' for Inactive)
REMARK    1  A    between atoms: C1_1  and  C4_4 
ROOT
HETATM    1  C2  UNL     1     -34.935   4.325   5.135  1.00 20.00     0.016 C 
HETATM    2  C3  UNL     1     -35.037   5.001   6.515  1.00 20.00     0.022 C 
HETATM    3  C4  UNL     1     -33.754   5.286   4.829  1.00 20.00     0.090 C 
HETATM    4  C5  UNL     1     -34.399   6.250   5.867  1.00 20.00     0.094 C 
HETATM    5 CL8  UNL     1     -33.331   7.276   6.865  1.00 20.00    -0.124 Cl
ENDROOT
BRANCH   3   6
HETATM    6  C1  UNL     1     -33.603   5.790   3.391  1.00 20.00     0.224 C 
HETATM    7  O6  UNL     1     -34.356   5.421   2.495  1.00 20.00    -0.279 OA
HETATM    8 CL7  UNL     1     -32.278   6.903   3.224  1.00 20.00    -0.043 Cl
ENDBRANCH   3   6
TORSDOF 1
ENDMDL
MODEL 3
REMARK VINA RESULT:      -4.4      1.702      3.382
REMARK  1 active torsions:
REMARK  status: ('A' for Active; 'I' for Inactive)
REMARK    1  A    between atoms: C1_1  and  C4_4 
ROOT
HETATM    1  C2  UNL     1     -33.765   5.632   2.632  1.00 20.00     0.016 C 
HETATM    2  C3  UNL     1     -34.806   5.335   3.729  1.00 20.00     0.022 C 
HETATM    3  C4  UNL     1     -32.830   6.152   3.756  1.00 20.00     0.090 C 
HETATM    4  C5  UNL     1     -34.127   6.443   4.565  1.00 20.00     0.094 C 
HETATM    5 CL8  UNL     1     -34.089   6.267   6.342  1.00 20.00    -0.124 Cl
ENDROOT
BRANCH   3   6
HETATM    6  C1  UNL     1     -31.916   7.336   3.430  1.00 20.00     0.224 C 
HETATM    7  O6  UNL     1     -31.044   7.713   4.207  1.00 20.00    -0.279 OA
HETATM    8 CL7  UNL     1     -32.276   8.033   1.879  1.00 20.00    -0.043 Cl
ENDBRANCH   3   6
TORSDOF 1
ENDMDL
MODEL 4
REMARK VINA RESULT:      -4.2      2.331      2.925
REMARK  1 active torsions:
REMARK  status: ('A' for Active; 'I' for Inactive)
REMARK    1  A    between atoms: C1_1  and  C4_4 
ROOT
HETATM    1  C2  UNL     1     -34.359   6.082   6.648  1.00 20.00     0.016 C 
HETATM    2  C3  UNL     1     -33.327   7.156   6.258  1.00 20.00     0.022 C 
HETATM    3  C4  UNL     1     -33.981   5.341   5.337  1.00 20.00     0.090 C 
HETATM    4  C5  UNL     1     -33.555   6.735   4.789  1.00 20.00     0.094 C 
HETATM    5 CL8  UNL     1     -32.180   6.828   3.653  1.00 20.00    -0.124 Cl
ENDROOT
BRANCH   3   6
HETATM    6  C1  UNL     1     -35.094   4.597   4.594  1.00 20.00     0.224 C 
HETATM    7  O6  UNL     1     -35.298   3.400   4.769  1.00 20.00    -0.279 OA
HETATM    8 CL7  UNL     1     -35.980   5.642   3.525  1.00 20.00    -0.043 Cl
ENDBRANCH   3   6
TORSDOF 1
ENDMDL
MODEL 5
REMARK VINA RESULT:      -4.1      2.005      3.783
REMARK  1 active torsions:
REMARK  status: ('A' for Active; 'I' for Inactive)
REMARK    1  A    between atoms: C1_1  and  C4_4 
ROOT
HETATM    1  C2  UNL     1     -33.376   7.070   5.860  1.00 20.00     0.016 C 
HETATM    2  C3  UNL     1     -34.348   6.024   6.437  1.00 20.00     0.022 C 
HETATM    3  C4  UNL     1     -33.735   6.525   4.451  1.00 20.00     0.090 C 
HETATM    4  C5  UNL     1     -34.082   5.187   5.166  1.00 20.00     0.094 C 
HETATM    5 CL8  UNL     1     -35.409   4.184   4.514  1.00 20.00    -0.124 Cl
ENDROOT
BRANCH   3   6
HETATM    6  C1  UNL     1     -32.626   6.499   3.396  1.00 20.00     0.224 C 
HETATM    7  O6  UNL     1     -31.984   5.480   3.160  1.00 20.00    -0.279 OA
HETATM    8 CL7  UNL     1     -32.421   8.041   2.622  1.00 20.00    -0.043 Cl
ENDBRANCH   3   6
TORSDOF 1
ENDMDL
MODEL 6
REMARK VINA RESULT:      -3.9     11.957     12.313
REMARK  1 active torsions:
REMARK  status: ('A' for Active; 'I' for Inactive)
REMARK    1  A    between atoms: C1_1  and  C4_4 
ROOT
HETATM    1  C2  UNL     1     -33.574  13.846  -3.839  1.00 20.00     0.016 C 
HETATM    2  C3  UNL     1     -34.788  13.276  -4.598  1.00 20.00     0.022 C 
HETATM    3  C4  UNL     1     -34.575  14.705  -3.021  1.00 20.00     0.090 C 
HETATM    4  C5  UNL     1     -35.525  14.589  -4.248  1.00 20.00     0.094 C 
HETATM    5 CL8  UNL     1     -37.288  14.527  -3.968  1.00 20.00    -0.124 Cl
ENDROOT
BRANCH   3   6
HETATM    6  C1  UNL     1     -34.129  16.107  -2.599  1.00 20.00     0.224 C 
HETATM    7  O6  UNL     1     -33.519  16.848  -3.364  1.00 20.00    -0.279 OA
HETATM    8 CL7  UNL     1     -34.590  16.477  -0.965  1.00 20.00    -0.043 Cl
ENDBRANCH   3   6
TORSDOF 1
ENDMDL
MODEL 7
REMARK VINA RESULT:      -3.9     11.541     12.523
REMARK  1 active torsions:
REMARK  status: ('A' for Active; 'I' for Inactive)
REMARK    1  A    between atoms: C1_1  and  C4_4 
ROOT
HETATM    1  C2  UNL     1     -33.835  16.114  -4.873  1.00 20.00     0.016 C 
HETATM    2  C3  UNL     1     -33.797  17.202  -3.783  1.00 20.00     0.022 C 
HETATM    3  C4  UNL     1     -34.537  15.197  -3.835  1.00 20.00     0.090 C 
HETATM    4  C5  UNL     1     -33.832  16.057  -2.746  1.00 20.00     0.094 C 
HETATM    5 CL8  UNL     1     -34.674  16.338  -1.195  1.00 20.00    -0.124 Cl
ENDROOT
BRANCH   3   6
HETATM    6  C1  UNL     1     -34.214  13.701  -3.876  1.00 20.00     0.224 C 
HETATM    7  O6  UNL     1     -35.052  12.869  -4.212  1.00 20.00    -0.279 OA
HETATM    8 CL7  UNL     1     -32.575  13.371  -3.402  1.00 20.00    -0.043 Cl
ENDBRANCH   3   6
TORSDOF 1
ENDMDL
MODEL 8
REMARK VINA RESULT:      -3.9     11.574     12.499
REMARK  1 active torsions:
REMARK  status: ('A' for Active; 'I' for Inactive)
REMARK    1  A    between atoms: C1_1  and  C4_4 
ROOT
HETATM    1  C2  UNL     1     -36.018  15.689  -4.718  1.00 20.00     0.016 C 
HETATM    2  C3  UNL     1     -35.891  16.888  -3.759  1.00 20.00     0.022 C 
HETATM    3  C4  UNL     1     -35.479  14.798  -3.565  1.00 20.00     0.090 C 
HETATM    4  C5  UNL     1     -34.793  16.086  -3.023  1.00 20.00     0.094 C 
HETATM    5 CL8  UNL     1     -34.626  16.293  -1.257  1.00 20.00    -0.124 Cl
ENDROOT
BRANCH   3   6
HETATM    6  C1  UNL     1     -34.578  13.619  -3.940  1.00 20.00     0.224 C 
HETATM    7  O6  UNL     1     -35.034  12.589  -4.430  1.00 20.00    -0.279 OA
HETATM    8 CL7  UNL     1     -32.906  13.934  -3.589  1.00 20.00    -0.043 Cl
ENDBRANCH   3   6
TORSDOF 1
ENDMDL
MODEL 9
REMARK VINA RESULT:      -3.9      1.902      2.815
REMARK  1 active torsions:
REMARK  status: ('A' for Active; 'I' for Inactive)
REMARK    1  A    between atoms: C1_1  and  C4_4 
ROOT
HETATM    1  C2  UNL     1     -34.277   4.354   6.322  1.00 20.00     0.016 C 
HETATM    2  C3  UNL     1     -35.221   3.831   5.223  1.00 20.00     0.022 C 
HETATM    3  C4  UNL     1     -34.559   5.784   5.788  1.00 20.00     0.090 C 
HETATM    4  C5  UNL     1     -34.870   5.106   4.422  1.00 20.00     0.094 C 
HETATM    5 CL8  UNL     1     -36.124   5.825   3.372  1.00 20.00    -0.124 Cl
ENDROOT
BRANCH   3   6
HETATM    6  C1  UNL     1     -33.411   6.797   5.832  1.00 20.00     0.224 C 
HETATM    7  O6  UNL     1     -33.135   7.415   6.856  1.00 20.00    -0.279 OA
HETATM    8 CL7  UNL     1     -32.601   6.936   4.301  1.00 20.00    -0.043 Cl
ENDBRANCH   3   6
TORSDOF 1
ENDMDL
