MODEL 1
REMARK VINA RESULT:      -5.2      0.000      0.000
REMARK  1 active torsions:
REMARK  status: ('A' for Active; 'I' for Inactive)
REMARK    1  A    between atoms: C3_3  and  C4_4 
ROOT
HETATM    1  C1  UNL     1     -35.027   5.600   3.397  1.00 20.00    -0.018 A 
HETATM    2  C2  UNL     1     -35.161   4.794   4.465  1.00 20.00    -0.025 A 
HETATM    3  C4  UNL     1     -33.940   6.443   4.036  1.00 20.00     0.084 A 
HETATM    4  C5  UNL     1     -34.028   5.450   5.231  1.00 20.00     0.018 A 
HETATM    5  C7  UNL     1     -34.401   6.058   6.574  1.00 20.00     0.015 C 
ENDROOT
BRANCH   3   6
HETATM    6  C3  UNL     1     -32.673   6.447   3.174  1.00 20.00     0.131 C 
HETATM    7  C6  UNL     1     -32.280   7.762   2.555  1.00 20.00     0.091 C 
HETATM    8  O8  UNL     1     -32.010   5.427   2.997  1.00 20.00    -0.298 OA
ENDBRANCH   3   6
TORSDOF 1
ENDMDL
MODEL 2
REMARK VINA RESULT:      -5.0      1.168      1.386
REMARK  1 active torsions:
REMARK  status: ('A' for Active; 'I' for Inactive)
REMARK    1  A    between atoms: C3_3  and  C4_4 
ROOT
HETATM    1  C1  UNL     1     -35.342   4.828   4.732  1.00 20.00    -0.018 A 
HETATM    2  C2  UNL     1     -34.844   4.678   5.972  1.00 20.00    -0.025 A 
HETATM    3  C4  UNL     1     -34.480   6.036   4.418  1.00 20.00     0.084 A 
HETATM    4  C5  UNL     1     -33.836   5.801   5.815  1.00 20.00     0.018 A 
HETATM    5  C7  UNL     1     -33.963   6.947   6.806  1.00 20.00     0.015 C 
ENDROOT
BRANCH   3   6
HETATM    6  C3  UNL     1     -33.630   5.792   3.166  1.00 20.00     0.131 C 
HETATM    7  C6  UNL     1     -32.258   6.410   3.148  1.00 20.00     0.091 C 
HETATM    8  O8  UNL     1     -34.049   5.124   2.222  1.00 20.00    -0.298 OA
ENDBRANCH   3   6
TORSDOF 1
ENDMDL
MODEL 3
REMARK VINA RESULT:      -4.4      1.920      3.250
REMARK  1 active torsions:
REMARK  status: ('A' for Active; 'I' for Inactive)
REMARK    1  A    between atoms: C3_3  and  C4_4 
ROOT
HETATM    1  C1  UNL     1     -35.119   4.869   4.105  1.00 20.00    -0.018 A 
HETATM    2  C2  UNL     1     -34.850   5.678   3.065  1.00 20.00    -0.025 A 
HETATM    3  C4  UNL     1     -33.922   5.335   4.912  1.00 20.00     0.084 A 
HETATM    4  C5  UNL     1     -33.670   6.339   3.751  1.00 20.00     0.018 A 
HETATM    5  C7  UNL     1     -32.333   6.209   3.038  1.00 20.00     0.015 C 
ENDROOT
BRANCH   3   6
HETATM    6  C3  UNL     1     -34.361   5.881   6.276  1.00 20.00     0.131 C 
HETATM    7  C6  UNL     1     -33.686   7.140   6.749  1.00 20.00     0.091 C 
HETATM    8  O8  UNL     1     -35.222   5.317   6.949  1.00 20.00    -0.298 OA
ENDBRANCH   3   6
TORSDOF 1
ENDMDL
MODEL 4
REMARK VINA RESULT:      -4.2      1.759      3.445
REMARK  1 active torsions:
REMARK  status: ('A' for Active; 'I' for Inactive)
REMARK    1  A    between atoms: C3_3  and  C4_4 
ROOT
HETATM    1  C1  UNL     1     -34.850   4.901   3.779  1.00 20.00    -0.018 A 
HETATM    2  C2  UNL     1     -34.622   5.860   2.865  1.00 20.00    -0.025 A 
HETATM    3  C4  UNL     1     -33.769   5.394   4.721  1.00 20.00     0.084 A 
HETATM    4  C5  UNL     1     -33.572   6.559   3.709  1.00 20.00     0.018 A 
HETATM    5  C7  UNL     1     -32.190   6.672   3.086  1.00 20.00     0.015 C 
ENDROOT
BRANCH   3   6
HETATM    6  C3  UNL     1     -34.350   5.710   6.104  1.00 20.00     0.131 C 
HETATM    7  C6  UNL     1     -35.212   4.649   6.735  1.00 20.00     0.091 C 
HETATM    8  O8  UNL     1     -34.123   6.778   6.670  1.00 20.00    -0.298 OA
ENDBRANCH   3   6
TORSDOF 1
ENDMDL
MODEL 5
REMARK VINA RESULT:      -4.0     11.349     12.070
REMARK  1 active torsions:
REMARK  status: ('A' for Active; 'I' for Inactive)
REMARK    1  A    between atoms: C3_3  and  C4_4 
ROOT
HETATM    1  C1  UNL     1     -33.323  15.408  -4.075  1.00 20.00    -0.018 A 
HETATM    2  C2  UNL     1     -33.654  16.631  -3.621  1.00 20.00    -0.025 A 
HETATM    3  C4  UNL     1     -34.295  14.690  -3.157  1.00 20.00     0.084 A 
HETATM    4  C5  UNL     1     -34.744  16.109  -2.704  1.00 20.00     0.018 A 
HETATM    5  C7  UNL     1     -34.571  16.421  -1.227  1.00 20.00     0.015 C 
ENDROOT
BRANCH   3   6
HETATM    6  C3  UNL     1     -35.274  13.830  -3.963  1.00 20.00     0.131 C 
HETATM    7  C6  UNL     1     -36.643  14.408  -4.205  1.00 20.00     0.091 C 
HETATM    8  O8  UNL     1     -34.957  12.721  -4.392  1.00 20.00    -0.298 OA
ENDBRANCH   3   6
TORSDOF 1
ENDMDL
MODEL 6
REMARK VINA RESULT:      -3.9      1.881      3.531
REMARK  1 active torsions:
REMARK  status: ('A' for Active; 'I' for Inactive)
REMARK    1  A    between atoms: C3_3  and  C4_4 
ROOT
HETATM    1  C1  UNL     1     -32.563   7.081   4.024  1.00 20.00    -0.018 A 
HETATM    2  C2  UNL     1     -32.294   6.134   3.108  1.00 20.00    -0.025 A 
HETATM    3  C4  UNL     1     -33.941   6.533   4.340  1.00 20.00     0.084 A 
HETATM    4  C5  UNL     1     -33.590   5.384   3.351  1.00 20.00     0.018 A 
HETATM    5  C7  UNL     1     -34.507   5.240   2.147  1.00 20.00     0.015 C 
ENDROOT
BRANCH   3   6
HETATM    6  C3  UNL     1     -34.072   6.205   5.832  1.00 20.00     0.131 C 
HETATM    7  C6  UNL     1     -34.793   4.932   6.185  1.00 20.00     0.091 C 
HETATM    8  O8  UNL     1     -33.609   6.946   6.698  1.00 20.00    -0.298 OA
ENDBRANCH   3   6
TORSDOF 1
ENDMDL
MODEL 7
REMARK VINA RESULT:      -3.9      1.302      1.943
REMARK  1 active torsions:
REMARK  status: ('A' for Active; 'I' for Inactive)
REMARK    1  A    between atoms: C3_3  and  C4_4 
ROOT
HETATM    1  C1  UNL     1     -33.306   6.750   5.745  1.00 20.00    -0.018 A 
HETATM    2  C2  UNL     1     -34.452   6.428   6.372  1.00 20.00    -0.025 A 
HETATM    3  C4  UNL     1     -33.392   5.593   4.769  1.00 20.00     0.084 A 
HETATM    4  C5  UNL     1     -34.764   5.279   5.433  1.00 20.00     0.018 A 
HETATM    5  C7  UNL     1     -34.891   3.910   6.081  1.00 20.00     0.015 C 
ENDROOT
BRANCH   3   6
HETATM    6  C3  UNL     1     -33.371   6.094   3.321  1.00 20.00     0.131 C 
HETATM    7  C6  UNL     1     -32.305   7.096   2.967  1.00 20.00     0.091 C 
HETATM    8  O8  UNL     1     -34.186   5.697   2.490  1.00 20.00    -0.298 OA
ENDBRANCH   3   6
TORSDOF 1
ENDMDL
MODEL 8
REMARK VINA RESULT:      -3.7     11.304     13.209
REMARK  1 active torsions:
REMARK  status: ('A' for Active; 'I' for Inactive)
REMARK    1  A    between atoms: C3_3  and  C4_4 
ROOT
HETATM    1  C1  UNL     1     -34.430  14.763  -6.967  1.00 20.00    -0.018 A 
HETATM    2  C2  UNL     1     -35.692  14.879  -7.418  1.00 20.00    -0.025 A 
HETATM    3  C4  UNL     1     -34.827  14.891  -5.509  1.00 20.00     0.084 A 
HETATM    4  C5  UNL     1     -36.294  14.927  -6.026  1.00 20.00     0.018 A 
HETATM    5  C7  UNL     1     -37.087  16.180  -5.691  1.00 20.00     0.015 C 
ENDROOT
BRANCH   3   6
HETATM    6  C3  UNL     1     -34.359  13.673  -4.705  1.00 20.00     0.131 C 
HETATM    7  C6  UNL     1     -33.249  13.901  -3.714  1.00 20.00     0.091 C 
HETATM    8  O8  UNL     1     -34.866  12.563  -4.862  1.00 20.00    -0.298 OA
ENDBRANCH   3   6
TORSDOF 1
ENDMDL
MODEL 9
REMARK VINA RESULT:      -3.7     11.375     12.422
REMARK  1 active torsions:
REMARK  status: ('A' for Active; 'I' for Inactive)
REMARK    1  A    between atoms: C3_3  and  C4_4 
ROOT
HETATM    1  C1  UNL     1     -34.670  15.553  -2.377  1.00 20.00    -0.018 A 
HETATM    2  C2  UNL     1     -33.782  16.562  -2.342  1.00 20.00    -0.025 A 
HETATM    3  C4  UNL     1     -34.488  15.304  -3.862  1.00 20.00     0.084 A 
HETATM    4  C5  UNL     1     -33.391  16.405  -3.800  1.00 20.00     0.018 A 
HETATM    5  C7  UNL     1     -33.621  17.623  -4.681  1.00 20.00     0.015 C 
ENDROOT
BRANCH   3   6
HETATM    6  C3  UNL     1     -34.062  13.855  -4.127  1.00 20.00     0.131 C 
HETATM    7  C6  UNL     1     -34.895  13.073  -5.108  1.00 20.00     0.091 C 
HETATM    8  O8  UNL     1     -33.088  13.357  -3.565  1.00 20.00    -0.298 OA
ENDBRANCH   3   6
TORSDOF 1
ENDMDL
