MODEL 1
REMARK VINA RESULT:      -3.7      0.000      0.000
REMARK  1 active torsions:
REMARK  status: ('A' for Active; 'I' for Inactive)
REMARK    1  A    between atoms: C3_3  and  C4_4 
ROOT
HETATM    1  C1  UNL     1     -33.258  14.354  -3.439  1.00 20.00     0.142 A 
HETATM    2  C2  UNL     1     -35.495  14.854  -3.601  1.00 20.00     0.087 A 
HETATM    3  C3  UNL     1     -34.284  15.281  -3.099  1.00 20.00     0.052 A 
HETATM    4  N5  UNL     1     -33.614  13.283  -4.146  1.00 20.00    -0.223 NA
HETATM    5  S7  UNL     1     -35.249  13.374  -4.428  1.00 20.00    -0.000 SA
ENDROOT
BRANCH   3   6
HETATM    6  C4  UNL     1     -34.124  16.496  -2.349  1.00 20.00     0.254 C 
HETATM    7  O6  UNL     1     -33.623  17.509  -2.900  1.00 20.00    -0.274 OA
HETATM    8 CL8  UNL     1     -34.621  16.616  -0.642  1.00 20.00    -0.038 Cl
ENDBRANCH   3   6
TORSDOF 1
ENDMDL
MODEL 2
REMARK VINA RESULT:      -3.6      2.718      3.071
REMARK  1 active torsions:
REMARK  status: ('A' for Active; 'I' for Inactive)
REMARK    1  A    between atoms: C3_3  and  C4_4 
ROOT
HETATM    1  C1  UNL     1     -35.255  13.349  -4.246  1.00 20.00     0.142 A 
HETATM    2  C2  UNL     1     -34.668  15.400  -3.392  1.00 20.00     0.087 A 
HETATM    3  C3  UNL     1     -35.730  14.597  -3.751  1.00 20.00     0.052 A 
HETATM    4  N5  UNL     1     -33.936  13.170  -4.282  1.00 20.00    -0.223 NA
HETATM    5  S7  UNL     1     -33.214  14.548  -3.698  1.00 20.00    -0.000 SA
ENDROOT
BRANCH   3   6
HETATM    6  C4  UNL     1     -37.103  15.000  -3.625  1.00 20.00     0.254 C 
HETATM    7  O6  UNL     1     -38.019  14.150  -3.770  1.00 20.00    -0.274 OA
HETATM    8 CL8  UNL     1     -37.558  16.684  -3.263  1.00 20.00    -0.038 Cl
ENDBRANCH   3   6
TORSDOF 1
ENDMDL
MODEL 3
REMARK VINA RESULT:      -3.6      3.733      3.952
REMARK  1 active torsions:
REMARK  status: ('A' for Active; 'I' for Inactive)
REMARK    1  A    between atoms: C3_3  and  C4_4 
ROOT
HETATM    1  C1  UNL     1     -34.045  15.878  -5.724  1.00 20.00     0.142 A 
HETATM    2  C2  UNL     1     -35.225  14.269  -6.862  1.00 20.00     0.087 A 
HETATM    3  C3  UNL     1     -34.519  14.536  -5.709  1.00 20.00     0.052 A 
HETATM    4  N5  UNL     1     -34.343  16.618  -6.790  1.00 20.00    -0.223 NA
HETATM    5  S7  UNL     1     -35.233  15.680  -7.834  1.00 20.00    -0.000 SA
ENDROOT
BRANCH   3   6
HETATM    6  C4  UNL     1     -34.315  13.569  -4.666  1.00 20.00     0.254 C 
HETATM    7  O6  UNL     1     -35.130  12.622  -4.525  1.00 20.00    -0.274 OA
HETATM    8 CL8  UNL     1     -32.929  13.669  -3.551  1.00 20.00    -0.038 Cl
ENDBRANCH   3   6
TORSDOF 1
ENDMDL
MODEL 4
REMARK VINA RESULT:      -3.6      1.091      1.576
REMARK  1 active torsions:
REMARK  status: ('A' for Active; 'I' for Inactive)
REMARK    1  A    between atoms: C3_3  and  C4_4 
ROOT
HETATM    1  C1  UNL     1     -36.135  15.063  -3.382  1.00 20.00     0.142 A 
HETATM    2  C2  UNL     1     -33.940  14.441  -3.651  1.00 20.00     0.087 A 
HETATM    3  C3  UNL     1     -34.779  15.371  -3.075  1.00 20.00     0.052 A 
HETATM    4  N5  UNL     1     -36.361  13.988  -4.133  1.00 20.00    -0.223 NA
HETATM    5  S7  UNL     1     -34.894  13.299  -4.499  1.00 20.00    -0.000 SA
ENDROOT
BRANCH   3   6
HETATM    6  C4  UNL     1     -34.310  16.475  -2.285  1.00 20.00     0.254 C 
HETATM    7  O6  UNL     1     -33.628  17.384  -2.825  1.00 20.00    -0.274 OA
HETATM    8 CL8  UNL     1     -34.670  16.604  -0.545  1.00 20.00    -0.038 Cl
ENDBRANCH   3   6
TORSDOF 1
ENDMDL
MODEL 5
REMARK VINA RESULT:      -3.6      3.605      3.806
REMARK  1 active torsions:
REMARK  status: ('A' for Active; 'I' for Inactive)
REMARK    1  A    between atoms: C3_3  and  C4_4 
ROOT
HETATM    1  C1  UNL     1     -33.426  15.386  -3.660  1.00 20.00     0.142 A 
HETATM    2  C2  UNL     1     -35.666  15.201  -3.187  1.00 20.00     0.087 A 
HETATM    3  C3  UNL     1     -34.652  14.750  -4.005  1.00 20.00     0.052 A 
HETATM    4  N5  UNL     1     -33.455  16.264  -2.660  1.00 20.00    -0.223 NA
HETATM    5  S7  UNL     1     -35.014  16.346  -2.092  1.00 20.00    -0.000 SA
ENDROOT
BRANCH   3   6
HETATM    6  C4  UNL     1     -34.847  13.777  -5.043  1.00 20.00     0.254 C 
HETATM    7  O6  UNL     1     -34.852  12.552  -4.757  1.00 20.00    -0.274 OA
HETATM    8 CL8  UNL     1     -35.089  14.253  -6.743  1.00 20.00    -0.038 Cl
ENDBRANCH   3   6
TORSDOF 1
ENDMDL
MODEL 6
REMARK VINA RESULT:      -3.5     12.247     12.499
REMARK  1 active torsions:
REMARK  status: ('A' for Active; 'I' for Inactive)
REMARK    1  A    between atoms: C3_3  and  C4_4 
ROOT
HETATM    1  C1  UNL     1     -33.793   6.490   5.550  1.00 20.00     0.142 A 
HETATM    2  C2  UNL     1     -34.773   4.590   4.709  1.00 20.00     0.087 A 
HETATM    3  C3  UNL     1     -34.004   5.690   4.392  1.00 20.00     0.052 A 
HETATM    4  N5  UNL     1     -34.343   6.071   6.688  1.00 20.00    -0.223 NA
HETATM    5  S7  UNL     1     -35.153   4.655   6.378  1.00 20.00    -0.000 SA
ENDROOT
BRANCH   3   6
HETATM    6  C4  UNL     1     -33.506   5.950   3.070  1.00 20.00     0.254 C 
HETATM    7  O6  UNL     1     -33.940   5.283   2.096  1.00 20.00    -0.274 OA
HETATM    8 CL8  UNL     1     -32.279   7.205   2.760  1.00 20.00    -0.038 Cl
ENDBRANCH   3   6
TORSDOF 1
ENDMDL
MODEL 7
REMARK VINA RESULT:      -3.5      3.446      3.674
REMARK  1 active torsions:
REMARK  status: ('A' for Active; 'I' for Inactive)
REMARK    1  A    between atoms: C3_3  and  C4_4 
ROOT
HETATM    1  C1  UNL     1     -33.241  16.218  -4.883  1.00 20.00     0.142 A 
HETATM    2  C2  UNL     1     -34.053  16.076  -2.739  1.00 20.00     0.087 A 
HETATM    3  C3  UNL     1     -33.690  15.347  -3.851  1.00 20.00     0.052 A 
HETATM    4  N5  UNL     1     -33.246  17.524  -4.623  1.00 20.00    -0.223 NA
HETATM    5  S7  UNL     1     -33.809  17.738  -3.075  1.00 20.00    -0.000 SA
ENDROOT
BRANCH   3   6
HETATM    6  C4  UNL     1     -33.767  13.914  -3.915  1.00 20.00     0.254 C 
HETATM    7  O6  UNL     1     -32.754  13.221  -3.638  1.00 20.00    -0.274 OA
HETATM    8 CL8  UNL     1     -35.268  13.074  -4.379  1.00 20.00    -0.038 Cl
ENDBRANCH   3   6
TORSDOF 1
ENDMDL
MODEL 8
REMARK VINA RESULT:      -3.5     11.150     11.430
REMARK  1 active torsions:
REMARK  status: ('A' for Active; 'I' for Inactive)
REMARK    1  A    between atoms: C3_3  and  C4_4 
ROOT
HETATM    1  C1  UNL     1     -33.971   5.692   3.020  1.00 20.00     0.142 A 
HETATM    2  C2  UNL     1     -33.477   6.383   5.154  1.00 20.00     0.087 A 
HETATM    3  C3  UNL     1     -33.134   6.515   3.826  1.00 20.00     0.052 A 
HETATM    4  N5  UNL     1     -34.898   4.969   3.644  1.00 20.00    -0.223 NA
HETATM    5  S7  UNL     1     -34.778   5.274   5.273  1.00 20.00    -0.000 SA
ENDROOT
BRANCH   3   6
HETATM    6  C4  UNL     1     -32.077   7.372   3.364  1.00 20.00     0.254 C 
HETATM    7  O6  UNL     1     -31.098   7.614   4.115  1.00 20.00    -0.274 OA
HETATM    8 CL8  UNL     1     -32.109   8.110   1.743  1.00 20.00    -0.038 Cl
ENDBRANCH   3   6
TORSDOF 1
ENDMDL
MODEL 9
REMARK VINA RESULT:      -3.4     13.434     13.802
REMARK  1 active torsions:
REMARK  status: ('A' for Active; 'I' for Inactive)
REMARK    1  A    between atoms: C3_3  and  C4_4 
ROOT
HETATM    1  C1  UNL     1     -40.860   4.584  -1.218  1.00 20.00     0.142 A 
HETATM    2  C2  UNL     1     -42.445   5.369  -2.685  1.00 20.00     0.087 A 
HETATM    3  C3  UNL     1     -41.844   4.233  -2.186  1.00 20.00     0.052 A 
HETATM    4  N5  UNL     1     -40.689   5.880  -0.967  1.00 20.00    -0.223 NA
HETATM    5  S7  UNL     1     -41.746   6.734  -1.922  1.00 20.00    -0.000 SA
ENDROOT
BRANCH   3   6
HETATM    6  C4  UNL     1     -42.192   2.904  -2.608  1.00 20.00     0.254 C 
HETATM    7  O6  UNL     1     -43.210   2.344  -2.127  1.00 20.00    -0.274 OA
HETATM    8 CL8  UNL     1     -41.217   2.015  -3.806  1.00 20.00    -0.038 Cl
ENDBRANCH   3   6
TORSDOF 1
ENDMDL
