MODEL 1
REMARK VINA RESULT:      -4.9      0.000      0.000
REMARK  1 active torsions:
REMARK  status: ('A' for Active; 'I' for Inactive)
REMARK    1  A    between atoms: C3_3  and  C6_6 
ROOT
HETATM    1  C1  UNL     1     -37.130  15.955  -4.890  1.00 20.00    -0.029 C 
HETATM    2  C2  UNL     1     -36.113  16.515  -5.554  1.00 20.00    -0.021 C 
HETATM    3  C4  UNL     1     -36.694  14.747  -4.127  1.00 20.00     0.046 C 
HETATM    4  C5  UNL     1     -34.822  15.754  -5.360  1.00 20.00    -0.015 C 
HETATM    5  C6  UNL     1     -35.157  14.919  -4.071  1.00 20.00     0.046 C 
HETATM    6  C7  UNL     1     -33.637  16.715  -5.201  1.00 20.00     0.020 C 
HETATM    7  C8  UNL     1     -34.589  14.886  -6.614  1.00 20.00     0.020 C 
HETATM    8  C9  UNL     1     -34.776  15.616  -2.748  1.00 20.00     0.026 C 
ENDROOT
BRANCH   5   9
HETATM    9  C3  UNL     1     -34.472  13.576  -4.066  1.00 20.00     0.228 C 
HETATM   10  O10 UNL     1     -35.058  12.552  -4.403  1.00 20.00    -0.279 OA
HETATM   11 CL11 UNL     1     -32.820  13.688  -3.540  1.00 20.00    -0.043 Cl
ENDBRANCH   5   9
TORSDOF 1
ENDMDL
MODEL 2
REMARK VINA RESULT:      -4.8      2.053      3.348
REMARK  1 active torsions:
REMARK  status: ('A' for Active; 'I' for Inactive)
REMARK    1  A    between atoms: C3_3  and  C6_6 
ROOT
HETATM    1  C1  UNL     1     -33.326  13.511  -3.804  1.00 20.00    -0.029 C 
HETATM    2  C2  UNL     1     -33.065  14.797  -3.546  1.00 20.00    -0.021 C 
HETATM    3  C4  UNL     1     -34.742  13.311  -4.240  1.00 20.00     0.046 C 
HETATM    4  C5  UNL     1     -34.279  15.674  -3.746  1.00 20.00    -0.015 C 
HETATM    5  C6  UNL     1     -35.178  14.742  -4.637  1.00 20.00     0.046 C 
HETATM    6  C7  UNL     1     -33.893  17.002  -4.408  1.00 20.00     0.020 C 
HETATM    7  C8  UNL     1     -34.885  15.971  -2.359  1.00 20.00     0.020 C 
HETATM    8  C9  UNL     1     -34.973  14.928  -6.155  1.00 20.00     0.026 C 
ENDROOT
BRANCH   5   9
HETATM    9  C3  UNL     1     -36.648  14.942  -4.371  1.00 20.00     0.228 C 
HETATM   10  O10 UNL     1     -37.307  14.122  -3.740  1.00 20.00    -0.279 OA
HETATM   11 CL11 UNL     1     -37.240  16.426  -5.055  1.00 20.00    -0.043 Cl
ENDBRANCH   5   9
TORSDOF 1
ENDMDL
MODEL 3
REMARK VINA RESULT:      -4.8      0.905      2.609
REMARK  1 active torsions:
REMARK  status: ('A' for Active; 'I' for Inactive)
REMARK    1  A    between atoms: C3_3  and  C6_6 
ROOT
HETATM    1  C1  UNL     1     -34.033  17.323  -4.904  1.00 20.00    -0.029 C 
HETATM    2  C2  UNL     1     -35.352  17.154  -4.759  1.00 20.00    -0.021 C 
HETATM    3  C4  UNL     1     -33.309  16.017  -4.938  1.00 20.00     0.046 C 
HETATM    4  C5  UNL     1     -35.728  15.695  -4.649  1.00 20.00    -0.015 C 
HETATM    5  C6  UNL     1     -34.444  15.009  -5.240  1.00 20.00     0.046 C 
HETATM    6  C7  UNL     1     -37.018  15.402  -5.425  1.00 20.00     0.020 C 
HETATM    7  C8  UNL     1     -35.966  15.377  -3.158  1.00 20.00     0.020 C 
HETATM    8  C9  UNL     1     -34.504  14.759  -6.762  1.00 20.00     0.026 C 
ENDROOT
BRANCH   5   9
HETATM    9  C3  UNL     1     -34.159  13.678  -4.595  1.00 20.00     0.228 C 
HETATM   10  O10 UNL     1     -34.834  12.683  -4.843  1.00 20.00    -0.279 OA
HETATM   11 CL11 UNL     1     -32.808  13.755  -3.506  1.00 20.00    -0.043 Cl
ENDBRANCH   5   9
TORSDOF 1
ENDMDL
MODEL 4
REMARK VINA RESULT:      -4.7      1.588      2.757
REMARK  1 active torsions:
REMARK  status: ('A' for Active; 'I' for Inactive)
REMARK    1  A    between atoms: C3_3  and  C6_6 
ROOT
HETATM    1  C1  UNL     1     -34.614  15.811  -2.307  1.00 20.00    -0.029 C 
HETATM    2  C2  UNL     1     -35.723  16.346  -2.829  1.00 20.00    -0.021 C 
HETATM    3  C4  UNL     1     -34.029  14.769  -3.205  1.00 20.00     0.046 C 
HETATM    4  C5  UNL     1     -36.079  15.730  -4.162  1.00 20.00    -0.015 C 
HETATM    5  C6  UNL     1     -34.709  15.071  -4.561  1.00 20.00     0.046 C 
HETATM    6  C7  UNL     1     -36.580  16.796  -5.143  1.00 20.00     0.020 C 
HETATM    7  C8  UNL     1     -37.209  14.706  -3.925  1.00 20.00     0.020 C 
HETATM    8  C9  UNL     1     -33.787  15.986  -5.395  1.00 20.00     0.026 C 
ENDROOT
BRANCH   5   9
HETATM    9  C3  UNL     1     -34.895  13.804  -5.357  1.00 20.00     0.228 C 
HETATM   10  O10 UNL     1     -34.763  12.697  -4.846  1.00 20.00    -0.279 OA
HETATM   11 CL11 UNL     1     -35.302  14.127  -7.014  1.00 20.00    -0.043 Cl
ENDBRANCH   5   9
TORSDOF 1
ENDMDL
MODEL 5
REMARK VINA RESULT:      -4.6      2.453      3.554
REMARK  1 active torsions:
REMARK  status: ('A' for Active; 'I' for Inactive)
REMARK    1  A    between atoms: C3_3  and  C6_6 
ROOT
HETATM    1  C1  UNL     1     -33.388  13.641  -3.723  1.00 20.00    -0.029 C 
HETATM    2  C2  UNL     1     -34.688  13.526  -4.013  1.00 20.00    -0.021 C 
HETATM    3  C4  UNL     1     -32.960  15.072  -3.660  1.00 20.00     0.046 C 
HETATM    4  C5  UNL     1     -35.346  14.872  -4.216  1.00 20.00    -0.015 C 
HETATM    5  C6  UNL     1     -34.307  15.821  -3.517  1.00 20.00     0.046 C 
HETATM    6  C7  UNL     1     -36.747  14.897  -3.593  1.00 20.00     0.020 C 
HETATM    7  C8  UNL     1     -35.476  15.112  -5.735  1.00 20.00     0.020 C 
HETATM    8  C9  UNL     1     -34.587  16.073  -2.021  1.00 20.00     0.026 C 
ENDROOT
BRANCH   5   9
HETATM    9  C3  UNL     1     -34.235  17.174  -4.178  1.00 20.00     0.228 C 
HETATM   10  O10 UNL     1     -33.315  17.476  -4.930  1.00 20.00    -0.279 OA
HETATM   11 CL11 UNL     1     -35.576  18.188  -3.738  1.00 20.00    -0.043 Cl
ENDBRANCH   5   9
TORSDOF 1
ENDMDL
MODEL 6
REMARK VINA RESULT:      -4.5      2.162      3.227
REMARK  1 active torsions:
REMARK  status: ('A' for Active; 'I' for Inactive)
REMARK    1  A    between atoms: C3_3  and  C6_6 
ROOT
HETATM    1  C1  UNL     1     -34.060  15.540  -6.777  1.00 20.00    -0.029 C 
HETATM    2  C2  UNL     1     -34.806  14.522  -6.334  1.00 20.00    -0.021 C 
HETATM    3  C4  UNL     1     -33.826  16.558  -5.709  1.00 20.00     0.046 C 
HETATM    4  C5  UNL     1     -35.217  14.704  -4.892  1.00 20.00    -0.015 C 
HETATM    5  C6  UNL     1     -34.174  15.780  -4.418  1.00 20.00     0.046 C 
HETATM    6  C7  UNL     1     -35.147  13.376  -4.129  1.00 20.00     0.020 C 
HETATM    7  C8  UNL     1     -36.675  15.209  -4.873  1.00 20.00     0.020 C 
HETATM    8  C9  UNL     1     -32.880  15.188  -3.822  1.00 20.00     0.026 C 
ENDROOT
BRANCH   5   9
HETATM    9  C3  UNL     1     -34.745  16.708  -3.376  1.00 20.00     0.228 C 
HETATM   10  O10 UNL     1     -35.157  17.827  -3.664  1.00 20.00    -0.279 OA
HETATM   11 CL11 UNL     1     -34.732  15.997  -1.791  1.00 20.00    -0.043 Cl
ENDBRANCH   5   9
TORSDOF 1
ENDMDL
MODEL 7
REMARK VINA RESULT:      -4.5      1.835      2.959
REMARK  1 active torsions:
REMARK  status: ('A' for Active; 'I' for Inactive)
REMARK    1  A    between atoms: C3_3  and  C6_6 
ROOT
HETATM    1  C1  UNL     1     -35.653  14.763  -7.446  1.00 20.00    -0.029 C 
HETATM    2  C2  UNL     1     -36.634  14.984  -6.565  1.00 20.00    -0.021 C 
HETATM    3  C4  UNL     1     -34.305  14.954  -6.831  1.00 20.00     0.046 C 
HETATM    4  C5  UNL     1     -36.101  15.384  -5.209  1.00 20.00    -0.015 C 
HETATM    5  C6  UNL     1     -34.613  14.889  -5.315  1.00 20.00     0.046 C 
HETATM    6  C7  UNL     1     -36.910  14.725  -4.086  1.00 20.00     0.020 C 
HETATM    7  C8  UNL     1     -36.233  16.916  -5.080  1.00 20.00     0.020 C 
HETATM    8  C9  UNL     1     -34.389  13.447  -4.816  1.00 20.00     0.026 C 
ENDROOT
BRANCH   5   9
HETATM    9  C3  UNL     1     -33.663  15.767  -4.542  1.00 20.00     0.228 C 
HETATM   10  O10 UNL     1     -32.900  16.545  -5.105  1.00 20.00    -0.279 OA
HETATM   11 CL11 UNL     1     -33.800  15.527  -2.827  1.00 20.00    -0.043 Cl
ENDBRANCH   5   9
TORSDOF 1
ENDMDL
MODEL 8
REMARK VINA RESULT:      -4.4      2.444      3.638
REMARK  1 active torsions:
REMARK  status: ('A' for Active; 'I' for Inactive)
REMARK    1  A    between atoms: C3_3  and  C6_6 
ROOT
HETATM    1  C1  UNL     1     -34.404  13.301  -4.924  1.00 20.00    -0.029 C 
HETATM    2  C2  UNL     1     -34.652  13.683  -3.666  1.00 20.00    -0.021 C 
HETATM    3  C4  UNL     1     -34.666  14.404  -5.898  1.00 20.00     0.046 C 
HETATM    4  C5  UNL     1     -35.148  15.109  -3.593  1.00 20.00    -0.015 C 
HETATM    5  C6  UNL     1     -34.686  15.658  -4.991  1.00 20.00     0.046 C 
HETATM    6  C7  UNL     1     -34.537  15.840  -2.391  1.00 20.00     0.020 C 
HETATM    7  C8  UNL     1     -36.681  15.071  -3.421  1.00 20.00     0.020 C 
HETATM    8  C9  UNL     1     -33.283  16.299  -4.987  1.00 20.00     0.026 C 
ENDROOT
BRANCH   5   9
HETATM    9  C3  UNL     1     -35.633  16.695  -5.538  1.00 20.00     0.228 C 
HETATM   10  O10 UNL     1     -35.644  17.846  -5.115  1.00 20.00    -0.279 OA
HETATM   11 CL11 UNL     1     -36.654  16.053  -6.789  1.00 20.00    -0.043 Cl
ENDBRANCH   5   9
TORSDOF 1
ENDMDL
MODEL 9
REMARK VINA RESULT:      -4.4      2.079      2.864
REMARK  1 active torsions:
REMARK  status: ('A' for Active; 'I' for Inactive)
REMARK    1  A    between atoms: C3_3  and  C6_6 
ROOT
HETATM    1  C1  UNL     1     -33.771  17.283  -4.866  1.00 20.00    -0.029 C 
HETATM    2  C2  UNL     1     -33.205  16.075  -4.963  1.00 20.00    -0.021 C 
HETATM    3  C4  UNL     1     -35.217  17.188  -4.503  1.00 20.00     0.046 C 
HETATM    4  C5  UNL     1     -34.193  14.962  -4.702  1.00 20.00    -0.015 C 
HETATM    5  C6  UNL     1     -35.334  15.745  -3.957  1.00 20.00     0.046 C 
HETATM    6  C7  UNL     1     -33.550  13.841  -3.877  1.00 20.00     0.020 C 
HETATM    7  C8  UNL     1     -34.629  14.386  -6.065  1.00 20.00     0.020 C 
HETATM    8  C9  UNL     1     -35.183  15.774  -2.421  1.00 20.00     0.026 C 
ENDROOT
BRANCH   5   9
HETATM    9  C3  UNL     1     -36.699  15.176  -4.246  1.00 20.00     0.228 C 
HETATM   10  O10 UNL     1     -37.083  14.128  -3.735  1.00 20.00    -0.279 OA
HETATM   11 CL11 UNL     1     -37.601  16.169  -5.350  1.00 20.00    -0.043 Cl
ENDBRANCH   5   9
TORSDOF 1
ENDMDL
