MODEL 1
REMARK VINA RESULT:      -4.6      0.000      0.000
REMARK  1 active torsions:
REMARK  status: ('A' for Active; 'I' for Inactive)
REMARK    1  A    between atoms: C1_1  and  C6_6 
ROOT
HETATM    1  C2  UNL     1     -33.935  16.252  -2.376  1.00 20.00     0.002 C 
HETATM    2  C3  UNL     1     -34.590  15.057  -3.067  1.00 20.00     0.013 C 
HETATM    3  C4  UNL     1     -33.995  17.507  -3.244  1.00 20.00     0.020 C 
HETATM    4  C5  UNL     1     -34.055  16.068  -5.323  1.00 20.00     0.033 C 
HETATM    5  C6  UNL     1     -33.992  14.810  -4.453  1.00 20.00     0.073 C 
HETATM    6  C7  UNL     1     -33.389  17.254  -4.625  1.00 20.00     0.083 C 
HETATM    7 CL10 UNL     1     -33.547  18.720  -5.634  1.00 20.00    -0.125 Cl
ENDROOT
BRANCH   5   8
HETATM    8  C1  UNL     1     -34.732  13.692  -5.118  1.00 20.00     0.223 C 
HETATM    9  O8  UNL     1     -34.887  12.604  -4.570  1.00 20.00    -0.279 OA
HETATM   10 CL9  UNL     1     -35.309  14.137  -6.695  1.00 20.00    -0.043 Cl
ENDBRANCH   5   8
TORSDOF 1
ENDMDL
MODEL 2
REMARK VINA RESULT:      -4.4     11.903     13.157
REMARK  1 active torsions:
REMARK  status: ('A' for Active; 'I' for Inactive)
REMARK    1  A    between atoms: C1_1  and  C6_6 
ROOT
HETATM    1  C2  UNL     1     -34.510   5.042   2.679  1.00 20.00     0.002 C 
HETATM    2  C3  UNL     1     -33.564   6.221   2.458  1.00 20.00     0.013 C 
HETATM    3  C4  UNL     1     -35.198   5.118   4.040  1.00 20.00     0.020 C 
HETATM    4  C5  UNL     1     -33.239   6.428   4.958  1.00 20.00     0.033 C 
HETATM    5  C6  UNL     1     -32.548   6.348   3.594  1.00 20.00     0.073 C 
HETATM    6  C7  UNL     1     -34.176   5.239   5.171  1.00 20.00     0.083 C 
HETATM    7 CL10 UNL     1     -35.019   5.403   6.737  1.00 20.00    -0.125 Cl
ENDROOT
BRANCH   5   8
HETATM    8  C1  UNL     1     -31.711   7.570   3.373  1.00 20.00     0.223 C 
HETATM    9  O8  UNL     1     -30.917   7.971   4.219  1.00 20.00    -0.279 OA
HETATM   10 CL9  UNL     1     -32.016   8.300   1.826  1.00 20.00    -0.043 Cl
ENDBRANCH   5   8
TORSDOF 1
ENDMDL
MODEL 3
REMARK VINA RESULT:      -4.4      2.146      2.556
REMARK  1 active torsions:
REMARK  status: ('A' for Active; 'I' for Inactive)
REMARK    1  A    between atoms: C1_1  and  C6_6 
ROOT
HETATM    1  C2  UNL     1     -37.092  16.555  -3.405  1.00 20.00     0.002 C 
HETATM    2  C3  UNL     1     -36.515  15.578  -4.428  1.00 20.00     0.013 C 
HETATM    3  C4  UNL     1     -35.990  17.268  -2.622  1.00 20.00     0.020 C 
HETATM    4  C5  UNL     1     -34.450  15.297  -2.994  1.00 20.00     0.033 C 
HETATM    5  C6  UNL     1     -35.555  14.581  -3.775  1.00 20.00     0.073 C 
HETATM    6  C7  UNL     1     -35.039  16.265  -1.968  1.00 20.00     0.083 C 
HETATM    7 CL10 UNL     1     -33.724  17.135  -1.129  1.00 20.00    -0.125 Cl
ENDROOT
BRANCH   5   8
HETATM    8  C1  UNL     1     -34.951  13.712  -4.834  1.00 20.00     0.223 C 
HETATM    9  O8  UNL     1     -34.805  12.504  -4.673  1.00 20.00    -0.279 OA
HETATM   10 CL9  UNL     1     -34.508  14.618  -6.249  1.00 20.00    -0.043 Cl
ENDBRANCH   5   8
TORSDOF 1
ENDMDL
MODEL 4
REMARK VINA RESULT:      -4.3      2.436      4.358
REMARK  1 active torsions:
REMARK  status: ('A' for Active; 'I' for Inactive)
REMARK    1  A    between atoms: C1_1  and  C6_6 
ROOT
HETATM    1  C2  UNL     1     -33.343  16.747  -5.172  1.00 20.00     0.002 C 
HETATM    2  C3  UNL     1     -33.690  17.376  -3.823  1.00 20.00     0.013 C 
HETATM    3  C4  UNL     1     -34.164  15.486  -5.434  1.00 20.00     0.020 C 
HETATM    4  C5  UNL     1     -34.377  15.107  -2.942  1.00 20.00     0.033 C 
HETATM    5  C6  UNL     1     -33.551  16.369  -2.680  1.00 20.00     0.073 C 
HETATM    6  C7  UNL     1     -34.016  14.482  -4.290  1.00 20.00     0.083 C 
HETATM    7 CL10 UNL     1     -35.048  13.057  -4.596  1.00 20.00    -0.125 Cl
ENDROOT
BRANCH   5   8
HETATM    8  C1  UNL     1     -33.991  17.010  -1.401  1.00 20.00     0.223 C 
HETATM    9  O8  UNL     1     -34.745  16.439  -0.619  1.00 20.00    -0.279 OA
HETATM   10 CL9  UNL     1     -33.315  18.598  -1.200  1.00 20.00    -0.043 Cl
ENDBRANCH   5   8
TORSDOF 1
ENDMDL
MODEL 5
REMARK VINA RESULT:      -4.3      2.124      2.667
REMARK  1 active torsions:
REMARK  status: ('A' for Active; 'I' for Inactive)
REMARK    1  A    between atoms: C1_1  and  C6_6 
ROOT
HETATM    1  C2  UNL     1     -33.718  17.871  -3.971  1.00 20.00     0.002 C 
HETATM    2  C3  UNL     1     -33.492  16.450  -4.481  1.00 20.00     0.013 C 
HETATM    3  C4  UNL     1     -33.766  17.922  -2.445  1.00 20.00     0.020 C 
HETATM    4  C5  UNL     1     -34.576  15.526  -2.391  1.00 20.00     0.033 C 
HETATM    5  C6  UNL     1     -34.531  15.478  -3.921  1.00 20.00     0.073 C 
HETATM    6  C7  UNL     1     -34.811  16.952  -1.892  1.00 20.00     0.083 C 
HETATM    7 CL10 UNL     1     -34.784  16.983  -0.107  1.00 20.00    -0.125 Cl
ENDROOT
BRANCH   5   8
HETATM    8  C1  UNL     1     -34.205  14.090  -4.378  1.00 20.00     0.223 C 
HETATM    9  O8  UNL     1     -33.517  13.332  -3.700  1.00 20.00    -0.279 OA
HETATM   10 CL9  UNL     1     -34.906  13.730  -5.927  1.00 20.00    -0.043 Cl
ENDBRANCH   5   8
TORSDOF 1
ENDMDL
MODEL 6
REMARK VINA RESULT:      -4.2      1.902      2.862
REMARK  1 active torsions:
REMARK  status: ('A' for Active; 'I' for Inactive)
REMARK    1  A    between atoms: C1_1  and  C6_6 
ROOT
HETATM    1  C2  UNL     1     -35.377  15.653  -7.639  1.00 20.00     0.002 C 
HETATM    2  C3  UNL     1     -34.936  14.447  -6.813  1.00 20.00     0.013 C 
HETATM    3  C4  UNL     1     -34.519  16.882  -7.345  1.00 20.00     0.020 C 
HETATM    4  C5  UNL     1     -34.047  15.997  -5.024  1.00 20.00     0.033 C 
HETATM    5  C6  UNL     1     -34.910  14.767  -5.318  1.00 20.00     0.073 C 
HETATM    6  C7  UNL     1     -34.502  17.200  -5.850  1.00 20.00     0.083 C 
HETATM    7 CL10 UNL     1     -33.429  18.593  -5.537  1.00 20.00    -0.125 Cl
ENDROOT
BRANCH   5   8
HETATM    8  C1  UNL     1     -34.383  13.583  -4.569  1.00 20.00     0.223 C 
HETATM    9  O8  UNL     1     -34.931  12.486  -4.626  1.00 20.00    -0.279 OA
HETATM   10 CL9  UNL     1     -32.958  13.970  -3.652  1.00 20.00    -0.043 Cl
ENDBRANCH   5   8
TORSDOF 1
ENDMDL
MODEL 7
REMARK VINA RESULT:      -4.2      3.098      4.458
REMARK  1 active torsions:
REMARK  status: ('A' for Active; 'I' for Inactive)
REMARK    1  A    between atoms: C1_1  and  C6_6 
ROOT
HETATM    1  C2  UNL     1     -34.146  13.717  -3.974  1.00 20.00     0.002 C 
HETATM    2  C3  UNL     1     -33.651  14.989  -3.290  1.00 20.00     0.013 C 
HETATM    3  C4  UNL     1     -35.442  13.959  -4.746  1.00 20.00     0.020 C 
HETATM    4  C5  UNL     1     -36.026  15.850  -3.171  1.00 20.00     0.033 C 
HETATM    5  C6  UNL     1     -34.730  15.604  -2.396  1.00 20.00     0.073 C 
HETATM    6  C7  UNL     1     -36.517  14.568  -3.845  1.00 20.00     0.083 C 
HETATM    7 CL10 UNL     1     -37.988  14.908  -4.800  1.00 20.00    -0.125 Cl
ENDROOT
BRANCH   5   8
HETATM    8  C1  UNL     1     -34.223  16.893  -1.827  1.00 20.00     0.223 C 
HETATM    9  O8  UNL     1     -33.625  17.713  -2.518  1.00 20.00    -0.279 OA
HETATM   10 CL9  UNL     1     -34.584  17.048  -0.135  1.00 20.00    -0.043 Cl
ENDBRANCH   5   8
TORSDOF 1
ENDMDL
MODEL 8
REMARK VINA RESULT:      -4.2     12.157     13.296
REMARK  1 active torsions:
REMARK  status: ('A' for Active; 'I' for Inactive)
REMARK    1  A    between atoms: C1_1  and  C6_6 
ROOT
HETATM    1  C2  UNL     1     -40.754   6.090  -0.369  1.00 20.00     0.002 C 
HETATM    2  C3  UNL     1     -41.354   4.710  -0.634  1.00 20.00     0.013 C 
HETATM    3  C4  UNL     1     -41.621   7.203  -0.955  1.00 20.00     0.020 C 
HETATM    4  C5  UNL     1     -42.491   5.603  -2.710  1.00 20.00     0.033 C 
HETATM    5  C6  UNL     1     -41.619   4.488  -2.124  1.00 20.00     0.073 C 
HETATM    6  C7  UNL     1     -41.877   6.978  -2.446  1.00 20.00     0.083 C 
HETATM    7 CL10 UNL     1     -42.954   8.255  -3.077  1.00 20.00    -0.125 Cl
ENDROOT
BRANCH   5   8
HETATM    8  C1  UNL     1     -42.290   3.163  -2.313  1.00 20.00     0.223 C 
HETATM    9  O8  UNL     1     -43.300   2.856  -1.687  1.00 20.00    -0.279 OA
HETATM   10 CL9  UNL     1     -41.471   2.177  -3.486  1.00 20.00    -0.043 Cl
ENDBRANCH   5   8
TORSDOF 1
ENDMDL
MODEL 9
REMARK VINA RESULT:      -4.1      2.781      3.890
REMARK  1 active torsions:
REMARK  status: ('A' for Active; 'I' for Inactive)
REMARK    1  A    between atoms: C1_1  and  C6_6 
ROOT
HETATM    1  C2  UNL     1     -35.950  14.667  -6.726  1.00 20.00     0.002 C 
HETATM    2  C3  UNL     1     -34.633  14.582  -5.957  1.00 20.00     0.013 C 
HETATM    3  C4  UNL     1     -37.043  15.343  -5.900  1.00 20.00     0.020 C 
HETATM    4  C5  UNL     1     -35.910  14.575  -3.773  1.00 20.00     0.033 C 
HETATM    5  C6  UNL     1     -34.816  13.896  -4.602  1.00 20.00     0.073 C 
HETATM    6  C7  UNL     1     -37.224  14.648  -4.550  1.00 20.00     0.083 C 
HETATM    7 CL10 UNL     1     -38.454  15.511  -3.584  1.00 20.00    -0.125 Cl
ENDROOT
BRANCH   5   8
HETATM    8  C1  UNL     1     -33.519  13.923  -3.855  1.00 20.00     0.223 C 
HETATM    9  O8  UNL     1     -32.842  12.911  -3.700  1.00 20.00    -0.279 OA
HETATM   10 CL9  UNL     1     -33.135  15.514  -3.270  1.00 20.00    -0.043 Cl
ENDBRANCH   5   8
TORSDOF 1
ENDMDL
