MODEL 1
REMARK VINA RESULT:      -4.0      0.000      0.000
REMARK  3 active torsions:
REMARK  status: ('A' for Active; 'I' for Inactive)
REMARK    1  A    between atoms: C1_1  and  C2_2 
REMARK    2  A    between atoms: C4_4  and  C8_8 
REMARK    3  A    between atoms: C8_8  and  N9_9 
ROOT
HETATM    1  C1  UNL     1     -34.580  16.816  -0.709  1.00 20.00    -0.015 C 
HETATM    2  C3  UNL     1     -34.935  17.218   0.365  1.00 20.00    -0.097 C 
HETATM    3  C5  UNL     1     -35.369  17.706   1.673  1.00 20.00     0.113 C 
ENDROOT
BRANCH   1   4
HETATM    4  C2  UNL     1     -34.174  16.358  -1.936  1.00 20.00    -0.013 C 
HETATM    5  C4  UNL     1     -33.819  15.958  -3.012  1.00 20.00    -0.062 C 
BRANCH   5   6
HETATM    6  C8  UNL     1     -33.391  15.468  -4.326  1.00 20.00     0.365 C 
BRANCH   6   7
HETATM    7  N9  UNL     1     -34.477  14.773  -5.002  1.00 20.00     0.090 N 
HETATM    8  C6  UNL     1     -34.427  13.337  -4.719  1.00 20.00     0.310 C 
HETATM    9  C7  UNL     1     -34.419  15.006  -6.447  1.00 20.00     0.310 C 
ENDBRANCH   6   7
ENDBRANCH   5   6
ENDBRANCH   1   4
TORSDOF 3
ENDMDL
MODEL 2
REMARK VINA RESULT:      -3.8      1.271      1.706
REMARK  3 active torsions:
REMARK  status: ('A' for Active; 'I' for Inactive)
REMARK    1  A    between atoms: C1_1  and  C2_2 
REMARK    2  A    between atoms: C4_4  and  C8_8 
REMARK    3  A    between atoms: C8_8  and  N9_9 
ROOT
HETATM    1  C1  UNL     1     -34.637  17.288   0.066  1.00 20.00    -0.015 C 
HETATM    2  C3  UNL     1     -34.499  17.893   1.094  1.00 20.00    -0.097 C 
HETATM    3  C5  UNL     1     -34.332  18.630   2.346  1.00 20.00     0.113 C 
ENDROOT
BRANCH   1   4
HETATM    4  C2  UNL     1     -34.795  16.596  -1.107  1.00 20.00    -0.013 C 
HETATM    5  C4  UNL     1     -34.934  15.990  -2.135  1.00 20.00    -0.062 C 
BRANCH   5   6
HETATM    6  C8  UNL     1     -35.099  15.246  -3.388  1.00 20.00     0.365 C 
BRANCH   6   7
HETATM    7  N9  UNL     1     -34.097  14.195  -3.506  1.00 20.00     0.090 N 
HETATM    8  C6  UNL     1     -32.761  14.771  -3.668  1.00 20.00     0.310 C 
HETATM    9  C7  UNL     1     -34.408  13.311  -4.632  1.00 20.00     0.310 C 
ENDBRANCH   6   7
ENDBRANCH   5   6
ENDBRANCH   1   4
TORSDOF 3
ENDMDL
MODEL 3
REMARK VINA RESULT:      -3.8      1.134      1.980
REMARK  3 active torsions:
REMARK  status: ('A' for Active; 'I' for Inactive)
REMARK    1  A    between atoms: C1_1  and  C2_2 
REMARK    2  A    between atoms: C4_4  and  C8_8 
REMARK    3  A    between atoms: C8_8  and  N9_9 
ROOT
HETATM    1  C1  UNL     1     -34.660  15.957  -1.917  1.00 20.00    -0.015 C 
HETATM    2  C3  UNL     1     -34.623  16.664  -0.948  1.00 20.00    -0.097 C 
HETATM    3  C5  UNL     1     -34.579  17.526   0.233  1.00 20.00     0.113 C 
ENDROOT
BRANCH   1   4
HETATM    4  C2  UNL     1     -34.702  15.150  -3.025  1.00 20.00    -0.013 C 
HETATM    5  C4  UNL     1     -34.739  14.444  -3.996  1.00 20.00    -0.062 C 
BRANCH   5   6
HETATM    6  C8  UNL     1     -34.790  13.582  -5.181  1.00 20.00     0.365 C 
BRANCH   6   7
HETATM    7  N9  UNL     1     -35.196  14.338  -6.358  1.00 20.00     0.090 N 
HETATM    8  C6  UNL     1     -34.186  15.341  -6.702  1.00 20.00     0.310 C 
HETATM    9  C7  UNL     1     -36.493  14.981  -6.136  1.00 20.00     0.310 C 
ENDBRANCH   6   7
ENDBRANCH   5   6
ENDBRANCH   1   4
TORSDOF 3
ENDMDL
MODEL 4
REMARK VINA RESULT:      -3.7      2.617      6.079
REMARK  3 active torsions:
REMARK  status: ('A' for Active; 'I' for Inactive)
REMARK    1  A    between atoms: C1_1  and  C2_2 
REMARK    2  A    between atoms: C4_4  and  C8_8 
REMARK    3  A    between atoms: C8_8  and  N9_9 
ROOT
HETATM    1  C1  UNL     1     -34.570  15.289  -2.646  1.00 20.00    -0.015 C 
HETATM    2  C3  UNL     1     -34.577  14.507  -3.557  1.00 20.00    -0.097 C 
HETATM    3  C5  UNL     1     -34.587  13.553  -4.665  1.00 20.00     0.113 C 
ENDROOT
BRANCH   1   4
HETATM    4  C2  UNL     1     -34.561  16.183  -1.606  1.00 20.00    -0.013 C 
HETATM    5  C4  UNL     1     -34.554  16.965  -0.695  1.00 20.00    -0.062 C 
BRANCH   5   6
HETATM    6  C8  UNL     1     -34.548  17.924   0.414  1.00 20.00     0.365 C 
BRANCH   6   7
HETATM    7  N9  UNL     1     -35.600  17.618   1.374  1.00 20.00     0.090 N 
HETATM    8  C6  UNL     1     -36.788  18.433   1.116  1.00 20.00     0.310 C 
HETATM    9  C7  UNL     1     -35.127  17.831   2.744  1.00 20.00     0.310 C 
ENDBRANCH   6   7
ENDBRANCH   5   6
ENDBRANCH   1   4
TORSDOF 3
ENDMDL
MODEL 5
REMARK VINA RESULT:      -3.6     10.514     10.998
REMARK  3 active torsions:
REMARK  status: ('A' for Active; 'I' for Inactive)
REMARK    1  A    between atoms: C1_1  and  C2_2 
REMARK    2  A    between atoms: C4_4  and  C8_8 
REMARK    3  A    between atoms: C8_8  and  N9_9 
ROOT
HETATM    1  C1  UNL     1     -33.856   5.717   4.583  1.00 20.00    -0.015 C 
HETATM    2  C3  UNL     1     -34.483   5.044   5.354  1.00 20.00    -0.097 C 
HETATM    3  C5  UNL     1     -35.249   4.225   6.293  1.00 20.00     0.113 C 
ENDROOT
BRANCH   1   4
HETATM    4  C2  UNL     1     -33.139   6.486   3.702  1.00 20.00    -0.013 C 
HETATM    5  C4  UNL     1     -32.511   7.160   2.931  1.00 20.00    -0.062 C 
BRANCH   5   6
HETATM    6  C8  UNL     1     -31.750   7.986   1.989  1.00 20.00     0.365 C 
BRANCH   6   7
HETATM    7  N9  UNL     1     -32.629   8.887   1.258  1.00 20.00     0.090 N 
HETATM    8  C6  UNL     1     -32.231   8.969  -0.149  1.00 20.00     0.310 C 
HETATM    9  C7  UNL     1     -32.621  10.220   1.864  1.00 20.00     0.310 C 
ENDBRANCH   6   7
ENDBRANCH   5   6
ENDBRANCH   1   4
TORSDOF 3
ENDMDL
MODEL 6
REMARK VINA RESULT:      -3.6      2.741      5.837
REMARK  3 active torsions:
REMARK  status: ('A' for Active; 'I' for Inactive)
REMARK    1  A    between atoms: C1_1  and  C2_2 
REMARK    2  A    between atoms: C4_4  and  C8_8 
REMARK    3  A    between atoms: C8_8  and  N9_9 
ROOT
HETATM    1  C1  UNL     1     -34.553  15.215  -2.705  1.00 20.00    -0.015 C 
HETATM    2  C3  UNL     1     -34.562  14.356  -3.544  1.00 20.00    -0.097 C 
HETATM    3  C5  UNL     1     -34.572  13.312  -4.567  1.00 20.00     0.113 C 
ENDROOT
BRANCH   1   4
HETATM    4  C2  UNL     1     -34.543  16.196  -1.747  1.00 20.00    -0.013 C 
HETATM    5  C4  UNL     1     -34.533  17.056  -0.908  1.00 20.00    -0.062 C 
BRANCH   5   6
HETATM    6  C8  UNL     1     -34.521  18.101   0.120  1.00 20.00     0.365 C 
BRANCH   6   7
HETATM    7  N9  UNL     1     -33.173  18.316   0.629  1.00 20.00     0.090 N 
HETATM    8  C6  UNL     1     -33.213  18.806   2.007  1.00 20.00     0.310 C 
HETATM    9  C7  UNL     1     -32.445  19.259  -0.223  1.00 20.00     0.310 C 
ENDBRANCH   6   7
ENDBRANCH   5   6
ENDBRANCH   1   4
TORSDOF 3
ENDMDL
MODEL 7
REMARK VINA RESULT:      -3.6      1.597      2.140
REMARK  3 active torsions:
REMARK  status: ('A' for Active; 'I' for Inactive)
REMARK    1  A    between atoms: C1_1  and  C2_2 
REMARK    2  A    between atoms: C4_4  and  C8_8 
REMARK    3  A    between atoms: C8_8  and  N9_9 
ROOT
HETATM    1  C1  UNL     1     -34.990  17.223   0.537  1.00 20.00    -0.015 C 
HETATM    2  C3  UNL     1     -35.346  17.609   1.617  1.00 20.00    -0.097 C 
HETATM    3  C5  UNL     1     -35.781  18.077   2.932  1.00 20.00     0.113 C 
ENDROOT
BRANCH   1   4
HETATM    4  C2  UNL     1     -34.583  16.784  -0.697  1.00 20.00    -0.013 C 
HETATM    5  C4  UNL     1     -34.226  16.398  -1.777  1.00 20.00    -0.062 C 
BRANCH   5   6
HETATM    6  C8  UNL     1     -33.787  15.931  -3.096  1.00 20.00     0.365 C 
BRANCH   6   7
HETATM    7  N9  UNL     1     -33.800  17.018  -4.065  1.00 20.00     0.090 N 
HETATM    8  C6  UNL     1     -35.149  17.568  -4.207  1.00 20.00     0.310 C 
HETATM    9  C7  UNL     1     -33.301  16.559  -5.363  1.00 20.00     0.310 C 
ENDBRANCH   6   7
ENDBRANCH   5   6
ENDBRANCH   1   4
TORSDOF 3
ENDMDL
MODEL 8
REMARK VINA RESULT:      -3.4     12.262     14.567
REMARK  3 active torsions:
REMARK  status: ('A' for Active; 'I' for Inactive)
REMARK    1  A    between atoms: C1_1  and  C2_2 
REMARK    2  A    between atoms: C4_4  and  C8_8 
REMARK    3  A    between atoms: C8_8  and  N9_9 
ROOT
HETATM    1  C1  UNL     1     -41.596   2.663  -2.998  1.00 20.00    -0.015 C 
HETATM    2  C3  UNL     1     -41.838   1.743  -3.729  1.00 20.00    -0.097 C 
HETATM    3  C5  UNL     1     -42.134   0.621  -4.619  1.00 20.00     0.113 C 
ENDROOT
BRANCH   1   4
HETATM    4  C2  UNL     1     -41.319   3.714  -2.162  1.00 20.00    -0.013 C 
HETATM    5  C4  UNL     1     -41.076   4.636  -1.431  1.00 20.00    -0.062 C 
BRANCH   5   6
HETATM    6  C8  UNL     1     -40.774   5.758  -0.537  1.00 20.00     0.365 C 
BRANCH   6   7
HETATM    7  N9  UNL     1     -41.785   6.801  -0.650  1.00 20.00     0.090 N 
HETATM    8  C6  UNL     1     -43.079   6.320  -0.163  1.00 20.00     0.310 C 
HETATM    9  C7  UNL     1     -41.903   7.257  -2.036  1.00 20.00     0.310 C 
ENDBRANCH   6   7
ENDBRANCH   5   6
ENDBRANCH   1   4
TORSDOF 3
ENDMDL
MODEL 9
REMARK VINA RESULT:      -3.4     13.915     15.645
REMARK  3 active torsions:
REMARK  status: ('A' for Active; 'I' for Inactive)
REMARK    1  A    between atoms: C1_1  and  C2_2 
REMARK    2  A    between atoms: C4_4  and  C8_8 
REMARK    3  A    between atoms: C8_8  and  N9_9 
ROOT
HETATM    1  C1  UNL     1     -41.233   4.127  -1.870  1.00 20.00    -0.015 C 
HETATM    2  C3  UNL     1     -41.010   5.043  -1.128  1.00 20.00    -0.097 C 
HETATM    3  C5  UNL     1     -40.739   6.161  -0.225  1.00 20.00     0.113 C 
ENDROOT
BRANCH   1   4
HETATM    4  C2  UNL     1     -41.488   3.080  -2.718  1.00 20.00    -0.013 C 
HETATM    5  C4  UNL     1     -41.712   2.162  -3.460  1.00 20.00    -0.062 C 
BRANCH   5   6
HETATM    6  C8  UNL     1     -41.980   1.040  -4.365  1.00 20.00     0.365 C 
BRANCH   6   7
HETATM    7  N9  UNL     1     -41.914  -0.230  -3.654  1.00 20.00     0.090 N 
HETATM    8  C6  UNL     1     -41.663  -1.331  -4.585  1.00 20.00     0.310 C 
HETATM    9  C7  UNL     1     -43.151  -0.469  -2.908  1.00 20.00     0.310 C 
ENDBRANCH   6   7
ENDBRANCH   5   6
ENDBRANCH   1   4
TORSDOF 3
ENDMDL
