MODEL 1
REMARK VINA RESULT:      -4.7      0.000      0.000
REMARK  2 active torsions:
REMARK  status: ('A' for Active; 'I' for Inactive)
REMARK    1  A    between atoms: C6_6  and  C9_9 
REMARK    2  A    between atoms: C9_9  and  N10_10 
ROOT
HETATM    1  C1  UNL     1     -34.287   5.932   6.405  1.00 20.00     0.006 C 
HETATM    2  C2  UNL     1     -33.506   6.999   6.180  1.00 20.00     0.004 C 
HETATM    3  C3  UNL     1     -34.640   5.023   5.329  1.00 20.00    -0.040 C 
HETATM    4  C4  UNL     1     -35.298   3.878   5.559  1.00 20.00     0.020 C 
HETATM    5  C7  UNL     1     -32.909   7.287   4.828  1.00 20.00     0.300 C 
HETATM    6  C8  UNL     1     -34.225   5.454   3.937  1.00 20.00     0.310 C 
HETATM    7  N10 UNL     1     -32.905   6.109   3.942  1.00 20.00     0.099 N 
ENDROOT
BRANCH   7   8
HETATM    8  C9  UNL     1     -32.493   6.479   2.590  1.00 20.00     0.299 C 
BRANCH   8   9
HETATM    9  C6  UNL     1     -32.083   7.915   2.589  1.00 20.00    -0.007 C 
HETATM   10  C5  UNL     1     -31.995   8.665   1.486  1.00 20.00     0.008 C 
ENDBRANCH   8   9
ENDBRANCH   7   8
TORSDOF 2
ENDMDL
MODEL 2
REMARK VINA RESULT:      -4.7      0.809      2.157
REMARK  2 active torsions:
REMARK  status: ('A' for Active; 'I' for Inactive)
REMARK    1  A    between atoms: C6_6  and  C9_9 
REMARK    2  A    between atoms: C9_9  and  N10_10 
ROOT
HETATM    1  C1  UNL     1     -34.879   5.422   6.401  1.00 20.00     0.006 C 
HETATM    2  C2  UNL     1     -35.162   4.608   5.374  1.00 20.00     0.004 C 
HETATM    3  C3  UNL     1     -33.912   6.497   6.259  1.00 20.00    -0.040 C 
HETATM    4  C4  UNL     1     -33.720   7.406   7.225  1.00 20.00     0.020 C 
HETATM    5  C7  UNL     1     -34.546   4.788   4.012  1.00 20.00     0.300 C 
HETATM    6  C8  UNL     1     -33.134   6.518   4.958  1.00 20.00     0.310 C 
HETATM    7  N10 UNL     1     -33.979   6.134   3.814  1.00 20.00     0.099 N 
ENDROOT
BRANCH   7   8
HETATM    8  C9  UNL     1     -33.233   6.203   2.560  1.00 20.00     0.299 C 
BRANCH   8   9
HETATM    9  C6  UNL     1     -32.173   7.247   2.689  1.00 20.00    -0.007 C 
HETATM   10  C5  UNL     1     -32.082   8.319   1.894  1.00 20.00     0.008 C 
ENDBRANCH   8   9
ENDBRANCH   7   8
TORSDOF 2
ENDMDL
MODEL 3
REMARK VINA RESULT:      -4.5     11.386     12.825
REMARK  2 active torsions:
REMARK  status: ('A' for Active; 'I' for Inactive)
REMARK    1  A    between atoms: C6_6  and  C9_9 
REMARK    2  A    between atoms: C9_9  and  N10_10 
ROOT
HETATM    1  C1  UNL     1     -34.831  13.610  -5.573  1.00 20.00     0.006 C 
HETATM    2  C2  UNL     1     -34.866  13.343  -4.259  1.00 20.00     0.004 C 
HETATM    3  C3  UNL     1     -34.574  14.955  -6.057  1.00 20.00    -0.040 C 
HETATM    4  C4  UNL     1     -34.395  15.215  -7.359  1.00 20.00     0.020 C 
HETATM    5  C7  UNL     1     -34.588  14.394  -3.218  1.00 20.00     0.300 C 
HETATM    6  C8  UNL     1     -34.528  16.040  -4.999  1.00 20.00     0.310 C 
HETATM    7  N10 UNL     1     -33.881  15.566  -3.763  1.00 20.00     0.099 N 
ENDROOT
BRANCH   7   8
HETATM    8  C9  UNL     1     -33.800  16.633  -2.768  1.00 20.00     0.299 C 
BRANCH   8   9
HETATM    9  C6  UNL     1     -34.641  16.257  -1.592  1.00 20.00    -0.007 C 
HETATM   10  C5  UNL     1     -34.684  16.954  -0.452  1.00 20.00     0.008 C 
ENDBRANCH   8   9
ENDBRANCH   7   8
TORSDOF 2
ENDMDL
MODEL 4
REMARK VINA RESULT:      -4.2     11.543     12.108
REMARK  2 active torsions:
REMARK  status: ('A' for Active; 'I' for Inactive)
REMARK    1  A    between atoms: C6_6  and  C9_9 
REMARK    2  A    between atoms: C9_9  and  N10_10 
ROOT
HETATM    1  C1  UNL     1     -35.410  13.619  -4.582  1.00 20.00     0.006 C 
HETATM    2  C2  UNL     1     -34.092  13.648  -4.337  1.00 20.00     0.004 C 
HETATM    3  C3  UNL     1     -36.311  14.564  -3.948  1.00 20.00    -0.040 C 
HETATM    4  C4  UNL     1     -37.606  14.643  -4.287  1.00 20.00     0.020 C 
HETATM    5  C7  UNL     1     -33.465  14.686  -3.444  1.00 20.00     0.300 C 
HETATM    6  C8  UNL     1     -35.697  15.447  -2.880  1.00 20.00     0.310 C 
HETATM    7  N10 UNL     1     -34.330  15.861  -3.237  1.00 20.00     0.099 N 
ENDROOT
BRANCH   7   8
HETATM    8  C9  UNL     1     -33.764  16.748  -2.223  1.00 20.00     0.299 C 
BRANCH   8   9
HETATM    9  C6  UNL     1     -34.561  16.612  -0.968  1.00 20.00    -0.007 C 
HETATM   10  C5  UNL     1     -34.520  17.489   0.041  1.00 20.00     0.008 C 
ENDBRANCH   8   9
ENDBRANCH   7   8
TORSDOF 2
ENDMDL
MODEL 5
REMARK VINA RESULT:      -4.2     11.630     12.953
REMARK  2 active torsions:
REMARK  status: ('A' for Active; 'I' for Inactive)
REMARK    1  A    between atoms: C6_6  and  C9_9 
REMARK    2  A    between atoms: C9_9  and  N10_10 
ROOT
HETATM    1  C1  UNL     1     -34.208  15.086  -5.910  1.00 20.00     0.006 C 
HETATM    2  C2  UNL     1     -33.763  16.350  -5.957  1.00 20.00     0.004 C 
HETATM    3  C3  UNL     1     -34.473  14.432  -4.641  1.00 20.00    -0.040 C 
HETATM    4  C4  UNL     1     -35.050  13.224  -4.576  1.00 20.00     0.020 C 
HETATM    5  C7  UNL     1     -33.567  17.179  -4.715  1.00 20.00     0.300 C 
HETATM    6  C8  UNL     1     -34.051  15.197  -3.403  1.00 20.00     0.310 C 
HETATM    7  N10 UNL     1     -34.292  16.643  -3.550  1.00 20.00     0.099 N 
ENDROOT
BRANCH   7   8
HETATM    8  C9  UNL     1     -33.925  17.366  -2.334  1.00 20.00     0.299 C 
BRANCH   8   9
HETATM    9  C6  UNL     1     -34.421  16.600  -1.152  1.00 20.00    -0.007 C 
HETATM   10  C5  UNL     1     -34.821  17.168  -0.009  1.00 20.00     0.008 C 
ENDBRANCH   8   9
ENDBRANCH   7   8
TORSDOF 2
ENDMDL
MODEL 6
REMARK VINA RESULT:      -4.1     10.088     11.191
REMARK  2 active torsions:
REMARK  status: ('A' for Active; 'I' for Inactive)
REMARK    1  A    between atoms: C6_6  and  C9_9 
REMARK    2  A    between atoms: C9_9  and  N10_10 
ROOT
HETATM    1  C1  UNL     1     -41.209   7.134  -1.102  1.00 20.00     0.006 C 
HETATM    2  C2  UNL     1     -40.769   6.068  -0.419  1.00 20.00     0.004 C 
HETATM    3  C3  UNL     1     -42.090   6.979  -2.247  1.00 20.00    -0.040 C 
HETATM    4  C4  UNL     1     -42.654   8.033  -2.853  1.00 20.00     0.020 C 
HETATM    5  C7  UNL     1     -41.198   4.665  -0.756  1.00 20.00     0.300 C 
HETATM    6  C8  UNL     1     -42.323   5.555  -2.711  1.00 20.00     0.310 C 
HETATM    7  N10 UNL     1     -42.422   4.623  -1.576  1.00 20.00     0.099 N 
ENDROOT
BRANCH   7   8
HETATM    8  C9  UNL     1     -42.694   3.261  -2.032  1.00 20.00     0.299 C 
BRANCH   8   9
HETATM    9  C6  UNL     1     -41.597   2.836  -2.952  1.00 20.00    -0.007 C 
HETATM   10  C5  UNL     1     -41.637   1.726  -3.697  1.00 20.00     0.008 C 
ENDBRANCH   8   9
ENDBRANCH   7   8
TORSDOF 2
ENDMDL
MODEL 7
REMARK VINA RESULT:      -4.0     11.793     13.735
REMARK  2 active torsions:
REMARK  status: ('A' for Active; 'I' for Inactive)
REMARK    1  A    between atoms: C6_6  and  C9_9 
REMARK    2  A    between atoms: C9_9  and  N10_10 
ROOT
HETATM    1  C1  UNL     1     -34.354  16.584  -6.983  1.00 20.00     0.006 C 
HETATM    2  C2  UNL     1     -33.862  17.395  -6.034  1.00 20.00     0.004 C 
HETATM    3  C3  UNL     1     -34.739  15.218  -6.674  1.00 20.00    -0.040 C 
HETATM    4  C4  UNL     1     -35.363  14.441  -7.570  1.00 20.00     0.020 C 
HETATM    5  C7  UNL     1     -33.733  16.964  -4.598  1.00 20.00     0.300 C 
HETATM    6  C8  UNL     1     -34.387  14.731  -5.283  1.00 20.00     0.310 C 
HETATM    7  N10 UNL     1     -34.565  15.791  -4.275  1.00 20.00     0.099 N 
ENDROOT
BRANCH   7   8
HETATM    8  C9  UNL     1     -34.268  15.298  -2.932  1.00 20.00     0.299 C 
BRANCH   8   9
HETATM    9  C6  UNL     1     -34.024  16.466  -2.035  1.00 20.00    -0.007 C 
HETATM   10  C5  UNL     1     -34.653  16.656  -0.869  1.00 20.00     0.008 C 
ENDBRANCH   8   9
ENDBRANCH   7   8
TORSDOF 2
ENDMDL
MODEL 8
REMARK VINA RESULT:      -4.0     11.387     12.535
REMARK  2 active torsions:
REMARK  status: ('A' for Active; 'I' for Inactive)
REMARK    1  A    between atoms: C6_6  and  C9_9 
REMARK    2  A    between atoms: C9_9  and  N10_10 
ROOT
HETATM    1  C1  UNL     1     -34.446  18.442  -1.978  1.00 20.00     0.006 C 
HETATM    2  C2  UNL     1     -34.027  18.423  -3.252  1.00 20.00     0.004 C 
HETATM    3  C3  UNL     1     -34.612  17.211  -1.226  1.00 20.00    -0.040 C 
HETATM    4  C4  UNL     1     -34.891  17.217   0.085  1.00 20.00     0.020 C 
HETATM    5  C7  UNL     1     -33.653  17.146  -3.954  1.00 20.00     0.300 C 
HETATM    6  C8  UNL     1     -34.455  15.928  -2.017  1.00 20.00     0.310 C 
HETATM    7  N10 UNL     1     -33.383  16.037  -3.022  1.00 20.00     0.099 N 
ENDROOT
BRANCH   7   8
HETATM    8  C9  UNL     1     -33.209  14.780  -3.746  1.00 20.00     0.299 C 
BRANCH   8   9
HETATM    9  C6  UNL     1     -34.472  13.990  -3.647  1.00 20.00    -0.007 C 
HETATM   10  C5  UNL     1     -34.942  13.209  -4.626  1.00 20.00     0.008 C 
ENDBRANCH   8   9
ENDBRANCH   7   8
TORSDOF 2
ENDMDL
MODEL 9
REMARK VINA RESULT:      -4.0     11.034     12.109
REMARK  2 active torsions:
REMARK  status: ('A' for Active; 'I' for Inactive)
REMARK    1  A    between atoms: C6_6  and  C9_9 
REMARK    2  A    between atoms: C9_9  and  N10_10 
ROOT
HETATM    1  C1  UNL     1     -35.350  13.692  -4.240  1.00 20.00     0.006 C 
HETATM    2  C2  UNL     1     -36.494  14.378  -4.104  1.00 20.00     0.004 C 
HETATM    3  C3  UNL     1     -34.110  14.182  -3.663  1.00 20.00    -0.040 C 
HETATM    4  C4  UNL     1     -32.991  13.445  -3.665  1.00 20.00     0.020 C 
HETATM    5  C7  UNL     1     -36.576  15.652  -3.307  1.00 20.00     0.300 C 
HETATM    6  C8  UNL     1     -34.164  15.574  -3.066  1.00 20.00     0.310 C 
HETATM    7  N10 UNL     1     -35.444  15.821  -2.379  1.00 20.00     0.099 N 
ENDROOT
BRANCH   7   8
HETATM    8  C9  UNL     1     -35.467  17.148  -1.768  1.00 20.00     0.299 C 
BRANCH   8   9
HETATM    9  C6  UNL     1     -34.739  17.090  -0.466  1.00 20.00    -0.007 C 
HETATM   10  C5  UNL     1     -33.758  17.931  -0.121  1.00 20.00     0.008 C 
ENDBRANCH   8   9
ENDBRANCH   7   8
TORSDOF 2
ENDMDL
