MODEL 1
REMARK VINA RESULT:      -4.7      0.000      0.000
REMARK  1 active torsions:
REMARK  status: ('A' for Active; 'I' for Inactive)
REMARK    1  A    between atoms: C1_1  and  C5_5 
ROOT
HETATM    1  C2  UNL     1     -34.871   5.724   3.041  1.00 20.00     0.015 C 
HETATM    2  C3  UNL     1     -35.437   4.888   4.186  1.00 20.00     0.021 C 
HETATM    3  C4  UNL     1     -33.931   6.434   5.189  1.00 20.00     0.033 C 
HETATM    4  C5  UNL     1     -33.935   6.750   3.691  1.00 20.00     0.073 C 
HETATM    5  C6  UNL     1     -34.361   4.973   5.256  1.00 20.00     0.083 C 
HETATM    6 CL9  UNL     1     -34.964   4.520   6.856  1.00 20.00    -0.125 Cl
ENDROOT
BRANCH   4   7
HETATM    7  C1  UNL     1     -32.547   6.637   3.136  1.00 20.00     0.223 C 
HETATM    8  O7  UNL     1     -31.872   5.624   3.288  1.00 20.00    -0.279 OA
HETATM    9 CL8  UNL     1     -32.063   8.076   2.290  1.00 20.00    -0.043 Cl
ENDBRANCH   4   7
TORSDOF 1
ENDMDL
MODEL 2
REMARK VINA RESULT:      -4.3     11.444     12.452
REMARK  1 active torsions:
REMARK  status: ('A' for Active; 'I' for Inactive)
REMARK    1  A    between atoms: C1_1  and  C5_5 
ROOT
HETATM    1  C2  UNL     1     -33.911  16.027  -4.951  1.00 20.00     0.015 C 
HETATM    2  C3  UNL     1     -34.156  16.865  -3.698  1.00 20.00     0.021 C 
HETATM    3  C4  UNL     1     -33.893  14.623  -2.942  1.00 20.00     0.033 C 
HETATM    4  C5  UNL     1     -33.696  14.589  -4.460  1.00 20.00     0.073 C 
HETATM    5  C6  UNL     1     -34.741  15.868  -2.712  1.00 20.00     0.083 C 
HETATM    6 CL9  UNL     1     -34.654  16.443  -1.041  1.00 20.00    -0.125 Cl
ENDROOT
BRANCH   4   7
HETATM    7  C1  UNL     1     -34.685  13.655  -5.089  1.00 20.00     0.223 C 
HETATM    8  O7  UNL     1     -35.042  12.623  -4.531  1.00 20.00    -0.279 OA
HETATM    9 CL8  UNL     1     -35.223  14.221  -6.642  1.00 20.00    -0.043 Cl
ENDBRANCH   4   7
TORSDOF 1
ENDMDL
MODEL 3
REMARK VINA RESULT:      -4.3     11.356     12.981
REMARK  1 active torsions:
REMARK  status: ('A' for Active; 'I' for Inactive)
REMARK    1  A    between atoms: C1_1  and  C5_5 
ROOT
HETATM    1  C2  UNL     1     -34.375  15.733  -2.548  1.00 20.00     0.015 C 
HETATM    2  C3  UNL     1     -33.845  17.040  -3.134  1.00 20.00     0.021 C 
HETATM    3  C4  UNL     1     -34.844  15.868  -4.949  1.00 20.00     0.033 C 
HETATM    4  C5  UNL     1     -35.059  14.998  -3.708  1.00 20.00     0.073 C 
HETATM    5  C6  UNL     1     -33.621  16.708  -4.600  1.00 20.00     0.083 C 
HETATM    6 CL9  UNL     1     -33.489  18.157  -5.607  1.00 20.00    -0.125 Cl
ENDROOT
BRANCH   4   7
HETATM    7  C1  UNL     1     -34.453  13.643  -3.916  1.00 20.00     0.223 C 
HETATM    8  O7  UNL     1     -35.110  12.701  -4.346  1.00 20.00    -0.279 OA
HETATM    9 CL8  UNL     1     -32.771  13.606  -3.480  1.00 20.00    -0.043 Cl
ENDBRANCH   4   7
TORSDOF 1
ENDMDL
MODEL 4
REMARK VINA RESULT:      -4.2     11.816     13.135
REMARK  1 active torsions:
REMARK  status: ('A' for Active; 'I' for Inactive)
REMARK    1  A    between atoms: C1_1  and  C5_5 
ROOT
HETATM    1  C2  UNL     1     -34.138  14.361  -3.309  1.00 20.00     0.015 C 
HETATM    2  C3  UNL     1     -34.492  13.938  -4.733  1.00 20.00     0.021 C 
HETATM    3  C4  UNL     1     -33.206  15.929  -4.945  1.00 20.00     0.033 C 
HETATM    4  C5  UNL     1     -33.271  15.619  -3.447  1.00 20.00     0.073 C 
HETATM    5  C6  UNL     1     -34.440  15.240  -5.515  1.00 20.00     0.083 C 
HETATM    6 CL9  UNL     1     -34.317  14.973  -7.260  1.00 20.00    -0.125 Cl
ENDROOT
BRANCH   4   7
HETATM    7  C1  UNL     1     -33.877  16.772  -2.706  1.00 20.00     0.223 C 
HETATM    8  O7  UNL     1     -33.792  17.923  -3.123  1.00 20.00    -0.279 OA
HETATM    9 CL8  UNL     1     -34.677  16.265  -1.249  1.00 20.00    -0.043 Cl
ENDBRANCH   4   7
TORSDOF 1
ENDMDL
MODEL 5
REMARK VINA RESULT:      -4.1     12.093     12.909
REMARK  1 active torsions:
REMARK  status: ('A' for Active; 'I' for Inactive)
REMARK    1  A    between atoms: C1_1  and  C5_5 
ROOT
HETATM    1  C2  UNL     1     -34.921  15.820  -2.173  1.00 20.00     0.015 C 
HETATM    2  C3  UNL     1     -34.637  16.588  -0.884  1.00 20.00     0.021 C 
HETATM    3  C4  UNL     1     -33.817  17.956  -2.651  1.00 20.00     0.033 C 
HETATM    4  C5  UNL     1     -34.434  16.722  -3.315  1.00 20.00     0.073 C 
HETATM    5  C6  UNL     1     -33.459  17.476  -1.249  1.00 20.00     0.083 C 
HETATM    6 CL9  UNL     1     -33.247  18.815  -0.112  1.00 20.00    -0.125 Cl
ENDROOT
BRANCH   4   7
HETATM    7  C1  UNL     1     -33.408  16.019  -4.152  1.00 20.00     0.223 C 
HETATM    8  O7  UNL     1     -32.826  16.587  -5.071  1.00 20.00    -0.279 OA
HETATM    9 CL8  UNL     1     -33.177  14.370  -3.654  1.00 20.00    -0.043 Cl
ENDBRANCH   4   7
TORSDOF 1
ENDMDL
MODEL 6
REMARK VINA RESULT:      -4.0      1.821      2.109
REMARK  1 active torsions:
REMARK  status: ('A' for Active; 'I' for Inactive)
REMARK    1  A    between atoms: C1_1  and  C5_5 
ROOT
HETATM    1  C2  UNL     1     -35.103   4.569   4.768  1.00 20.00     0.015 C 
HETATM    2  C3  UNL     1     -34.802   5.149   6.149  1.00 20.00     0.021 C 
HETATM    3  C4  UNL     1     -34.371   6.902   4.596  1.00 20.00     0.033 C 
HETATM    4  C5  UNL     1     -34.869   5.712   3.772  1.00 20.00     0.073 C 
HETATM    5  C6  UNL     1     -33.807   6.261   5.859  1.00 20.00     0.083 C 
HETATM    6 CL9  UNL     1     -33.673   7.411   7.196  1.00 20.00    -0.125 Cl
ENDROOT
BRANCH   4   7
HETATM    7  C1  UNL     1     -33.844   5.328   2.748  1.00 20.00     0.223 C 
HETATM    8  O7  UNL     1     -34.098   4.536   1.845  1.00 20.00    -0.279 OA
HETATM    9 CL8  UNL     1     -32.324   6.127   3.014  1.00 20.00    -0.043 Cl
ENDBRANCH   4   7
TORSDOF 1
ENDMDL
MODEL 7
REMARK VINA RESULT:      -4.0     11.326     12.757
REMARK  1 active torsions:
REMARK  status: ('A' for Active; 'I' for Inactive)
REMARK    1  A    between atoms: C1_1  and  C5_5 
ROOT
HETATM    1  C2  UNL     1     -36.366  14.521  -3.893  1.00 20.00     0.015 C 
HETATM    2  C3  UNL     1     -36.860  15.149  -5.194  1.00 20.00     0.021 C 
HETATM    3  C4  UNL     1     -35.065  13.709  -5.804  1.00 20.00     0.033 C 
HETATM    4  C5  UNL     1     -35.240  13.559  -4.290  1.00 20.00     0.073 C 
HETATM    5  C6  UNL     1     -35.643  15.087  -6.103  1.00 20.00     0.083 C 
HETATM    6 CL9  UNL     1     -36.067  15.283  -7.810  1.00 20.00    -0.125 Cl
ENDROOT
BRANCH   4   7
HETATM    7  C1  UNL     1     -33.963  13.909  -3.586  1.00 20.00     0.223 C 
HETATM    8  O7  UNL     1     -32.991  13.162  -3.605  1.00 20.00    -0.279 OA
HETATM    9 CL8  UNL     1     -34.061  15.446  -2.781  1.00 20.00    -0.043 Cl
ENDBRANCH   4   7
TORSDOF 1
ENDMDL
MODEL 8
REMARK VINA RESULT:      -4.0     11.800     12.638
REMARK  1 active torsions:
REMARK  status: ('A' for Active; 'I' for Inactive)
REMARK    1  A    between atoms: C1_1  and  C5_5 
ROOT
HETATM    1  C2  UNL     1     -34.285  13.588  -4.509  1.00 20.00     0.015 C 
HETATM    2  C3  UNL     1     -33.788  14.239  -3.221  1.00 20.00     0.021 C 
HETATM    3  C4  UNL     1     -36.021  15.008  -3.521  1.00 20.00     0.033 C 
HETATM    4  C5  UNL     1     -35.739  14.046  -4.678  1.00 20.00     0.073 C 
HETATM    5  C6  UNL     1     -34.637  15.494  -3.106  1.00 20.00     0.083 C 
HETATM    6 CL9  UNL     1     -34.623  16.170  -1.470  1.00 20.00    -0.125 Cl
ENDROOT
BRANCH   4   7
HETATM    7  C1  UNL     1     -35.931  14.747  -5.990  1.00 20.00     0.223 C 
HETATM    8  O7  UNL     1     -37.021  15.198  -6.327  1.00 20.00    -0.279 OA
HETATM    9 CL8  UNL     1     -34.459  14.821  -6.911  1.00 20.00    -0.043 Cl
ENDBRANCH   4   7
TORSDOF 1
ENDMDL
MODEL 9
REMARK VINA RESULT:      -4.0     11.952     12.809
REMARK  1 active torsions:
REMARK  status: ('A' for Active; 'I' for Inactive)
REMARK    1  A    between atoms: C1_1  and  C5_5 
ROOT
HETATM    1  C2  UNL     1     -33.517  16.818  -4.622  1.00 20.00     0.015 C 
HETATM    2  C3  UNL     1     -33.862  17.430  -3.266  1.00 20.00     0.021 C 
HETATM    3  C4  UNL     1     -33.765  15.078  -2.914  1.00 20.00     0.033 C 
HETATM    4  C5  UNL     1     -33.409  15.306  -4.386  1.00 20.00     0.073 C 
HETATM    5  C6  UNL     1     -34.586  16.307  -2.542  1.00 20.00     0.083 C 
HETATM    6 CL9  UNL     1     -34.655  16.567  -0.793  1.00 20.00    -0.125 Cl
ENDROOT
BRANCH   4   7
HETATM    7  C1  UNL     1     -34.361  14.557  -5.270  1.00 20.00     0.223 C 
HETATM    8  O7  UNL     1     -34.518  14.857  -6.449  1.00 20.00    -0.279 OA
HETATM    9 CL8  UNL     1     -35.165  13.272  -4.421  1.00 20.00    -0.043 Cl
ENDBRANCH   4   7
TORSDOF 1
ENDMDL
