MODEL 1
REMARK VINA RESULT:      -5.3      0.000      0.000
REMARK  1 active torsions:
REMARK  status: ('A' for Active; 'I' for Inactive)
REMARK    1  A    between atoms: C5_5  and  C7_7 
ROOT
HETATM    1  C1  UNL     1     -34.129   5.918   6.391  1.00 20.00    -0.026 A 
HETATM    2  C2  UNL     1     -33.674   6.819   5.509  1.00 20.00    -0.013 A 
HETATM    3  C3  UNL     1     -35.131   4.583   4.509  1.00 20.00    -0.019 A 
HETATM    4  C4  UNL     1     -34.681   5.478   3.609  1.00 20.00    -0.071 A 
HETATM    5  C6  UNL     1     -34.891   4.693   5.987  1.00 20.00     0.054 A 
HETATM    6  C7  UNL     1     -33.885   6.690   4.026  1.00 20.00     0.123 A 
HETATM    7  C8  UNL     1     -35.003   5.340   2.147  1.00 20.00     0.044 C 
ENDROOT
BRANCH   6   8
HETATM    8  C5  UNL     1     -32.512   6.574   3.435  1.00 20.00     0.230 C 
HETATM    9  O9  UNL     1     -31.832   5.563   3.578  1.00 20.00    -0.279 OA
HETATM   10 CL10 UNL     1     -32.052   8.006   2.565  1.00 20.00    -0.043 Cl
ENDBRANCH   6   8
TORSDOF 1
ENDMDL
MODEL 2
REMARK VINA RESULT:      -4.6     11.981     13.055
REMARK  1 active torsions:
REMARK  status: ('A' for Active; 'I' for Inactive)
REMARK    1  A    between atoms: C5_5  and  C7_7 
ROOT
HETATM    1  C1  UNL     1     -33.689  16.543  -2.931  1.00 20.00    -0.026 A 
HETATM    2  C2  UNL     1     -33.651  15.219  -3.134  1.00 20.00    -0.013 A 
HETATM    3  C3  UNL     1     -34.241  16.896  -5.360  1.00 20.00    -0.019 A 
HETATM    4  C4  UNL     1     -34.207  15.568  -5.581  1.00 20.00    -0.071 A 
HETATM    5  C6  UNL     1     -34.007  17.525  -4.017  1.00 20.00     0.054 A 
HETATM    6  C7  UNL     1     -33.920  14.587  -4.470  1.00 20.00     0.123 A 
HETATM    7  C8  UNL     1     -34.395  15.004  -6.961  1.00 20.00     0.044 C 
ENDROOT
BRANCH   6   8
HETATM    8  C5  UNL     1     -35.138  13.735  -4.273  1.00 20.00     0.230 C 
HETATM    9  O9  UNL     1     -35.108  12.519  -4.437  1.00 20.00    -0.279 OA
HETATM   10 CL10 UNL     1     -36.522  14.673  -3.802  1.00 20.00    -0.043 Cl
ENDBRANCH   6   8
TORSDOF 1
ENDMDL
MODEL 3
REMARK VINA RESULT:      -4.4     12.123     13.345
REMARK  1 active torsions:
REMARK  status: ('A' for Active; 'I' for Inactive)
REMARK    1  A    between atoms: C5_5  and  C7_7 
ROOT
HETATM    1  C1  UNL     1     -34.511  16.266  -6.201  1.00 20.00    -0.026 A 
HETATM    2  C2  UNL     1     -35.708  15.988  -5.665  1.00 20.00    -0.013 A 
HETATM    3  C3  UNL     1     -33.501  16.347  -3.899  1.00 20.00    -0.019 A 
HETATM    4  C4  UNL     1     -34.696  16.068  -3.344  1.00 20.00    -0.071 A 
HETATM    5  C6  UNL     1     -33.273  16.457  -5.379  1.00 20.00     0.054 A 
HETATM    6  C7  UNL     1     -35.928  15.844  -4.186  1.00 20.00     0.123 A 
HETATM    7  C8  UNL     1     -34.870  16.027  -1.851  1.00 20.00     0.044 C 
ENDROOT
BRANCH   6   8
HETATM    8  C5  UNL     1     -36.381  14.429  -3.985  1.00 20.00     0.230 C 
HETATM    9  O9  UNL     1     -37.544  14.157  -3.705  1.00 20.00    -0.279 OA
HETATM   10 CL10 UNL     1     -35.084  13.292  -4.195  1.00 20.00    -0.043 Cl
ENDBRANCH   6   8
TORSDOF 1
ENDMDL
MODEL 4
REMARK VINA RESULT:      -4.4      2.558      3.968
REMARK  1 active torsions:
REMARK  status: ('A' for Active; 'I' for Inactive)
REMARK    1  A    between atoms: C5_5  and  C7_7 
ROOT
HETATM    1  C1  UNL     1     -33.841   5.555   2.383  1.00 20.00    -0.026 A 
HETATM    2  C2  UNL     1     -34.896   5.268   3.158  1.00 20.00    -0.013 A 
HETATM    3  C3  UNL     1     -32.712   6.669   4.336  1.00 20.00    -0.019 A 
HETATM    4  C4  UNL     1     -33.763   6.388   5.129  1.00 20.00    -0.071 A 
HETATM    5  C6  UNL     1     -32.626   6.270   2.891  1.00 20.00     0.054 A 
HETATM    6  C7  UNL     1     -34.967   5.636   4.613  1.00 20.00     0.123 A 
HETATM    7  C8  UNL     1     -33.812   6.863   6.554  1.00 20.00     0.044 C 
ENDROOT
BRANCH   6   8
HETATM    8  C5  UNL     1     -35.057   4.335   5.352  1.00 20.00     0.230 C 
HETATM    9  O9  UNL     1     -34.830   3.263   4.800  1.00 20.00    -0.279 OA
HETATM   10 CL10 UNL     1     -35.504   4.557   7.016  1.00 20.00    -0.043 Cl
ENDBRANCH   6   8
TORSDOF 1
ENDMDL
MODEL 5
REMARK VINA RESULT:      -4.3     12.088     13.134
REMARK  1 active torsions:
REMARK  status: ('A' for Active; 'I' for Inactive)
REMARK    1  A    between atoms: C5_5  and  C7_7 
ROOT
HETATM    1  C1  UNL     1     -33.669  15.877  -3.114  1.00 20.00    -0.026 A 
HETATM    2  C2  UNL     1     -34.669  14.990  -3.014  1.00 20.00    -0.013 A 
HETATM    3  C3  UNL     1     -33.881  15.834  -5.620  1.00 20.00    -0.019 A 
HETATM    4  C4  UNL     1     -34.887  14.943  -5.538  1.00 20.00    -0.071 A 
HETATM    5  C6  UNL     1     -33.178  16.411  -4.425  1.00 20.00     0.054 A 
HETATM    6  C7  UNL     1     -35.395  14.440  -4.209  1.00 20.00     0.123 A 
HETATM    7  C8  UNL     1     -35.513  14.361  -6.775  1.00 20.00     0.044 C 
ENDROOT
BRANCH   6   8
HETATM    8  C5  UNL     1     -36.818  14.887  -4.053  1.00 20.00     0.230 C 
HETATM    9  O9  UNL     1     -37.717  14.096  -3.784  1.00 20.00    -0.279 OA
HETATM   10 CL10 UNL     1     -36.997  16.597  -4.298  1.00 20.00    -0.043 Cl
ENDBRANCH   6   8
TORSDOF 1
ENDMDL
MODEL 6
REMARK VINA RESULT:      -4.3     11.696     12.756
REMARK  1 active torsions:
REMARK  status: ('A' for Active; 'I' for Inactive)
REMARK    1  A    between atoms: C5_5  and  C7_7 
ROOT
HETATM    1  C1  UNL     1     -37.335  15.400  -3.586  1.00 20.00    -0.026 A 
HETATM    2  C2  UNL     1     -36.033  15.225  -3.320  1.00 20.00    -0.013 A 
HETATM    3  C3  UNL     1     -36.854  15.224  -6.049  1.00 20.00    -0.019 A 
HETATM    4  C4  UNL     1     -35.542  15.048  -5.800  1.00 20.00    -0.071 A 
HETATM    5  C6  UNL     1     -37.891  15.399  -4.978  1.00 20.00     0.054 A 
HETATM    6  C7  UNL     1     -35.000  15.015  -4.391  1.00 20.00     0.123 A 
HETATM    7  C8  UNL     1     -34.545  14.933  -6.919  1.00 20.00     0.044 C 
ENDROOT
BRANCH   6   8
HETATM    8  C5  UNL     1     -34.435  13.650  -4.139  1.00 20.00     0.230 C 
HETATM    9  O9  UNL     1     -35.091  12.632  -4.341  1.00 20.00    -0.279 OA
HETATM   10 CL10 UNL     1     -32.801  13.717  -3.552  1.00 20.00    -0.043 Cl
ENDBRANCH   6   8
TORSDOF 1
ENDMDL
MODEL 7
REMARK VINA RESULT:      -4.3     11.787     12.521
REMARK  1 active torsions:
REMARK  status: ('A' for Active; 'I' for Inactive)
REMARK    1  A    between atoms: C5_5  and  C7_7 
ROOT
HETATM    1  C1  UNL     1     -36.428  14.595  -4.622  1.00 20.00    -0.026 A 
HETATM    2  C2  UNL     1     -35.252  14.104  -4.207  1.00 20.00    -0.013 A 
HETATM    3  C3  UNL     1     -36.254  16.445  -2.927  1.00 20.00    -0.019 A 
HETATM    4  C4  UNL     1     -35.071  15.966  -2.497  1.00 20.00    -0.071 A 
HETATM    5  C6  UNL     1     -37.049  15.829  -4.041  1.00 20.00     0.054 A 
HETATM    6  C7  UNL     1     -34.440  14.742  -3.115  1.00 20.00     0.123 A 
HETATM    7  C8  UNL     1     -34.350  16.597  -1.339  1.00 20.00     0.044 C 
ENDROOT
BRANCH   6   8
HETATM    8  C5  UNL     1     -33.153  15.156  -3.763  1.00 20.00     0.230 C 
HETATM    9  O9  UNL     1     -32.089  14.606  -3.493  1.00 20.00    -0.279 OA
HETATM   10 CL10 UNL     1     -33.378  16.457  -4.891  1.00 20.00    -0.043 Cl
ENDBRANCH   6   8
TORSDOF 1
ENDMDL
MODEL 8
REMARK VINA RESULT:      -4.3     11.810     12.695
REMARK  1 active torsions:
REMARK  status: ('A' for Active; 'I' for Inactive)
REMARK    1  A    between atoms: C5_5  and  C7_7 
ROOT
HETATM    1  C1  UNL     1     -36.374  16.478  -3.371  1.00 20.00    -0.026 A 
HETATM    2  C2  UNL     1     -36.217  15.147  -3.367  1.00 20.00    -0.013 A 
HETATM    3  C3  UNL     1     -33.881  16.770  -3.551  1.00 20.00    -0.019 A 
HETATM    4  C4  UNL     1     -33.706  15.435  -3.549  1.00 20.00    -0.071 A 
HETATM    5  C6  UNL     1     -35.226  17.435  -3.482  1.00 20.00     0.054 A 
HETATM    6  C7  UNL     1     -34.874  14.481  -3.471  1.00 20.00     0.123 A 
HETATM    7  C8  UNL     1     -32.330  14.830  -3.564  1.00 20.00     0.044 C 
ENDROOT
BRANCH   6   8
HETATM    8  C5  UNL     1     -34.917  13.690  -4.744  1.00 20.00     0.230 C 
HETATM    9  O9  UNL     1     -34.926  12.463  -4.741  1.00 20.00    -0.279 OA
HETATM   10 CL10 UNL     1     -34.950  14.713  -6.149  1.00 20.00    -0.043 Cl
ENDBRANCH   6   8
TORSDOF 1
ENDMDL
MODEL 9
REMARK VINA RESULT:      -4.3     11.676     12.776
REMARK  1 active torsions:
REMARK  status: ('A' for Active; 'I' for Inactive)
REMARK    1  A    between atoms: C5_5  and  C7_7 
ROOT
HETATM    1  C1  UNL     1     -34.613  13.312  -4.999  1.00 20.00    -0.026 A 
HETATM    2  C2  UNL     1     -34.696  13.723  -3.726  1.00 20.00    -0.013 A 
HETATM    3  C3  UNL     1     -35.813  15.392  -5.748  1.00 20.00    -0.019 A 
HETATM    4  C4  UNL     1     -35.904  15.821  -4.474  1.00 20.00    -0.071 A 
HETATM    5  C6  UNL     1     -35.145  14.109  -6.150  1.00 20.00     0.054 A 
HETATM    6  C7  UNL     1     -35.333  15.024  -3.326  1.00 20.00     0.123 A 
HETATM    7  C8  UNL     1     -36.634  17.089  -4.130  1.00 20.00     0.044 C 
ENDROOT
BRANCH   6   8
HETATM    8  C5  UNL     1     -34.236  15.830  -2.698  1.00 20.00     0.230 C 
HETATM    9  O9  UNL     1     -33.184  16.059  -3.287  1.00 20.00    -0.279 OA
HETATM   10 CL10 UNL     1     -34.653  16.365  -1.098  1.00 20.00    -0.043 Cl
ENDBRANCH   6   8
TORSDOF 1
ENDMDL
