MODEL 1
REMARK VINA RESULT:      -4.8      0.000      0.000
REMARK  1 active torsions:
REMARK  status: ('A' for Active; 'I' for Inactive)
REMARK    1  A    between atoms: C3_3  and  C7_7 
ROOT
HETATM    1  C1  UNL     1     -35.569  15.868  -2.231  1.00 20.00    -0.019 C 
HETATM    2  C2  UNL     1     -34.356  16.388  -1.974  1.00 20.00    -0.087 C 
HETATM    3  C4  UNL     1     -33.164  16.106  -2.850  1.00 20.00     0.034 C 
HETATM    4  C5  UNL     1     -33.376  14.916  -3.787  1.00 20.00     0.017 C 
HETATM    5  C6  UNL     1     -35.883  14.997  -3.424  1.00 20.00     0.015 C 
HETATM    6  C7  UNL     1     -34.744  14.985  -4.465  1.00 20.00     0.062 C 
HETATM    7  C8  UNL     1     -34.111  17.281  -0.793  1.00 20.00     0.043 C 
HETATM    8  C10 UNL     1     -37.196  15.458  -4.070  1.00 20.00     0.015 C 
ENDROOT
BRANCH   6   9
HETATM    9  C3  UNL     1     -34.891  13.802  -5.376  1.00 20.00     0.127 C 
HETATM   10  C9  UNL     1     -35.127  14.095  -6.833  1.00 20.00     0.091 C 
HETATM   11  O11 UNL     1     -34.821  12.649  -4.954  1.00 20.00    -0.298 OA
ENDBRANCH   6   9
TORSDOF 1
ENDMDL
MODEL 2
REMARK VINA RESULT:      -4.7      1.535      2.354
REMARK  1 active torsions:
REMARK  status: ('A' for Active; 'I' for Inactive)
REMARK    1  A    between atoms: C3_3  and  C7_7 
ROOT
HETATM    1  C1  UNL     1     -34.034  17.757  -3.853  1.00 20.00    -0.019 C 
HETATM    2  C2  UNL     1     -33.781  17.944  -2.546  1.00 20.00    -0.087 C 
HETATM    3  C4  UNL     1     -33.965  16.845  -1.533  1.00 20.00     0.034 C 
HETATM    4  C5  UNL     1     -34.798  15.676  -2.059  1.00 20.00     0.017 C 
HETATM    5  C6  UNL     1     -34.477  16.443  -4.453  1.00 20.00     0.015 C 
HETATM    6  C7  UNL     1     -34.350  15.267  -3.462  1.00 20.00     0.062 C 
HETATM    7  C8  UNL     1     -33.304  19.263  -2.012  1.00 20.00     0.043 C 
HETATM    8  C10 UNL     1     -33.675  16.159  -5.728  1.00 20.00     0.015 C 
ENDROOT
BRANCH   6   9
HETATM    9  C3  UNL     1     -35.193  14.114  -3.920  1.00 20.00     0.127 C 
HETATM   10  C9  UNL     1     -36.652  14.395  -4.159  1.00 20.00     0.091 C 
HETATM   11  O11 UNL     1     -34.716  12.994  -4.094  1.00 20.00    -0.298 OA
ENDBRANCH   6   9
TORSDOF 1
ENDMDL
MODEL 3
REMARK VINA RESULT:      -4.6      2.140      3.410
REMARK  1 active torsions:
REMARK  status: ('A' for Active; 'I' for Inactive)
REMARK    1  A    between atoms: C3_3  and  C7_7 
ROOT
HETATM    1  C1  UNL     1     -33.564  17.361  -4.731  1.00 20.00    -0.019 C 
HETATM    2  C2  UNL     1     -33.943  17.552  -6.007  1.00 20.00    -0.087 C 
HETATM    3  C4  UNL     1     -34.512  16.438  -6.845  1.00 20.00     0.034 C 
HETATM    4  C5  UNL     1     -34.261  15.051  -6.252  1.00 20.00     0.017 C 
HETATM    5  C6  UNL     1     -33.701  16.051  -3.991  1.00 20.00     0.015 C 
HETATM    6  C7  UNL     1     -34.568  15.028  -4.755  1.00 20.00     0.062 C 
HETATM    7  C8  UNL     1     -33.820  18.888  -6.679  1.00 20.00     0.043 C 
HETATM    8  C10 UNL     1     -34.277  16.305  -2.593  1.00 20.00     0.015 C 
ENDROOT
BRANCH   6   9
HETATM    9  C3  UNL     1     -34.314  13.646  -4.231  1.00 20.00     0.127 C 
HETATM   10  C9  UNL     1     -32.972  13.398  -3.595  1.00 20.00     0.091 C 
HETATM   11  O11 UNL     1     -35.161  12.757  -4.315  1.00 20.00    -0.298 OA
ENDBRANCH   6   9
TORSDOF 1
ENDMDL
MODEL 4
REMARK VINA RESULT:      -4.6      0.741      2.243
REMARK  1 active torsions:
REMARK  status: ('A' for Active; 'I' for Inactive)
REMARK    1  A    between atoms: C3_3  and  C7_7 
ROOT
HETATM    1  C1  UNL     1     -33.341  16.388  -2.618  1.00 20.00    -0.019 C 
HETATM    2  C2  UNL     1     -34.371  16.829  -1.876  1.00 20.00    -0.087 C 
HETATM    3  C4  UNL     1     -35.757  16.255  -2.014  1.00 20.00     0.034 C 
HETATM    4  C5  UNL     1     -35.944  15.438  -3.293  1.00 20.00     0.017 C 
HETATM    5  C6  UNL     1     -33.436  15.263  -3.621  1.00 20.00     0.015 C 
HETATM    6  C7  UNL     1     -34.767  14.488  -3.517  1.00 20.00     0.062 C 
HETATM    7  C8  UNL     1     -34.208  17.925  -0.863  1.00 20.00     0.043 C 
HETATM    8  C10 UNL     1     -32.246  14.312  -3.448  1.00 20.00     0.015 C 
ENDROOT
BRANCH   6   9
HETATM    9  C3  UNL     1     -35.008  13.708  -4.775  1.00 20.00     0.127 C 
HETATM   10  C9  UNL     1     -35.328  14.502  -6.013  1.00 20.00     0.091 C 
HETATM   11  O11 UNL     1     -34.947  12.479  -4.796  1.00 20.00    -0.298 OA
ENDBRANCH   6   9
TORSDOF 1
ENDMDL
MODEL 5
REMARK VINA RESULT:      -4.5      2.296      3.553
REMARK  1 active torsions:
REMARK  status: ('A' for Active; 'I' for Inactive)
REMARK    1  A    between atoms: C3_3  and  C7_7 
ROOT
HETATM    1  C1  UNL     1     -35.019  16.861  -7.114  1.00 20.00    -0.019 C 
HETATM    2  C2  UNL     1     -34.109  17.643  -6.508  1.00 20.00    -0.087 C 
HETATM    3  C4  UNL     1     -33.412  17.223  -5.241  1.00 20.00     0.034 C 
HETATM    4  C5  UNL     1     -34.098  16.050  -4.539  1.00 20.00     0.017 C 
HETATM    5  C6  UNL     1     -35.409  15.483  -6.633  1.00 20.00     0.015 C 
HETATM    6  C7  UNL     1     -34.464  14.950  -5.535  1.00 20.00     0.062 C 
HETATM    7  C8  UNL     1     -33.732  18.989  -7.055  1.00 20.00     0.043 C 
HETATM    8  C10 UNL     1     -35.454  14.514  -7.820  1.00 20.00     0.015 C 
ENDROOT
BRANCH   6   9
HETATM    9  C3  UNL     1     -35.122  13.826  -4.792  1.00 20.00     0.127 C 
HETATM   10  C9  UNL     1     -36.367  14.163  -4.015  1.00 20.00     0.091 C 
HETATM   11  O11 UNL     1     -34.668  12.682  -4.816  1.00 20.00    -0.298 OA
ENDBRANCH   6   9
TORSDOF 1
ENDMDL
MODEL 6
REMARK VINA RESULT:      -4.5      1.652      2.590
REMARK  1 active torsions:
REMARK  status: ('A' for Active; 'I' for Inactive)
REMARK    1  A    between atoms: C3_3  and  C7_7 
ROOT
HETATM    1  C1  UNL     1     -33.710  16.173  -2.624  1.00 20.00    -0.019 C 
HETATM    2  C2  UNL     1     -34.137  17.095  -1.744  1.00 20.00    -0.087 C 
HETATM    3  C4  UNL     1     -35.601  17.398  -1.552  1.00 20.00     0.034 C 
HETATM    4  C5  UNL     1     -36.478  16.857  -2.681  1.00 20.00     0.017 C 
HETATM    5  C6  UNL     1     -34.624  15.320  -3.471  1.00 20.00     0.015 C 
HETATM    6  C7  UNL     1     -36.101  15.418  -3.032  1.00 20.00     0.062 C 
HETATM    7  C8  UNL     1     -33.183  17.887  -0.899  1.00 20.00     0.043 C 
HETATM    8  C10 UNL     1     -34.150  13.861  -3.437  1.00 20.00     0.015 C 
ENDROOT
BRANCH   6   9
HETATM    9  C3  UNL     1     -36.998  14.939  -4.134  1.00 20.00     0.127 C 
HETATM   10  C9  UNL     1     -36.731  15.485  -5.511  1.00 20.00     0.091 C 
HETATM   11  O11 UNL     1     -37.908  14.137  -3.925  1.00 20.00    -0.298 OA
ENDBRANCH   6   9
TORSDOF 1
ENDMDL
MODEL 7
REMARK VINA RESULT:      -4.4      2.190      3.047
REMARK  1 active torsions:
REMARK  status: ('A' for Active; 'I' for Inactive)
REMARK    1  A    between atoms: C3_3  and  C7_7 
ROOT
HETATM    1  C1  UNL     1     -34.675  16.315  -1.155  1.00 20.00    -0.019 C 
HETATM    2  C2  UNL     1     -34.704  17.518  -0.556  1.00 20.00    -0.087 C 
HETATM    3  C4  UNL     1     -34.346  18.784  -1.290  1.00 20.00     0.034 C 
HETATM    4  C5  UNL     1     -33.608  18.528  -2.604  1.00 20.00     0.017 C 
HETATM    5  C6  UNL     1     -34.333  16.099  -2.611  1.00 20.00     0.015 C 
HETATM    6  C7  UNL     1     -34.285  17.419  -3.410  1.00 20.00     0.062 C 
HETATM    7  C8  UNL     1     -35.091  17.677   0.885  1.00 20.00     0.043 C 
HETATM    8  C10 UNL     1     -35.339  15.127  -3.240  1.00 20.00     0.015 C 
ENDROOT
BRANCH   6   9
HETATM    9  C3  UNL     1     -33.526  17.219  -4.688  1.00 20.00     0.127 C 
HETATM   10  C9  UNL     1     -33.833  18.170  -5.814  1.00 20.00     0.091 C 
HETATM   11  O11 UNL     1     -32.692  16.323  -4.811  1.00 20.00    -0.298 OA
ENDBRANCH   6   9
TORSDOF 1
ENDMDL
MODEL 8
REMARK VINA RESULT:      -4.3      2.017      4.235
REMARK  1 active torsions:
REMARK  status: ('A' for Active; 'I' for Inactive)
REMARK    1  A    between atoms: C3_3  and  C7_7 
ROOT
HETATM    1  C1  UNL     1     -36.923  15.196  -6.987  1.00 20.00    -0.019 C 
HETATM    2  C2  UNL     1     -37.887  15.719  -6.211  1.00 20.00    -0.087 C 
HETATM    3  C4  UNL     1     -37.838  15.633  -4.708  1.00 20.00     0.034 C 
HETATM    4  C5  UNL     1     -36.831  14.600  -4.199  1.00 20.00     0.017 C 
HETATM    5  C6  UNL     1     -35.683  14.515  -6.457  1.00 20.00     0.015 C 
HETATM    6  C7  UNL     1     -35.498  14.719  -4.938  1.00 20.00     0.062 C 
HETATM    7  C8  UNL     1     -39.079  16.421  -6.793  1.00 20.00     0.043 C 
HETATM    8  C10 UNL     1     -34.450  15.017  -7.219  1.00 20.00     0.015 C 
ENDROOT
BRANCH   6   9
HETATM    9  C3  UNL     1     -34.551  13.692  -4.392  1.00 20.00     0.127 C 
HETATM   10  C9  UNL     1     -33.312  14.208  -3.710  1.00 20.00     0.091 C 
HETATM   11  O11 UNL     1     -34.775  12.486  -4.495  1.00 20.00    -0.298 OA
ENDBRANCH   6   9
TORSDOF 1
ENDMDL
MODEL 9
REMARK VINA RESULT:      -4.2      2.162      4.137
REMARK  1 active torsions:
REMARK  status: ('A' for Active; 'I' for Inactive)
REMARK    1  A    between atoms: C3_3  and  C7_7 
ROOT
HETATM    1  C1  UNL     1     -35.696  16.044  -4.882  1.00 20.00    -0.019 C 
HETATM    2  C2  UNL     1     -34.953  14.974  -5.213  1.00 20.00    -0.087 C 
HETATM    3  C4  UNL     1     -33.941  14.382  -4.268  1.00 20.00     0.034 C 
HETATM    4  C5  UNL     1     -33.586  15.313  -3.108  1.00 20.00     0.017 C 
HETATM    5  C6  UNL     1     -35.638  16.736  -3.541  1.00 20.00     0.015 C 
HETATM    6  C7  UNL     1     -34.842  15.930  -2.493  1.00 20.00     0.062 C 
HETATM    7  C8  UNL     1     -35.082  14.302  -6.549  1.00 20.00     0.043 C 
HETATM    8  C10 UNL     1     -37.061  17.011  -3.038  1.00 20.00     0.015 C 
ENDROOT
BRANCH   6   9
HETATM    9  C3  UNL     1     -34.434  16.823  -1.358  1.00 20.00     0.127 C 
HETATM   10  C9  UNL     1     -33.572  18.007  -1.704  1.00 20.00     0.091 C 
HETATM   11  O11 UNL     1     -34.788  16.599  -0.201  1.00 20.00    -0.298 OA
ENDBRANCH   6   9
TORSDOF 1
ENDMDL
