MODEL 1
REMARK VINA RESULT:      -5.0      0.000      0.000
REMARK  1 active torsions:
REMARK  status: ('A' for Active; 'I' for Inactive)
REMARK    1  A    between atoms: C4_4  and  C7_7 
ROOT
HETATM    1  C1  UNL     1     -33.483  14.173  -3.782  1.00 20.00     0.047 C 
HETATM    2  C2  UNL     1     -33.278  15.387  -3.258  1.00 20.00    -0.006 C 
HETATM    3  C3  UNL     1     -34.861  13.700  -4.058  1.00 20.00     0.149 C 
HETATM    4  C5  UNL     1     -36.026  14.590  -3.681  1.00 20.00     0.088 C 
HETATM    5  C6  UNL     1     -35.668  16.083  -3.766  1.00 20.00     0.007 C 
HETATM    6  C7  UNL     1     -34.377  16.377  -2.954  1.00 20.00     0.031 C 
HETATM    7  C8  UNL     1     -35.588  16.503  -5.247  1.00 20.00     0.012 C 
HETATM    8  C9  UNL     1     -34.652  16.355  -1.441  1.00 20.00     0.027 C 
HETATM    9  O10 UNL     1     -35.035  12.578  -4.531  1.00 20.00    -0.293 OA
ENDROOT
BRANCH   6  10
HETATM   10  C4  UNL     1     -33.837  17.745  -3.295  1.00 20.00     0.244 C 
HETATM   11  O11 UNL     1     -33.454  18.550  -2.451  1.00 20.00    -0.306 OA
ENDBRANCH   6  10
TORSDOF 1
ENDMDL
MODEL 2
REMARK VINA RESULT:      -4.7      1.001      3.920
REMARK  1 active torsions:
REMARK  status: ('A' for Active; 'I' for Inactive)
REMARK    1  A    between atoms: C4_4  and  C7_7 
ROOT
HETATM    1  C1  UNL     1     -34.474  16.790  -2.541  1.00 20.00     0.047 C 
HETATM    2  C2  UNL     1     -34.654  15.471  -2.682  1.00 20.00    -0.006 C 
HETATM    3  C3  UNL     1     -33.807  17.573  -3.609  1.00 20.00     0.149 C 
HETATM    4  C5  UNL     1     -33.284  16.843  -4.829  1.00 20.00     0.088 C 
HETATM    5  C6  UNL     1     -34.120  15.597  -5.163  1.00 20.00     0.007 C 
HETATM    6  C7  UNL     1     -34.260  14.687  -3.911  1.00 20.00     0.031 C 
HETATM    7  C8  UNL     1     -35.465  16.036  -5.775  1.00 20.00     0.012 C 
HETATM    8  C9  UNL     1     -32.950  13.938  -3.616  1.00 20.00     0.027 C 
HETATM    9  O10 UNL     1     -33.639  18.783  -3.461  1.00 20.00    -0.293 OA
ENDROOT
BRANCH   6  10
HETATM   10  C4  UNL     1     -35.335  13.650  -4.128  1.00 20.00     0.244 C 
HETATM   11  O11 UNL     1     -35.105  12.514  -4.534  1.00 20.00    -0.306 OA
ENDBRANCH   6  10
TORSDOF 1
ENDMDL
MODEL 3
REMARK VINA RESULT:      -4.6      1.979      3.530
REMARK  1 active torsions:
REMARK  status: ('A' for Active; 'I' for Inactive)
REMARK    1  A    between atoms: C4_4  and  C7_7 
ROOT
HETATM    1  C1  UNL     1     -34.220  13.595  -3.868  1.00 20.00     0.047 C 
HETATM    2  C2  UNL     1     -35.496  13.809  -4.211  1.00 20.00    -0.006 C 
HETATM    3  C3  UNL     1     -33.265  14.727  -3.795  1.00 20.00     0.149 C 
HETATM    4  C5  UNL     1     -33.746  16.112  -4.173  1.00 20.00     0.088 C 
HETATM    5  C6  UNL     1     -35.239  16.313  -3.863  1.00 20.00     0.007 C 
HETATM    6  C7  UNL     1     -36.081  15.171  -4.497  1.00 20.00     0.031 C 
HETATM    7  C8  UNL     1     -35.428  16.461  -2.341  1.00 20.00     0.012 C 
HETATM    8  C9  UNL     1     -36.199  15.344  -6.021  1.00 20.00     0.027 C 
HETATM    9  O10 UNL     1     -32.093  14.514  -3.488  1.00 20.00    -0.293 OA
ENDROOT
BRANCH   6  10
HETATM   10  C4  UNL     1     -37.482  15.170  -3.934  1.00 20.00     0.244 C 
HETATM   11  O11 UNL     1     -38.120  14.145  -3.710  1.00 20.00    -0.306 OA
ENDBRANCH   6  10
TORSDOF 1
ENDMDL
MODEL 4
REMARK VINA RESULT:      -4.6      0.865      4.077
REMARK  1 active torsions:
REMARK  status: ('A' for Active; 'I' for Inactive)
REMARK    1  A    between atoms: C4_4  and  C7_7 
ROOT
HETATM    1  C1  UNL     1     -34.514  17.299  -4.701  1.00 20.00     0.047 C 
HETATM    2  C2  UNL     1     -35.005  16.122  -5.108  1.00 20.00    -0.006 C 
HETATM    3  C3  UNL     1     -34.001  17.458  -3.319  1.00 20.00     0.149 C 
HETATM    4  C5  UNL     1     -34.099  16.285  -2.366  1.00 20.00     0.088 C 
HETATM    5  C6  UNL     1     -34.008  14.934  -3.096  1.00 20.00     0.007 C 
HETATM    6  C7  UNL     1     -35.039  14.876  -4.257  1.00 20.00     0.031 C 
HETATM    7  C8  UNL     1     -32.551  14.692  -3.537  1.00 20.00     0.012 C 
HETATM    8  C9  UNL     1     -36.469  14.685  -3.723  1.00 20.00     0.027 C 
HETATM    9  O10 UNL     1     -33.561  18.548  -2.956  1.00 20.00    -0.293 OA
ENDROOT
BRANCH   6  10
HETATM   10  C4  UNL     1     -34.740  13.714  -5.173  1.00 20.00     0.244 C 
HETATM   11  O11 UNL     1     -34.898  12.541  -4.849  1.00 20.00    -0.306 OA
ENDBRANCH   6  10
TORSDOF 1
ENDMDL
MODEL 5
REMARK VINA RESULT:      -4.6      1.627      2.389
REMARK  1 active torsions:
REMARK  status: ('A' for Active; 'I' for Inactive)
REMARK    1  A    between atoms: C4_4  and  C7_7 
ROOT
HETATM    1  C1  UNL     1     -34.186  15.777  -6.173  1.00 20.00     0.047 C 
HETATM    2  C2  UNL     1     -33.652  16.125  -4.996  1.00 20.00    -0.006 C 
HETATM    3  C3  UNL     1     -34.869  14.470  -6.328  1.00 20.00     0.149 C 
HETATM    4  C5  UNL     1     -34.896  13.518  -5.151  1.00 20.00     0.088 C 
HETATM    5  C6  UNL     1     -34.899  14.260  -3.804  1.00 20.00     0.007 C 
HETATM    6  C7  UNL     1     -33.730  15.281  -3.746  1.00 20.00     0.031 C 
HETATM    7  C8  UNL     1     -36.289  14.882  -3.569  1.00 20.00     0.012 C 
HETATM    8  C9  UNL     1     -32.379  14.573  -3.547  1.00 20.00     0.027 C 
HETATM    9  O10 UNL     1     -35.347  14.160  -7.419  1.00 20.00    -0.293 OA
ENDROOT
BRANCH   6  10
HETATM   10  C4  UNL     1     -33.915  16.233  -2.590  1.00 20.00     0.244 C 
HETATM   11  O11 UNL     1     -33.720  17.442  -2.672  1.00 20.00    -0.306 OA
ENDBRANCH   6  10
TORSDOF 1
ENDMDL
MODEL 6
REMARK VINA RESULT:      -4.6      1.831      2.655
REMARK  1 active torsions:
REMARK  status: ('A' for Active; 'I' for Inactive)
REMARK    1  A    between atoms: C4_4  and  C7_7 
ROOT
HETATM    1  C1  UNL     1     -34.069  14.900  -3.142  1.00 20.00     0.047 C 
HETATM    2  C2  UNL     1     -35.148  15.630  -3.448  1.00 20.00    -0.006 C 
HETATM    3  C3  UNL     1     -33.754  13.671  -3.910  1.00 20.00     0.149 C 
HETATM    4  C5  UNL     1     -34.706  13.230  -5.002  1.00 20.00     0.088 C 
HETATM    5  C6  UNL     1     -35.419  14.419  -5.666  1.00 20.00     0.007 C 
HETATM    6  C7  UNL     1     -36.087  15.319  -4.589  1.00 20.00     0.031 C 
HETATM    7  C8  UNL     1     -34.425  15.163  -6.579  1.00 20.00     0.012 C 
HETATM    8  C9  UNL     1     -37.353  14.659  -4.017  1.00 20.00     0.027 C 
HETATM    9  O10 UNL     1     -32.763  13.005  -3.611  1.00 20.00    -0.293 OA
ENDROOT
BRANCH   6  10
HETATM   10  C4  UNL     1     -36.498  16.643  -5.187  1.00 20.00     0.244 C 
HETATM   11  O11 UNL     1     -36.137  17.728  -4.740  1.00 20.00    -0.306 OA
ENDBRANCH   6  10
TORSDOF 1
ENDMDL
MODEL 7
REMARK VINA RESULT:      -4.6      1.485      4.036
REMARK  1 active torsions:
REMARK  status: ('A' for Active; 'I' for Inactive)
REMARK    1  A    between atoms: C4_4  and  C7_7 
ROOT
HETATM    1  C1  UNL     1     -34.416  16.190  -6.104  1.00 20.00     0.047 C 
HETATM    2  C2  UNL     1     -34.977  15.085  -5.599  1.00 20.00    -0.006 C 
HETATM    3  C3  UNL     1     -33.790  17.190  -5.206  1.00 20.00     0.149 C 
HETATM    4  C5  UNL     1     -33.852  16.965  -3.709  1.00 20.00     0.088 C 
HETATM    5  C6  UNL     1     -33.865  15.470  -3.347  1.00 20.00     0.007 C 
HETATM    6  C7  UNL     1     -34.986  14.733  -4.131  1.00 20.00     0.031 C 
HETATM    7  C8  UNL     1     -32.457  14.883  -3.563  1.00 20.00     0.012 C 
HETATM    8  C9  UNL     1     -36.375  15.059  -3.556  1.00 20.00     0.027 C 
HETATM    9  O10 UNL     1     -33.286  18.205  -5.684  1.00 20.00    -0.293 OA
ENDROOT
BRANCH   6  10
HETATM   10  C4  UNL     1     -34.800  13.238  -4.040  1.00 20.00     0.244 C 
HETATM   11  O11 UNL     1     -34.758  12.502  -5.022  1.00 20.00    -0.306 OA
ENDBRANCH   6  10
TORSDOF 1
ENDMDL
MODEL 8
REMARK VINA RESULT:      -4.6      1.895      3.184
REMARK  1 active torsions:
REMARK  status: ('A' for Active; 'I' for Inactive)
REMARK    1  A    between atoms: C4_4  and  C7_7 
ROOT
HETATM    1  C1  UNL     1     -36.862  15.962  -4.826  1.00 20.00     0.047 C 
HETATM    2  C2  UNL     1     -35.754  16.415  -5.424  1.00 20.00    -0.006 C 
HETATM    3  C3  UNL     1     -36.880  14.617  -4.203  1.00 20.00     0.149 C 
HETATM    4  C5  UNL     1     -35.645  13.747  -4.310  1.00 20.00     0.088 C 
HETATM    5  C6  UNL     1     -34.352  14.579  -4.365  1.00 20.00     0.007 C 
HETATM    6  C7  UNL     1     -34.449  15.657  -5.480  1.00 20.00     0.031 C 
HETATM    7  C8  UNL     1     -34.055  15.149  -2.964  1.00 20.00     0.012 C 
HETATM    8  C9  UNL     1     -34.306  15.028  -6.877  1.00 20.00     0.027 C 
HETATM    9  O10 UNL     1     -37.909  14.210  -3.665  1.00 20.00    -0.293 OA
ENDROOT
BRANCH   6  10
HETATM   10  C4  UNL     1     -33.346  16.676  -5.329  1.00 20.00     0.244 C 
HETATM   11  O11 UNL     1     -33.546  17.886  -5.286  1.00 20.00    -0.306 OA
ENDBRANCH   6  10
TORSDOF 1
ENDMDL
MODEL 9
REMARK VINA RESULT:      -4.5      1.154      2.388
REMARK  1 active torsions:
REMARK  status: ('A' for Active; 'I' for Inactive)
REMARK    1  A    between atoms: C4_4  and  C7_7 
ROOT
HETATM    1  C1  UNL     1     -35.834  14.732  -5.001  1.00 20.00     0.047 C 
HETATM    2  C2  UNL     1     -35.649  16.056  -5.050  1.00 20.00    -0.006 C 
HETATM    3  C3  UNL     1     -34.858  13.864  -4.300  1.00 20.00     0.149 C 
HETATM    4  C5  UNL     1     -33.623  14.498  -3.694  1.00 20.00     0.088 C 
HETATM    5  C6  UNL     1     -33.880  15.941  -3.229  1.00 20.00     0.007 C 
HETATM    6  C7  UNL     1     -34.504  16.778  -4.381  1.00 20.00     0.031 C 
HETATM    7  C8  UNL     1     -34.725  15.917  -1.941  1.00 20.00     0.012 C 
HETATM    8  C9  UNL     1     -33.453  17.128  -5.448  1.00 20.00     0.027 C 
HETATM    9  O10 UNL     1     -35.037  12.647  -4.272  1.00 20.00    -0.293 OA
ENDROOT
BRANCH   6  10
HETATM   10  C4  UNL     1     -35.059  18.078  -3.850  1.00 20.00     0.244 C 
HETATM   11  O11 UNL     1     -34.366  19.064  -3.620  1.00 20.00    -0.306 OA
ENDBRANCH   6  10
TORSDOF 1
ENDMDL
