MODEL 1
REMARK VINA RESULT:      -4.3      0.000      0.000
REMARK  1 active torsions:
REMARK  status: ('A' for Active; 'I' for Inactive)
REMARK    1  A    between atoms: C2_2  and  C4_4 
ROOT
HETATM    1  C1  UNL     1     -33.614   6.775   5.342  1.00 20.00     0.318 A 
HETATM    2  C2  UNL     1     -33.822   5.364   4.845  1.00 20.00     0.357 A 
HETATM    3  C3  UNL     1     -32.462   6.545   3.211  1.00 20.00     0.310 C 
HETATM    4  N5  UNL     1     -33.736   6.485   3.917  1.00 20.00     0.102 N 
ENDROOT
BRANCH   2   5
HETATM    5  C4  UNL     1     -35.134   4.689   5.035  1.00 20.00     0.419 C 
HETATM    6  F6  UNL     1     -35.575   4.806   6.312  1.00 20.00    -0.169 F 
HETATM    7  F7  UNL     1     -36.087   5.215   4.229  1.00 20.00    -0.169 F 
HETATM    8  F8  UNL     1     -35.058   3.364   4.757  1.00 20.00    -0.169 F 
ENDBRANCH   2   5
TORSDOF 1
ENDMDL
MODEL 2
REMARK VINA RESULT:      -4.2      1.343      1.524
REMARK  1 active torsions:
REMARK  status: ('A' for Active; 'I' for Inactive)
REMARK    1  A    between atoms: C2_2  and  C4_4 
ROOT
HETATM    1  C1  UNL     1     -34.149   5.609   3.030  1.00 20.00     0.318 A 
HETATM    2  C2  UNL     1     -34.134   6.176   4.430  1.00 20.00     0.357 A 
HETATM    3  C3  UNL     1     -32.169   7.007   3.261  1.00 20.00     0.310 C 
HETATM    4  N5  UNL     1     -32.894   5.837   3.742  1.00 20.00     0.102 N 
ENDROOT
BRANCH   2   5
HETATM    5  C4  UNL     1     -34.568   5.341   5.581  1.00 20.00     0.419 C 
HETATM    6  F6  UNL     1     -34.695   6.076   6.713  1.00 20.00    -0.169 F 
HETATM    7  F7  UNL     1     -35.767   4.752   5.347  1.00 20.00    -0.169 F 
HETATM    8  F8  UNL     1     -33.680   4.351   5.843  1.00 20.00    -0.169 F 
ENDBRANCH   2   5
TORSDOF 1
ENDMDL
MODEL 3
REMARK VINA RESULT:      -4.2      1.330      1.789
REMARK  1 active torsions:
REMARK  status: ('A' for Active; 'I' for Inactive)
REMARK    1  A    between atoms: C2_2  and  C4_4 
ROOT
HETATM    1  C1  UNL     1     -34.165   5.597   3.036  1.00 20.00     0.318 A 
HETATM    2  C2  UNL     1     -34.150   6.152   4.441  1.00 20.00     0.357 A 
HETATM    3  C3  UNL     1     -32.184   6.990   3.279  1.00 20.00     0.310 C 
HETATM    4  N5  UNL     1     -32.911   5.817   3.750  1.00 20.00     0.102 N 
ENDROOT
BRANCH   2   5
HETATM    5  C4  UNL     1     -34.585   5.307   5.585  1.00 20.00     0.419 C 
HETATM    6  F6  UNL     1     -33.680   4.336   5.861  1.00 20.00    -0.169 F 
HETATM    7  F7  UNL     1     -34.745   6.041   6.714  1.00 20.00    -0.169 F 
HETATM    8  F8  UNL     1     -35.768   4.695   5.333  1.00 20.00    -0.169 F 
ENDBRANCH   2   5
TORSDOF 1
ENDMDL
MODEL 4
REMARK VINA RESULT:      -4.1      2.977      3.713
REMARK  1 active torsions:
REMARK  status: ('A' for Active; 'I' for Inactive)
REMARK    1  A    between atoms: C2_2  and  C4_4 
ROOT
HETATM    1  C1  UNL     1     -33.805   6.434   5.496  1.00 20.00     0.318 A 
HETATM    2  C2  UNL     1     -33.721   6.582   3.996  1.00 20.00     0.357 A 
HETATM    3  C3  UNL     1     -35.393   4.887   4.491  1.00 20.00     0.310 C 
HETATM    4  N5  UNL     1     -33.997   5.290   4.610  1.00 20.00     0.102 N 
ENDROOT
BRANCH   2   5
HETATM    5  C4  UNL     1     -32.404   6.798   3.337  1.00 20.00     0.419 C 
HETATM    6  F6  UNL     1     -31.563   7.513   4.124  1.00 20.00    -0.169 F 
HETATM    7  F7  UNL     1     -31.790   5.623   3.054  1.00 20.00    -0.169 F 
HETATM    8  F8  UNL     1     -32.535   7.474   2.170  1.00 20.00    -0.169 F 
ENDBRANCH   2   5
TORSDOF 1
ENDMDL
MODEL 5
REMARK VINA RESULT:      -4.1      2.983      3.717
REMARK  1 active torsions:
REMARK  status: ('A' for Active; 'I' for Inactive)
REMARK    1  A    between atoms: C2_2  and  C4_4 
ROOT
HETATM    1  C1  UNL     1     -33.788   6.435   5.483  1.00 20.00     0.318 A 
HETATM    2  C2  UNL     1     -33.713   6.583   3.982  1.00 20.00     0.357 A 
HETATM    3  C3  UNL     1     -35.378   4.883   4.488  1.00 20.00     0.310 C 
HETATM    4  N5  UNL     1     -33.982   5.290   4.598  1.00 20.00     0.102 N 
ENDROOT
BRANCH   2   5
HETATM    5  C4  UNL     1     -32.401   6.802   3.316  1.00 20.00     0.419 C 
HETATM    6  F6  UNL     1     -32.539   7.483   2.152  1.00 20.00    -0.169 F 
HETATM    7  F7  UNL     1     -31.555   7.513   4.101  1.00 20.00    -0.169 F 
HETATM    8  F8  UNL     1     -31.787   5.628   3.025  1.00 20.00    -0.169 F 
ENDBRANCH   2   5
TORSDOF 1
ENDMDL
MODEL 6
REMARK VINA RESULT:      -3.8      2.503      3.298
REMARK  1 active torsions:
REMARK  status: ('A' for Active; 'I' for Inactive)
REMARK    1  A    between atoms: C2_2  and  C4_4 
ROOT
HETATM    1  C1  UNL     1     -33.947   6.381   5.873  1.00 20.00     0.318 A 
HETATM    2  C2  UNL     1     -34.304   5.939   4.474  1.00 20.00     0.357 A 
HETATM    3  C3  UNL     1     -35.170   4.282   6.031  1.00 20.00     0.310 C 
HETATM    4  N5  UNL     1     -33.991   4.967   5.514  1.00 20.00     0.102 N 
ENDROOT
BRANCH   2   5
HETATM    5  C4  UNL     1     -33.340   6.133   3.358  1.00 20.00     0.419 C 
HETATM    6  F6  UNL     1     -32.098   5.702   3.691  1.00 20.00    -0.169 F 
HETATM    7  F7  UNL     1     -33.719   5.454   2.248  1.00 20.00    -0.169 F 
HETATM    8  F8  UNL     1     -33.232   7.439   3.013  1.00 20.00    -0.169 F 
ENDBRANCH   2   5
TORSDOF 1
ENDMDL
MODEL 7
REMARK VINA RESULT:      -3.6      1.462      1.715
REMARK  1 active torsions:
REMARK  status: ('A' for Active; 'I' for Inactive)
REMARK    1  A    between atoms: C2_2  and  C4_4 
ROOT
HETATM    1  C1  UNL     1     -32.221   5.563   3.254  1.00 20.00     0.318 A 
HETATM    2  C2  UNL     1     -33.659   5.952   3.004  1.00 20.00     0.357 A 
HETATM    3  C3  UNL     1     -32.253   7.847   2.411  1.00 20.00     0.310 C 
HETATM    4  N5  UNL     1     -32.683   6.933   3.463  1.00 20.00     0.102 N 
ENDROOT
BRANCH   2   5
HETATM    5  C4  UNL     1     -34.728   5.512   3.940  1.00 20.00     0.419 C 
HETATM    6  F6  UNL     1     -34.578   6.068   5.167  1.00 20.00    -0.169 F 
HETATM    7  F7  UNL     1     -35.959   5.857   3.489  1.00 20.00    -0.169 F 
HETATM    8  F8  UNL     1     -34.723   4.166   4.106  1.00 20.00    -0.169 F 
ENDBRANCH   2   5
TORSDOF 1
ENDMDL
MODEL 8
REMARK VINA RESULT:      -3.6      1.499      2.125
REMARK  1 active torsions:
REMARK  status: ('A' for Active; 'I' for Inactive)
REMARK    1  A    between atoms: C2_2  and  C4_4 
ROOT
HETATM    1  C1  UNL     1     -32.882   6.510   4.314  1.00 20.00     0.318 A 
HETATM    2  C2  UNL     1     -34.391   6.439   4.336  1.00 20.00     0.357 A 
HETATM    3  C3  UNL     1     -33.636   7.090   6.555  1.00 20.00     0.310 C 
HETATM    4  N5  UNL     1     -33.603   6.076   5.507  1.00 20.00     0.102 N 
ENDROOT
BRANCH   2   5
HETATM    5  C4  UNL     1     -35.101   5.367   3.588  1.00 20.00     0.419 C 
HETATM    6  F6  UNL     1     -35.153   4.213   4.299  1.00 20.00    -0.169 F 
HETATM    7  F7  UNL     1     -36.377   5.721   3.300  1.00 20.00    -0.169 F 
HETATM    8  F8  UNL     1     -34.487   5.087   2.412  1.00 20.00    -0.169 F 
ENDBRANCH   2   5
TORSDOF 1
ENDMDL
MODEL 9
REMARK VINA RESULT:      -3.5     12.127     12.785
REMARK  1 active torsions:
REMARK  status: ('A' for Active; 'I' for Inactive)
REMARK    1  A    between atoms: C2_2  and  C4_4 
ROOT
HETATM    1  C1  UNL     1     -33.920  16.394  -3.930  1.00 20.00     0.318 A 
HETATM    2  C2  UNL     1     -34.680  15.121  -3.643  1.00 20.00     0.357 A 
HETATM    3  C3  UNL     1     -34.543  16.398  -1.577  1.00 20.00     0.310 C 
HETATM    4  N5  UNL     1     -33.809  15.721  -2.640  1.00 20.00     0.102 N 
ENDROOT
BRANCH   2   5
HETATM    5  C4  UNL     1     -34.266  13.842  -4.280  1.00 20.00     0.419 C 
HETATM    6  F6  UNL     1     -34.147  13.970  -5.625  1.00 20.00    -0.169 F 
HETATM    7  F7  UNL     1     -33.070  13.414  -3.808  1.00 20.00    -0.169 F 
HETATM    8  F8  UNL     1     -35.166  12.855  -4.049  1.00 20.00    -0.169 F 
ENDBRANCH   2   5
TORSDOF 1
ENDMDL
