MODEL 1
REMARK VINA RESULT:      -5.5      0.000      0.000
REMARK  1 active torsions:
REMARK  status: ('A' for Active; 'I' for Inactive)
REMARK    1  A    between atoms: C5_5  and  C8_8 
ROOT
HETATM    1  C1  UNL     1     -34.944   5.426   6.677  1.00 20.00    -0.027 C 
HETATM    2  C2  UNL     1     -34.179   6.512   6.511  1.00 20.00    -0.029 C 
HETATM    3  C3  UNL     1     -34.983   4.419   4.351  1.00 20.00    -0.020 C 
HETATM    4  C4  UNL     1     -34.529   5.429   3.580  1.00 20.00    -0.076 C 
HETATM    5  C6  UNL     1     -34.839   4.195   5.830  1.00 20.00     0.054 C 
HETATM    6  C7  UNL     1     -33.114   6.586   5.465  1.00 20.00     0.043 C 
HETATM    7  C8  UNL     1     -33.664   6.597   4.033  1.00 20.00     0.086 C 
HETATM    8  C9  UNL     1     -34.946   5.463   2.125  1.00 20.00     0.044 C 
ENDROOT
BRANCH   7   9
HETATM    9  C5  UNL     1     -32.469   6.650   3.122  1.00 20.00     0.131 C 
HETATM   10  C10 UNL     1     -32.217   7.952   2.411  1.00 20.00     0.091 C 
HETATM   11  O11 UNL     1     -31.731   5.677   2.968  1.00 20.00    -0.298 OA
ENDBRANCH   7   9
TORSDOF 1
ENDMDL
MODEL 2
REMARK VINA RESULT:      -4.8     11.812     13.241
REMARK  1 active torsions:
REMARK  status: ('A' for Active; 'I' for Inactive)
REMARK    1  A    between atoms: C5_5  and  C8_8 
ROOT
HETATM    1  C1  UNL     1     -33.801  17.886  -2.581  1.00 20.00    -0.027 C 
HETATM    2  C2  UNL     1     -33.819  16.691  -1.979  1.00 20.00    -0.029 C 
HETATM    3  C3  UNL     1     -34.543  17.327  -4.940  1.00 20.00    -0.020 C 
HETATM    4  C4  UNL     1     -34.404  15.986  -4.987  1.00 20.00    -0.076 C 
HETATM    5  C6  UNL     1     -34.662  18.244  -3.754  1.00 20.00     0.054 C 
HETATM    6  C7  UNL     1     -34.736  15.594  -2.412  1.00 20.00     0.043 C 
HETATM    7  C8  UNL     1     -34.405  15.032  -3.801  1.00 20.00     0.086 C 
HETATM    8  C9  UNL     1     -34.169  15.337  -6.334  1.00 20.00     0.044 C 
ENDROOT
BRANCH   7   9
HETATM    9  C5  UNL     1     -35.429  13.968  -4.082  1.00 20.00     0.131 C 
HETATM   10  C10 UNL     1     -36.870  14.401  -4.093  1.00 20.00     0.091 C 
HETATM   11  O11 UNL     1     -35.104  12.801  -4.296  1.00 20.00    -0.298 OA
ENDBRANCH   7   9
TORSDOF 1
ENDMDL
MODEL 3
REMARK VINA RESULT:      -4.6     11.431     13.898
REMARK  1 active torsions:
REMARK  status: ('A' for Active; 'I' for Inactive)
REMARK    1  A    between atoms: C5_5  and  C8_8 
ROOT
HETATM    1  C1  UNL     1     -34.357  17.344  -6.881  1.00 20.00    -0.027 C 
HETATM    2  C2  UNL     1     -34.695  16.103  -7.252  1.00 20.00    -0.029 C 
HETATM    3  C3  UNL     1     -34.293  17.167  -4.353  1.00 20.00    -0.020 C 
HETATM    4  C4  UNL     1     -34.940  16.007  -4.119  1.00 20.00    -0.076 C 
HETATM    5  C6  UNL     1     -33.636  17.669  -5.609  1.00 20.00     0.054 C 
HETATM    6  C7  UNL     1     -34.353  14.905  -6.429  1.00 20.00     0.043 C 
HETATM    7  C8  UNL     1     -35.103  14.847  -5.091  1.00 20.00     0.086 C 
HETATM    8  C9  UNL     1     -35.628  15.827  -2.782  1.00 20.00     0.044 C 
ENDROOT
BRANCH   7   9
HETATM    9  C5  UNL     1     -34.626  13.604  -4.392  1.00 20.00     0.131 C 
HETATM   10  C10 UNL     1     -33.242  13.648  -3.804  1.00 20.00     0.091 C 
HETATM   11  O11 UNL     1     -35.334  12.602  -4.302  1.00 20.00    -0.298 OA
ENDBRANCH   7   9
TORSDOF 1
ENDMDL
MODEL 4
REMARK VINA RESULT:      -4.5     11.937     12.824
REMARK  1 active torsions:
REMARK  status: ('A' for Active; 'I' for Inactive)
REMARK    1  A    between atoms: C5_5  and  C8_8 
ROOT
HETATM    1  C1  UNL     1     -33.642  16.647  -2.297  1.00 20.00    -0.027 C 
HETATM    2  C2  UNL     1     -34.894  16.586  -1.828  1.00 20.00    -0.029 C 
HETATM    3  C3  UNL     1     -33.736  15.123  -4.320  1.00 20.00    -0.020 C 
HETATM    4  C4  UNL     1     -34.887  14.446  -4.131  1.00 20.00    -0.076 C 
HETATM    5  C6  UNL     1     -33.277  16.429  -3.733  1.00 20.00     0.054 C 
HETATM    6  C7  UNL     1     -36.066  16.316  -2.714  1.00 20.00     0.043 C 
HETATM    7  C8  UNL     1     -36.078  14.896  -3.296  1.00 20.00     0.086 C 
HETATM    8  C9  UNL     1     -35.021  13.072  -4.754  1.00 20.00     0.044 C 
ENDROOT
BRANCH   7   9
HETATM    9  C5  UNL     1     -37.297  14.809  -4.171  1.00 20.00     0.131 C 
HETATM   10  C10 UNL     1     -37.303  15.660  -5.412  1.00 20.00     0.091 C 
HETATM   11  O11 UNL     1     -38.243  14.074  -3.889  1.00 20.00    -0.298 OA
ENDBRANCH   7   9
TORSDOF 1
ENDMDL
MODEL 5
REMARK VINA RESULT:      -4.5     11.660     12.866
REMARK  1 active torsions:
REMARK  status: ('A' for Active; 'I' for Inactive)
REMARK    1  A    between atoms: C5_5  and  C8_8 
ROOT
HETATM    1  C1  UNL     1     -34.785  13.354  -5.245  1.00 20.00    -0.027 C 
HETATM    2  C2  UNL     1     -34.124  13.353  -4.081  1.00 20.00    -0.029 C 
HETATM    3  C3  UNL     1     -36.112  15.511  -5.124  1.00 20.00    -0.020 C 
HETATM    4  C4  UNL     1     -36.034  15.836  -3.817  1.00 20.00    -0.076 C 
HETATM    5  C6  UNL     1     -35.243  14.598  -5.943  1.00 20.00     0.054 C 
HETATM    6  C7  UNL     1     -33.752  14.615  -3.374  1.00 20.00     0.043 C 
HETATM    7  C8  UNL     1     -34.961  15.392  -2.833  1.00 20.00     0.086 C 
HETATM    8  C9  UNL     1     -37.139  16.684  -3.222  1.00 20.00     0.044 C 
ENDROOT
BRANCH   7   9
HETATM    9  C5  UNL     1     -34.410  16.629  -2.180  1.00 20.00     0.131 C 
HETATM   10  C10 UNL     1     -34.580  16.741  -0.689  1.00 20.00     0.091 C 
HETATM   11  O11 UNL     1     -33.846  17.506  -2.833  1.00 20.00    -0.298 OA
ENDBRANCH   7   9
TORSDOF 1
ENDMDL
MODEL 6
REMARK VINA RESULT:      -4.4     11.993     13.574
REMARK  1 active torsions:
REMARK  status: ('A' for Active; 'I' for Inactive)
REMARK    1  A    between atoms: C5_5  and  C8_8 
ROOT
HETATM    1  C1  UNL     1     -32.863  15.065  -3.704  1.00 20.00    -0.027 C 
HETATM    2  C2  UNL     1     -33.060  16.092  -4.540  1.00 20.00    -0.029 C 
HETATM    3  C3  UNL     1     -35.055  13.802  -3.854  1.00 20.00    -0.020 C 
HETATM    4  C4  UNL     1     -35.876  14.698  -4.440  1.00 20.00    -0.076 C 
HETATM    5  C6  UNL     1     -33.553  13.742  -3.830  1.00 20.00     0.054 C 
HETATM    6  C7  UNL     1     -33.984  16.001  -5.710  1.00 20.00     0.043 C 
HETATM    7  C8  UNL     1     -35.461  15.872  -5.315  1.00 20.00     0.086 C 
HETATM    8  C9  UNL     1     -37.364  14.584  -4.180  1.00 20.00     0.044 C 
ENDROOT
BRANCH   7   9
HETATM    9  C5  UNL     1     -36.236  15.770  -6.599  1.00 20.00     0.131 C 
HETATM   10  C10 UNL     1     -35.881  14.629  -7.514  1.00 20.00     0.091 C 
HETATM   11  O11 UNL     1     -37.118  16.577  -6.887  1.00 20.00    -0.298 OA
ENDBRANCH   7   9
TORSDOF 1
ENDMDL
MODEL 7
REMARK VINA RESULT:      -4.4     11.497     13.376
REMARK  1 active torsions:
REMARK  status: ('A' for Active; 'I' for Inactive)
REMARK    1  A    between atoms: C5_5  and  C8_8 
ROOT
HETATM    1  C1  UNL     1     -38.316  16.018  -5.048  1.00 20.00    -0.027 C 
HETATM    2  C2  UNL     1     -37.636  15.766  -3.923  1.00 20.00    -0.029 C 
HETATM    3  C3  UNL     1     -36.753  15.147  -6.844  1.00 20.00    -0.020 C 
HETATM    4  C4  UNL     1     -35.585  15.013  -6.184  1.00 20.00    -0.076 C 
HETATM    5  C6  UNL     1     -38.157  15.232  -6.313  1.00 20.00     0.054 C 
HETATM    6  C7  UNL     1     -36.659  14.641  -3.817  1.00 20.00     0.043 C 
HETATM    7  C8  UNL     1     -35.407  14.835  -4.682  1.00 20.00     0.086 C 
HETATM    8  C9  UNL     1     -34.298  15.094  -6.979  1.00 20.00     0.044 C 
ENDROOT
BRANCH   7   9
HETATM    9  C5  UNL     1     -34.555  13.613  -4.473  1.00 20.00     0.131 C 
HETATM   10  C10 UNL     1     -33.264  13.809  -3.726  1.00 20.00     0.091 C 
HETATM   11  O11 UNL     1     -34.899  12.508  -4.889  1.00 20.00    -0.298 OA
ENDBRANCH   7   9
TORSDOF 1
ENDMDL
MODEL 8
REMARK VINA RESULT:      -4.4     11.767     13.738
REMARK  1 active torsions:
REMARK  status: ('A' for Active; 'I' for Inactive)
REMARK    1  A    between atoms: C5_5  and  C8_8 
ROOT
HETATM    1  C1  UNL     1     -33.314  13.925  -3.732  1.00 20.00    -0.027 C 
HETATM    2  C2  UNL     1     -34.454  13.284  -4.017  1.00 20.00    -0.029 C 
HETATM    3  C3  UNL     1     -33.503  16.034  -5.127  1.00 20.00    -0.020 C 
HETATM    4  C4  UNL     1     -34.499  15.734  -5.987  1.00 20.00    -0.076 C 
HETATM    5  C6  UNL     1     -33.153  15.413  -3.803  1.00 20.00     0.054 C 
HETATM    6  C7  UNL     1     -35.698  14.009  -4.413  1.00 20.00     0.043 C 
HETATM    7  C8  UNL     1     -35.596  14.700  -5.779  1.00 20.00     0.086 C 
HETATM    8  C9  UNL     1     -34.529  16.444  -7.324  1.00 20.00     0.044 C 
ENDROOT
BRANCH   7   9
HETATM    9  C5  UNL     1     -36.912  15.390  -6.004  1.00 20.00     0.131 C 
HETATM   10  C10 UNL     1     -37.309  16.434  -4.996  1.00 20.00     0.091 C 
HETATM   11  O11 UNL     1     -37.628  15.117  -6.967  1.00 20.00    -0.298 OA
ENDBRANCH   7   9
TORSDOF 1
ENDMDL
MODEL 9
REMARK VINA RESULT:      -4.4     11.938     13.144
REMARK  1 active torsions:
REMARK  status: ('A' for Active; 'I' for Inactive)
REMARK    1  A    between atoms: C5_5  and  C8_8 
ROOT
HETATM    1  C1  UNL     1     -35.886  17.800  -2.975  1.00 20.00    -0.027 C 
HETATM    2  C2  UNL     1     -36.672  16.717  -3.017  1.00 20.00    -0.029 C 
HETATM    3  C3  UNL     1     -33.661  16.899  -3.792  1.00 20.00    -0.020 C 
HETATM    4  C4  UNL     1     -33.827  15.564  -3.697  1.00 20.00    -0.076 C 
HETATM    5  C6  UNL     1     -34.687  17.996  -3.853  1.00 20.00     0.054 C 
HETATM    6  C7  UNL     1     -36.437  15.598  -3.979  1.00 20.00     0.043 C 
HETATM    7  C8  UNL     1     -35.150  14.811  -3.699  1.00 20.00     0.086 C 
HETATM    8  C9  UNL     1     -32.596  14.700  -3.515  1.00 20.00     0.044 C 
ENDROOT
BRANCH   7   9
HETATM    9  C5  UNL     1     -35.062  13.752  -4.763  1.00 20.00     0.131 C 
HETATM   10  C10 UNL     1     -35.014  14.229  -6.189  1.00 20.00     0.091 C 
HETATM   11  O11 UNL     1     -35.027  12.556  -4.481  1.00 20.00    -0.298 OA
ENDBRANCH   7   9
TORSDOF 1
ENDMDL
