MODEL 1
REMARK VINA RESULT:      -4.7      0.000      0.000
REMARK  2 active torsions:
REMARK  status: ('A' for Active; 'I' for Inactive)
REMARK    1  A    between atoms: C3_3  and  C8_8 
REMARK    2  A    between atoms: C8_8  and  C10_10 
ROOT
HETATM    1  C1  UNL     1     -33.783  16.568  -2.241  1.00 20.00    -0.026 C 
HETATM    2  C2  UNL     1     -34.898  15.827  -2.160  1.00 20.00    -0.024 C 
HETATM    3  C4  UNL     1     -35.202  17.289  -3.910  1.00 20.00     0.018 C 
HETATM    4  C5  UNL     1     -33.374  15.926  -4.601  1.00 20.00     0.025 C 
HETATM    5  C6  UNL     1     -33.705  17.102  -3.650  1.00 20.00     0.010 C 
HETATM    6  C7  UNL     1     -35.549  15.842  -3.529  1.00 20.00     0.024 C 
HETATM    7  C8  UNL     1     -34.659  15.034  -4.521  1.00 20.00     0.020 C 
ENDROOT
BRANCH   7   8
HETATM    8  C3  UNL     1     -34.345  13.655  -4.005  1.00 20.00     0.241 C 
HETATM    9  O11 UNL     1     -34.970  12.652  -4.333  1.00 20.00    -0.306 OA
ENDBRANCH   7   8
BRANCH   7  10
HETATM   10  C10 UNL     1     -35.318  14.857  -5.891  1.00 20.00     0.013 C 
HETATM   11  C9  UNL     1     -34.354  15.118  -7.001  1.00 20.00     0.006 C 
ENDBRANCH   7  10
TORSDOF 2
ENDMDL
MODEL 2
REMARK VINA RESULT:      -4.6      1.125      3.312
REMARK  2 active torsions:
REMARK  status: ('A' for Active; 'I' for Inactive)
REMARK    1  A    between atoms: C3_3  and  C8_8 
REMARK    2  A    between atoms: C8_8  and  C10_10 
ROOT
HETATM    1  C1  UNL     1     -35.981  15.052  -7.022  1.00 20.00    -0.026 C 
HETATM    2  C2  UNL     1     -34.662  14.818  -7.079  1.00 20.00    -0.024 C 
HETATM    3  C4  UNL     1     -34.928  16.834  -6.005  1.00 20.00     0.018 C 
HETATM    4  C5  UNL     1     -35.968  15.258  -4.550  1.00 20.00     0.025 C 
HETATM    5  C6  UNL     1     -36.213  16.012  -5.881  1.00 20.00     0.010 C 
HETATM    6  C7  UNL     1     -34.016  15.600  -5.951  1.00 20.00     0.024 C 
HETATM    7  C8  UNL     1     -34.431  14.961  -4.592  1.00 20.00     0.020 C 
ENDROOT
BRANCH   7   8
HETATM    8  C3  UNL     1     -34.152  13.482  -4.552  1.00 20.00     0.241 C 
HETATM    9  O11 UNL     1     -35.016  12.635  -4.351  1.00 20.00    -0.306 OA
ENDBRANCH   7   8
BRANCH   7  10
HETATM   10  C10 UNL     1     -33.697  15.583  -3.402  1.00 20.00     0.013 C 
HETATM   11  C9  UNL     1     -34.628  15.868  -2.270  1.00 20.00     0.006 C 
ENDBRANCH   7  10
TORSDOF 2
ENDMDL
MODEL 3
REMARK VINA RESULT:      -4.6      1.632      3.646
REMARK  2 active torsions:
REMARK  status: ('A' for Active; 'I' for Inactive)
REMARK    1  A    between atoms: C3_3  and  C8_8 
REMARK    2  A    between atoms: C8_8  and  C10_10 
ROOT
HETATM    1  C1  UNL     1     -35.107  14.053  -5.841  1.00 20.00    -0.026 C 
HETATM    2  C2  UNL     1     -35.514  15.328  -5.758  1.00 20.00    -0.024 C 
HETATM    3  C4  UNL     1     -36.466  14.215  -3.984  1.00 20.00     0.018 C 
HETATM    4  C5  UNL     1     -34.124  14.084  -3.563  1.00 20.00     0.025 C 
HETATM    5  C6  UNL     1     -35.222  13.459  -4.458  1.00 20.00     0.010 C 
HETATM    6  C7  UNL     1     -35.872  15.594  -4.308  1.00 20.00     0.024 C 
HETATM    7  C8  UNL     1     -34.567  15.582  -3.456  1.00 20.00     0.020 C 
ENDROOT
BRANCH   7   8
HETATM    8  C3  UNL     1     -33.520  16.512  -4.010  1.00 20.00     0.241 C 
HETATM    9  O11 UNL     1     -32.557  16.131  -4.667  1.00 20.00    -0.306 OA
ENDBRANCH   7   8
BRANCH   7  10
HETATM   10  C10 UNL     1     -34.811  16.003  -2.004  1.00 20.00     0.013 C 
HETATM   11  C9  UNL     1     -33.822  17.028  -1.557  1.00 20.00     0.006 C 
ENDBRANCH   7  10
TORSDOF 2
ENDMDL
MODEL 4
REMARK VINA RESULT:      -4.4      1.842      3.648
REMARK  2 active torsions:
REMARK  status: ('A' for Active; 'I' for Inactive)
REMARK    1  A    between atoms: C3_3  and  C8_8 
REMARK    2  A    between atoms: C8_8  and  C10_10 
ROOT
HETATM    1  C1  UNL     1     -34.107  15.317  -5.486  1.00 20.00    -0.026 C 
HETATM    2  C2  UNL     1     -34.873  14.513  -4.732  1.00 20.00    -0.024 C 
HETATM    3  C4  UNL     1     -32.934  14.878  -3.549  1.00 20.00     0.018 C 
HETATM    4  C5  UNL     1     -33.934  17.036  -3.705  1.00 20.00     0.025 C 
HETATM    5  C6  UNL     1     -33.143  16.012  -4.555  1.00 20.00     0.010 C 
HETATM    6  C7  UNL     1     -34.437  14.698  -3.291  1.00 20.00     0.024 C 
HETATM    7  C8  UNL     1     -34.848  16.125  -2.818  1.00 20.00     0.020 C 
ENDROOT
BRANCH   7   8
HETATM    8  C3  UNL     1     -36.309  16.403  -3.059  1.00 20.00     0.241 C 
HETATM    9  O11 UNL     1     -36.723  17.424  -3.597  1.00 20.00    -0.306 OA
ENDBRANCH   7   8
BRANCH   7  10
HETATM   10  C10 UNL     1     -34.595  16.344  -1.324  1.00 20.00     0.013 C 
HETATM   11  C9  UNL     1     -33.681  17.500  -1.087  1.00 20.00     0.006 C 
ENDBRANCH   7  10
TORSDOF 2
ENDMDL
MODEL 5
REMARK VINA RESULT:      -4.4      1.364      1.922
REMARK  2 active torsions:
REMARK  status: ('A' for Active; 'I' for Inactive)
REMARK    1  A    between atoms: C3_3  and  C8_8 
REMARK    2  A    between atoms: C8_8  and  C10_10 
ROOT
HETATM    1  C1  UNL     1     -34.428  15.937  -2.331  1.00 20.00    -0.026 C 
HETATM    2  C2  UNL     1     -35.074  16.697  -3.227  1.00 20.00    -0.024 C 
HETATM    3  C4  UNL     1     -33.194  15.888  -4.279  1.00 20.00     0.018 C 
HETATM    4  C5  UNL     1     -34.477  13.938  -3.799  1.00 20.00     0.025 C 
HETATM    5  C6  UNL     1     -33.560  14.976  -3.106  1.00 20.00     0.010 C 
HETATM    6  C7  UNL     1     -34.658  16.220  -4.606  1.00 20.00     0.024 C 
HETATM    7  C8  UNL     1     -35.254  14.800  -4.849  1.00 20.00     0.020 C 
ENDROOT
BRANCH   7   8
HETATM    8  C3  UNL     1     -36.740  14.761  -4.608  1.00 20.00     0.241 C 
HETATM    9  O11 UNL     1     -37.273  14.015  -3.793  1.00 20.00    -0.306 OA
ENDBRANCH   7   8
BRANCH   7  10
HETATM   10  C10 UNL     1     -35.023  14.304  -6.279  1.00 20.00     0.013 C 
HETATM   11  C9  UNL     1     -36.093  14.782  -7.204  1.00 20.00     0.006 C 
ENDBRANCH   7  10
TORSDOF 2
ENDMDL
MODEL 6
REMARK VINA RESULT:      -4.4      1.840      3.304
REMARK  2 active torsions:
REMARK  status: ('A' for Active; 'I' for Inactive)
REMARK    1  A    between atoms: C3_3  and  C8_8 
REMARK    2  A    between atoms: C8_8  and  C10_10 
ROOT
HETATM    1  C1  UNL     1     -35.608  16.905  -6.821  1.00 20.00    -0.026 C 
HETATM    2  C2  UNL     1     -36.501  15.906  -6.875  1.00 20.00    -0.024 C 
HETATM    3  C4  UNL     1     -34.430  14.959  -7.199  1.00 20.00     0.018 C 
HETATM    4  C5  UNL     1     -34.330  15.834  -4.985  1.00 20.00     0.025 C 
HETATM    5  C6  UNL     1     -34.276  16.292  -6.463  1.00 20.00     0.010 C 
HETATM    6  C7  UNL     1     -35.768  14.626  -6.522  1.00 20.00     0.024 C 
HETATM    7  C8  UNL     1     -35.376  14.669  -5.014  1.00 20.00     0.020 C 
ENDROOT
BRANCH   7   8
HETATM    8  C3  UNL     1     -36.558  14.964  -4.129  1.00 20.00     0.241 C 
HETATM    9  O11 UNL     1     -37.392  14.122  -3.813  1.00 20.00    -0.306 OA
ENDBRANCH   7   8
BRANCH   7  10
HETATM   10  C10 UNL     1     -34.775  13.349  -4.526  1.00 20.00     0.013 C 
HETATM   11  C9  UNL     1     -33.475  13.564  -3.824  1.00 20.00     0.006 C 
ENDBRANCH   7  10
TORSDOF 2
ENDMDL
MODEL 7
REMARK VINA RESULT:      -4.3      1.631      2.434
REMARK  2 active torsions:
REMARK  status: ('A' for Active; 'I' for Inactive)
REMARK    1  A    between atoms: C3_3  and  C8_8 
REMARK    2  A    between atoms: C8_8  and  C10_10 
ROOT
HETATM    1  C1  UNL     1     -32.648  14.749  -3.716  1.00 20.00    -0.026 C 
HETATM    2  C2  UNL     1     -33.551  13.756  -3.730  1.00 20.00    -0.024 C 
HETATM    3  C4  UNL     1     -34.529  15.523  -2.628  1.00 20.00     0.018 C 
HETATM    4  C5  UNL     1     -34.186  16.337  -4.841  1.00 20.00     0.025 C 
HETATM    5  C6  UNL     1     -33.410  16.039  -3.535  1.00 20.00     0.010 C 
HETATM    6  C7  UNL     1     -34.921  14.391  -3.590  1.00 20.00     0.024 C 
HETATM    7  C8  UNL     1     -35.245  15.185  -4.892  1.00 20.00     0.020 C 
ENDROOT
BRANCH   7   8
HETATM    8  C3  UNL     1     -35.085  14.337  -6.126  1.00 20.00     0.241 C 
HETATM    9  O11 UNL     1     -34.448  14.693  -7.112  1.00 20.00    -0.306 OA
ENDBRANCH   7   8
BRANCH   7  10
HETATM   10  C10 UNL     1     -36.677  15.725  -4.908  1.00 20.00     0.013 C 
HETATM   11  C9  UNL     1     -37.635  14.760  -4.290  1.00 20.00     0.006 C 
ENDBRANCH   7  10
TORSDOF 2
ENDMDL
MODEL 8
REMARK VINA RESULT:      -4.3      1.994      2.800
REMARK  2 active torsions:
REMARK  status: ('A' for Active; 'I' for Inactive)
REMARK    1  A    between atoms: C3_3  and  C8_8 
REMARK    2  A    between atoms: C8_8  and  C10_10 
ROOT
HETATM    1  C1  UNL     1     -34.771  15.710  -2.550  1.00 20.00    -0.026 C 
HETATM    2  C2  UNL     1     -33.537  15.605  -3.063  1.00 20.00    -0.024 C 
HETATM    3  C4  UNL     1     -34.728  13.793  -3.832  1.00 20.00     0.018 C 
HETATM    4  C5  UNL     1     -35.844  15.670  -4.786  1.00 20.00     0.025 C 
HETATM    5  C6  UNL     1     -35.693  14.915  -3.442  1.00 20.00     0.010 C 
HETATM    6  C7  UNL     1     -33.642  14.763  -4.321  1.00 20.00     0.024 C 
HETATM    7  C8  UNL     1     -34.411  15.573  -5.408  1.00 20.00     0.020 C 
ENDROOT
BRANCH   7   8
HETATM    8  C3  UNL     1     -33.809  16.935  -5.630  1.00 20.00     0.241 C 
HETATM    9  O11 UNL     1     -34.443  17.980  -5.524  1.00 20.00    -0.306 OA
ENDBRANCH   7   8
BRANCH   7  10
HETATM   10  C10 UNL     1     -34.424  14.867  -6.766  1.00 20.00     0.013 C 
HETATM   11  C9  UNL     1     -35.812  14.722  -7.295  1.00 20.00     0.006 C 
ENDBRANCH   7  10
TORSDOF 2
ENDMDL
MODEL 9
REMARK VINA RESULT:      -4.2      1.762      2.650
REMARK  2 active torsions:
REMARK  status: ('A' for Active; 'I' for Inactive)
REMARK    1  A    between atoms: C3_3  and  C8_8 
REMARK    2  A    between atoms: C8_8  and  C10_10 
ROOT
HETATM    1  C1  UNL     1     -34.457  15.820  -2.330  1.00 20.00    -0.026 C 
HETATM    2  C2  UNL     1     -33.790  16.802  -2.954  1.00 20.00    -0.024 C 
HETATM    3  C4  UNL     1     -33.000  14.820  -3.813  1.00 20.00     0.018 C 
HETATM    4  C5  UNL     1     -35.294  14.861  -4.459  1.00 20.00     0.025 C 
HETATM    5  C6  UNL     1     -34.396  14.605  -3.224  1.00 20.00     0.010 C 
HETATM    6  C7  UNL     1     -33.311  16.249  -4.282  1.00 20.00     0.024 C 
HETATM    7  C8  UNL     1     -34.544  16.015  -5.206  1.00 20.00     0.020 C 
ENDROOT
BRANCH   7   8
HETATM    8  C3  UNL     1     -35.402  17.246  -5.328  1.00 20.00     0.241 C 
HETATM    9  O11 UNL     1     -36.605  17.258  -5.088  1.00 20.00    -0.306 OA
ENDBRANCH   7   8
BRANCH   7  10
HETATM   10  C10 UNL     1     -34.145  15.611  -6.628  1.00 20.00     0.013 C 
HETATM   11  C9  UNL     1     -35.036  14.540  -7.164  1.00 20.00     0.006 C 
ENDBRANCH   7  10
TORSDOF 2
ENDMDL
