MODEL 1
REMARK VINA RESULT:      -4.4      0.000      0.000
REMARK  1 active torsions:
REMARK  status: ('A' for Active; 'I' for Inactive)
REMARK    1  A    between atoms: C1_1  and  C4_4 
ROOT
HETATM    1  C2  UNL     1     -35.499  15.965  -3.419  1.00 20.00     0.037 C 
HETATM    2  C3  UNL     1     -33.441  15.461  -3.158  1.00 20.00     0.037 C 
HETATM    3  C4  UNL     1     -34.720  14.626  -3.416  1.00 20.00     0.058 C 
HETATM    4  C5  UNL     1     -34.337  16.606  -2.611  1.00 20.00     0.035 C 
HETATM    5  C7  UNL     1     -34.545  16.543  -1.094  1.00 20.00     0.032 C 
HETATM    6 CL9  UNL     1     -33.869  18.267  -3.102  1.00 20.00    -0.120 Cl
ENDROOT
BRANCH   3   7
HETATM    7  C1  UNL     1     -34.758  13.771  -4.686  1.00 20.00     0.127 C 
HETATM    8  C6  UNL     1     -34.638  14.500  -5.997  1.00 20.00     0.091 C 
HETATM    9  O8  UNL     1     -34.880  12.547  -4.637  1.00 20.00    -0.298 OA
ENDBRANCH   3   7
TORSDOF 1
ENDMDL
MODEL 2
REMARK VINA RESULT:      -4.0      2.621      4.116
REMARK  1 active torsions:
REMARK  status: ('A' for Active; 'I' for Inactive)
REMARK    1  A    between atoms: C1_1  and  C4_4 
ROOT
HETATM    1  C2  UNL     1     -33.165  15.374  -3.762  1.00 20.00     0.037 C 
HETATM    2  C3  UNL     1     -35.287  15.608  -3.796  1.00 20.00     0.037 C 
HETATM    3  C4  UNL     1     -34.229  15.625  -2.664  1.00 20.00     0.058 C 
HETATM    4  C5  UNL     1     -34.287  14.808  -4.675  1.00 20.00     0.035 C 
HETATM    5  C7  UNL     1     -34.456  13.289  -4.558  1.00 20.00     0.032 C 
HETATM    6 CL9  UNL     1     -34.206  15.289  -6.401  1.00 20.00    -0.120 Cl
ENDROOT
BRANCH   3   7
HETATM    7  C1  UNL     1     -34.112  16.904  -1.829  1.00 20.00     0.127 C 
HETATM    8  C6  UNL     1     -34.695  16.862  -0.442  1.00 20.00     0.091 C 
HETATM    9  O8  UNL     1     -33.568  17.915  -2.270  1.00 20.00    -0.298 OA
ENDBRANCH   3   7
TORSDOF 1
ENDMDL
MODEL 3
REMARK VINA RESULT:      -4.0      1.547      1.936
REMARK  1 active torsions:
REMARK  status: ('A' for Active; 'I' for Inactive)
REMARK    1  A    between atoms: C1_1  and  C4_4 
ROOT
HETATM    1  C2  UNL     1     -33.452  16.038  -2.810  1.00 20.00     0.037 C 
HETATM    2  C3  UNL     1     -35.510  15.472  -2.768  1.00 20.00     0.037 C 
HETATM    3  C4  UNL     1     -34.370  15.279  -3.800  1.00 20.00     0.058 C 
HETATM    4  C5  UNL     1     -34.719  16.665  -2.165  1.00 20.00     0.035 C 
HETATM    5  C7  UNL     1     -35.103  18.018  -2.773  1.00 20.00     0.032 C 
HETATM    6 CL9  UNL     1     -34.712  16.772  -0.374  1.00 20.00    -0.120 Cl
ENDROOT
BRANCH   3   7
HETATM    7  C1  UNL     1     -33.993  13.842  -4.171  1.00 20.00     0.127 C 
HETATM    8  C6  UNL     1     -34.809  13.186  -5.252  1.00 20.00     0.091 C 
HETATM    9  O8  UNL     1     -33.068  13.252  -3.614  1.00 20.00    -0.298 OA
ENDBRANCH   3   7
TORSDOF 1
ENDMDL
MODEL 4
REMARK VINA RESULT:      -4.0     11.588     12.150
REMARK  1 active torsions:
REMARK  status: ('A' for Active; 'I' for Inactive)
REMARK    1  A    between atoms: C1_1  and  C4_4 
ROOT
HETATM    1  C2  UNL     1     -33.749   5.537   2.840  1.00 20.00     0.037 C 
HETATM    2  C3  UNL     1     -34.058   6.541   4.699  1.00 20.00     0.037 C 
HETATM    3  C4  UNL     1     -32.794   6.166   3.886  1.00 20.00     0.058 C 
HETATM    4  C5  UNL     1     -34.835   5.426   3.946  1.00 20.00     0.035 C 
HETATM    5  C7  UNL     1     -34.823   4.079   4.675  1.00 20.00     0.032 C 
HETATM    6 CL9  UNL     1     -36.506   5.841   3.443  1.00 20.00    -0.120 Cl
ENDROOT
BRANCH   3   7
HETATM    7  C1  UNL     1     -31.884   7.311   3.431  1.00 20.00     0.127 C 
HETATM    8  C6  UNL     1     -32.163   7.897   2.073  1.00 20.00     0.091 C 
HETATM    9  O8  UNL     1     -30.972   7.732   4.140  1.00 20.00    -0.298 OA
ENDBRANCH   3   7
TORSDOF 1
ENDMDL
MODEL 5
REMARK VINA RESULT:      -3.9     11.608     12.137
REMARK  1 active torsions:
REMARK  status: ('A' for Active; 'I' for Inactive)
REMARK    1  A    between atoms: C1_1  and  C4_4 
ROOT
HETATM    1  C2  UNL     1     -33.919   6.815   4.716  1.00 20.00     0.037 C 
HETATM    2  C3  UNL     1     -33.436   5.350   3.239  1.00 20.00     0.037 C 
HETATM    3  C4  UNL     1     -33.406   6.900   3.255  1.00 20.00     0.058 C 
HETATM    4  C5  UNL     1     -34.454   5.389   4.412  1.00 20.00     0.035 C 
HETATM    5  C7  UNL     1     -35.914   5.374   3.949  1.00 20.00     0.032 C 
HETATM    6 CL9  UNL     1     -34.203   4.169   5.704  1.00 20.00    -0.120 Cl
ENDROOT
BRANCH   3   7
HETATM    7  C1  UNL     1     -32.058   7.581   3.006  1.00 20.00     0.127 C 
HETATM    8  C6  UNL     1     -31.899   8.308   1.697  1.00 20.00     0.091 C 
HETATM    9  O8  UNL     1     -31.149   7.537   3.833  1.00 20.00    -0.298 OA
ENDBRANCH   3   7
TORSDOF 1
ENDMDL
MODEL 6
REMARK VINA RESULT:      -3.9     11.405     11.920
REMARK  1 active torsions:
REMARK  status: ('A' for Active; 'I' for Inactive)
REMARK    1  A    between atoms: C1_1  and  C4_4 
ROOT
HETATM    1  C2  UNL     1     -33.622   7.493   3.947  1.00 20.00     0.037 C 
HETATM    2  C3  UNL     1     -32.601   5.808   3.127  1.00 20.00     0.037 C 
HETATM    3  C4  UNL     1     -33.548   5.996   4.339  1.00 20.00     0.058 C 
HETATM    4  C5  UNL     1     -32.282   7.327   3.180  1.00 20.00     0.035 C 
HETATM    5  C7  UNL     1     -31.051   7.660   4.030  1.00 20.00     0.032 C 
HETATM    6 CL9  UNL     1     -32.181   8.160   1.594  1.00 20.00    -0.120 Cl
ENDROOT
BRANCH   3   7
HETATM    7  C1  UNL     1     -34.850   5.190   4.348  1.00 20.00     0.127 C 
HETATM    8  C6  UNL     1     -34.960   4.094   5.373  1.00 20.00     0.091 C 
HETATM    9  O8  UNL     1     -35.761   5.427   3.556  1.00 20.00    -0.298 OA
ENDBRANCH   3   7
TORSDOF 1
ENDMDL
MODEL 7
REMARK VINA RESULT:      -3.8      1.214      1.559
REMARK  1 active torsions:
REMARK  status: ('A' for Active; 'I' for Inactive)
REMARK    1  A    between atoms: C1_1  and  C4_4 
ROOT
HETATM    1  C2  UNL     1     -35.177  16.277  -4.218  1.00 20.00     0.037 C 
HETATM    2  C3  UNL     1     -34.695  15.832  -2.186  1.00 20.00     0.037 C 
HETATM    3  C4  UNL     1     -35.302  15.002  -3.346  1.00 20.00     0.058 C 
HETATM    4  C5  UNL     1     -35.147  17.126  -2.917  1.00 20.00     0.035 C 
HETATM    5  C7  UNL     1     -36.532  17.617  -2.482  1.00 20.00     0.032 C 
HETATM    6 CL9  UNL     1     -33.976  18.484  -2.897  1.00 20.00    -0.120 Cl
ENDROOT
BRANCH   3   7
HETATM    7  C1  UNL     1     -34.540  13.751  -3.790  1.00 20.00     0.127 C 
HETATM    8  C6  UNL     1     -33.043  13.781  -3.638  1.00 20.00     0.091 C 
HETATM    9  O8  UNL     1     -35.122  12.768  -4.247  1.00 20.00    -0.298 OA
ENDBRANCH   3   7
TORSDOF 1
ENDMDL
MODEL 8
REMARK VINA RESULT:      -3.8      2.209      3.074
REMARK  1 active torsions:
REMARK  status: ('A' for Active; 'I' for Inactive)
REMARK    1  A    between atoms: C1_1  and  C4_4 
ROOT
HETATM    1  C2  UNL     1     -35.099  15.438  -3.097  1.00 20.00     0.037 C 
HETATM    2  C3  UNL     1     -35.302  14.577  -5.041  1.00 20.00     0.037 C 
HETATM    3  C4  UNL     1     -36.149  14.500  -3.746  1.00 20.00     0.058 C 
HETATM    4  C5  UNL     1     -34.077  14.989  -4.178  1.00 20.00     0.035 C 
HETATM    5  C7  UNL     1     -33.215  13.799  -3.741  1.00 20.00     0.032 C 
HETATM    6 CL9  UNL     1     -33.041  16.285  -4.859  1.00 20.00    -0.120 Cl
ENDROOT
BRANCH   3   7
HETATM    7  C1  UNL     1     -37.598  14.988  -3.823  1.00 20.00     0.127 C 
HETATM    8  C6  UNL     1     -37.807  16.475  -3.923  1.00 20.00     0.091 C 
HETATM    9  O8  UNL     1     -38.546  14.204  -3.804  1.00 20.00    -0.298 OA
ENDBRANCH   3   7
TORSDOF 1
ENDMDL
MODEL 9
REMARK VINA RESULT:      -3.7      2.870      3.984
REMARK  1 active torsions:
REMARK  status: ('A' for Active; 'I' for Inactive)
REMARK    1  A    between atoms: C1_1  and  C4_4 
ROOT
HETATM    1  C2  UNL     1     -35.482  15.802  -5.463  1.00 20.00     0.037 C 
HETATM    2  C3  UNL     1     -35.292  14.298  -6.966  1.00 20.00     0.037 C 
HETATM    3  C4  UNL     1     -34.456  14.669  -5.716  1.00 20.00     0.058 C 
HETATM    4  C5  UNL     1     -35.875  15.738  -6.965  1.00 20.00     0.035 C 
HETATM    5  C7  UNL     1     -35.084  16.715  -7.842  1.00 20.00     0.032 C 
HETATM    6 CL9  UNL     1     -37.629  15.871  -7.319  1.00 20.00    -0.120 Cl
ENDROOT
BRANCH   3   7
HETATM    7  C1  UNL     1     -34.290  13.596  -4.636  1.00 20.00     0.127 C 
HETATM    8  C6  UNL     1     -33.174  13.798  -3.647  1.00 20.00     0.091 C 
HETATM    9  O8  UNL     1     -35.033  12.618  -4.579  1.00 20.00    -0.298 OA
ENDBRANCH   3   7
TORSDOF 1
ENDMDL
