MODEL 1
REMARK VINA RESULT:      -4.0      0.000      0.000
REMARK  1 active torsions:
REMARK  status: ('A' for Active; 'I' for Inactive)
REMARK    1  A    between atoms: C1_1  and  C4_4 
ROOT
HETATM    1  C2  UNL     1     -32.897  14.932  -3.761  1.00 20.00     0.041 A 
HETATM    2  C3  UNL     1     -33.710  15.929  -4.530  1.00 20.00     0.100 A 
HETATM    3  C4  UNL     1     -34.380  15.075  -3.473  1.00 20.00     0.050 A 
HETATM    4  C5  UNL     1     -34.765  15.762  -2.188  1.00 20.00     0.026 C 
HETATM    5 CL8  UNL     1     -33.987  15.671  -6.234  1.00 20.00    -0.124 Cl
ENDROOT
BRANCH   3   6
HETATM    6  C1  UNL     1     -35.252  13.958  -3.906  1.00 20.00     0.228 C 
HETATM    7  O6  UNL     1     -34.804  12.836  -4.119  1.00 20.00    -0.279 OA
HETATM    8 CL7  UNL     1     -36.913  14.446  -4.056  1.00 20.00    -0.043 Cl
ENDBRANCH   3   6
TORSDOF 1
ENDMDL
MODEL 2
REMARK VINA RESULT:      -3.9      2.084      2.954
REMARK  1 active torsions:
REMARK  status: ('A' for Active; 'I' for Inactive)
REMARK    1  A    between atoms: C1_1  and  C4_4 
ROOT
HETATM    1  C2  UNL     1     -36.309  15.276  -4.645  1.00 20.00     0.041 A 
HETATM    2  C3  UNL     1     -35.178  16.014  -3.996  1.00 20.00     0.100 A 
HETATM    3  C4  UNL     1     -34.878  14.867  -4.938  1.00 20.00     0.050 A 
HETATM    4  C5  UNL     1     -34.326  15.228  -6.294  1.00 20.00     0.026 C 
HETATM    5 CL8  UNL     1     -34.946  15.873  -2.271  1.00 20.00    -0.124 Cl
ENDROOT
BRANCH   3   6
HETATM    6  C1  UNL     1     -34.426  13.576  -4.370  1.00 20.00     0.228 C 
HETATM    7  O6  UNL     1     -35.106  12.558  -4.460  1.00 20.00    -0.279 OA
HETATM    8 CL7  UNL     1     -32.874  13.708  -3.599  1.00 20.00    -0.043 Cl
ENDBRANCH   3   6
TORSDOF 1
ENDMDL
MODEL 3
REMARK VINA RESULT:      -3.8     12.211     12.940
REMARK  1 active torsions:
REMARK  status: ('A' for Active; 'I' for Inactive)
REMARK    1  A    between atoms: C1_1  and  C4_4 
ROOT
HETATM    1  C2  UNL     1     -34.061   4.650   5.913  1.00 20.00     0.041 A 
HETATM    2  C3  UNL     1     -34.505   6.051   6.206  1.00 20.00     0.100 A 
HETATM    3  C4  UNL     1     -34.465   5.565   4.772  1.00 20.00     0.050 A 
HETATM    4  C5  UNL     1     -35.791   5.290   4.109  1.00 20.00     0.026 C 
HETATM    5 CL8  UNL     1     -33.346   7.203   6.821  1.00 20.00    -0.124 Cl
ENDROOT
BRANCH   3   6
HETATM    6  C1  UNL     1     -33.377   6.043   3.887  1.00 20.00     0.228 C 
HETATM    7  O6  UNL     1     -32.548   6.864   4.269  1.00 20.00    -0.279 OA
HETATM    8 CL7  UNL     1     -33.444   5.311   2.313  1.00 20.00    -0.043 Cl
ENDBRANCH   3   6
TORSDOF 1
ENDMDL
MODEL 4
REMARK VINA RESULT:      -3.8      1.507      1.819
REMARK  1 active torsions:
REMARK  status: ('A' for Active; 'I' for Inactive)
REMARK    1  A    between atoms: C1_1  and  C4_4 
ROOT
HETATM    1  C2  UNL     1     -34.360  15.062  -3.029  1.00 20.00     0.041 A 
HETATM    2  C3  UNL     1     -34.579  16.064  -4.121  1.00 20.00     0.100 A 
HETATM    3  C4  UNL     1     -35.366  14.770  -4.126  1.00 20.00     0.050 A 
HETATM    4  C5  UNL     1     -36.826  14.861  -3.760  1.00 20.00     0.026 C 
HETATM    5 CL8  UNL     1     -33.299  16.367  -5.269  1.00 20.00    -0.124 Cl
ENDROOT
BRANCH   3   6
HETATM    6  C1  UNL     1     -35.000  13.716  -5.100  1.00 20.00     0.228 C 
HETATM    7  O6  UNL     1     -34.545  12.634  -4.740  1.00 20.00    -0.279 OA
HETATM    8 CL7  UNL     1     -35.295  14.209  -6.740  1.00 20.00    -0.043 Cl
ENDBRANCH   3   6
TORSDOF 1
ENDMDL
MODEL 5
REMARK VINA RESULT:      -3.8      1.904      2.055
REMARK  1 active torsions:
REMARK  status: ('A' for Active; 'I' for Inactive)
REMARK    1  A    between atoms: C1_1  and  C4_4 
ROOT
HETATM    1  C2  UNL     1     -34.113  16.088  -4.704  1.00 20.00     0.041 A 
HETATM    2  C3  UNL     1     -35.069  15.601  -5.750  1.00 20.00     0.100 A 
HETATM    3  C4  UNL     1     -35.000  14.893  -4.413  1.00 20.00     0.050 A 
HETATM    4  C5  UNL     1     -36.155  15.109  -3.468  1.00 20.00     0.026 C 
HETATM    5 CL8  UNL     1     -34.441  14.877  -7.209  1.00 20.00    -0.124 Cl
ENDROOT
BRANCH   3   6
HETATM    6  C1  UNL     1     -34.333  13.572  -4.338  1.00 20.00     0.228 C 
HETATM    7  O6  UNL     1     -34.842  12.564  -4.819  1.00 20.00    -0.279 OA
HETATM    8 CL7  UNL     1     -32.805  13.657  -3.515  1.00 20.00    -0.043 Cl
ENDBRANCH   3   6
TORSDOF 1
ENDMDL
MODEL 6
REMARK VINA RESULT:      -3.7     12.155     12.847
REMARK  1 active torsions:
REMARK  status: ('A' for Active; 'I' for Inactive)
REMARK    1  A    between atoms: C1_1  and  C4_4 
ROOT
HETATM    1  C2  UNL     1     -35.795   5.676   3.964  1.00 20.00     0.041 A 
HETATM    2  C3  UNL     1     -34.727   4.761   3.447  1.00 20.00     0.100 A 
HETATM    3  C4  UNL     1     -34.632   5.296   4.860  1.00 20.00     0.050 A 
HETATM    4  C5  UNL     1     -34.915   4.322   5.976  1.00 20.00     0.026 C 
HETATM    5 CL8  UNL     1     -33.667   5.320   2.177  1.00 20.00    -0.124 Cl
ENDROOT
BRANCH   3   6
HETATM    6  C1  UNL     1     -33.644   6.360   5.155  1.00 20.00     0.228 C 
HETATM    7  O6  UNL     1     -32.789   6.691   4.339  1.00 20.00    -0.279 OA
HETATM    8 CL7  UNL     1     -33.864   7.035   6.741  1.00 20.00    -0.043 Cl
ENDBRANCH   3   6
TORSDOF 1
ENDMDL
MODEL 7
REMARK VINA RESULT:      -3.7      1.839      2.020
REMARK  1 active torsions:
REMARK  status: ('A' for Active; 'I' for Inactive)
REMARK    1  A    between atoms: C1_1  and  C4_4 
ROOT
HETATM    1  C2  UNL     1     -34.839  13.281  -4.164  1.00 20.00     0.041 A 
HETATM    2  C3  UNL     1     -34.475  14.389  -5.105  1.00 20.00     0.100 A 
HETATM    3  C4  UNL     1     -35.326  14.691  -3.890  1.00 20.00     0.050 A 
HETATM    4  C5  UNL     1     -34.661  15.439  -2.763  1.00 20.00     0.026 C 
HETATM    5 CL8  UNL     1     -35.140  14.390  -6.719  1.00 20.00    -0.124 Cl
ENDROOT
BRANCH   3   6
HETATM    6  C1  UNL     1     -36.775  14.943  -4.078  1.00 20.00     0.228 C 
HETATM    7  O6  UNL     1     -37.621  14.121  -3.739  1.00 20.00    -0.279 OA
HETATM    8 CL7  UNL     1     -37.080  16.489  -4.808  1.00 20.00    -0.043 Cl
ENDBRANCH   3   6
TORSDOF 1
ENDMDL
MODEL 8
REMARK VINA RESULT:      -3.6      1.767      2.431
REMARK  1 active torsions:
REMARK  status: ('A' for Active; 'I' for Inactive)
REMARK    1  A    between atoms: C1_1  and  C4_4 
ROOT
HETATM    1  C2  UNL     1     -35.066  16.296  -5.148  1.00 20.00     0.041 A 
HETATM    2  C3  UNL     1     -33.744  15.593  -5.096  1.00 20.00     0.100 A 
HETATM    3  C4  UNL     1     -34.980  14.827  -5.517  1.00 20.00     0.050 A 
HETATM    4  C5  UNL     1     -35.099  14.479  -6.979  1.00 20.00     0.026 C 
HETATM    5 CL8  UNL     1     -32.979  15.328  -3.549  1.00 20.00    -0.124 Cl
ENDROOT
BRANCH   3   6
HETATM    6  C1  UNL     1     -35.583  13.865  -4.564  1.00 20.00     0.228 C 
HETATM    7  O6  UNL     1     -35.031  12.807  -4.279  1.00 20.00    -0.279 OA
HETATM    8 CL7  UNL     1     -37.105  14.428  -3.944  1.00 20.00    -0.043 Cl
ENDBRANCH   3   6
TORSDOF 1
ENDMDL
MODEL 9
REMARK VINA RESULT:      -3.6      1.008      2.435
REMARK  1 active torsions:
REMARK  status: ('A' for Active; 'I' for Inactive)
REMARK    1  A    between atoms: C1_1  and  C4_4 
ROOT
HETATM    1  C2  UNL     1     -34.148  16.150  -4.207  1.00 20.00     0.041 A 
HETATM    2  C3  UNL     1     -34.839  15.407  -3.104  1.00 20.00     0.100 A 
HETATM    3  C4  UNL     1     -33.904  14.663  -4.034  1.00 20.00     0.050 A 
HETATM    4  C5  UNL     1     -32.570  14.248  -3.468  1.00 20.00     0.026 C 
HETATM    5 CL8  UNL     1     -36.570  15.194  -3.173  1.00 20.00    -0.124 Cl
ENDROOT
BRANCH   3   6
HETATM    6  C1  UNL     1     -34.485  13.770  -5.064  1.00 20.00     0.228 C 
HETATM    7  O6  UNL     1     -34.888  12.644  -4.789  1.00 20.00    -0.279 OA
HETATM    8 CL7  UNL     1     -34.510  14.513  -6.635  1.00 20.00    -0.043 Cl
ENDBRANCH   3   6
TORSDOF 1
ENDMDL
