MODEL 1
REMARK VINA RESULT:      -5.1      0.000      0.000
REMARK  1 active torsions:
REMARK  status: ('A' for Active; 'I' for Inactive)
REMARK    1  A    between atoms: C1_1  and  C6_6 
ROOT
HETATM    1  C1  UNL     1     -32.621   7.269   2.676  1.00 20.00    -0.100 C 
HETATM    2  C2  UNL     1     -32.294   8.217   2.016  1.00 20.00    -0.111 C 
HETATM    3  C7  UNL     1     -31.896   9.371   1.211  1.00 20.00     0.112 C 
ENDROOT
BRANCH   1   4
HETATM    4  C6  UNL     1     -33.020   6.113   3.482  1.00 20.00     0.090 C 
HETATM    5  C4  UNL     1     -33.473   6.498   4.875  1.00 20.00     0.072 C 
HETATM    6  C3  UNL     1     -34.454   5.394   5.123  1.00 20.00     0.004 C 
HETATM    7  C8  UNL     1     -34.913   5.081   6.509  1.00 20.00     0.065 C 
HETATM    8  N9  UNL     1     -34.902   4.760   4.083  1.00 20.00    -0.297 NA
HETATM    9  C5  UNL     1     -34.245   5.400   2.924  1.00 20.00     0.166 C 
ENDBRANCH   1   4
TORSDOF 1
ENDMDL
MODEL 2
REMARK VINA RESULT:      -4.4     11.555     12.340
REMARK  1 active torsions:
REMARK  status: ('A' for Active; 'I' for Inactive)
REMARK    1  A    between atoms: C1_1  and  C6_6 
ROOT
HETATM    1  C1  UNL     1     -34.287  16.502  -1.462  1.00 20.00    -0.100 C 
HETATM    2  C2  UNL     1     -34.692  16.958  -0.428  1.00 20.00    -0.111 C 
HETATM    3  C7  UNL     1     -35.187  17.511   0.832  1.00 20.00     0.112 C 
ENDROOT
BRANCH   1   4
HETATM    4  C6  UNL     1     -33.792  15.947  -2.723  1.00 20.00     0.090 C 
HETATM    5  C4  UNL     1     -34.738  14.932  -3.329  1.00 20.00     0.072 C 
HETATM    6  C3  UNL     1     -34.423  15.142  -4.778  1.00 20.00     0.004 C 
HETATM    7  C8  UNL     1     -34.807  14.119  -5.795  1.00 20.00     0.065 C 
HETATM    8  N9  UNL     1     -33.841  16.256  -5.098  1.00 20.00    -0.297 NA
HETATM    9  C5  UNL     1     -33.684  16.994  -3.826  1.00 20.00     0.166 C 
ENDBRANCH   1   4
TORSDOF 1
ENDMDL
MODEL 3
REMARK VINA RESULT:      -4.3     10.682     12.049
REMARK  1 active torsions:
REMARK  status: ('A' for Active; 'I' for Inactive)
REMARK    1  A    between atoms: C1_1  and  C6_6 
ROOT
HETATM    1  C1  UNL     1     -34.924  15.773  -2.260  1.00 20.00    -0.100 C 
HETATM    2  C2  UNL     1     -34.643  16.500  -1.348  1.00 20.00    -0.111 C 
HETATM    3  C7  UNL     1     -34.301  17.387  -0.236  1.00 20.00     0.112 C 
ENDROOT
BRANCH   1   4
HETATM    4  C6  UNL     1     -35.267  14.885  -3.374  1.00 20.00     0.090 C 
HETATM    5  C4  UNL     1     -35.253  15.592  -4.713  1.00 20.00     0.072 C 
HETATM    6  C3  UNL     1     -34.870  14.440  -5.590  1.00 20.00     0.004 C 
HETATM    7  C8  UNL     1     -35.087  14.503  -7.066  1.00 20.00     0.065 C 
HETATM    8  N9  UNL     1     -34.318  13.418  -5.011  1.00 20.00    -0.297 NA
HETATM    9  C5  UNL     1     -34.245  13.773  -3.578  1.00 20.00     0.166 C 
ENDBRANCH   1   4
TORSDOF 1
ENDMDL
MODEL 4
REMARK VINA RESULT:      -4.0     11.084     11.662
REMARK  1 active torsions:
REMARK  status: ('A' for Active; 'I' for Inactive)
REMARK    1  A    between atoms: C1_1  and  C6_6 
ROOT
HETATM    1  C1  UNL     1     -34.917  16.623  -1.542  1.00 20.00    -0.100 C 
HETATM    2  C2  UNL     1     -34.799  17.073  -0.435  1.00 20.00    -0.111 C 
HETATM    3  C7  UNL     1     -34.654  17.621   0.913  1.00 20.00     0.112 C 
ENDROOT
BRANCH   1   4
HETATM    4  C6  UNL     1     -35.062  16.075  -2.892  1.00 20.00     0.090 C 
HETATM    5  C4  UNL     1     -34.242  14.820  -3.107  1.00 20.00     0.072 C 
HETATM    6  C3  UNL     1     -35.108  14.136  -4.119  1.00 20.00     0.004 C 
HETATM    7  C8  UNL     1     -34.567  13.025  -4.956  1.00 20.00     0.065 C 
HETATM    8  N9  UNL     1     -36.341  14.531  -4.202  1.00 20.00    -0.297 NA
HETATM    9  C5  UNL     1     -36.479  15.596  -3.186  1.00 20.00     0.166 C 
ENDBRANCH   1   4
TORSDOF 1
ENDMDL
MODEL 5
REMARK VINA RESULT:      -3.9     11.217     12.140
REMARK  1 active torsions:
REMARK  status: ('A' for Active; 'I' for Inactive)
REMARK    1  A    between atoms: C1_1  and  C6_6 
ROOT
HETATM    1  C1  UNL     1     -34.889  15.565  -2.897  1.00 20.00    -0.100 C 
HETATM    2  C2  UNL     1     -34.879  14.533  -3.510  1.00 20.00    -0.111 C 
HETATM    3  C7  UNL     1     -34.866  13.277  -4.259  1.00 20.00     0.112 C 
ENDROOT
BRANCH   1   4
HETATM    4  C6  UNL     1     -34.901  16.823  -2.147  1.00 20.00     0.090 C 
HETATM    5  C4  UNL     1     -34.607  16.631  -0.674  1.00 20.00     0.072 C 
HETATM    6  C3  UNL     1     -33.957  17.949  -0.384  1.00 20.00     0.004 C 
HETATM    7  C8  UNL     1     -33.815  18.434   1.021  1.00 20.00     0.065 C 
HETATM    8  N9  UNL     1     -33.501  18.616  -1.399  1.00 20.00    -0.297 NA
HETATM    9  C5  UNL     1     -33.796  17.778  -2.581  1.00 20.00     0.166 C 
ENDBRANCH   1   4
TORSDOF 1
ENDMDL
MODEL 6
REMARK VINA RESULT:      -3.9      9.761     11.266
REMARK  1 active torsions:
REMARK  status: ('A' for Active; 'I' for Inactive)
REMARK    1  A    between atoms: C1_1  and  C6_6 
ROOT
HETATM    1  C1  UNL     1     -42.110   2.669  -2.855  1.00 20.00    -0.100 C 
HETATM    2  C2  UNL     1     -41.860   1.643  -3.425  1.00 20.00    -0.111 C 
HETATM    3  C7  UNL     1     -41.555   0.393  -4.119  1.00 20.00     0.112 C 
ENDROOT
BRANCH   1   4
HETATM    4  C6  UNL     1     -42.416   3.921  -2.160  1.00 20.00     0.090 C 
HETATM    5  C4  UNL     1     -41.195   4.556  -1.528  1.00 20.00     0.072 C 
HETATM    6  C3  UNL     1     -41.598   5.995  -1.613  1.00 20.00     0.004 C 
HETATM    7  C8  UNL     1     -40.912   7.027  -0.780  1.00 20.00     0.065 C 
HETATM    8  N9  UNL     1     -42.535   6.294  -2.460  1.00 20.00    -0.297 NA
HETATM    9  C5  UNL     1     -42.903   5.016  -3.103  1.00 20.00     0.166 C 
ENDBRANCH   1   4
TORSDOF 1
ENDMDL
MODEL 7
REMARK VINA RESULT:      -3.7     11.365     11.920
REMARK  1 active torsions:
REMARK  status: ('A' for Active; 'I' for Inactive)
REMARK    1  A    between atoms: C1_1  and  C6_6 
ROOT
HETATM    1  C1  UNL     1     -34.610  16.970  -0.953  1.00 20.00    -0.100 C 
HETATM    2  C2  UNL     1     -34.564  16.154  -1.833  1.00 20.00    -0.111 C 
HETATM    3  C7  UNL     1     -34.509  15.161  -2.904  1.00 20.00     0.112 C 
ENDROOT
BRANCH   1   4
HETATM    4  C6  UNL     1     -34.666  17.964   0.120  1.00 20.00     0.090 C 
HETATM    5  C4  UNL     1     -35.263  17.415   1.399  1.00 20.00     0.072 C 
HETATM    6  C3  UNL     1     -34.528  18.262   2.392  1.00 20.00     0.004 C 
HETATM    7  C8  UNL     1     -35.023  18.391   3.794  1.00 20.00     0.065 C 
HETATM    8  N9  UNL     1     -33.439  18.837   1.983  1.00 20.00    -0.297 NA
HETATM    9  C5  UNL     1     -33.284  18.421   0.573  1.00 20.00     0.166 C 
ENDBRANCH   1   4
TORSDOF 1
ENDMDL
MODEL 8
REMARK VINA RESULT:      -3.6      1.905      4.812
REMARK  1 active torsions:
REMARK  status: ('A' for Active; 'I' for Inactive)
REMARK    1  A    between atoms: C1_1  and  C6_6 
ROOT
HETATM    1  C1  UNL     1     -33.527   5.788   4.284  1.00 20.00    -0.100 C 
HETATM    2  C2  UNL     1     -34.269   5.286   5.084  1.00 20.00    -0.111 C 
HETATM    3  C7  UNL     1     -35.172   4.675   6.058  1.00 20.00     0.112 C 
ENDROOT
BRANCH   1   4
HETATM    4  C6  UNL     1     -32.623   6.400   3.308  1.00 20.00     0.090 C 
HETATM    5  C4  UNL     1     -33.331   7.354   2.369  1.00 20.00     0.072 C 
HETATM    6  C3  UNL     1     -32.206   8.302   2.094  1.00 20.00     0.004 C 
HETATM    7  C8  UNL     1     -32.258   9.224   0.922  1.00 20.00     0.065 C 
HETATM    8  N9  UNL     1     -31.218   8.303   2.936  1.00 20.00    -0.297 NA
HETATM    9  C5  UNL     1     -31.575   7.296   3.958  1.00 20.00     0.166 C 
ENDBRANCH   1   4
TORSDOF 1
ENDMDL
MODEL 9
REMARK VINA RESULT:      -3.5     11.793     12.330
REMARK  1 active torsions:
REMARK  status: ('A' for Active; 'I' for Inactive)
REMARK    1  A    between atoms: C1_1  and  C6_6 
ROOT
HETATM    1  C1  UNL     1     -34.047  18.063   0.786  1.00 20.00    -0.100 C 
HETATM    2  C2  UNL     1     -34.357  17.404  -0.168  1.00 20.00    -0.111 C 
HETATM    3  C7  UNL     1     -34.733  16.600  -1.330  1.00 20.00     0.112 C 
ENDROOT
BRANCH   1   4
HETATM    4  C6  UNL     1     -33.670  18.868   1.950  1.00 20.00     0.090 C 
HETATM    5  C4  UNL     1     -34.103  18.243   3.260  1.00 20.00     0.072 C 
HETATM    6  C3  UNL     1     -33.019  18.770   4.149  1.00 20.00     0.004 C 
HETATM    7  C8  UNL     1     -33.184  18.764   5.633  1.00 20.00     0.065 C 
HETATM    8  N9  UNL     1     -31.936  19.189   3.571  1.00 20.00    -0.297 NA
HETATM    9  C5  UNL     1     -32.160  18.981   2.124  1.00 20.00     0.166 C 
ENDBRANCH   1   4
TORSDOF 1
ENDMDL
