MODEL 1
REMARK VINA RESULT:      -3.8      0.000      0.000
REMARK  5 active torsions:
REMARK  status: ('A' for Active; 'I' for Inactive)
REMARK    1  A    between atoms: C1_1  and  C5_5 
REMARK    2  A    between atoms: C5_5  and  C8_8 
REMARK    3  A    between atoms: C6_6  and  N9_9 
REMARK    4  A    between atoms: C7_7  and  N9_9 
REMARK    5  A    between atoms: C8_8  and  N9_9 
ROOT
HETATM    1  C1  UNL     1     -34.724  16.545  -1.046  1.00 20.00    -0.092 C 
HETATM    2  C2  UNL     1     -34.780  17.162  -0.018  1.00 20.00    -0.022 C 
HETATM    3  S10 UNL     1     -34.865  18.080   1.517  1.00 20.00     0.008 SA
ENDROOT
BRANCH   1   4
HETATM    4  C5  UNL     1     -34.655  15.789  -2.305  1.00 20.00     0.122 C 
BRANCH   4   5
HETATM    5  C8  UNL     1     -33.381  16.082  -3.085  1.00 20.00     0.246 C 
BRANCH   5   6
HETATM    6  N9  UNL     1     -33.255  15.137  -4.245  1.00 20.00    -0.071 N 
HETATM    7  H25 UNL     1     -32.258  15.107  -4.497  1.00 20.00     0.279 HD
BRANCH   6   8
HETATM    8  C6  UNL     1     -33.653  13.736  -3.876  1.00 20.00     0.230 C 
HETATM    9  C3  UNL     1     -34.625  13.206  -4.908  1.00 20.00     0.034 C 
ENDBRANCH   6   8
BRANCH   6  10
HETATM   10  C7  UNL     1     -33.996  15.631  -5.455  1.00 20.00     0.230 C 
HETATM   11  C4  UNL     1     -33.688  17.098  -5.663  1.00 20.00     0.034 C 
ENDBRANCH   6  10
ENDBRANCH   5   6
ENDBRANCH   4   5
ENDBRANCH   1   4
TORSDOF 5
ENDMDL
MODEL 2
REMARK VINA RESULT:      -3.6      0.953      2.372
REMARK  5 active torsions:
REMARK  status: ('A' for Active; 'I' for Inactive)
REMARK    1  A    between atoms: C1_1  and  C5_5 
REMARK    2  A    between atoms: C5_5  and  C8_8 
REMARK    3  A    between atoms: C6_6  and  N9_9 
REMARK    4  A    between atoms: C7_7  and  N9_9 
REMARK    5  A    between atoms: C8_8  and  N9_9 
ROOT
HETATM    1  C1  UNL     1     -34.382  16.755  -1.044  1.00 20.00    -0.092 C 
HETATM    2  C2  UNL     1     -34.821  17.157  -0.003  1.00 20.00    -0.022 C 
HETATM    3  S10 UNL     1     -35.474  17.754   1.553  1.00 20.00     0.008 SA
ENDROOT
BRANCH   1   4
HETATM    4  C5  UNL     1     -33.843  16.263  -2.321  1.00 20.00     0.122 C 
BRANCH   4   5
HETATM    5  C8  UNL     1     -34.887  15.514  -3.138  1.00 20.00     0.246 C 
BRANCH   5   6
HETATM    6  N9  UNL     1     -34.616  15.684  -4.606  1.00 20.00    -0.071 N 
HETATM    7  H25 UNL     1     -35.384  16.252  -4.986  1.00 20.00     0.279 HD
BRANCH   6   8
HETATM    8  C6  UNL     1     -33.345  16.443  -4.859  1.00 20.00     0.230 C 
HETATM    9  C3  UNL     1     -33.648  17.648  -5.723  1.00 20.00     0.034 C 
ENDBRANCH   6   8
BRANCH   6  10
HETATM   10  C7  UNL     1     -34.641  14.371  -5.336  1.00 20.00     0.230 C 
HETATM   11  C4  UNL     1     -35.014  13.269  -4.368  1.00 20.00     0.034 C 
ENDBRANCH   6  10
ENDBRANCH   5   6
ENDBRANCH   4   5
ENDBRANCH   1   4
TORSDOF 5
ENDMDL
MODEL 3
REMARK VINA RESULT:      -3.5      1.588      2.076
REMARK  5 active torsions:
REMARK  status: ('A' for Active; 'I' for Inactive)
REMARK    1  A    between atoms: C1_1  and  C5_5 
REMARK    2  A    between atoms: C5_5  and  C8_8 
REMARK    3  A    between atoms: C6_6  and  N9_9 
REMARK    4  A    between atoms: C7_7  and  N9_9 
REMARK    5  A    between atoms: C8_8  and  N9_9 
ROOT
HETATM    1  C1  UNL     1     -33.707  16.137  -2.542  1.00 20.00    -0.092 C 
HETATM    2  C2  UNL     1     -34.161  16.640  -1.551  1.00 20.00    -0.022 C 
HETATM    3  S10 UNL     1     -34.842  17.388  -0.075  1.00 20.00     0.008 SA
ENDROOT
BRANCH   1   4
HETATM    4  C5  UNL     1     -33.149  15.520  -3.754  1.00 20.00     0.122 C 
BRANCH   4   5
HETATM    5  C8  UNL     1     -34.104  15.605  -4.937  1.00 20.00     0.246 C 
BRANCH   5   6
HETATM    6  N9  UNL     1     -34.529  14.227  -5.359  1.00 20.00    -0.071 N 
HETATM    7  H25 UNL     1     -33.672  13.663  -5.438  1.00 20.00     0.279 HD
BRANCH   6   8
HETATM    8  C6  UNL     1     -35.394  13.563  -4.326  1.00 20.00     0.230 C 
HETATM    9  C3  UNL     1     -36.638  14.396  -4.108  1.00 20.00     0.034 C 
ENDBRANCH   6   8
BRANCH   6  10
HETATM   10  C7  UNL     1     -35.175  14.231  -6.715  1.00 20.00     0.230 C 
HETATM   11  C4  UNL     1     -34.752  15.475  -7.466  1.00 20.00     0.034 C 
ENDBRANCH   6  10
ENDBRANCH   5   6
ENDBRANCH   4   5
ENDBRANCH   1   4
TORSDOF 5
ENDMDL
MODEL 4
REMARK VINA RESULT:      -3.5      2.661      3.767
REMARK  5 active torsions:
REMARK  status: ('A' for Active; 'I' for Inactive)
REMARK    1  A    between atoms: C1_1  and  C5_5 
REMARK    2  A    between atoms: C5_5  and  C8_8 
REMARK    3  A    between atoms: C6_6  and  N9_9 
REMARK    4  A    between atoms: C7_7  and  N9_9 
REMARK    5  A    between atoms: C8_8  and  N9_9 
ROOT
HETATM    1  C1  UNL     1     -36.379  14.237  -4.057  1.00 20.00    -0.092 C 
HETATM    2  C2  UNL     1     -37.446  14.744  -3.842  1.00 20.00    -0.022 C 
HETATM    3  S10 UNL     1     -39.035  15.504  -3.521  1.00 20.00     0.008 SA
ENDROOT
BRANCH   1   4
HETATM    4  C5  UNL     1     -35.073  13.615  -4.321  1.00 20.00     0.122 C 
BRANCH   4   5
HETATM    5  C8  UNL     1     -33.950  14.276  -3.535  1.00 20.00     0.246 C 
BRANCH   5   6
HETATM    6  N9  UNL     1     -34.021  15.769  -3.684  1.00 20.00    -0.071 N 
HETATM    7  H25 UNL     1     -35.007  16.003  -3.858  1.00 20.00     0.279 HD
BRANCH   6   8
HETATM    8  C6  UNL     1     -33.620  16.480  -2.423  1.00 20.00     0.230 C 
HETATM    9  C3  UNL     1     -34.727  16.343  -1.400  1.00 20.00     0.034 C 
ENDBRANCH   6   8
BRANCH   6  10
HETATM   10  C7  UNL     1     -33.241  16.253  -4.874  1.00 20.00     0.230 C 
HETATM   11  C4  UNL     1     -33.574  17.707  -5.130  1.00 20.00     0.034 C 
ENDBRANCH   6  10
ENDBRANCH   5   6
ENDBRANCH   4   5
ENDBRANCH   1   4
TORSDOF 5
ENDMDL
MODEL 5
REMARK VINA RESULT:      -3.5      1.638      2.088
REMARK  5 active torsions:
REMARK  status: ('A' for Active; 'I' for Inactive)
REMARK    1  A    between atoms: C1_1  and  C5_5 
REMARK    2  A    between atoms: C5_5  and  C8_8 
REMARK    3  A    between atoms: C6_6  and  N9_9 
REMARK    4  A    between atoms: C7_7  and  N9_9 
REMARK    5  A    between atoms: C8_8  and  N9_9 
ROOT
HETATM    1  C1  UNL     1     -34.443  16.634  -1.216  1.00 20.00    -0.092 C 
HETATM    2  C2  UNL     1     -34.809  17.074  -0.162  1.00 20.00    -0.022 C 
HETATM    3  S10 UNL     1     -35.358  17.731   1.411  1.00 20.00     0.008 SA
ENDROOT
BRANCH   1   4
HETATM    4  C5  UNL     1     -33.993  16.093  -2.508  1.00 20.00     0.122 C 
BRANCH   4   5
HETATM    5  C8  UNL     1     -35.009  15.138  -3.119  1.00 20.00     0.246 C 
BRANCH   5   6
HETATM    6  N9  UNL     1     -35.259  15.497  -4.556  1.00 20.00    -0.071 N 
HETATM    7  H25 UNL     1     -34.810  16.408  -4.717  1.00 20.00     0.279 HD
BRANCH   6   8
HETATM    8  C6  UNL     1     -34.616  14.521  -5.500  1.00 20.00     0.230 C 
HETATM    9  C3  UNL     1     -34.477  13.181  -4.812  1.00 20.00     0.034 C 
ENDBRANCH   6   8
BRANCH   6  10
HETATM   10  C7  UNL     1     -36.723  15.676  -4.843  1.00 20.00     0.230 C 
HETATM   11  C4  UNL     1     -37.530  15.050  -3.726  1.00 20.00     0.034 C 
ENDBRANCH   6  10
ENDBRANCH   5   6
ENDBRANCH   4   5
ENDBRANCH   1   4
TORSDOF 5
ENDMDL
MODEL 6
REMARK VINA RESULT:      -3.5      1.835      2.502
REMARK  5 active torsions:
REMARK  status: ('A' for Active; 'I' for Inactive)
REMARK    1  A    between atoms: C1_1  and  C5_5 
REMARK    2  A    between atoms: C5_5  and  C8_8 
REMARK    3  A    between atoms: C6_6  and  N9_9 
REMARK    4  A    between atoms: C7_7  and  N9_9 
REMARK    5  A    between atoms: C8_8  and  N9_9 
ROOT
HETATM    1  C1  UNL     1     -34.350  16.525  -1.400  1.00 20.00    -0.092 C 
HETATM    2  C2  UNL     1     -34.737  16.986  -0.362  1.00 20.00    -0.022 C 
HETATM    3  S10 UNL     1     -35.318  17.673   1.186  1.00 20.00     0.008 SA
ENDROOT
BRANCH   1   4
HETATM    4  C5  UNL     1     -33.876  15.960  -2.672  1.00 20.00     0.122 C 
BRANCH   4   5
HETATM    5  C8  UNL     1     -34.981  15.879  -3.716  1.00 20.00     0.246 C 
BRANCH   5   6
HETATM    6  N9  UNL     1     -35.776  14.619  -3.533  1.00 20.00    -0.071 N 
HETATM    7  H25 UNL     1     -35.655  14.330  -2.553  1.00 20.00     0.279 HD
BRANCH   6   8
HETATM    8  C6  UNL     1     -37.247  14.846  -3.740  1.00 20.00     0.230 C 
HETATM    9  C3  UNL     1     -37.491  16.314  -4.010  1.00 20.00     0.034 C 
ENDBRANCH   6   8
BRANCH   6  10
HETATM   10  C7  UNL     1     -35.256  13.497  -4.386  1.00 20.00     0.230 C 
HETATM   11  C4  UNL     1     -34.850  14.046  -5.737  1.00 20.00     0.034 C 
ENDBRANCH   6  10
ENDBRANCH   5   6
ENDBRANCH   4   5
ENDBRANCH   1   4
TORSDOF 5
ENDMDL
MODEL 7
REMARK VINA RESULT:      -3.5      3.267      3.772
REMARK  5 active torsions:
REMARK  status: ('A' for Active; 'I' for Inactive)
REMARK    1  A    between atoms: C1_1  and  C5_5 
REMARK    2  A    between atoms: C5_5  and  C8_8 
REMARK    3  A    between atoms: C6_6  and  N9_9 
REMARK    4  A    between atoms: C7_7  and  N9_9 
REMARK    5  A    between atoms: C8_8  and  N9_9 
ROOT
HETATM    1  C1  UNL     1     -36.430  14.579  -3.819  1.00 20.00    -0.092 C 
HETATM    2  C2  UNL     1     -37.608  14.795  -3.900  1.00 20.00    -0.022 C 
HETATM    3  S10 UNL     1     -39.364  15.120  -4.019  1.00 20.00     0.008 SA
ENDROOT
BRANCH   1   4
HETATM    4  C5  UNL     1     -34.987  14.314  -3.720  1.00 20.00     0.122 C 
BRANCH   4   5
HETATM    5  C8  UNL     1     -34.377  13.934  -5.061  1.00 20.00     0.246 C 
BRANCH   5   6
HETATM    6  N9  UNL     1     -33.590  15.085  -5.618  1.00 20.00    -0.071 N 
HETATM    7  H25 UNL     1     -32.682  14.707  -5.920  1.00 20.00     0.279 HD
BRANCH   6   8
HETATM    8  C6  UNL     1     -34.242  15.675  -6.837  1.00 20.00     0.230 C 
HETATM    9  C3  UNL     1     -35.158  14.645  -7.460  1.00 20.00     0.034 C 
ENDBRANCH   6   8
BRANCH   6  10
HETATM   10  C7  UNL     1     -33.304  16.127  -4.574  1.00 20.00     0.230 C 
HETATM   11  C4  UNL     1     -33.528  17.501  -5.167  1.00 20.00     0.034 C 
ENDBRANCH   6  10
ENDBRANCH   5   6
ENDBRANCH   4   5
ENDBRANCH   1   4
TORSDOF 5
ENDMDL
MODEL 8
REMARK VINA RESULT:      -3.4      1.715      2.483
REMARK  5 active torsions:
REMARK  status: ('A' for Active; 'I' for Inactive)
REMARK    1  A    between atoms: C1_1  and  C5_5 
REMARK    2  A    between atoms: C5_5  and  C8_8 
REMARK    3  A    between atoms: C6_6  and  N9_9 
REMARK    4  A    between atoms: C7_7  and  N9_9 
REMARK    5  A    between atoms: C8_8  and  N9_9 
ROOT
HETATM    1  C1  UNL     1     -34.728  16.823  -0.514  1.00 20.00    -0.092 C 
HETATM    2  C2  UNL     1     -34.967  17.314   0.554  1.00 20.00    -0.022 C 
HETATM    3  S10 UNL     1     -35.322  18.050   2.147  1.00 20.00     0.008 SA
ENDROOT
BRANCH   1   4
HETATM    4  C5  UNL     1     -34.436  16.221  -1.823  1.00 20.00     0.122 C 
BRANCH   4   5
HETATM    5  C8  UNL     1     -35.664  16.171  -2.723  1.00 20.00     0.246 C 
BRANCH   5   6
HETATM    6  N9  UNL     1     -35.759  14.832  -3.396  1.00 20.00    -0.071 N 
HETATM    7  H25 UNL     1     -36.293  14.220  -2.766  1.00 20.00     0.279 HD
BRANCH   6   8
HETATM    8  C6  UNL     1     -36.525  14.904  -4.687  1.00 20.00     0.230 C 
HETATM    9  C3  UNL     1     -36.866  16.348  -4.984  1.00 20.00     0.034 C 
ENDBRANCH   6   8
BRANCH   6  10
HETATM   10  C7  UNL     1     -34.409  14.199  -3.580  1.00 20.00     0.230 C 
HETATM   11  C4  UNL     1     -34.470  13.221  -4.734  1.00 20.00     0.034 C 
ENDBRANCH   6  10
ENDBRANCH   5   6
ENDBRANCH   4   5
ENDBRANCH   1   4
TORSDOF 5
ENDMDL
MODEL 9
REMARK VINA RESULT:      -3.4     11.160     12.320
REMARK  5 active torsions:
REMARK  status: ('A' for Active; 'I' for Inactive)
REMARK    1  A    between atoms: C1_1  and  C5_5 
REMARK    2  A    between atoms: C5_5  and  C8_8 
REMARK    3  A    between atoms: C6_6  and  N9_9 
REMARK    4  A    between atoms: C7_7  and  N9_9 
REMARK    5  A    between atoms: C8_8  and  N9_9 
ROOT
HETATM    1  C1  UNL     1     -32.140   7.622   2.495  1.00 20.00    -0.092 C 
HETATM    2  C2  UNL     1     -32.141   8.545   1.727  1.00 20.00    -0.022 C 
HETATM    3  S10 UNL     1     -32.142   9.919   0.579  1.00 20.00     0.008 SA
ENDROOT
BRANCH   1   4
HETATM    4  C5  UNL     1     -32.140   6.492   3.435  1.00 20.00     0.122 C 
BRANCH   4   5
HETATM    5  C8  UNL     1     -33.430   5.686   3.370  1.00 20.00     0.246 C 
BRANCH   5   6
HETATM    6  N9  UNL     1     -34.273   5.959   4.582  1.00 20.00    -0.071 N 
HETATM    7  H25 UNL     1     -34.685   6.893   4.454  1.00 20.00     0.279 HD
BRANCH   6   8
HETATM    8  C6  UNL     1     -35.417   4.992   4.702  1.00 20.00     0.230 C 
HETATM    9  C3  UNL     1     -35.025   3.872   5.642  1.00 20.00     0.034 C 
ENDBRANCH   6   8
BRANCH   6  10
HETATM   10  C7  UNL     1     -33.450   6.015   5.838  1.00 20.00     0.230 C 
HETATM   11  C4  UNL     1     -33.860   7.225   6.650  1.00 20.00     0.034 C 
ENDBRANCH   6  10
ENDBRANCH   5   6
ENDBRANCH   4   5
ENDBRANCH   1   4
TORSDOF 5
ENDMDL
