MODEL 1
REMARK VINA RESULT:      -5.3      0.000      0.000
REMARK  5 active torsions:
REMARK  status: ('A' for Active; 'I' for Inactive)
REMARK    1  A    between atoms: C1_1  and  C3_3 
REMARK    2  A    between atoms: C1_1  and  O11_11 
REMARK    3  A    between atoms: C4_4  and  C7_7 
REMARK    4  A    between atoms: C7_7  and  C8_8 
REMARK    5  A    between atoms: C9_9  and  O11_11 
ROOT
HETATM    1  C2  UNL     1     -34.159   5.495   2.545  1.00 20.00     0.020 A 
HETATM    2  C3  UNL     1     -32.936   5.826   3.359  1.00 20.00     0.090 A 
HETATM    3  C4  UNL     1     -34.313   5.894   3.988  1.00 20.00    -0.000 A 
ENDROOT
BRANCH   2   4
HETATM    4  C1  UNL     1     -32.212   7.075   3.093  1.00 20.00     0.263 C 
HETATM    5  O10 UNL     1     -31.386   7.564   3.852  1.00 20.00    -0.265 OA
BRANCH   4   6
HETATM    6  O11 UNL     1     -32.606   7.582   1.890  1.00 20.00    -0.322 OA
BRANCH   6   7
HETATM    7  C9  UNL     1     -31.746   8.579   1.332  1.00 20.00     0.174 C 
HETATM    8  C6  UNL     1     -32.465   9.912   1.342  1.00 20.00     0.034 C 
ENDBRANCH   6   7
ENDBRANCH   4   6
ENDBRANCH   2   4
BRANCH   3   9
HETATM    9  C7  UNL     1     -34.720   4.886   5.007  1.00 20.00     0.005 C 
BRANCH   9  10
HETATM   10  C8  UNL     1     -34.665   5.441   6.441  1.00 20.00    -0.004 C 
HETATM   11  C5  UNL     1     -33.899   6.750   6.531  1.00 20.00     0.005 C 
ENDBRANCH   9  10
ENDBRANCH   3   9
TORSDOF 5
ENDMDL
MODEL 2
REMARK VINA RESULT:      -4.7      1.589      5.012
REMARK  5 active torsions:
REMARK  status: ('A' for Active; 'I' for Inactive)
REMARK    1  A    between atoms: C1_1  and  C3_3 
REMARK    2  A    between atoms: C1_1  and  O11_11 
REMARK    3  A    between atoms: C4_4  and  C7_7 
REMARK    4  A    between atoms: C7_7  and  C8_8 
REMARK    5  A    between atoms: C9_9  and  O11_11 
ROOT
HETATM    1  C2  UNL     1     -31.603   7.232   3.733  1.00 20.00     0.020 A 
HETATM    2  C3  UNL     1     -32.529   6.289   3.012  1.00 20.00     0.090 A 
HETATM    3  C4  UNL     1     -32.437   7.740   2.587  1.00 20.00    -0.000 A 
ENDROOT
BRANCH   2   4
HETATM    4  C1  UNL     1     -33.746   5.820   3.686  1.00 20.00     0.263 C 
HETATM    5  O10 UNL     1     -34.736   5.401   3.101  1.00 20.00    -0.265 OA
BRANCH   4   6
HETATM    6  O11 UNL     1     -33.590   5.931   5.036  1.00 20.00    -0.322 OA
BRANCH   6   7
HETATM    7  C9  UNL     1     -34.739   5.591   5.817  1.00 20.00     0.174 C 
HETATM    8  C6  UNL     1     -34.776   4.089   6.013  1.00 20.00     0.034 C 
ENDBRANCH   6   7
ENDBRANCH   4   6
ENDBRANCH   2   4
BRANCH   3   9
HETATM    9  C7  UNL     1     -31.792   8.101   1.293  1.00 20.00     0.005 C 
BRANCH   9  10
HETATM   10  C8  UNL     1     -32.173   9.514   0.818  1.00 20.00    -0.004 C 
HETATM   11  C5  UNL     1     -32.791  10.354   1.923  1.00 20.00     0.005 C 
ENDBRANCH   9  10
ENDBRANCH   3   9
TORSDOF 5
ENDMDL
MODEL 3
REMARK VINA RESULT:      -4.6     10.687     11.428
REMARK  5 active torsions:
REMARK  status: ('A' for Active; 'I' for Inactive)
REMARK    1  A    between atoms: C1_1  and  C3_3 
REMARK    2  A    between atoms: C1_1  and  O11_11 
REMARK    3  A    between atoms: C4_4  and  C7_7 
REMARK    4  A    between atoms: C7_7  and  C8_8 
REMARK    5  A    between atoms: C9_9  and  O11_11 
ROOT
HETATM    1  C2  UNL     1     -33.242  14.931  -3.869  1.00 20.00     0.020 A 
HETATM    2  C3  UNL     1     -34.741  14.927  -4.017  1.00 20.00     0.090 A 
HETATM    3  C4  UNL     1     -34.107  15.261  -2.682  1.00 20.00    -0.000 A 
ENDROOT
BRANCH   2   4
HETATM    4  C1  UNL     1     -35.445  13.649  -4.171  1.00 20.00     0.263 C 
HETATM    5  O10 UNL     1     -34.918  12.620  -4.570  1.00 20.00    -0.265 OA
BRANCH   4   6
HETATM    6  O11 UNL     1     -36.750  13.801  -3.805  1.00 20.00    -0.322 OA
BRANCH   6   7
HETATM    7  C9  UNL     1     -37.401  14.966  -4.321  1.00 20.00     0.174 C 
HETATM    8  C6  UNL     1     -38.652  15.232  -3.509  1.00 20.00     0.034 C 
ENDBRANCH   6   7
ENDBRANCH   4   6
ENDBRANCH   2   4
BRANCH   3   9
HETATM    9  C7  UNL     1     -34.159  16.654  -2.156  1.00 20.00     0.005 C 
BRANCH   9  10
HETATM   10  C8  UNL     1     -34.639  16.715  -0.695  1.00 20.00    -0.004 C 
HETATM   11  C5  UNL     1     -34.058  17.900   0.060  1.00 20.00     0.005 C 
ENDBRANCH   9  10
ENDBRANCH   3   9
TORSDOF 5
ENDMDL
MODEL 4
REMARK VINA RESULT:      -4.6      1.841      4.767
REMARK  5 active torsions:
REMARK  status: ('A' for Active; 'I' for Inactive)
REMARK    1  A    between atoms: C1_1  and  C3_3 
REMARK    2  A    between atoms: C1_1  and  O11_11 
REMARK    3  A    between atoms: C4_4  and  C7_7 
REMARK    4  A    between atoms: C7_7  and  C8_8 
REMARK    5  A    between atoms: C9_9  and  O11_11 
ROOT
HETATM    1  C2  UNL     1     -32.079   5.538   3.414  1.00 20.00     0.020 A 
HETATM    2  C3  UNL     1     -33.488   5.722   2.915  1.00 20.00     0.090 A 
HETATM    3  C4  UNL     1     -32.599   6.926   3.152  1.00 20.00    -0.000 A 
ENDROOT
BRANCH   2   4
HETATM    4  C1  UNL     1     -34.611   5.475   3.827  1.00 20.00     0.263 C 
HETATM    5  O10 UNL     1     -35.774   5.763   3.576  1.00 20.00    -0.265 OA
BRANCH   4   6
HETATM    6  O11 UNL     1     -34.150   4.888   4.968  1.00 20.00    -0.322 OA
BRANCH   6   7
HETATM    7  C9  UNL     1     -34.672   5.423   6.188  1.00 20.00     0.174 C 
HETATM    8  C6  UNL     1     -33.939   6.707   6.517  1.00 20.00     0.034 C 
ENDBRANCH   6   7
ENDBRANCH   4   6
ENDBRANCH   2   4
BRANCH   3   9
HETATM    9  C7  UNL     1     -32.085   7.715   1.998  1.00 20.00     0.005 C 
BRANCH   9  10
HETATM   10  C8  UNL     1     -32.476   9.201   2.077  1.00 20.00    -0.004 C 
HETATM   11  C5  UNL     1     -32.382   9.902   0.732  1.00 20.00     0.005 C 
ENDBRANCH   9  10
ENDBRANCH   3   9
TORSDOF 5
ENDMDL
MODEL 5
REMARK VINA RESULT:      -4.5     10.717     11.822
REMARK  5 active torsions:
REMARK  status: ('A' for Active; 'I' for Inactive)
REMARK    1  A    between atoms: C1_1  and  C3_3 
REMARK    2  A    between atoms: C1_1  and  O11_11 
REMARK    3  A    between atoms: C4_4  and  C7_7 
REMARK    4  A    between atoms: C7_7  and  C8_8 
REMARK    5  A    between atoms: C9_9  and  O11_11 
ROOT
HETATM    1  C2  UNL     1     -33.075  14.495  -3.512  1.00 20.00     0.020 A 
HETATM    2  C3  UNL     1     -34.108  14.769  -4.573  1.00 20.00     0.090 A 
HETATM    3  C4  UNL     1     -34.422  15.038  -3.116  1.00 20.00    -0.000 A 
ENDROOT
BRANCH   2   4
HETATM    4  C1  UNL     1     -34.763  13.642  -5.247  1.00 20.00     0.263 C 
HETATM    5  O10 UNL     1     -34.850  12.517  -4.774  1.00 20.00    -0.265 OA
BRANCH   4   6
HETATM    6  O11 UNL     1     -35.244  14.051  -6.456  1.00 20.00    -0.322 OA
BRANCH   6   7
HETATM    7  C9  UNL     1     -34.442  15.019  -7.140  1.00 20.00     0.174 C 
HETATM    8  C6  UNL     1     -35.349  15.950  -7.918  1.00 20.00     0.034 C 
ENDBRANCH   6   7
ENDBRANCH   4   6
ENDBRANCH   2   4
BRANCH   3   9
HETATM    9  C7  UNL     1     -34.551  16.438  -2.625  1.00 20.00     0.005 C 
BRANCH   9  10
HETATM   10  C8  UNL     1     -34.584  16.524  -1.088  1.00 20.00    -0.004 C 
HETATM   11  C5  UNL     1     -33.739  17.666  -0.549  1.00 20.00     0.005 C 
ENDBRANCH   9  10
ENDBRANCH   3   9
TORSDOF 5
ENDMDL
MODEL 6
REMARK VINA RESULT:      -4.5      2.195      4.678
REMARK  5 active torsions:
REMARK  status: ('A' for Active; 'I' for Inactive)
REMARK    1  A    between atoms: C1_1  and  C3_3 
REMARK    2  A    between atoms: C1_1  and  O11_11 
REMARK    3  A    between atoms: C4_4  and  C7_7 
REMARK    4  A    between atoms: C7_7  and  C8_8 
REMARK    5  A    between atoms: C9_9  and  O11_11 
ROOT
HETATM    1  C2  UNL     1     -34.130   5.376   2.551  1.00 20.00     0.020 A 
HETATM    2  C3  UNL     1     -34.501   5.719   3.969  1.00 20.00     0.090 A 
HETATM    3  C4  UNL     1     -33.130   6.076   3.432  1.00 20.00    -0.000 A 
ENDROOT
BRANCH   2   4
HETATM    4  C1  UNL     1     -34.620   4.643   4.961  1.00 20.00     0.263 C 
HETATM    5  O10 UNL     1     -35.160   3.567   4.744  1.00 20.00    -0.265 OA
BRANCH   4   6
HETATM    6  O11 UNL     1     -34.043   5.038   6.131  1.00 20.00    -0.322 OA
BRANCH   6   7
HETATM    7  C9  UNL     1     -34.524   6.275   6.667  1.00 20.00     0.174 C 
HETATM    8  C6  UNL     1     -33.355   7.219   6.856  1.00 20.00     0.034 C 
ENDBRANCH   6   7
ENDBRANCH   4   6
ENDBRANCH   2   4
BRANCH   3   9
HETATM    9  C7  UNL     1     -32.774   7.500   3.179  1.00 20.00     0.005 C 
BRANCH   9  10
HETATM   10  C8  UNL     1     -31.834   7.667   1.972  1.00 20.00    -0.004 C 
HETATM   11  C5  UNL     1     -32.125   8.929   1.176  1.00 20.00     0.005 C 
ENDBRANCH   9  10
ENDBRANCH   3   9
TORSDOF 5
ENDMDL
MODEL 7
REMARK VINA RESULT:      -4.4     10.538     11.353
REMARK  5 active torsions:
REMARK  status: ('A' for Active; 'I' for Inactive)
REMARK    1  A    between atoms: C1_1  and  C3_3 
REMARK    2  A    between atoms: C1_1  and  O11_11 
REMARK    3  A    between atoms: C4_4  and  C7_7 
REMARK    4  A    between atoms: C7_7  and  C8_8 
REMARK    5  A    between atoms: C9_9  and  O11_11 
ROOT
HETATM    1  C2  UNL     1     -34.579  16.972  -3.115  1.00 20.00     0.020 A 
HETATM    2  C3  UNL     1     -34.526  15.527  -2.695  1.00 20.00     0.090 A 
HETATM    3  C4  UNL     1     -34.028  16.612  -1.761  1.00 20.00    -0.000 A 
ENDROOT
BRANCH   2   4
HETATM    4  C1  UNL     1     -33.552  14.630  -3.328  1.00 20.00     0.263 C 
HETATM    5  O10 UNL     1     -32.413  14.958  -3.629  1.00 20.00    -0.265 OA
BRANCH   4   6
HETATM    6  O11 UNL     1     -34.119  13.404  -3.517  1.00 20.00    -0.322 OA
BRANCH   6   7
HETATM    7  C9  UNL     1     -35.297  13.391  -4.330  1.00 20.00     0.174 C 
HETATM    8  C6  UNL     1     -34.928  13.811  -5.738  1.00 20.00     0.034 C 
ENDBRANCH   6   7
ENDBRANCH   4   6
ENDBRANCH   2   4
BRANCH   3   9
HETATM    9  C7  UNL     1     -34.793  16.946  -0.527  1.00 20.00     0.005 C 
BRANCH   9  10
HETATM   10  C8  UNL     1     -34.045  17.940   0.379  1.00 20.00    -0.004 C 
HETATM   11  C5  UNL     1     -32.821  18.538  -0.296  1.00 20.00     0.005 C 
ENDBRANCH   9  10
ENDBRANCH   3   9
TORSDOF 5
ENDMDL
MODEL 8
REMARK VINA RESULT:      -4.4     10.874     11.787
REMARK  5 active torsions:
REMARK  status: ('A' for Active; 'I' for Inactive)
REMARK    1  A    between atoms: C1_1  and  C3_3 
REMARK    2  A    between atoms: C1_1  and  O11_11 
REMARK    3  A    between atoms: C4_4  and  C7_7 
REMARK    4  A    between atoms: C7_7  and  C8_8 
REMARK    5  A    between atoms: C9_9  and  O11_11 
ROOT
HETATM    1  C2  UNL     1     -35.848  16.410  -3.656  1.00 20.00     0.020 A 
HETATM    2  C3  UNL     1     -35.808  14.946  -3.307  1.00 20.00     0.090 A 
HETATM    3  C4  UNL     1     -34.701  15.871  -2.843  1.00 20.00    -0.000 A 
ENDROOT
BRANCH   2   4
HETATM    4  C1  UNL     1     -35.521  13.963  -4.359  1.00 20.00     0.263 C 
HETATM    5  O10 UNL     1     -35.022  12.865  -4.153  1.00 20.00    -0.265 OA
BRANCH   4   6
HETATM    6  O11 UNL     1     -35.894  14.470  -5.568  1.00 20.00    -0.322 OA
BRANCH   6   7
HETATM    7  C9  UNL     1     -34.968  14.250  -6.638  1.00 20.00     0.174 C 
HETATM    8  C6  UNL     1     -34.275  15.557  -6.965  1.00 20.00     0.034 C 
ENDBRANCH   6   7
ENDBRANCH   4   6
ENDBRANCH   2   4
BRANCH   3   9
HETATM    9  C7  UNL     1     -34.574  16.222  -1.401  1.00 20.00     0.005 C 
BRANCH   9  10
HETATM   10  C8  UNL     1     -33.684  17.455  -1.170  1.00 20.00    -0.004 C 
HETATM   11  C5  UNL     1     -33.928  18.107   0.181  1.00 20.00     0.005 C 
ENDBRANCH   9  10
ENDBRANCH   3   9
TORSDOF 5
ENDMDL
MODEL 9
REMARK VINA RESULT:      -4.2     10.883     12.789
REMARK  5 active torsions:
REMARK  status: ('A' for Active; 'I' for Inactive)
REMARK    1  A    between atoms: C1_1  and  C3_3 
REMARK    2  A    between atoms: C1_1  and  O11_11 
REMARK    3  A    between atoms: C4_4  and  C7_7 
REMARK    4  A    between atoms: C7_7  and  C8_8 
REMARK    5  A    between atoms: C9_9  and  O11_11 
ROOT
HETATM    1  C2  UNL     1     -35.231  14.499  -6.894  1.00 20.00     0.020 A 
HETATM    2  C3  UNL     1     -35.285  14.757  -5.411  1.00 20.00     0.090 A 
HETATM    3  C4  UNL     1     -34.238  15.441  -6.267  1.00 20.00    -0.000 A 
ENDROOT
BRANCH   2   4
HETATM    4  C1  UNL     1     -34.866  13.701  -4.482  1.00 20.00     0.263 C 
HETATM    5  O10 UNL     1     -34.809  12.513  -4.773  1.00 20.00    -0.265 OA
BRANCH   4   6
HETATM    6  O11 UNL     1     -34.560  14.253  -3.274  1.00 20.00    -0.322 OA
BRANCH   6   7
HETATM    7  C9  UNL     1     -35.301  15.428  -2.930  1.00 20.00     0.174 C 
HETATM    8  C6  UNL     1     -34.527  16.213  -1.892  1.00 20.00     0.034 C 
ENDBRANCH   6   7
ENDBRANCH   4   6
ENDBRANCH   2   4
BRANCH   3   9
HETATM    9  C7  UNL     1     -34.326  16.905  -6.528  1.00 20.00     0.005 C 
BRANCH   9  10
HETATM   10  C8  UNL     1     -33.537  17.736  -5.501  1.00 20.00    -0.004 C 
HETATM   11  C5  UNL     1     -34.416  18.719  -4.746  1.00 20.00     0.005 C 
ENDBRANCH   9  10
ENDBRANCH   3   9
TORSDOF 5
ENDMDL
