MODEL 1
REMARK VINA RESULT:      -4.8      0.000      0.000
REMARK  1 active torsions:
REMARK  status: ('A' for Active; 'I' for Inactive)
REMARK    1  A    between atoms: C1_1  and  C6_6 
ROOT
HETATM    1  C2  UNL     1     -35.139   4.392   6.218  1.00 20.00     0.001 C 
HETATM    2  C3  UNL     1     -34.229   5.570   6.514  1.00 20.00     0.001 C 
HETATM    3  C4  UNL     1     -34.857   4.105   4.750  1.00 20.00     0.018 C 
HETATM    4  C5  UNL     1     -34.300   6.439   5.258  1.00 20.00     0.018 C 
HETATM    5  C6  UNL     1     -34.717   5.497   4.111  1.00 20.00     0.032 C 
HETATM    6  C7  UNL     1     -36.050   5.944   3.566  1.00 20.00     0.025 C 
ENDROOT
BRANCH   5   7
HETATM    7  C1  UNL     1     -33.707   5.492   2.966  1.00 20.00     0.227 C 
HETATM    8  O8  UNL     1     -33.936   4.915   1.906  1.00 20.00    -0.279 OA
HETATM    9 CL9  UNL     1     -32.263   6.374   3.362  1.00 20.00    -0.043 Cl
ENDBRANCH   5   7
TORSDOF 1
ENDMDL
MODEL 2
REMARK VINA RESULT:      -4.4      2.058      3.213
REMARK  1 active torsions:
REMARK  status: ('A' for Active; 'I' for Inactive)
REMARK    1  A    between atoms: C1_1  and  C6_6 
ROOT
HETATM    1  C2  UNL     1     -32.842   7.188   3.343  1.00 20.00     0.001 C 
HETATM    2  C3  UNL     1     -32.402   5.844   2.793  1.00 20.00     0.001 C 
HETATM    3  C4  UNL     1     -33.740   6.802   4.509  1.00 20.00     0.018 C 
HETATM    4  C5  UNL     1     -33.646   4.960   2.892  1.00 20.00     0.018 C 
HETATM    5  C6  UNL     1     -34.523   5.582   3.996  1.00 20.00     0.032 C 
HETATM    6  C7  UNL     1     -35.830   6.032   3.392  1.00 20.00     0.025 C 
ENDROOT
BRANCH   5   7
HETATM    7  C1  UNL     1     -34.829   4.595   5.120  1.00 20.00     0.227 C 
HETATM    8  O8  UNL     1     -35.122   3.424   4.890  1.00 20.00    -0.279 OA
HETATM    9 CL9  UNL     1     -34.710   5.332   6.689  1.00 20.00    -0.043 Cl
ENDBRANCH   5   7
TORSDOF 1
ENDMDL
MODEL 3
REMARK VINA RESULT:      -4.3     11.871     12.952
REMARK  1 active torsions:
REMARK  status: ('A' for Active; 'I' for Inactive)
REMARK    1  A    between atoms: C1_1  and  C6_6 
ROOT
HETATM    1  C2  UNL     1     -33.413  16.825  -4.530  1.00 20.00     0.001 C 
HETATM    2  C3  UNL     1     -34.250  17.020  -3.279  1.00 20.00     0.001 C 
HETATM    3  C4  UNL     1     -33.974  15.537  -5.118  1.00 20.00     0.018 C 
HETATM    4  C5  UNL     1     -34.425  15.613  -2.709  1.00 20.00     0.018 C 
HETATM    5  C6  UNL     1     -34.237  14.645  -3.894  1.00 20.00     0.032 C 
HETATM    6  C7  UNL     1     -33.036  13.772  -3.631  1.00 20.00     0.025 C 
ENDROOT
BRANCH   5   7
HETATM    7  C1  UNL     1     -35.450  13.742  -4.105  1.00 20.00     0.227 C 
HETATM    8  O8  UNL     1     -35.328  12.553  -4.391  1.00 20.00    -0.279 OA
HETATM    9 CL9  UNL     1     -36.948  14.596  -3.893  1.00 20.00    -0.043 Cl
ENDBRANCH   5   7
TORSDOF 1
ENDMDL
MODEL 4
REMARK VINA RESULT:      -4.2     12.597     13.871
REMARK  1 active torsions:
REMARK  status: ('A' for Active; 'I' for Inactive)
REMARK    1  A    between atoms: C1_1  and  C6_6 
ROOT
HETATM    1  C2  UNL     1     -34.313  16.369  -7.016  1.00 20.00     0.001 C 
HETATM    2  C3  UNL     1     -34.665  15.097  -7.764  1.00 20.00     0.001 C 
HETATM    3  C4  UNL     1     -33.996  15.864  -5.616  1.00 20.00     0.018 C 
HETATM    4  C5  UNL     1     -35.462  14.265  -6.759  1.00 20.00     0.018 C 
HETATM    5  C6  UNL     1     -35.041  14.764  -5.363  1.00 20.00     0.032 C 
HETATM    6  C7  UNL     1     -36.242  15.353  -4.667  1.00 20.00     0.025 C 
ENDROOT
BRANCH   5   7
HETATM    7  C1  UNL     1     -34.480  13.644  -4.489  1.00 20.00     0.227 C 
HETATM    8  O8  UNL     1     -35.049  12.561  -4.385  1.00 20.00    -0.279 OA
HETATM    9 CL9  UNL     1     -33.000  14.104  -3.705  1.00 20.00    -0.043 Cl
ENDBRANCH   5   7
TORSDOF 1
ENDMDL
MODEL 5
REMARK VINA RESULT:      -4.2     12.174     13.135
REMARK  1 active torsions:
REMARK  status: ('A' for Active; 'I' for Inactive)
REMARK    1  A    between atoms: C1_1  and  C6_6 
ROOT
HETATM    1  C2  UNL     1     -33.677  17.143  -3.941  1.00 20.00     0.001 C 
HETATM    2  C3  UNL     1     -34.914  16.803  -3.131  1.00 20.00     0.001 C 
HETATM    3  C4  UNL     1     -33.585  15.987  -4.926  1.00 20.00     0.018 C 
HETATM    4  C5  UNL     1     -34.849  15.287  -2.944  1.00 20.00     0.018 C 
HETATM    5  C6  UNL     1     -33.980  14.752  -4.099  1.00 20.00     0.032 C 
HETATM    6  C7  UNL     1     -32.744  14.106  -3.526  1.00 20.00     0.025 C 
ENDROOT
BRANCH   5   7
HETATM    7  C1  UNL     1     -34.713  13.716  -4.948  1.00 20.00     0.227 C 
HETATM    8  O8  UNL     1     -35.012  12.611  -4.502  1.00 20.00    -0.279 OA
HETATM    9 CL9  UNL     1     -35.046  14.299  -6.550  1.00 20.00    -0.043 Cl
ENDBRANCH   5   7
TORSDOF 1
ENDMDL
MODEL 6
REMARK VINA RESULT:      -4.1      8.674      9.873
REMARK  1 active torsions:
REMARK  status: ('A' for Active; 'I' for Inactive)
REMARK    1  A    between atoms: C1_1  and  C6_6 
ROOT
HETATM    1  C2  UNL     1     -40.515   6.118  -0.099  1.00 20.00     0.001 C 
HETATM    2  C3  UNL     1     -41.213   7.185  -0.923  1.00 20.00     0.001 C 
HETATM    3  C4  UNL     1     -40.798   4.844  -0.881  1.00 20.00     0.018 C 
HETATM    4  C5  UNL     1     -42.509   6.525  -1.392  1.00 20.00     0.018 C 
HETATM    5  C6  UNL     1     -42.251   5.006  -1.357  1.00 20.00     0.032 C 
HETATM    6  C7  UNL     1     -43.187   4.369  -0.362  1.00 20.00     0.025 C 
ENDROOT
BRANCH   5   7
HETATM    7  C1  UNL     1     -42.475   4.347  -2.717  1.00 20.00     0.227 C 
HETATM    8  O8  UNL     1     -43.261   4.812  -3.538  1.00 20.00    -0.279 OA
HETATM    9 CL9  UNL     1     -41.508   2.918  -2.920  1.00 20.00    -0.043 Cl
ENDBRANCH   5   7
TORSDOF 1
ENDMDL
MODEL 7
REMARK VINA RESULT:      -4.1     12.212     13.067
REMARK  1 active torsions:
REMARK  status: ('A' for Active; 'I' for Inactive)
REMARK    1  A    between atoms: C1_1  and  C6_6 
ROOT
HETATM    1  C2  UNL     1     -33.861  16.178  -2.644  1.00 20.00     0.001 C 
HETATM    2  C3  UNL     1     -33.735  16.861  -3.993  1.00 20.00     0.001 C 
HETATM    3  C4  UNL     1     -34.203  14.744  -3.019  1.00 20.00     0.018 C 
HETATM    4  C5  UNL     1     -34.851  16.252  -4.840  1.00 20.00     0.018 C 
HETATM    5  C6  UNL     1     -35.168  14.882  -4.208  1.00 20.00     0.032 C 
HETATM    6  C7  UNL     1     -36.592  14.886  -3.712  1.00 20.00     0.025 C 
ENDROOT
BRANCH   5   7
HETATM    7  C1  UNL     1     -35.009  13.733  -5.200  1.00 20.00     0.227 C 
HETATM    8  O8  UNL     1     -34.761  12.589  -4.829  1.00 20.00    -0.279 OA
HETATM    9 CL9  UNL     1     -35.218  14.253  -6.845  1.00 20.00    -0.043 Cl
ENDBRANCH   5   7
TORSDOF 1
ENDMDL
MODEL 8
REMARK VINA RESULT:      -4.1     11.665     12.469
REMARK  1 active torsions:
REMARK  status: ('A' for Active; 'I' for Inactive)
REMARK    1  A    between atoms: C1_1  and  C6_6 
ROOT
HETATM    1  C2  UNL     1     -35.890  16.613  -2.418  1.00 20.00     0.001 C 
HETATM    2  C3  UNL     1     -34.510  16.507  -1.796  1.00 20.00     0.001 C 
HETATM    3  C4  UNL     1     -36.008  15.317  -3.207  1.00 20.00     0.018 C 
HETATM    4  C5  UNL     1     -33.642  15.876  -2.884  1.00 20.00     0.018 C 
HETATM    5  C6  UNL     1     -34.609  15.110  -3.809  1.00 20.00     0.032 C 
HETATM    6  C7  UNL     1     -34.553  15.717  -5.189  1.00 20.00     0.025 C 
ENDROOT
BRANCH   5   7
HETATM    7  C1  UNL     1     -34.256  13.629  -3.922  1.00 20.00     0.227 C 
HETATM    8  O8  UNL     1     -35.070  12.799  -4.319  1.00 20.00    -0.279 OA
HETATM    9 CL9  UNL     1     -32.620  13.306  -3.431  1.00 20.00    -0.043 Cl
ENDBRANCH   5   7
TORSDOF 1
ENDMDL
MODEL 9
REMARK VINA RESULT:      -4.1     12.665     13.417
REMARK  1 active torsions:
REMARK  status: ('A' for Active; 'I' for Inactive)
REMARK    1  A    between atoms: C1_1  and  C6_6 
ROOT
HETATM    1  C2  UNL     1     -34.746  16.770  -0.677  1.00 20.00     0.001 C 
HETATM    2  C3  UNL     1     -33.587  17.735  -0.839  1.00 20.00     0.001 C 
HETATM    3  C4  UNL     1     -34.643  15.902  -1.923  1.00 20.00     0.018 C 
HETATM    4  C5  UNL     1     -33.564  18.066  -2.331  1.00 20.00     0.018 C 
HETATM    5  C6  UNL     1     -34.257  16.886  -3.040  1.00 20.00     0.032 C 
HETATM    6  C7  UNL     1     -35.500  17.387  -3.730  1.00 20.00     0.025 C 
ENDROOT
BRANCH   5   7
HETATM    7  C1  UNL     1     -33.360  16.228  -4.086  1.00 20.00     0.227 C 
HETATM    8  O8  UNL     1     -32.987  16.832  -5.088  1.00 20.00    -0.279 OA
HETATM    9 CL9  UNL     1     -32.966  14.587  -3.672  1.00 20.00    -0.043 Cl
ENDBRANCH   5   7
TORSDOF 1
ENDMDL
