MODEL 1
REMARK VINA RESULT:      -5.3      0.000      0.000
REMARK  2 active torsions:
REMARK  status: ('A' for Active; 'I' for Inactive)
REMARK    1  A    between atoms: C1_1  and  C8_8 
REMARK    2  A    between atoms: C2_2  and  C9_9 
ROOT
HETATM    1  C3  UNL     1     -34.508   5.739   5.870  1.00 20.00     0.142 C 
HETATM    2  C4  UNL     1     -34.773   4.223   5.828  1.00 20.00     0.081 C 
HETATM    3  C5  UNL     1     -34.677   4.328   4.288  1.00 20.00     0.032 C 
HETATM    4  C8  UNL     1     -34.774   5.879   4.353  1.00 20.00     0.135 C 
HETATM    5  O10 UNL     1     -34.208   6.513   6.756  1.00 20.00    -0.297 OA
ENDROOT
BRANCH   4   6
HETATM    6  C1  UNL     1     -33.740   6.601   3.652  1.00 20.00    -0.094 C 
HETATM    7  C2  UNL     1     -32.880   7.202   3.068  1.00 20.00    -0.101 C 
BRANCH   7   8
HETATM    8  C9  UNL     1     -31.832   7.935   2.359  1.00 20.00     0.065 A 
HETATM    9  C6  UNL     1     -32.180   9.270   1.790  1.00 20.00     0.018 A 
HETATM   10  C7  UNL     1     -31.971   8.095   0.883  1.00 20.00     0.018 A 
ENDBRANCH   7   8
ENDBRANCH   4   6
TORSDOF 2
ENDMDL
MODEL 2
REMARK VINA RESULT:      -4.8     11.030     11.741
REMARK  2 active torsions:
REMARK  status: ('A' for Active; 'I' for Inactive)
REMARK    1  A    between atoms: C1_1  and  C8_8 
REMARK    2  A    between atoms: C2_2  and  C9_9 
ROOT
HETATM    1  C3  UNL     1     -35.844  14.158  -3.974  1.00 20.00     0.142 C 
HETATM    2  C4  UNL     1     -34.841  13.111  -4.493  1.00 20.00     0.081 C 
HETATM    3  C5  UNL     1     -33.721  14.039  -3.969  1.00 20.00     0.032 C 
HETATM    4  C8  UNL     1     -34.727  15.212  -3.792  1.00 20.00     0.135 C 
HETATM    5  O10 UNL     1     -37.043  14.148  -3.786  1.00 20.00    -0.297 OA
ENDROOT
BRANCH   4   6
HETATM    6  C1  UNL     1     -34.735  15.840  -2.494  1.00 20.00    -0.094 C 
HETATM    7  C2  UNL     1     -34.741  16.362  -1.412  1.00 20.00    -0.101 C 
BRANCH   7   8
HETATM    8  C9  UNL     1     -34.749  17.000  -0.097  1.00 20.00     0.065 A 
HETATM    9  C6  UNL     1     -35.282  18.390  -0.000  1.00 20.00     0.018 A 
HETATM   10  C7  UNL     1     -33.810  18.135   0.133  1.00 20.00     0.018 A 
ENDBRANCH   7   8
ENDBRANCH   4   6
TORSDOF 2
ENDMDL
MODEL 3
REMARK VINA RESULT:      -4.7     11.092     11.907
REMARK  2 active torsions:
REMARK  status: ('A' for Active; 'I' for Inactive)
REMARK    1  A    between atoms: C1_1  and  C8_8 
REMARK    2  A    between atoms: C2_2  and  C9_9 
ROOT
HETATM    1  C3  UNL     1     -34.251  13.717  -4.276  1.00 20.00     0.142 C 
HETATM    2  C4  UNL     1     -34.721  14.057  -5.702  1.00 20.00     0.081 C 
HETATM    3  C5  UNL     1     -35.618  15.143  -5.064  1.00 20.00     0.032 C 
HETATM    4  C8  UNL     1     -35.399  14.541  -3.646  1.00 20.00     0.135 C 
HETATM    5  O10 UNL     1     -33.334  13.058  -3.831  1.00 20.00    -0.297 OA
ENDROOT
BRANCH   4   6
HETATM    6  C1  UNL     1     -34.954  15.467  -2.634  1.00 20.00    -0.094 C 
HETATM    7  C2  UNL     1     -34.583  16.237  -1.791  1.00 20.00    -0.101 C 
BRANCH   7   8
HETATM    8  C9  UNL     1     -34.131  17.176  -0.765  1.00 20.00     0.065 A 
HETATM    9  C6  UNL     1     -34.988  17.354   0.443  1.00 20.00     0.018 A 
HETATM   10  C7  UNL     1     -34.903  18.440  -0.588  1.00 20.00     0.018 A 
ENDBRANCH   7   8
ENDBRANCH   4   6
TORSDOF 2
ENDMDL
MODEL 4
REMARK VINA RESULT:      -4.4     11.628     12.414
REMARK  2 active torsions:
REMARK  status: ('A' for Active; 'I' for Inactive)
REMARK    1  A    between atoms: C1_1  and  C8_8 
REMARK    2  A    between atoms: C2_2  and  C9_9 
ROOT
HETATM    1  C3  UNL     1     -32.326  18.958   0.681  1.00 20.00     0.142 C 
HETATM    2  C4  UNL     1     -32.548  18.880   2.203  1.00 20.00     0.081 C 
HETATM    3  C5  UNL     1     -33.939  18.282   1.890  1.00 20.00     0.032 C 
HETATM    4  C8  UNL     1     -33.826  18.706   0.398  1.00 20.00     0.135 C 
HETATM    5  O10 UNL     1     -31.350  19.145  -0.015  1.00 20.00    -0.297 OA
ENDROOT
BRANCH   4   6
HETATM    6  C1  UNL     1     -34.061  17.662  -0.569  1.00 20.00    -0.094 C 
HETATM    7  C2  UNL     1     -34.258  16.793  -1.374  1.00 20.00    -0.101 C 
BRANCH   7   8
HETATM    8  C9  UNL     1     -34.496  15.736  -2.356  1.00 20.00     0.065 A 
HETATM    9  C6  UNL     1     -33.460  15.517  -3.408  1.00 20.00     0.018 A 
HETATM   10  C7  UNL     1     -34.776  16.143  -3.763  1.00 20.00     0.018 A 
ENDBRANCH   7   8
ENDBRANCH   4   6
TORSDOF 2
ENDMDL
MODEL 5
REMARK VINA RESULT:      -4.4     10.953     12.000
REMARK  2 active torsions:
REMARK  status: ('A' for Active; 'I' for Inactive)
REMARK    1  A    between atoms: C1_1  and  C8_8 
REMARK    2  A    between atoms: C2_2  and  C9_9 
ROOT
HETATM    1  C3  UNL     1     -35.756  18.144  -0.490  1.00 20.00     0.142 C 
HETATM    2  C4  UNL     1     -34.764  19.125   0.163  1.00 20.00     0.081 C 
HETATM    3  C5  UNL     1     -33.677  18.045  -0.050  1.00 20.00     0.032 C 
HETATM    4  C8  UNL     1     -34.757  16.970  -0.362  1.00 20.00     0.135 C 
HETATM    5  O10 UNL     1     -36.881  18.259  -0.929  1.00 20.00    -0.297 OA
ENDROOT
BRANCH   4   6
HETATM    6  C1  UNL     1     -34.573  16.235  -1.589  1.00 20.00    -0.094 C 
HETATM    7  C2  UNL     1     -34.419  15.624  -2.611  1.00 20.00    -0.101 C 
BRANCH   7   8
HETATM    8  C9  UNL     1     -34.234  14.878  -3.855  1.00 20.00     0.065 A 
HETATM    9  C6  UNL     1     -34.864  13.530  -3.959  1.00 20.00     0.018 A 
HETATM   10  C7  UNL     1     -33.377  13.658  -3.815  1.00 20.00     0.018 A 
ENDBRANCH   7   8
ENDBRANCH   4   6
TORSDOF 2
ENDMDL
MODEL 6
REMARK VINA RESULT:      -4.3     10.445     11.602
REMARK  2 active torsions:
REMARK  status: ('A' for Active; 'I' for Inactive)
REMARK    1  A    between atoms: C1_1  and  C8_8 
REMARK    2  A    between atoms: C2_2  and  C9_9 
ROOT
HETATM    1  C3  UNL     1     -42.062   6.192  -2.216  1.00 20.00     0.142 C 
HETATM    2  C4  UNL     1     -41.076   6.826  -1.218  1.00 20.00     0.081 C 
HETATM    3  C5  UNL     1     -40.770   5.391  -0.729  1.00 20.00     0.032 C 
HETATM    4  C8  UNL     1     -42.013   4.833  -1.479  1.00 20.00     0.135 C 
HETATM    5  O10 UNL     1     -42.645   6.607  -3.196  1.00 20.00    -0.297 OA
ENDROOT
BRANCH   4   6
HETATM    6  C1  UNL     1     -41.765   3.713  -2.354  1.00 20.00    -0.094 C 
HETATM    7  C2  UNL     1     -41.559   2.780  -3.082  1.00 20.00    -0.101 C 
BRANCH   7   8
HETATM    8  C9  UNL     1     -41.309   1.645  -3.970  1.00 20.00     0.065 A 
HETATM    9  C6  UNL     1     -42.438   1.164  -4.818  1.00 20.00     0.018 A 
HETATM   10  C7  UNL     1     -41.973   0.350  -3.647  1.00 20.00     0.018 A 
ENDBRANCH   7   8
ENDBRANCH   4   6
TORSDOF 2
ENDMDL
MODEL 7
REMARK VINA RESULT:      -4.3      1.594      4.947
REMARK  2 active torsions:
REMARK  status: ('A' for Active; 'I' for Inactive)
REMARK    1  A    between atoms: C1_1  and  C8_8 
REMARK    2  A    between atoms: C2_2  and  C9_9 
ROOT
HETATM    1  C3  UNL     1     -31.471   7.872   3.309  1.00 20.00     0.142 C 
HETATM    2  C4  UNL     1     -31.665   8.853   2.138  1.00 20.00     0.081 C 
HETATM    3  C5  UNL     1     -32.742   7.880   1.604  1.00 20.00     0.032 C 
HETATM    4  C8  UNL     1     -32.269   6.765   2.581  1.00 20.00     0.135 C 
HETATM    5  O10 UNL     1     -30.907   7.949   4.381  1.00 20.00    -0.297 OA
ENDROOT
BRANCH   4   6
HETATM    6  C1  UNL     1     -33.299   6.169   3.396  1.00 20.00    -0.094 C 
HETATM    7  C2  UNL     1     -34.157   5.674   4.075  1.00 20.00    -0.101 C 
BRANCH   7   8
HETATM    8  C9  UNL     1     -35.201   5.068   4.900  1.00 20.00     0.065 A 
HETATM    9  C6  UNL     1     -35.024   5.101   6.381  1.00 20.00     0.018 A 
HETATM   10  C7  UNL     1     -34.869   3.812   5.632  1.00 20.00     0.018 A 
ENDBRANCH   7   8
ENDBRANCH   4   6
TORSDOF 2
ENDMDL
MODEL 8
REMARK VINA RESULT:      -4.3      2.042      5.220
REMARK  2 active torsions:
REMARK  status: ('A' for Active; 'I' for Inactive)
REMARK    1  A    between atoms: C1_1  and  C8_8 
REMARK    2  A    between atoms: C2_2  and  C9_9 
ROOT
HETATM    1  C3  UNL     1     -32.521   9.588   1.707  1.00 20.00     0.142 C 
HETATM    2  C4  UNL     1     -32.257   9.566   0.190  1.00 20.00     0.081 C 
HETATM    3  C5  UNL     1     -31.744   8.119   0.380  1.00 20.00     0.032 C 
HETATM    4  C8  UNL     1     -31.684   8.306   1.923  1.00 20.00     0.135 C 
HETATM    5  O10 UNL     1     -33.145  10.330   2.437  1.00 20.00    -0.297 OA
ENDROOT
BRANCH   4   6
HETATM    6  C1  UNL     1     -32.365   7.300   2.702  1.00 20.00    -0.094 C 
HETATM    7  C2  UNL     1     -32.931   6.463   3.350  1.00 20.00    -0.101 C 
BRANCH   7   8
HETATM    8  C9  UNL     1     -33.620   5.443   4.139  1.00 20.00     0.065 A 
HETATM    9  C6  UNL     1     -35.112   5.441   4.125  1.00 20.00     0.018 A 
HETATM   10  C7  UNL     1     -34.370   5.887   5.349  1.00 20.00     0.018 A 
ENDBRANCH   7   8
ENDBRANCH   4   6
TORSDOF 2
ENDMDL
MODEL 9
REMARK VINA RESULT:      -4.1     10.004     11.118
REMARK  2 active torsions:
REMARK  status: ('A' for Active; 'I' for Inactive)
REMARK    1  A    between atoms: C1_1  and  C8_8 
REMARK    2  A    between atoms: C2_2  and  C9_9 
ROOT
HETATM    1  C3  UNL     1     -42.166   6.052  -0.193  1.00 20.00     0.142 C 
HETATM    2  C4  UNL     1     -42.238   7.468  -0.793  1.00 20.00     0.081 C 
HETATM    3  C5  UNL     1     -41.542   6.887  -2.046  1.00 20.00     0.032 C 
HETATM    4  C8  UNL     1     -41.168   5.587  -1.279  1.00 20.00     0.135 C 
HETATM    5  O10 UNL     1     -42.692   5.520   0.763  1.00 20.00    -0.297 OA
ENDROOT
BRANCH   4   6
HETATM    6  C1  UNL     1     -41.548   4.351  -1.918  1.00 20.00    -0.094 C 
HETATM    7  C2  UNL     1     -41.865   3.323  -2.450  1.00 20.00    -0.101 C 
BRANCH   7   8
HETATM    8  C9  UNL     1     -42.249   2.069  -3.097  1.00 20.00     0.065 A 
HETATM    9  C6  UNL     1     -41.357   1.536  -4.168  1.00 20.00     0.018 A 
HETATM   10  C7  UNL     1     -42.690   2.126  -4.521  1.00 20.00     0.018 A 
ENDBRANCH   7   8
ENDBRANCH   4   6
TORSDOF 2
ENDMDL
