MODEL 1
REMARK VINA RESULT:      -5.1      0.000      0.000
REMARK  1 active torsions:
REMARK  status: ('A' for Active; 'I' for Inactive)
REMARK    1  A    between atoms: C9_9  and  O10_10 
ROOT
HETATM    1  C1  UNL     1     -34.618  16.637  -0.747  1.00 20.00     0.012 C 
HETATM    2  C2  UNL     1     -34.826  16.358  -1.896  1.00 20.00    -0.112 C 
HETATM    3  C3  UNL     1     -35.188  14.277  -5.658  1.00 20.00     0.007 C 
HETATM    4  C4  UNL     1     -34.074  15.320  -5.485  1.00 20.00     0.009 C 
HETATM    5  C5  UNL     1     -36.172  14.929  -3.446  1.00 20.00     0.024 C 
HETATM    6  C6  UNL     1     -35.080  16.015  -3.304  1.00 20.00     0.071 C 
HETATM    7  C7  UNL     1     -35.448  13.805  -4.213  1.00 20.00     0.016 C 
HETATM    8  C8  UNL     1     -33.853  15.337  -3.959  1.00 20.00     0.030 C 
HETATM    9  C9  UNL     1     -34.055  13.863  -3.583  1.00 20.00     0.127 C 
ENDROOT
BRANCH   9  10
HETATM   10  O10 UNL     1     -33.135  12.990  -4.202  1.00 20.00    -0.395 OA
HETATM   11  H22 UNL     1     -33.332  12.090  -3.886  1.00 20.00     0.210 HD
ENDBRANCH   9  10
TORSDOF 1
ENDMDL
MODEL 2
REMARK VINA RESULT:      -4.9      1.475      1.940
REMARK  1 active torsions:
REMARK  status: ('A' for Active; 'I' for Inactive)
REMARK    1  A    between atoms: C9_9  and  O10_10 
ROOT
HETATM    1  C1  UNL     1     -34.224  17.113  -0.830  1.00 20.00     0.012 C 
HETATM    2  C2  UNL     1     -34.048  16.520  -1.860  1.00 20.00    -0.112 C 
HETATM    3  C3  UNL     1     -34.618  14.335  -5.536  1.00 20.00     0.007 C 
HETATM    4  C4  UNL     1     -34.035  13.606  -4.316  1.00 20.00     0.009 C 
HETATM    5  C5  UNL     1     -34.472  16.526  -4.325  1.00 20.00     0.024 C 
HETATM    6  C6  UNL     1     -33.834  15.794  -3.121  1.00 20.00     0.071 C 
HETATM    7  C7  UNL     1     -35.441  15.474  -4.899  1.00 20.00     0.016 C 
HETATM    8  C8  UNL     1     -34.573  14.435  -3.131  1.00 20.00     0.030 C 
HETATM    9  C9  UNL     1     -35.974  14.829  -3.619  1.00 20.00     0.127 C 
ENDROOT
BRANCH   9  10
HETATM   10  O10 UNL     1     -36.818  13.725  -3.868  1.00 20.00    -0.395 OA
HETATM   11  H22 UNL     1     -36.285  13.052  -4.329  1.00 20.00     0.210 HD
ENDBRANCH   9  10
TORSDOF 1
ENDMDL
MODEL 3
REMARK VINA RESULT:      -4.6      1.705      2.394
REMARK  1 active torsions:
REMARK  status: ('A' for Active; 'I' for Inactive)
REMARK    1  A    between atoms: C9_9  and  O10_10 
ROOT
HETATM    1  C1  UNL     1     -34.624  16.974  -0.764  1.00 20.00     0.012 C 
HETATM    2  C2  UNL     1     -34.466  16.191  -1.661  1.00 20.00    -0.112 C 
HETATM    3  C3  UNL     1     -34.493  14.223  -5.501  1.00 20.00     0.007 C 
HETATM    4  C4  UNL     1     -35.379  13.673  -4.372  1.00 20.00     0.009 C 
HETATM    5  C5  UNL     1     -33.417  15.830  -3.903  1.00 20.00     0.024 C 
HETATM    6  C6  UNL     1     -34.273  15.234  -2.761  1.00 20.00     0.071 C 
HETATM    7  C7  UNL     1     -34.344  15.713  -5.129  1.00 20.00     0.016 C 
HETATM    8  C8  UNL     1     -35.605  14.910  -3.479  1.00 20.00     0.030 C 
HETATM    9  C9  UNL     1     -35.703  16.043  -4.509  1.00 20.00     0.127 C 
ENDROOT
BRANCH   9  10
HETATM   10  O10 UNL     1     -36.774  15.891  -5.417  1.00 20.00    -0.395 OA
HETATM   11  H22 UNL     1     -36.414  16.023  -6.312  1.00 20.00     0.210 HD
ENDBRANCH   9  10
TORSDOF 1
ENDMDL
MODEL 4
REMARK VINA RESULT:      -4.4      1.500      2.428
REMARK  1 active torsions:
REMARK  status: ('A' for Active; 'I' for Inactive)
REMARK    1  A    between atoms: C9_9  and  O10_10 
ROOT
HETATM    1  C1  UNL     1     -37.040  17.720  -3.098  1.00 20.00     0.012 C 
HETATM    2  C2  UNL     1     -36.382  16.716  -3.055  1.00 20.00    -0.112 C 
HETATM    3  C3  UNL     1     -33.430  13.658  -3.794  1.00 20.00     0.007 C 
HETATM    4  C4  UNL     1     -34.889  13.403  -4.202  1.00 20.00     0.009 C 
HETATM    5  C5  UNL     1     -34.101  15.779  -2.636  1.00 20.00     0.024 C 
HETATM    6  C6  UNL     1     -35.575  15.488  -3.002  1.00 20.00     0.071 C 
HETATM    7  C7  UNL     1     -33.324  15.196  -3.833  1.00 20.00     0.016 C 
HETATM    8  C8  UNL     1     -35.446  14.828  -4.396  1.00 20.00     0.030 C 
HETATM    9  C9  UNL     1     -34.243  15.569  -4.997  1.00 20.00     0.127 C 
ENDROOT
BRANCH   9  10
HETATM   10  O10 UNL     1     -33.811  15.038  -6.232  1.00 20.00    -0.395 OA
HETATM   11  H22 UNL     1     -33.580  14.104  -6.080  1.00 20.00     0.210 HD
ENDBRANCH   9  10
TORSDOF 1
ENDMDL
MODEL 5
REMARK VINA RESULT:      -4.4     10.865     12.222
REMARK  1 active torsions:
REMARK  status: ('A' for Active; 'I' for Inactive)
REMARK    1  A    between atoms: C9_9  and  O10_10 
ROOT
HETATM    1  C1  UNL     1     -42.655   8.035  -4.169  1.00 20.00     0.012 C 
HETATM    2  C2  UNL     1     -42.613   7.583  -3.057  1.00 20.00    -0.112 C 
HETATM    3  C3  UNL     1     -41.735   5.162   0.404  1.00 20.00     0.007 C 
HETATM    4  C4  UNL     1     -43.136   5.091  -0.221  1.00 20.00     0.009 C 
HETATM    5  C5  UNL     1     -41.131   7.068  -1.110  1.00 20.00     0.024 C 
HETATM    6  C6  UNL     1     -42.562   7.028  -1.696  1.00 20.00     0.071 C 
HETATM    7  C7  UNL     1     -40.847   5.589  -0.783  1.00 20.00     0.016 C 
HETATM    8  C8  UNL     1     -42.882   5.514  -1.683  1.00 20.00     0.030 C 
HETATM    9  C9  UNL     1     -41.510   4.888  -1.969  1.00 20.00     0.127 C 
ENDROOT
BRANCH   9  10
HETATM   10  O10 UNL     1     -41.496   3.480  -1.856  1.00 20.00    -0.395 OA
HETATM   11  H22 UNL     1     -40.613   3.178  -2.135  1.00 20.00     0.210 HD
ENDBRANCH   9  10
TORSDOF 1
ENDMDL
MODEL 6
REMARK VINA RESULT:      -4.4      1.498      3.484
REMARK  1 active torsions:
REMARK  status: ('A' for Active; 'I' for Inactive)
REMARK    1  A    between atoms: C9_9  and  O10_10 
ROOT
HETATM    1  C1  UNL     1     -34.850  16.385  -7.918  1.00 20.00     0.012 C 
HETATM    2  C2  UNL     1     -34.856  16.348  -6.717  1.00 20.00    -0.112 C 
HETATM    3  C3  UNL     1     -34.500  15.091  -2.606  1.00 20.00     0.007 C 
HETATM    4  C4  UNL     1     -35.899  15.291  -3.208  1.00 20.00     0.009 C 
HETATM    5  C5  UNL     1     -33.449  16.051  -4.671  1.00 20.00     0.024 C 
HETATM    6  C6  UNL     1     -34.862  16.302  -5.247  1.00 20.00     0.071 C 
HETATM    7  C7  UNL     1     -33.635  14.765  -3.841  1.00 20.00     0.016 C 
HETATM    8  C8  UNL     1     -35.657  15.084  -4.717  1.00 20.00     0.030 C 
HETATM    9  C9  UNL     1     -34.597  13.974  -4.728  1.00 20.00     0.127 C 
ENDROOT
BRANCH   9  10
HETATM   10  O10 UNL     1     -35.032  12.770  -4.131  1.00 20.00    -0.395 OA
HETATM   11  H22 UNL     1     -34.701  12.039  -4.681  1.00 20.00     0.210 HD
ENDBRANCH   9  10
TORSDOF 1
ENDMDL
MODEL 7
REMARK VINA RESULT:      -4.4      1.904      2.944
REMARK  1 active torsions:
REMARK  status: ('A' for Active; 'I' for Inactive)
REMARK    1  A    between atoms: C9_9  and  O10_10 
ROOT
HETATM    1  C1  UNL     1     -33.543  18.469  -5.299  1.00 20.00     0.012 C 
HETATM    2  C2  UNL     1     -33.602  17.276  -5.180  1.00 20.00    -0.112 C 
HETATM    3  C3  UNL     1     -34.971  13.234  -4.547  1.00 20.00     0.007 C 
HETATM    4  C4  UNL     1     -34.094  13.902  -3.478  1.00 20.00     0.009 C 
HETATM    5  C5  UNL     1     -34.601  15.173  -6.094  1.00 20.00     0.024 C 
HETATM    6  C6  UNL     1     -33.675  15.814  -5.034  1.00 20.00     0.071 C 
HETATM    7  C7  UNL     1     -35.649  14.434  -5.239  1.00 20.00     0.016 C 
HETATM    8  C8  UNL     1     -34.357  15.404  -3.707  1.00 20.00     0.030 C 
HETATM    9  C9  UNL     1     -35.844  15.421  -4.087  1.00 20.00     0.127 C 
ENDROOT
BRANCH   9  10
HETATM   10  O10 UNL     1     -36.692  14.924  -3.073  1.00 20.00    -0.395 OA
HETATM   11  H22 UNL     1     -36.899  13.999  -3.297  1.00 20.00     0.210 HD
ENDBRANCH   9  10
TORSDOF 1
ENDMDL
MODEL 8
REMARK VINA RESULT:      -4.3      1.790      3.746
REMARK  1 active torsions:
REMARK  status: ('A' for Active; 'I' for Inactive)
REMARK    1  A    between atoms: C9_9  and  O10_10 
ROOT
HETATM    1  C1  UNL     1     -34.632  14.840  -7.544  1.00 20.00     0.012 C 
HETATM    2  C2  UNL     1     -34.439  15.273  -6.440  1.00 20.00    -0.112 C 
HETATM    3  C3  UNL     1     -34.578  16.006  -2.190  1.00 20.00     0.007 C 
HETATM    4  C4  UNL     1     -35.173  17.048  -3.149  1.00 20.00     0.009 C 
HETATM    5  C5  UNL     1     -33.648  14.719  -4.133  1.00 20.00     0.024 C 
HETATM    6  C6  UNL     1     -34.203  15.802  -5.088  1.00 20.00     0.071 C 
HETATM    7  C7  UNL     1     -34.688  14.694  -2.994  1.00 20.00     0.016 C 
HETATM    8  C8  UNL     1     -35.525  16.209  -4.394  1.00 20.00     0.030 C 
HETATM    9  C9  UNL     1     -35.990  14.885  -3.774  1.00 20.00     0.127 C 
ENDROOT
BRANCH   9  10
HETATM   10  O10 UNL     1     -37.119  15.017  -2.937  1.00 20.00    -0.395 OA
HETATM   11  H22 UNL     1     -36.869  14.678  -2.059  1.00 20.00     0.210 HD
ENDBRANCH   9  10
TORSDOF 1
ENDMDL
MODEL 9
REMARK VINA RESULT:      -4.3      2.057      3.701
REMARK  1 active torsions:
REMARK  status: ('A' for Active; 'I' for Inactive)
REMARK    1  A    between atoms: C9_9  and  O10_10 
ROOT
HETATM    1  C1  UNL     1     -36.690  14.889  -7.771  1.00 20.00     0.012 C 
HETATM    2  C2  UNL     1     -35.774  14.766  -7.004  1.00 20.00    -0.112 C 
HETATM    3  C3  UNL     1     -33.381  14.264  -3.449  1.00 20.00     0.007 C 
HETATM    4  C4  UNL     1     -33.394  15.628  -4.156  1.00 20.00     0.009 C 
HETATM    5  C5  UNL     1     -34.693  13.252  -5.333  1.00 20.00     0.024 C 
HETATM    6  C6  UNL     1     -34.653  14.614  -6.064  1.00 20.00     0.071 C 
HETATM    7  C7  UNL     1     -34.743  13.657  -3.846  1.00 20.00     0.016 C 
HETATM    8  C8  UNL     1     -34.749  15.621  -4.893  1.00 20.00     0.030 C 
HETATM    9  C9  UNL     1     -35.656  14.883  -3.900  1.00 20.00     0.127 C 
ENDROOT
BRANCH   9  10
HETATM   10  O10 UNL     1     -35.779  15.533  -2.653  1.00 20.00    -0.395 OA
HETATM   11  H22 UNL     1     -36.564  16.107  -2.703  1.00 20.00     0.210 HD
ENDBRANCH   9  10
TORSDOF 1
ENDMDL
