MODEL 1
REMARK VINA RESULT:      -4.7      0.000      0.000
REMARK  2 active torsions:
REMARK  status: ('A' for Active; 'I' for Inactive)
REMARK    1  A    between atoms: C1_1  and  C2_2 
REMARK    2  A    between atoms: N7_7  and  O8_8 
ROOT
HETATM    1  C2  UNL     1     -33.619   5.562   3.933  1.00 20.00     0.115 A 
HETATM    2  C3  UNL     1     -34.330   5.538   5.286  1.00 20.00     0.033 A 
HETATM    3  C4  UNL     1     -35.014   6.064   4.068  1.00 20.00     0.260 A 
HETATM    4  C5  UNL     1     -33.940   6.525   6.354  1.00 20.00     0.022 C 
HETATM    5  C6  UNL     1     -34.761   4.198   5.817  1.00 20.00     0.022 C 
HETATM    6  F9  UNL     1     -36.056   5.373   3.488  1.00 20.00    -0.205 F 
HETATM    7  F10 UNL     1     -35.297   7.406   3.935  1.00 20.00    -0.205 F 
ENDROOT
BRANCH   1   8
HETATM    8  C1  UNL     1     -32.525   6.505   3.676  1.00 20.00     0.130 C 
HETATM    9  N7  UNL     1     -32.529   7.252   2.625  1.00 20.00    -0.152 NA
BRANCH   9  10
HETATM   10  O8  UNL     1     -31.379   8.045   2.638  1.00 20.00    -0.267 OA
HETATM   11  H19 UNL     1     -31.484   8.557   1.818  1.00 20.00     0.247 HD
ENDBRANCH   9  10
ENDBRANCH   1   8
TORSDOF 2
ENDMDL
MODEL 2
REMARK VINA RESULT:      -4.7     11.834     12.683
REMARK  2 active torsions:
REMARK  status: ('A' for Active; 'I' for Inactive)
REMARK    1  A    between atoms: C1_1  and  C2_2 
REMARK    2  A    between atoms: N7_7  and  O8_8 
ROOT
HETATM    1  C2  UNL     1     -35.970  14.227  -4.819  1.00 20.00     0.115 A 
HETATM    2  C3  UNL     1     -34.778  15.048  -5.314  1.00 20.00     0.033 A 
HETATM    3  C4  UNL     1     -34.579  13.856  -4.436  1.00 20.00     0.260 A 
HETATM    4  C5  UNL     1     -34.510  16.407  -4.724  1.00 20.00     0.022 C 
HETATM    5  C6  UNL     1     -34.410  14.925  -6.768  1.00 20.00     0.022 C 
HETATM    6  F9  UNL     1     -34.011  12.701  -4.929  1.00 20.00    -0.205 F 
HETATM    7  F10 UNL     1     -34.144  13.996  -3.136  1.00 20.00    -0.205 F 
ENDROOT
BRANCH   1   8
HETATM    8  C1  UNL     1     -36.886  14.768  -3.808  1.00 20.00     0.130 C 
HETATM    9  N7  UNL     1     -38.110  14.365  -3.743  1.00 20.00    -0.152 NA
BRANCH   9  10
HETATM   10  O8  UNL     1     -38.744  15.040  -2.698  1.00 20.00    -0.267 OA
HETATM   11  H19 UNL     1     -39.576  14.543  -2.619  1.00 20.00     0.247 HD
ENDBRANCH   9  10
ENDBRANCH   1   8
TORSDOF 2
ENDMDL
MODEL 3
REMARK VINA RESULT:      -4.5     11.441     12.479
REMARK  2 active torsions:
REMARK  status: ('A' for Active; 'I' for Inactive)
REMARK    1  A    between atoms: C1_1  and  C2_2 
REMARK    2  A    between atoms: N7_7  and  O8_8 
ROOT
HETATM    1  C2  UNL     1     -33.864  15.892  -3.009  1.00 20.00     0.115 A 
HETATM    2  C3  UNL     1     -34.578  17.244  -3.007  1.00 20.00     0.033 A 
HETATM    3  C4  UNL     1     -34.101  16.625  -1.735  1.00 20.00     0.260 A 
HETATM    4  C5  UNL     1     -36.064  17.305  -3.245  1.00 20.00     0.022 C 
HETATM    5  C6  UNL     1     -33.820  18.427  -3.545  1.00 20.00     0.022 C 
HETATM    6  F9  UNL     1     -33.041  17.164  -1.039  1.00 20.00    -0.205 F 
HETATM    7  F10 UNL     1     -34.993  16.144  -0.800  1.00 20.00    -0.205 F 
ENDROOT
BRANCH   1   8
HETATM    8  C1  UNL     1     -34.601  14.654  -3.288  1.00 20.00     0.130 C 
HETATM    9  N7  UNL     1     -33.996  13.618  -3.762  1.00 20.00    -0.152 NA
BRANCH   9  10
HETATM   10  O8  UNL     1     -34.932  12.594  -3.926  1.00 20.00    -0.267 OA
HETATM   11  H19 UNL     1     -34.421  11.814  -3.648  1.00 20.00     0.247 HD
ENDBRANCH   9  10
ENDBRANCH   1   8
TORSDOF 2
ENDMDL
MODEL 4
REMARK VINA RESULT:      -4.5     11.836     12.540
REMARK  2 active torsions:
REMARK  status: ('A' for Active; 'I' for Inactive)
REMARK    1  A    between atoms: C1_1  and  C2_2 
REMARK    2  A    between atoms: N7_7  and  O8_8 
ROOT
HETATM    1  C2  UNL     1     -35.576  15.309  -4.536  1.00 20.00     0.115 A 
HETATM    2  C3  UNL     1     -34.179  15.673  -4.032  1.00 20.00     0.033 A 
HETATM    3  C4  UNL     1     -34.544  14.255  -4.327  1.00 20.00     0.260 A 
HETATM    4  C5  UNL     1     -33.982  16.062  -2.591  1.00 20.00     0.022 C 
HETATM    5  C6  UNL     1     -33.260  16.381  -4.990  1.00 20.00     0.022 C 
HETATM    6  F9  UNL     1     -34.001  13.595  -5.408  1.00 20.00    -0.205 F 
HETATM    7  F10 UNL     1     -34.676  13.330  -3.315  1.00 20.00    -0.205 F 
ENDROOT
BRANCH   1   8
HETATM    8  C1  UNL     1     -36.738  15.380  -3.644  1.00 20.00     0.130 C 
HETATM    9  N7  UNL     1     -37.682  14.503  -3.717  1.00 20.00    -0.152 NA
BRANCH   9  10
HETATM   10  O8  UNL     1     -38.650  14.812  -2.759  1.00 20.00    -0.267 OA
HETATM   11  H19 UNL     1     -38.698  15.780  -2.832  1.00 20.00     0.247 HD
ENDBRANCH   9  10
ENDBRANCH   1   8
TORSDOF 2
ENDMDL
MODEL 5
REMARK VINA RESULT:      -4.4     11.615     12.382
REMARK  2 active torsions:
REMARK  status: ('A' for Active; 'I' for Inactive)
REMARK    1  A    between atoms: C1_1  and  C2_2 
REMARK    2  A    between atoms: N7_7  and  O8_8 
ROOT
HETATM    1  C2  UNL     1     -34.289  15.199  -3.174  1.00 20.00     0.115 A 
HETATM    2  C3  UNL     1     -33.950  15.371  -4.655  1.00 20.00     0.033 A 
HETATM    3  C4  UNL     1     -33.165  14.441  -3.790  1.00 20.00     0.260 A 
HETATM    4  C5  UNL     1     -33.274  16.632  -5.126  1.00 20.00     0.022 C 
HETATM    5  C6  UNL     1     -34.901  14.774  -5.656  1.00 20.00     0.022 C 
HETATM    6  F9  UNL     1     -33.258  13.076  -3.952  1.00 20.00    -0.205 F 
HETATM    7  F10 UNL     1     -31.858  14.718  -3.451  1.00 20.00    -0.205 F 
ENDROOT
BRANCH   1   8
HETATM    8  C1  UNL     1     -34.008  16.268  -2.210  1.00 20.00     0.130 C 
HETATM    9  N7  UNL     1     -34.647  16.334  -1.091  1.00 20.00    -0.152 NA
BRANCH   9  10
HETATM   10  O8  UNL     1     -34.178  17.439  -0.377  1.00 20.00    -0.267 OA
HETATM   11  H19 UNL     1     -34.546  18.177  -0.892  1.00 20.00     0.247 HD
ENDBRANCH   9  10
ENDBRANCH   1   8
TORSDOF 2
ENDMDL
MODEL 6
REMARK VINA RESULT:      -4.3      9.166      9.911
REMARK  2 active torsions:
REMARK  status: ('A' for Active; 'I' for Inactive)
REMARK    1  A    between atoms: C1_1  and  C2_2 
REMARK    2  A    between atoms: N7_7  and  O8_8 
ROOT
HETATM    1  C2  UNL     1     -41.671   5.988  -1.598  1.00 20.00     0.115 A 
HETATM    2  C3  UNL     1     -42.492   6.509  -0.418  1.00 20.00     0.033 A 
HETATM    3  C4  UNL     1     -41.022   6.754  -0.498  1.00 20.00     0.260 A 
HETATM    4  C5  UNL     1     -42.989   5.549   0.630  1.00 20.00     0.022 C 
HETATM    5  C6  UNL     1     -43.417   7.667  -0.677  1.00 20.00     0.022 C 
HETATM    6  F9  UNL     1     -40.526   8.018  -0.734  1.00 20.00    -0.205 F 
HETATM    7  F10 UNL     1     -40.150   6.136   0.372  1.00 20.00    -0.205 F 
ENDROOT
BRANCH   1   8
HETATM    8  C1  UNL     1     -41.400   4.554  -1.749  1.00 20.00     0.130 C 
HETATM    9  N7  UNL     1     -41.985   3.865  -2.669  1.00 20.00    -0.152 NA
BRANCH   9  10
HETATM   10  O8  UNL     1     -41.542   2.543  -2.582  1.00 20.00    -0.267 OA
HETATM   11  H19 UNL     1     -40.653   2.657  -2.207  1.00 20.00     0.247 HD
ENDBRANCH   9  10
ENDBRANCH   1   8
TORSDOF 2
ENDMDL
MODEL 7
REMARK VINA RESULT:      -4.3     12.085     13.054
REMARK  2 active torsions:
REMARK  status: ('A' for Active; 'I' for Inactive)
REMARK    1  A    between atoms: C1_1  and  C2_2 
REMARK    2  A    between atoms: N7_7  and  O8_8 
ROOT
HETATM    1  C2  UNL     1     -34.883  16.053  -4.288  1.00 20.00     0.115 A 
HETATM    2  C3  UNL     1     -34.313  17.023  -3.253  1.00 20.00     0.033 A 
HETATM    3  C4  UNL     1     -33.456  16.476  -4.346  1.00 20.00     0.260 A 
HETATM    4  C5  UNL     1     -34.049  16.548  -1.849  1.00 20.00     0.022 C 
HETATM    5  C6  UNL     1     -34.743  18.462  -3.344  1.00 20.00     0.022 C 
HETATM    6  F9  UNL     1     -33.015  17.284  -5.372  1.00 20.00    -0.205 F 
HETATM    7  F10 UNL     1     -32.444  15.581  -4.075  1.00 20.00    -0.205 F 
ENDROOT
BRANCH   1   8
HETATM    8  C1  UNL     1     -35.222  14.674  -3.919  1.00 20.00     0.130 C 
HETATM    9  N7  UNL     1     -34.958  13.693  -4.714  1.00 20.00    -0.152 NA
BRANCH   9  10
HETATM   10  O8  UNL     1     -35.383  12.506  -4.112  1.00 20.00    -0.267 OA
HETATM   11  H19 UNL     1     -35.820  12.055  -4.854  1.00 20.00     0.247 HD
ENDBRANCH   9  10
ENDBRANCH   1   8
TORSDOF 2
ENDMDL
MODEL 8
REMARK VINA RESULT:      -4.2     11.949     12.526
REMARK  2 active torsions:
REMARK  status: ('A' for Active; 'I' for Inactive)
REMARK    1  A    between atoms: C1_1  and  C2_2 
REMARK    2  A    between atoms: N7_7  and  O8_8 
ROOT
HETATM    1  C2  UNL     1     -33.810  15.961  -2.731  1.00 20.00     0.115 A 
HETATM    2  C3  UNL     1     -34.312  14.852  -3.656  1.00 20.00     0.033 A 
HETATM    3  C4  UNL     1     -33.859  16.165  -4.205  1.00 20.00     0.260 A 
HETATM    4  C5  UNL     1     -35.783  14.535  -3.715  1.00 20.00     0.022 C 
HETATM    5  C6  UNL     1     -33.418  13.657  -3.852  1.00 20.00     0.022 C 
HETATM    6  F9  UNL     1     -32.691  16.264  -4.929  1.00 20.00    -0.205 F 
HETATM    7  F10 UNL     1     -34.756  17.048  -4.766  1.00 20.00    -0.205 F 
ENDROOT
BRANCH   1   8
HETATM    8  C1  UNL     1     -34.739  16.691  -1.861  1.00 20.00     0.130 C 
HETATM    9  N7  UNL     1     -34.644  16.611  -0.577  1.00 20.00    -0.152 NA
BRANCH   9  10
HETATM   10  O8  UNL     1     -35.645  17.400  -0.007  1.00 20.00    -0.267 OA
HETATM   11  H19 UNL     1     -35.636  18.180  -0.589  1.00 20.00     0.247 HD
ENDBRANCH   9  10
ENDBRANCH   1   8
TORSDOF 2
ENDMDL
MODEL 9
REMARK VINA RESULT:      -4.2     11.924     12.548
REMARK  2 active torsions:
REMARK  status: ('A' for Active; 'I' for Inactive)
REMARK    1  A    between atoms: C1_1  and  C2_2 
REMARK    2  A    between atoms: N7_7  and  O8_8 
ROOT
HETATM    1  C2  UNL     1     -34.231  15.030  -4.979  1.00 20.00     0.115 A 
HETATM    2  C3  UNL     1     -34.624  15.232  -3.516  1.00 20.00     0.033 A 
HETATM    3  C4  UNL     1     -34.168  13.900  -4.012  1.00 20.00     0.260 A 
HETATM    4  C5  UNL     1     -36.076  15.385  -3.145  1.00 20.00     0.022 C 
HETATM    5  C6  UNL     1     -33.683  16.025  -2.650  1.00 20.00     0.022 C 
HETATM    6  F9  UNL     1     -32.948  13.383  -3.631  1.00 20.00    -0.205 F 
HETATM    7  F10 UNL     1     -35.043  12.840  -4.108  1.00 20.00    -0.205 F 
ENDROOT
BRANCH   1   8
HETATM    8  C1  UNL     1     -35.247  15.031  -6.037  1.00 20.00     0.130 C 
HETATM    9  N7  UNL     1     -35.110  14.293  -7.086  1.00 20.00    -0.152 NA
BRANCH   9  10
HETATM   10  O8  UNL     1     -36.216  14.490  -7.916  1.00 20.00    -0.267 OA
HETATM   11  H19 UNL     1     -36.250  13.648  -8.401  1.00 20.00     0.247 HD
ENDBRANCH   9  10
ENDBRANCH   1   8
TORSDOF 2
ENDMDL
