MODEL 1
REMARK VINA RESULT:      -4.7      0.000      0.000
REMARK  1 active torsions:
REMARK  status: ('A' for Active; 'I' for Inactive)
REMARK    1  A    between atoms: C7_7  and  N11_11 
ROOT
HETATM    1  C1  UNL     1     -33.667  15.939  -4.782  1.00 20.00     0.164 C 
HETATM    2  C2  UNL     1     -33.475  13.712  -3.770  1.00 20.00     0.013 C 
HETATM    3  C3  UNL     1     -34.720  15.568  -2.603  1.00 20.00     0.013 C 
HETATM    4  C4  UNL     1     -34.781  13.287  -4.463  1.00 20.00     0.008 C 
HETATM    5  C5  UNL     1     -36.011  15.103  -3.296  1.00 20.00     0.008 C 
HETATM    6  C6  UNL     1     -33.496  15.214  -3.455  1.00 20.00     0.058 C 
HETATM    7  C7  UNL     1     -34.912  15.531  -5.559  1.00 20.00     0.295 C 
HETATM    8  C8  UNL     1     -35.689  14.515  -4.685  1.00 20.00     0.026 C 
HETATM    9  O12 UNL     1     -32.867  16.781  -5.181  1.00 20.00    -0.295 OA
ENDROOT
BRANCH   7  10
HETATM   10  N11 UNL     1     -35.663  16.739  -5.869  1.00 20.00     0.092 N 
HETATM   11  C9  UNL     1     -37.092  16.440  -6.002  1.00 20.00     0.310 C 
HETATM   12  C10 UNL     1     -35.161  17.361  -7.096  1.00 20.00     0.310 C 
ENDBRANCH   7  10
TORSDOF 1
ENDMDL
MODEL 2
REMARK VINA RESULT:      -4.7      2.014      3.048
REMARK  1 active torsions:
REMARK  status: ('A' for Active; 'I' for Inactive)
REMARK    1  A    between atoms: C7_7  and  N11_11 
ROOT
HETATM    1  C1  UNL     1     -36.062  14.472  -4.055  1.00 20.00     0.164 C 
HETATM    2  C2  UNL     1     -33.777  13.595  -3.868  1.00 20.00     0.013 C 
HETATM    3  C3  UNL     1     -34.720  14.307  -6.095  1.00 20.00     0.013 C 
HETATM    4  C4  UNL     1     -33.250  15.024  -3.648  1.00 20.00     0.008 C 
HETATM    5  C5  UNL     1     -34.160  15.718  -5.853  1.00 20.00     0.008 C 
HETATM    6  C6  UNL     1     -35.024  13.614  -4.762  1.00 20.00     0.058 C 
HETATM    7  C7  UNL     1     -35.595  15.889  -3.748  1.00 20.00     0.295 C 
HETATM    8  C8  UNL     1     -34.174  16.045  -4.345  1.00 20.00     0.026 C 
HETATM    9  O12 UNL     1     -37.178  14.051  -3.762  1.00 20.00    -0.295 OA
ENDROOT
BRANCH   7  10
HETATM   10  N11 UNL     1     -36.573  16.814  -4.303  1.00 20.00     0.092 N 
HETATM   11  C9  UNL     1     -35.939  18.088  -4.654  1.00 20.00     0.310 C 
HETATM   12  C10 UNL     1     -37.668  17.038  -3.358  1.00 20.00     0.310 C 
ENDBRANCH   7  10
TORSDOF 1
ENDMDL
MODEL 3
REMARK VINA RESULT:      -4.6      1.798      2.701
REMARK  1 active torsions:
REMARK  status: ('A' for Active; 'I' for Inactive)
REMARK    1  A    between atoms: C7_7  and  N11_11 
ROOT
HETATM    1  C1  UNL     1     -34.791  14.021  -4.701  1.00 20.00     0.164 C 
HETATM    2  C2  UNL     1     -35.094  15.216  -2.579  1.00 20.00     0.013 C 
HETATM    3  C3  UNL     1     -32.870  15.219  -3.769  1.00 20.00     0.013 C 
HETATM    4  C4  UNL     1     -35.496  16.483  -3.354  1.00 20.00     0.008 C 
HETATM    5  C5  UNL     1     -33.296  16.497  -4.508  1.00 20.00     0.008 C 
HETATM    6  C6  UNL     1     -34.098  14.380  -3.395  1.00 20.00     0.058 C 
HETATM    7  C7  UNL     1     -35.272  15.223  -5.503  1.00 20.00     0.295 C 
HETATM    8  C8  UNL     1     -34.822  16.495  -4.742  1.00 20.00     0.026 C 
HETATM    9  O12 UNL     1     -34.941  12.859  -5.070  1.00 20.00    -0.295 OA
ENDROOT
BRANCH   7  10
HETATM   10  N11 UNL     1     -34.724  15.114  -6.847  1.00 20.00     0.092 N 
HETATM   11  C9  UNL     1     -34.504  16.443  -7.425  1.00 20.00     0.310 C 
HETATM   12  C10 UNL     1     -35.613  14.330  -7.707  1.00 20.00     0.310 C 
ENDBRANCH   7  10
TORSDOF 1
ENDMDL
MODEL 4
REMARK VINA RESULT:      -4.6      1.872      3.039
REMARK  1 active torsions:
REMARK  status: ('A' for Active; 'I' for Inactive)
REMARK    1  A    between atoms: C7_7  and  N11_11 
ROOT
HETATM    1  C1  UNL     1     -33.565  16.417  -3.799  1.00 20.00     0.164 C 
HETATM    2  C2  UNL     1     -33.597  17.579  -1.637  1.00 20.00     0.013 C 
HETATM    3  C3  UNL     1     -35.242  18.167  -3.455  1.00 20.00     0.013 C 
HETATM    4  C4  UNL     1     -34.588  16.535  -1.094  1.00 20.00     0.008 C 
HETATM    5  C5  UNL     1     -36.217  17.131  -2.872  1.00 20.00     0.008 C 
HETATM    6  C6  UNL     1     -33.793  17.773  -3.146  1.00 20.00     0.058 C 
HETATM    7  C7  UNL     1     -34.472  15.312  -3.273  1.00 20.00     0.295 C 
HETATM    8  C8  UNL     1     -35.436  15.957  -2.247  1.00 20.00     0.026 C 
HETATM    9  O12 UNL     1     -32.722  16.241  -4.675  1.00 20.00    -0.295 OA
ENDROOT
BRANCH   7  10
HETATM   10  N11 UNL     1     -35.143  14.703  -4.412  1.00 20.00     0.092 N 
HETATM   11  C9  UNL     1     -36.520  14.340  -4.068  1.00 20.00     0.310 C 
HETATM   12  C10 UNL     1     -34.410  13.523  -4.875  1.00 20.00     0.310 C 
ENDBRANCH   7  10
TORSDOF 1
ENDMDL
MODEL 5
REMARK VINA RESULT:      -4.5      1.459      2.335
REMARK  1 active torsions:
REMARK  status: ('A' for Active; 'I' for Inactive)
REMARK    1  A    between atoms: C7_7  and  N11_11 
ROOT
HETATM    1  C1  UNL     1     -34.429  15.012  -5.831  1.00 20.00     0.164 C 
HETATM    2  C2  UNL     1     -35.702  13.741  -4.161  1.00 20.00     0.013 C 
HETATM    3  C3  UNL     1     -33.254  14.245  -3.825  1.00 20.00     0.013 C 
HETATM    4  C4  UNL     1     -36.059  15.053  -3.440  1.00 20.00     0.008 C 
HETATM    5  C5  UNL     1     -33.647  15.536  -3.090  1.00 20.00     0.008 C 
HETATM    6  C6  UNL     1     -34.333  13.858  -4.844  1.00 20.00     0.058 C 
HETATM    7  C7  UNL     1     -34.835  16.338  -5.202  1.00 20.00     0.295 C 
HETATM    8  C8  UNL     1     -34.956  16.106  -3.676  1.00 20.00     0.026 C 
HETATM    9  O12 UNL     1     -34.195  14.875  -7.029  1.00 20.00    -0.295 OA
ENDROOT
BRANCH   7  10
HETATM   10  N11 UNL     1     -33.838  17.333  -5.571  1.00 20.00     0.092 N 
HETATM   11  C9  UNL     1     -33.677  18.325  -4.504  1.00 20.00     0.310 C 
HETATM   12  C10 UNL     1     -34.205  17.994  -6.825  1.00 20.00     0.310 C 
ENDBRANCH   7  10
TORSDOF 1
ENDMDL
MODEL 6
REMARK VINA RESULT:      -4.4      1.876      3.236
REMARK  1 active torsions:
REMARK  status: ('A' for Active; 'I' for Inactive)
REMARK    1  A    between atoms: C7_7  and  N11_11 
ROOT
HETATM    1  C1  UNL     1     -35.667  16.219  -4.671  1.00 20.00     0.164 C 
HETATM    2  C2  UNL     1     -34.962  14.034  -5.537  1.00 20.00     0.013 C 
HETATM    3  C3  UNL     1     -33.297  15.895  -5.190  1.00 20.00     0.013 C 
HETATM    4  C4  UNL     1     -34.703  13.550  -4.099  1.00 20.00     0.008 C 
HETATM    5  C5  UNL     1     -33.047  15.372  -3.766  1.00 20.00     0.008 C 
HETATM    6  C6  UNL     1     -34.717  15.544  -5.649  1.00 20.00     0.058 C 
HETATM    7  C7  UNL     1     -35.514  15.751  -3.230  1.00 20.00     0.295 C 
HETATM    8  C8  UNL     1     -34.336  14.745  -3.194  1.00 20.00     0.026 C 
HETATM    9  O12 UNL     1     -36.483  17.067  -5.023  1.00 20.00    -0.295 OA
ENDROOT
BRANCH   7  10
HETATM   10  N11 UNL     1     -35.311  16.927  -2.396  1.00 20.00     0.092 N 
HETATM   11  C9  UNL     1     -34.667  16.560  -1.132  1.00 20.00     0.310 C 
HETATM   12  C10 UNL     1     -36.583  17.604  -2.137  1.00 20.00     0.310 C 
ENDBRANCH   7  10
TORSDOF 1
ENDMDL
MODEL 7
REMARK VINA RESULT:      -4.4      1.981      3.428
REMARK  1 active torsions:
REMARK  status: ('A' for Active; 'I' for Inactive)
REMARK    1  A    between atoms: C7_7  and  N11_11 
ROOT
HETATM    1  C1  UNL     1     -35.901  15.162  -3.690  1.00 20.00     0.164 C 
HETATM    2  C2  UNL     1     -34.494  13.283  -4.407  1.00 20.00     0.013 C 
HETATM    3  C3  UNL     1     -34.757  15.336  -5.848  1.00 20.00     0.013 C 
HETATM    4  C4  UNL     1     -33.280  13.933  -3.721  1.00 20.00     0.008 C 
HETATM    5  C5  UNL     1     -33.527  15.946  -5.157  1.00 20.00     0.008 C 
HETATM    6  C6  UNL     1     -35.469  14.357  -4.907  1.00 20.00     0.058 C 
HETATM    7  C7  UNL     1     -34.748  15.793  -2.920  1.00 20.00     0.295 C 
HETATM    8  C8  UNL     1     -33.445  15.467  -3.692  1.00 20.00     0.026 C 
HETATM    9  O12 UNL     1     -37.079  15.288  -3.367  1.00 20.00    -0.295 OA
ENDROOT
BRANCH   7  10
HETATM   10  N11 UNL     1     -35.020  17.219  -2.796  1.00 20.00     0.092 N 
HETATM   11  C9  UNL     1     -33.776  17.990  -2.866  1.00 20.00     0.310 C 
HETATM   12  C10 UNL     1     -35.722  17.504  -1.543  1.00 20.00     0.310 C 
ENDBRANCH   7  10
TORSDOF 1
ENDMDL
MODEL 8
REMARK VINA RESULT:      -4.4      2.061      3.029
REMARK  1 active torsions:
REMARK  status: ('A' for Active; 'I' for Inactive)
REMARK    1  A    between atoms: C7_7  and  N11_11 
ROOT
HETATM    1  C1  UNL     1     -36.629  14.555  -4.170  1.00 20.00     0.164 C 
HETATM    2  C2  UNL     1     -34.378  14.875  -3.245  1.00 20.00     0.013 C 
HETATM    3  C3  UNL     1     -34.760  13.409  -5.261  1.00 20.00     0.013 C 
HETATM    4  C4  UNL     1     -34.170  16.082  -4.176  1.00 20.00     0.008 C 
HETATM    5  C5  UNL     1     -34.525  14.632  -6.162  1.00 20.00     0.008 C 
HETATM    6  C6  UNL     1     -35.310  13.846  -3.898  1.00 20.00     0.058 C 
HETATM    7  C7  UNL     1     -36.500  15.797  -5.041  1.00 20.00     0.295 C 
HETATM    8  C8  UNL     1     -35.013  15.915  -5.458  1.00 20.00     0.026 C 
HETATM    9  O12 UNL     1     -37.699  14.151  -3.724  1.00 20.00    -0.295 OA
ENDROOT
BRANCH   7  10
HETATM   10  N11 UNL     1     -37.418  15.656  -6.163  1.00 20.00     0.092 N 
HETATM   11  C9  UNL     1     -36.930  16.400  -7.327  1.00 20.00     0.310 C 
HETATM   12  C10 UNL     1     -38.759  16.116  -5.794  1.00 20.00     0.310 C 
ENDBRANCH   7  10
TORSDOF 1
ENDMDL
MODEL 9
REMARK VINA RESULT:      -4.3      1.710      2.826
REMARK  1 active torsions:
REMARK  status: ('A' for Active; 'I' for Inactive)
REMARK    1  A    between atoms: C7_7  and  N11_11 
ROOT
HETATM    1  C1  UNL     1     -35.555  14.713  -4.032  1.00 20.00     0.164 C 
HETATM    2  C2  UNL     1     -34.710  16.037  -2.146  1.00 20.00     0.013 C 
HETATM    3  C3  UNL     1     -33.130  14.927  -3.768  1.00 20.00     0.013 C 
HETATM    4  C4  UNL     1     -34.715  17.296  -3.030  1.00 20.00     0.008 C 
HETATM    5  C5  UNL     1     -33.141  16.209  -4.616  1.00 20.00     0.008 C 
HETATM    6  C6  UNL     1     -34.446  14.785  -2.993  1.00 20.00     0.058 C 
HETATM    7  C7  UNL     1     -35.663  15.950  -4.914  1.00 20.00     0.295 C 
HETATM    8  C8  UNL     1     -34.514  16.907  -4.510  1.00 20.00     0.026 C 
HETATM    9  O12 UNL     1     -36.291  13.737  -4.144  1.00 20.00    -0.295 OA
ENDROOT
BRANCH   7  10
HETATM   10  N11 UNL     1     -35.610  15.517  -6.303  1.00 20.00     0.092 N 
HETATM   11  C9  UNL     1     -34.967  16.535  -7.138  1.00 20.00     0.310 C 
HETATM   12  C10 UNL     1     -36.955  15.226  -6.806  1.00 20.00     0.310 C 
ENDBRANCH   7  10
TORSDOF 1
ENDMDL
