MODEL 1
REMARK VINA RESULT:      -4.6      0.000      0.000
REMARK  1 active torsions:
REMARK  status: ('A' for Active; 'I' for Inactive)
REMARK    1  A    between atoms: C3_3  and  C6_6 
ROOT
HETATM    1  C1  UNL     1     -34.526   4.555   6.128  1.00 20.00    -0.003 C 
HETATM    2  C2  UNL     1     -34.077   5.797   6.338  1.00 20.00     0.131 C 
HETATM    3  C4  UNL     1     -35.148   4.155   4.831  1.00 20.00     0.032 C 
HETATM    4  C5  UNL     1     -35.525   5.386   4.009  1.00 20.00     0.045 C 
HETATM    5  C6  UNL     1     -34.460   6.479   4.097  1.00 20.00     0.214 C 
HETATM    6  O8  UNL     1     -34.076   6.819   5.428  1.00 20.00    -0.349 OA
ENDROOT
BRANCH   5   7
HETATM    7  C3  UNL     1     -33.229   6.110   3.320  1.00 20.00     0.248 C 
HETATM    8  O7  UNL     1     -33.233   5.196   2.501  1.00 20.00    -0.277 OA
HETATM    9 CL9  UNL     1     -31.872   7.115   3.730  1.00 20.00    -0.041 Cl
ENDBRANCH   5   7
TORSDOF 1
ENDMDL
MODEL 2
REMARK VINA RESULT:      -4.0     12.289     13.413
REMARK  1 active torsions:
REMARK  status: ('A' for Active; 'I' for Inactive)
REMARK    1  A    between atoms: C3_3  and  C6_6 
ROOT
HETATM    1  C1  UNL     1     -33.264  16.564  -4.568  1.00 20.00    -0.003 C 
HETATM    2  C2  UNL     1     -34.426  16.789  -5.190  1.00 20.00     0.131 C 
HETATM    3  C4  UNL     1     -33.104  15.453  -3.584  1.00 20.00     0.032 C 
HETATM    4  C5  UNL     1     -34.466  14.922  -3.141  1.00 20.00     0.045 C 
HETATM    5  C6  UNL     1     -35.454  14.841  -4.305  1.00 20.00     0.214 C 
HETATM    6  O8  UNL     1     -35.568  16.044  -5.063  1.00 20.00    -0.349 OA
ENDROOT
BRANCH   5   7
HETATM    7  C3  UNL     1     -35.113  13.715  -5.237  1.00 20.00     0.248 C 
HETATM    8  O7  UNL     1     -34.734  12.625  -4.820  1.00 20.00    -0.277 OA
HETATM    9 CL9  UNL     1     -35.325  14.159  -6.903  1.00 20.00    -0.041 Cl
ENDBRANCH   5   7
TORSDOF 1
ENDMDL
MODEL 3
REMARK VINA RESULT:      -4.0     12.023     12.924
REMARK  1 active torsions:
REMARK  status: ('A' for Active; 'I' for Inactive)
REMARK    1  A    between atoms: C3_3  and  C6_6 
ROOT
HETATM    1  C1  UNL     1     -34.394  13.329  -4.835  1.00 20.00    -0.003 C 
HETATM    2  C2  UNL     1     -35.091  14.258  -5.498  1.00 20.00     0.131 C 
HETATM    3  C4  UNL     1     -33.474  13.690  -3.717  1.00 20.00     0.032 C 
HETATM    4  C5  UNL     1     -33.173  15.187  -3.724  1.00 20.00     0.045 C 
HETATM    5  C6  UNL     1     -34.414  16.017  -4.054  1.00 20.00     0.214 C 
HETATM    6  O8  UNL     1     -35.101  15.602  -5.233  1.00 20.00    -0.349 OA
ENDROOT
BRANCH   5   7
HETATM    7  C3  UNL     1     -35.386  16.030  -2.910  1.00 20.00     0.248 C 
HETATM    8  O7  UNL     1     -36.592  15.888  -3.086  1.00 20.00    -0.277 OA
HETATM    9 CL9  UNL     1     -34.593  16.261  -1.382  1.00 20.00    -0.041 Cl
ENDBRANCH   5   7
TORSDOF 1
ENDMDL
MODEL 4
REMARK VINA RESULT:      -3.9     12.269     12.991
REMARK  1 active torsions:
REMARK  status: ('A' for Active; 'I' for Inactive)
REMARK    1  A    between atoms: C3_3  and  C6_6 
ROOT
HETATM    1  C1  UNL     1     -35.342  13.799  -4.200  1.00 20.00    -0.003 C 
HETATM    2  C2  UNL     1     -34.019  13.609  -4.221  1.00 20.00     0.131 C 
HETATM    3  C4  UNL     1     -35.957  14.954  -3.481  1.00 20.00     0.032 C 
HETATM    4  C5  UNL     1     -34.953  15.590  -2.521  1.00 20.00     0.045 C 
HETATM    5  C6  UNL     1     -33.551  15.663  -3.126  1.00 20.00     0.214 C 
HETATM    6  O8  UNL     1     -33.077  14.427  -3.657  1.00 20.00    -0.349 OA
ENDROOT
BRANCH   5   7
HETATM    7  C3  UNL     1     -33.470  16.711  -4.198  1.00 20.00     0.248 C 
HETATM    8  O7  UNL     1     -32.849  16.521  -5.240  1.00 20.00    -0.277 OA
HETATM    9 CL9  UNL     1     -34.338  18.153  -3.769  1.00 20.00    -0.041 Cl
ENDBRANCH   5   7
TORSDOF 1
ENDMDL
MODEL 5
REMARK VINA RESULT:      -3.9     12.473     13.375
REMARK  1 active torsions:
REMARK  status: ('A' for Active; 'I' for Inactive)
REMARK    1  A    between atoms: C3_3  and  C6_6 
ROOT
HETATM    1  C1  UNL     1     -34.879  13.970  -5.649  1.00 20.00    -0.003 C 
HETATM    2  C2  UNL     1     -34.361  15.088  -6.169  1.00 20.00     0.131 C 
HETATM    3  C4  UNL     1     -34.577  13.544  -4.251  1.00 20.00     0.032 C 
HETATM    4  C5  UNL     1     -33.371  14.304  -3.702  1.00 20.00     0.045 C 
HETATM    5  C6  UNL     1     -33.385  15.775  -4.118  1.00 20.00     0.214 C 
HETATM    6  O8  UNL     1     -33.560  15.987  -5.517  1.00 20.00    -0.349 OA
ENDROOT
BRANCH   5   7
HETATM    7  C3  UNL     1     -34.439  16.545  -3.377  1.00 20.00     0.248 C 
HETATM    8  O7  UNL     1     -35.134  17.388  -3.936  1.00 20.00    -0.277 OA
HETATM    9 CL9  UNL     1     -34.527  16.090  -1.703  1.00 20.00    -0.041 Cl
ENDBRANCH   5   7
TORSDOF 1
ENDMDL
MODEL 6
REMARK VINA RESULT:      -3.9     11.969     13.097
REMARK  1 active torsions:
REMARK  status: ('A' for Active; 'I' for Inactive)
REMARK    1  A    between atoms: C3_3  and  C6_6 
ROOT
HETATM    1  C1  UNL     1     -33.213  14.792  -3.788  1.00 20.00    -0.003 C 
HETATM    2  C2  UNL     1     -33.716  13.557  -3.695  1.00 20.00     0.131 C 
HETATM    3  C4  UNL     1     -33.639  15.733  -4.866  1.00 20.00     0.032 C 
HETATM    4  C5  UNL     1     -34.368  14.984  -5.980  1.00 20.00     0.045 C 
HETATM    5  C6  UNL     1     -35.298  13.904  -5.429  1.00 20.00     0.214 C 
HETATM    6  O8  UNL     1     -34.680  13.015  -4.501  1.00 20.00    -0.349 OA
ENDROOT
BRANCH   5   7
HETATM    7  C3  UNL     1     -36.515  14.503  -4.786  1.00 20.00     0.248 C 
HETATM    8  O7  UNL     1     -37.039  13.996  -3.799  1.00 20.00    -0.277 OA
HETATM    9 CL9  UNL     1     -37.042  15.945  -5.601  1.00 20.00    -0.041 Cl
ENDBRANCH   5   7
TORSDOF 1
ENDMDL
MODEL 7
REMARK VINA RESULT:      -3.8     12.233     13.248
REMARK  1 active torsions:
REMARK  status: ('A' for Active; 'I' for Inactive)
REMARK    1  A    between atoms: C3_3  and  C6_6 
ROOT
HETATM    1  C1  UNL     1     -34.023  15.944  -6.114  1.00 20.00    -0.003 C 
HETATM    2  C2  UNL     1     -33.210  16.364  -5.139  1.00 20.00     0.131 C 
HETATM    3  C4  UNL     1     -34.818  14.687  -5.983  1.00 20.00     0.032 C 
HETATM    4  C5  UNL     1     -34.288  13.828  -4.836  1.00 20.00     0.045 C 
HETATM    5  C6  UNL     1     -33.899  14.673  -3.623  1.00 20.00     0.214 C 
HETATM    6  O8  UNL     1     -33.030  15.764  -3.922  1.00 20.00    -0.349 OA
ENDROOT
BRANCH   5   7
HETATM    7  C3  UNL     1     -35.111  15.203  -2.912  1.00 20.00     0.248 C 
HETATM    8  O7  UNL     1     -36.248  14.925  -3.280  1.00 20.00    -0.277 OA
HETATM    9 CL9  UNL     1     -34.687  16.211  -1.562  1.00 20.00    -0.041 Cl
ENDBRANCH   5   7
TORSDOF 1
ENDMDL
MODEL 8
REMARK VINA RESULT:      -3.8     12.350     13.619
REMARK  1 active torsions:
REMARK  status: ('A' for Active; 'I' for Inactive)
REMARK    1  A    between atoms: C3_3  and  C6_6 
ROOT
HETATM    1  C1  UNL     1     -34.597  15.835  -6.994  1.00 20.00    -0.003 C 
HETATM    2  C2  UNL     1     -35.731  15.158  -6.784  1.00 20.00     0.131 C 
HETATM    3  C4  UNL     1     -33.687  16.207  -5.870  1.00 20.00     0.032 C 
HETATM    4  C5  UNL     1     -34.399  16.062  -4.527  1.00 20.00     0.045 C 
HETATM    5  C6  UNL     1     -35.281  14.814  -4.480  1.00 20.00     0.214 C 
HETATM    6  O8  UNL     1     -36.180  14.689  -5.580  1.00 20.00    -0.349 OA
ENDROOT
BRANCH   5   7
HETATM    7  C3  UNL     1     -34.456  13.563  -4.386  1.00 20.00     0.248 C 
HETATM    8  O7  UNL     1     -34.852  12.494  -4.840  1.00 20.00    -0.277 OA
HETATM    9 CL9  UNL     1     -32.940  13.838  -3.584  1.00 20.00    -0.041 Cl
ENDBRANCH   5   7
TORSDOF 1
ENDMDL
MODEL 9
REMARK VINA RESULT:      -3.8      9.577     10.507
REMARK  1 active torsions:
REMARK  status: ('A' for Active; 'I' for Inactive)
REMARK    1  A    between atoms: C3_3  and  C6_6 
ROOT
HETATM    1  C1  UNL     1     -41.144   7.256  -0.794  1.00 20.00    -0.003 C 
HETATM    2  C2  UNL     1     -42.425   7.502  -1.091  1.00 20.00     0.131 C 
HETATM    3  C4  UNL     1     -40.657   5.873  -0.514  1.00 20.00     0.032 C 
HETATM    4  C5  UNL     1     -41.828   4.931  -0.243  1.00 20.00     0.045 C 
HETATM    5  C6  UNL     1     -43.007   5.202  -1.177  1.00 20.00     0.214 C 
HETATM    6  O8  UNL     1     -43.417   6.568  -1.222  1.00 20.00    -0.349 OA
ENDROOT
BRANCH   5   7
HETATM    7  C3  UNL     1     -42.719   4.738  -2.575  1.00 20.00     0.248 C 
HETATM    8  O7  UNL     1     -43.185   5.312  -3.554  1.00 20.00    -0.277 OA
HETATM    9 CL9  UNL     1     -41.681   3.345  -2.600  1.00 20.00    -0.041 Cl
ENDBRANCH   5   7
TORSDOF 1
ENDMDL
