MODEL 1
REMARK VINA RESULT:      -5.0      0.000      0.000
REMARK  1 active torsions:
REMARK  status: ('A' for Active; 'I' for Inactive)
REMARK    1  A    between atoms: C2_2  and  C3_3 
ROOT
HETATM    1  C1  UNL     1     -33.786   6.186   4.963  1.00 20.00    -0.043 C 
HETATM    2  C2  UNL     1     -32.696   6.789   4.486  1.00 20.00     0.055 C 
HETATM    3  C4  UNL     1     -34.359   6.034   6.353  1.00 20.00     0.040 C 
HETATM    4  C5  UNL     1     -35.147   4.863   5.734  1.00 20.00     0.046 C 
HETATM    5  C6  UNL     1     -34.911   5.408   4.303  1.00 20.00     0.199 C 
HETATM    6  F9  UNL     1     -34.609   4.471   3.374  1.00 20.00    -0.245 F 
ENDROOT
BRANCH   2   7
HETATM    7  C3  UNL     1     -32.389   6.768   3.029  1.00 20.00     0.145 C 
HETATM    8  C7  UNL     1     -32.304   8.102   2.335  1.00 20.00     0.096 C 
HETATM    9  O8  UNL     1     -32.188   5.721   2.419  1.00 20.00    -0.294 OA
ENDBRANCH   2   7
TORSDOF 1
ENDMDL
MODEL 2
REMARK VINA RESULT:      -4.8      1.692      1.964
REMARK  1 active torsions:
REMARK  status: ('A' for Active; 'I' for Inactive)
REMARK    1  A    between atoms: C2_2  and  C3_3 
ROOT
HETATM    1  C1  UNL     1     -33.970   5.597   4.285  1.00 20.00    -0.043 C 
HETATM    2  C2  UNL     1     -33.464   6.081   3.149  1.00 20.00     0.055 C 
HETATM    3  C4  UNL     1     -35.045   4.579   4.587  1.00 20.00     0.040 C 
HETATM    4  C5  UNL     1     -35.068   5.242   5.977  1.00 20.00     0.046 C 
HETATM    5  C6  UNL     1     -33.667   5.863   5.749  1.00 20.00     0.199 C 
HETATM    6  F9  UNL     1     -33.529   7.142   6.172  1.00 20.00    -0.245 F 
ENDROOT
BRANCH   2   7
HETATM    7  C3  UNL     1     -32.382   7.104   3.171  1.00 20.00     0.145 C 
HETATM    8  C7  UNL     1     -32.452   8.187   2.127  1.00 20.00     0.096 C 
HETATM    9  O8  UNL     1     -31.486   7.088   4.011  1.00 20.00    -0.294 OA
ENDBRANCH   2   7
TORSDOF 1
ENDMDL
MODEL 3
REMARK VINA RESULT:      -4.7      1.680      3.629
REMARK  1 active torsions:
REMARK  status: ('A' for Active; 'I' for Inactive)
REMARK    1  A    between atoms: C2_2  and  C3_3 
ROOT
HETATM    1  C1  UNL     1     -33.075   6.509   4.185  1.00 20.00    -0.043 C 
HETATM    2  C2  UNL     1     -33.970   6.282   5.148  1.00 20.00     0.055 C 
HETATM    3  C4  UNL     1     -31.991   7.547   4.005  1.00 20.00     0.040 C 
HETATM    4  C5  UNL     1     -32.070   7.148   2.518  1.00 20.00     0.046 C 
HETATM    5  C6  UNL     1     -32.767   5.811   2.872  1.00 20.00     0.199 C 
HETATM    6  F9  UNL     1     -33.789   5.461   2.055  1.00 20.00    -0.245 F 
ENDROOT
BRANCH   2   7
HETATM    7  C3  UNL     1     -34.934   5.152   5.042  1.00 20.00     0.145 C 
HETATM    8  C7  UNL     1     -34.737   4.001   5.993  1.00 20.00     0.096 C 
HETATM    9  O8  UNL     1     -35.863   5.160   4.238  1.00 20.00    -0.294 OA
ENDBRANCH   2   7
TORSDOF 1
ENDMDL
MODEL 4
REMARK VINA RESULT:      -4.7     11.927     12.311
REMARK  1 active torsions:
REMARK  status: ('A' for Active; 'I' for Inactive)
REMARK    1  A    between atoms: C2_2  and  C3_3 
ROOT
HETATM    1  C1  UNL     1     -34.766  15.248  -3.074  1.00 20.00    -0.043 C 
HETATM    2  C2  UNL     1     -35.595  14.468  -3.768  1.00 20.00     0.055 C 
HETATM    3  C4  UNL     1     -34.951  16.141  -1.869  1.00 20.00     0.040 C 
HETATM    4  C5  UNL     1     -33.640  16.797  -2.344  1.00 20.00     0.046 C 
HETATM    5  C6  UNL     1     -33.284  15.557  -3.203  1.00 20.00     0.199 C 
HETATM    6  F9  UNL     1     -32.771  15.833  -4.425  1.00 20.00    -0.245 F 
ENDROOT
BRANCH   2   7
HETATM    7  C3  UNL     1     -35.108  13.688  -4.939  1.00 20.00     0.145 C 
HETATM    8  C7  UNL     1     -35.141  14.380  -6.277  1.00 20.00     0.096 C 
HETATM    9  O8  UNL     1     -34.674  12.544  -4.827  1.00 20.00    -0.294 OA
ENDBRANCH   2   7
TORSDOF 1
ENDMDL
MODEL 5
REMARK VINA RESULT:      -4.6     11.768     12.070
REMARK  1 active torsions:
REMARK  status: ('A' for Active; 'I' for Inactive)
REMARK    1  A    between atoms: C2_2  and  C3_3 
ROOT
HETATM    1  C1  UNL     1     -34.232  15.474  -3.155  1.00 20.00    -0.043 C 
HETATM    2  C2  UNL     1     -33.675  14.528  -3.912  1.00 20.00     0.055 C 
HETATM    3  C4  UNL     1     -33.675  16.453  -2.147  1.00 20.00     0.040 C 
HETATM    4  C5  UNL     1     -35.134  16.546  -1.660  1.00 20.00     0.046 C 
HETATM    5  C6  UNL     1     -35.660  15.966  -2.997  1.00 20.00     0.199 C 
HETATM    6  F9  UNL     1     -36.661  15.062  -2.878  1.00 20.00    -0.245 F 
ENDROOT
BRANCH   2   7
HETATM    7  C3  UNL     1     -34.504  13.702  -4.833  1.00 20.00     0.145 C 
HETATM    8  C7  UNL     1     -34.779  14.277  -6.198  1.00 20.00     0.096 C 
HETATM    9  O8  UNL     1     -34.926  12.593  -4.514  1.00 20.00    -0.294 OA
ENDBRANCH   2   7
TORSDOF 1
ENDMDL
MODEL 6
REMARK VINA RESULT:      -4.4     11.555     13.043
REMARK  1 active torsions:
REMARK  status: ('A' for Active; 'I' for Inactive)
REMARK    1  A    between atoms: C2_2  and  C3_3 
ROOT
HETATM    1  C1  UNL     1     -33.796  16.270  -3.711  1.00 20.00    -0.043 C 
HETATM    2  C2  UNL     1     -34.195  15.179  -3.055  1.00 20.00     0.055 C 
HETATM    3  C4  UNL     1     -33.783  17.740  -3.359  1.00 20.00     0.040 C 
HETATM    4  C5  UNL     1     -33.663  17.945  -4.882  1.00 20.00     0.046 C 
HETATM    5  C6  UNL     1     -33.180  16.486  -5.081  1.00 20.00     0.199 C 
HETATM    6  F9  UNL     1     -33.709  15.847  -6.152  1.00 20.00    -0.245 F 
ENDROOT
BRANCH   2   7
HETATM    7  C3  UNL     1     -34.079  13.831  -3.677  1.00 20.00     0.145 C 
HETATM    8  C7  UNL     1     -35.287  13.320  -4.418  1.00 20.00     0.096 C 
HETATM    9  O8  UNL     1     -33.045  13.170  -3.616  1.00 20.00    -0.294 OA
ENDBRANCH   2   7
TORSDOF 1
ENDMDL
MODEL 7
REMARK VINA RESULT:      -4.2     11.493     12.401
REMARK  1 active torsions:
REMARK  status: ('A' for Active; 'I' for Inactive)
REMARK    1  A    between atoms: C2_2  and  C3_3 
ROOT
HETATM    1  C1  UNL     1     -35.129  15.003  -3.511  1.00 20.00    -0.043 C 
HETATM    2  C2  UNL     1     -36.288  15.650  -3.642  1.00 20.00     0.055 C 
HETATM    3  C4  UNL     1     -33.793  15.386  -2.917  1.00 20.00     0.040 C 
HETATM    4  C5  UNL     1     -33.255  14.216  -3.763  1.00 20.00     0.046 C 
HETATM    5  C6  UNL     1     -34.673  13.607  -3.897  1.00 20.00     0.199 C 
HETATM    6  F9  UNL     1     -34.980  13.129  -5.126  1.00 20.00    -0.245 F 
ENDROOT
BRANCH   2   7
HETATM    7  C3  UNL     1     -37.458  14.994  -4.288  1.00 20.00     0.145 C 
HETATM    8  C7  UNL     1     -37.696  15.310  -5.741  1.00 20.00     0.096 C 
HETATM    9  O8  UNL     1     -38.186  14.212  -3.681  1.00 20.00    -0.294 OA
ENDBRANCH   2   7
TORSDOF 1
ENDMDL
MODEL 8
REMARK VINA RESULT:      -4.2     11.684     13.394
REMARK  1 active torsions:
REMARK  status: ('A' for Active; 'I' for Inactive)
REMARK    1  A    between atoms: C2_2  and  C3_3 
ROOT
HETATM    1  C1  UNL     1     -34.933  14.413  -6.132  1.00 20.00    -0.043 C 
HETATM    2  C2  UNL     1     -34.799  13.486  -5.183  1.00 20.00     0.055 C 
HETATM    3  C4  UNL     1     -35.606  14.418  -7.485  1.00 20.00     0.040 C 
HETATM    4  C5  UNL     1     -34.705  15.639  -7.758  1.00 20.00     0.046 C 
HETATM    5  C6  UNL     1     -34.472  15.856  -6.241  1.00 20.00     0.199 C 
HETATM    6  F9  UNL     1     -33.202  16.171  -5.894  1.00 20.00    -0.245 F 
ENDROOT
BRANCH   2   7
HETATM    7  C3  UNL     1     -34.063  13.784  -3.924  1.00 20.00     0.145 C 
HETATM    8  C7  UNL     1     -34.668  14.820  -3.013  1.00 20.00     0.096 C 
HETATM    9  O8  UNL     1     -33.025  13.201  -3.621  1.00 20.00    -0.294 OA
ENDBRANCH   2   7
TORSDOF 1
ENDMDL
MODEL 9
REMARK VINA RESULT:      -4.1     11.877     12.328
REMARK  1 active torsions:
REMARK  status: ('A' for Active; 'I' for Inactive)
REMARK    1  A    between atoms: C2_2  and  C3_3 
ROOT
HETATM    1  C1  UNL     1     -34.242  14.832  -3.363  1.00 20.00    -0.043 C 
HETATM    2  C2  UNL     1     -33.640  15.833  -2.719  1.00 20.00     0.055 C 
HETATM    3  C4  UNL     1     -33.727  13.590  -4.053  1.00 20.00     0.040 C 
HETATM    4  C5  UNL     1     -35.101  13.595  -4.752  1.00 20.00     0.046 C 
HETATM    5  C6  UNL     1     -35.698  14.519  -3.660  1.00 20.00     0.199 C 
HETATM    6  F9  UNL     1     -36.505  15.504  -4.118  1.00 20.00    -0.245 F 
ENDROOT
BRANCH   2   7
HETATM    7  C3  UNL     1     -34.434  16.946  -2.128  1.00 20.00     0.145 C 
HETATM    8  C7  UNL     1     -34.713  16.869  -0.650  1.00 20.00     0.096 C 
HETATM    9  O8  UNL     1     -34.825  17.897  -2.800  1.00 20.00    -0.294 OA
ENDBRANCH   2   7
TORSDOF 1
ENDMDL
