MODEL 1
REMARK VINA RESULT:      -5.1      0.000      0.000
REMARK  1 active torsions:
REMARK  status: ('A' for Active; 'I' for Inactive)
REMARK    1  A    between atoms: C7_7  and  C11_11 
ROOT
HETATM    1  C1  UNL     1     -33.888  15.992  -5.914  1.00 20.00    -0.023 C 
HETATM    2  C2  UNL     1     -33.490  16.565  -4.767  1.00 20.00     0.007 C 
HETATM    3  C3  UNL     1     -35.125  15.160  -3.497  1.00 20.00     0.050 C 
HETATM    4  C4  UNL     1     -33.406  13.638  -3.911  1.00 20.00     0.174 C 
HETATM    5  C5  UNL     1     -34.619  14.663  -5.920  1.00 20.00     0.010 C 
HETATM    6  C6  UNL     1     -34.764  14.063  -4.489  1.00 20.00     0.020 C 
HETATM    7  C7  UNL     1     -33.781  15.888  -3.446  1.00 20.00     0.082 C 
HETATM    8  C8  UNL     1     -35.987  14.830  -6.586  1.00 20.00     0.015 C 
HETATM    9  O12 UNL     1     -32.818  14.818  -3.315  1.00 20.00    -0.375 OA
ENDROOT
BRANCH   7  10
HETATM   10  C11 UNL     1     -33.668  16.837  -2.264  1.00 20.00     0.016 C 
HETATM   11  C9  UNL     1     -33.889  18.285  -2.706  1.00 20.00     0.013 C 
HETATM   12  C10 UNL     1     -34.662  16.459  -1.166  1.00 20.00     0.013 C 
ENDBRANCH   7  10
TORSDOF 1
ENDMDL
MODEL 2
REMARK VINA RESULT:      -5.1      1.237      3.865
REMARK  1 active torsions:
REMARK  status: ('A' for Active; 'I' for Inactive)
REMARK    1  A    between atoms: C7_7  and  C11_11 
ROOT
HETATM    1  C1  UNL     1     -35.889  15.640  -3.449  1.00 20.00    -0.023 C 
HETATM    2  C2  UNL     1     -35.770  15.443  -4.772  1.00 20.00     0.007 C 
HETATM    3  C3  UNL     1     -33.313  15.891  -4.617  1.00 20.00     0.050 C 
HETATM    4  C4  UNL     1     -33.454  13.709  -3.804  1.00 20.00     0.174 C 
HETATM    5  C5  UNL     1     -34.689  15.554  -2.527  1.00 20.00     0.010 C 
HETATM    6  C6  UNL     1     -33.388  15.154  -3.288  1.00 20.00     0.020 C 
HETATM    7  C7  UNL     1     -34.414  15.141  -5.369  1.00 20.00     0.082 C 
HETATM    8  C8  UNL     1     -34.507  16.884  -1.792  1.00 20.00     0.015 C 
HETATM    9  O12 UNL     1     -34.139  13.752  -5.077  1.00 20.00    -0.375 OA
ENDROOT
BRANCH   7  10
HETATM   10  C11 UNL     1     -34.368  15.375  -6.870  1.00 20.00     0.016 C 
HETATM   11  C9  UNL     1     -35.420  14.524  -7.585  1.00 20.00     0.013 C 
HETATM   12  C10 UNL     1     -34.572  16.855  -7.197  1.00 20.00     0.013 C 
ENDBRANCH   7  10
TORSDOF 1
ENDMDL
MODEL 3
REMARK VINA RESULT:      -4.9      1.455      2.280
REMARK  1 active torsions:
REMARK  status: ('A' for Active; 'I' for Inactive)
REMARK    1  A    between atoms: C7_7  and  C11_11 
ROOT
HETATM    1  C1  UNL     1     -35.933  15.093  -3.607  1.00 20.00    -0.023 C 
HETATM    2  C2  UNL     1     -35.534  15.963  -2.666  1.00 20.00     0.007 C 
HETATM    3  C3  UNL     1     -33.147  15.542  -3.289  1.00 20.00     0.050 C 
HETATM    4  C4  UNL     1     -33.847  16.959  -5.003  1.00 20.00     0.174 C 
HETATM    5  C5  UNL     1     -35.022  14.698  -4.754  1.00 20.00     0.010 C 
HETATM    6  C6  UNL     1     -33.664  15.462  -4.718  1.00 20.00     0.020 C 
HETATM    7  C7  UNL     1     -34.145  16.558  -2.730  1.00 20.00     0.082 C 
HETATM    8  C8  UNL     1     -34.800  13.184  -4.737  1.00 20.00     0.015 C 
HETATM    9  O12 UNL     1     -34.188  17.586  -3.745  1.00 20.00    -0.375 OA
ENDROOT
BRANCH   7  10
HETATM   10  C11 UNL     1     -33.701  17.154  -1.405  1.00 20.00     0.016 C 
HETATM   11  C9  UNL     1     -33.406  18.649  -1.553  1.00 20.00     0.013 C 
HETATM   12  C10 UNL     1     -34.757  16.926  -0.323  1.00 20.00     0.013 C 
ENDBRANCH   7  10
TORSDOF 1
ENDMDL
MODEL 4
REMARK VINA RESULT:      -4.8      1.384      2.009
REMARK  1 active torsions:
REMARK  status: ('A' for Active; 'I' for Inactive)
REMARK    1  A    between atoms: C7_7  and  C11_11 
ROOT
HETATM    1  C1  UNL     1     -34.213  13.868  -4.727  1.00 20.00    -0.023 C 
HETATM    2  C2  UNL     1     -33.924  14.509  -3.583  1.00 20.00     0.007 C 
HETATM    3  C3  UNL     1     -34.937  16.604  -4.500  1.00 20.00     0.050 C 
HETATM    4  C4  UNL     1     -36.830  15.375  -3.911  1.00 20.00     0.174 C 
HETATM    5  C5  UNL     1     -35.262  14.399  -5.685  1.00 20.00     0.010 C 
HETATM    6  C6  UNL     1     -35.963  15.681  -5.140  1.00 20.00     0.020 C 
HETATM    7  C7  UNL     1     -34.641  15.794  -3.236  1.00 20.00     0.082 C 
HETATM    8  C8  UNL     1     -34.626  14.661  -7.052  1.00 20.00     0.015 C 
HETATM    9  O12 UNL     1     -35.953  15.414  -2.761  1.00 20.00    -0.375 OA
ENDROOT
BRANCH   7  10
HETATM   10  C11 UNL     1     -33.917  16.602  -2.173  1.00 20.00     0.016 C 
HETATM   11  C9  UNL     1     -33.733  18.053  -2.623  1.00 20.00     0.013 C 
HETATM   12  C10 UNL     1     -34.670  16.550  -0.843  1.00 20.00     0.013 C 
ENDBRANCH   7  10
TORSDOF 1
ENDMDL
MODEL 5
REMARK VINA RESULT:      -4.7      1.330      4.124
REMARK  1 active torsions:
REMARK  status: ('A' for Active; 'I' for Inactive)
REMARK    1  A    between atoms: C7_7  and  C11_11 
ROOT
HETATM    1  C1  UNL     1     -34.156  14.451  -3.256  1.00 20.00    -0.023 C 
HETATM    2  C2  UNL     1     -34.695  14.142  -4.446  1.00 20.00     0.007 C 
HETATM    3  C3  UNL     1     -35.564  16.478  -4.659  1.00 20.00     0.050 C 
HETATM    4  C4  UNL     1     -33.312  16.755  -5.195  1.00 20.00     0.174 C 
HETATM    5  C5  UNL     1     -33.897  15.891  -2.857  1.00 20.00     0.010 C 
HETATM    6  C6  UNL     1     -34.260  16.892  -3.995  1.00 20.00     0.020 C 
HETATM    7  C7  UNL     1     -35.068  15.243  -5.413  1.00 20.00     0.082 C 
HETATM    8  C8  UNL     1     -34.666  16.217  -1.574  1.00 20.00     0.015 C 
HETATM    9  O12 UNL     1     -33.835  15.688  -6.020  1.00 20.00    -0.375 OA
ENDROOT
BRANCH   7  10
HETATM   10  C11 UNL     1     -36.038  14.777  -6.486  1.00 20.00     0.016 C 
HETATM   11  C9  UNL     1     -37.218  15.744  -6.610  1.00 20.00     0.013 C 
HETATM   12  C10 UNL     1     -35.329  14.628  -7.833  1.00 20.00     0.013 C 
ENDBRANCH   7  10
TORSDOF 1
ENDMDL
MODEL 6
REMARK VINA RESULT:      -4.6      1.573      4.112
REMARK  1 active torsions:
REMARK  status: ('A' for Active; 'I' for Inactive)
REMARK    1  A    between atoms: C7_7  and  C11_11 
ROOT
HETATM    1  C1  UNL     1     -33.719  17.211  -3.014  1.00 20.00    -0.023 C 
HETATM    2  C2  UNL     1     -33.608  16.455  -4.119  1.00 20.00     0.007 C 
HETATM    3  C3  UNL     1     -35.461  14.987  -3.300  1.00 20.00     0.050 C 
HETATM    4  C4  UNL     1     -36.634  16.842  -4.088  1.00 20.00     0.174 C 
HETATM    5  C5  UNL     1     -34.976  17.190  -2.167  1.00 20.00     0.010 C 
HETATM    6  C6  UNL     1     -36.081  16.272  -2.774  1.00 20.00     0.020 C 
HETATM    7  C7  UNL     1     -34.748  15.551  -4.531  1.00 20.00     0.082 C 
HETATM    8  C8  UNL     1     -34.629  16.760  -0.740  1.00 20.00     0.015 C 
HETATM    9  O12 UNL     1     -35.745  16.402  -5.141  1.00 20.00    -0.375 OA
ENDROOT
BRANCH   7  10
HETATM   10  C11 UNL     1     -34.316  14.472  -5.510  1.00 20.00     0.016 C 
HETATM   11  C9  UNL     1     -34.642  13.080  -4.963  1.00 20.00     0.013 C 
HETATM   12  C10 UNL     1     -34.979  14.676  -6.872  1.00 20.00     0.013 C 
ENDBRANCH   7  10
TORSDOF 1
ENDMDL
MODEL 7
REMARK VINA RESULT:      -4.5      1.407      4.017
REMARK  1 active torsions:
REMARK  status: ('A' for Active; 'I' for Inactive)
REMARK    1  A    between atoms: C7_7  and  C11_11 
ROOT
HETATM    1  C1  UNL     1     -34.324  16.381  -1.995  1.00 20.00    -0.023 C 
HETATM    2  C2  UNL     1     -34.034  15.407  -2.872  1.00 20.00     0.007 C 
HETATM    3  C3  UNL     1     -35.492  16.510  -4.580  1.00 20.00     0.050 C 
HETATM    4  C4  UNL     1     -33.574  17.833  -4.663  1.00 20.00     0.174 C 
HETATM    5  C5  UNL     1     -34.867  17.721  -2.455  1.00 20.00     0.010 C 
HETATM    6  C6  UNL     1     -34.962  17.816  -4.008  1.00 20.00     0.020 C 
HETATM    7  C7  UNL     1     -34.262  15.631  -4.350  1.00 20.00     0.082 C 
HETATM    8  C8  UNL     1     -36.228  17.975  -1.805  1.00 20.00     0.015 C 
HETATM    9  O12 UNL     1     -33.166  16.453  -4.812  1.00 20.00    -0.375 OA
ENDROOT
BRANCH   7  10
HETATM   10  C11 UNL     1     -34.306  14.334  -5.140  1.00 20.00     0.016 C 
HETATM   11  C9  UNL     1     -35.058  13.250  -4.364  1.00 20.00     0.013 C 
HETATM   12  C10 UNL     1     -34.952  14.551  -6.509  1.00 20.00     0.013 C 
ENDBRANCH   7  10
TORSDOF 1
ENDMDL
MODEL 8
REMARK VINA RESULT:      -4.3      1.885      3.073
REMARK  1 active torsions:
REMARK  status: ('A' for Active; 'I' for Inactive)
REMARK    1  A    between atoms: C7_7  and  C11_11 
ROOT
HETATM    1  C1  UNL     1     -34.528  15.169  -7.179  1.00 20.00    -0.023 C 
HETATM    2  C2  UNL     1     -34.413  14.568  -5.984  1.00 20.00     0.007 C 
HETATM    3  C3  UNL     1     -35.244  16.643  -4.861  1.00 20.00     0.050 C 
HETATM    4  C4  UNL     1     -37.221  15.721  -5.687  1.00 20.00     0.174 C 
HETATM    5  C5  UNL     1     -35.408  16.389  -7.367  1.00 20.00     0.010 C 
HETATM    6  C6  UNL     1     -36.169  16.774  -6.062  1.00 20.00     0.020 C 
HETATM    7  C7  UNL     1     -35.159  15.118  -4.789  1.00 20.00     0.082 C 
HETATM    8  C8  UNL     1     -34.563  17.560  -7.875  1.00 20.00     0.015 C 
HETATM    9  O12 UNL     1     -36.533  14.694  -4.936  1.00 20.00    -0.375 OA
ENDROOT
BRANCH   7  10
HETATM   10  C11 UNL     1     -34.600  14.619  -3.468  1.00 20.00     0.016 C 
HETATM   11  C9  UNL     1     -33.199  14.031  -3.657  1.00 20.00     0.013 C 
HETATM   12  C10 UNL     1     -34.569  15.742  -2.430  1.00 20.00     0.013 C 
ENDBRANCH   7  10
TORSDOF 1
ENDMDL
MODEL 9
REMARK VINA RESULT:      -4.2      1.610      3.836
REMARK  1 active torsions:
REMARK  status: ('A' for Active; 'I' for Inactive)
REMARK    1  A    between atoms: C7_7  and  C11_11 
ROOT
HETATM    1  C1  UNL     1     -35.982  17.025  -2.296  1.00 20.00    -0.023 C 
HETATM    2  C2  UNL     1     -36.085  17.104  -3.633  1.00 20.00     0.007 C 
HETATM    3  C3  UNL     1     -33.617  16.749  -3.845  1.00 20.00     0.050 C 
HETATM    4  C4  UNL     1     -34.377  14.586  -3.420  1.00 20.00     0.174 C 
HETATM    5  C5  UNL     1     -34.780  16.378  -1.635  1.00 20.00     0.010 C 
HETATM    6  C6  UNL     1     -33.780  15.789  -2.676  1.00 20.00     0.020 C 
HETATM    7  C7  UNL     1     -34.982  16.553  -4.508  1.00 20.00     0.082 C 
HETATM    8  C8  UNL     1     -34.087  17.391  -0.721  1.00 20.00     0.015 C 
HETATM    9  O12 UNL     1     -35.150  15.117  -4.521  1.00 20.00    -0.375 OA
ENDROOT
BRANCH   7  10
HETATM   10  C11 UNL     1     -35.033  17.095  -5.926  1.00 20.00     0.016 C 
HETATM   11  C9  UNL     1     -34.377  18.476  -6.005  1.00 20.00     0.013 C 
HETATM   12  C10 UNL     1     -34.359  16.130  -6.903  1.00 20.00     0.013 C 
ENDBRANCH   7  10
TORSDOF 1
ENDMDL
