MODEL 1
REMARK VINA RESULT:      -3.6      0.000      0.000
REMARK  2 active torsions:
REMARK  status: ('A' for Active; 'I' for Inactive)
REMARK    1  A    between atoms: C1_1  and  C4_4 
REMARK    2  A    between atoms: C1_1  and  C5_5 
ROOT
HETATM    1  C1  UNL     1     -34.934  13.983  -4.726  1.00 20.00     0.163 C 
HETATM    2  O6  UNL     1     -34.951  12.764  -4.541  1.00 20.00    -0.295 OA
ENDROOT
BRANCH   1   3
HETATM    3  C4  UNL     1     -35.860  14.650  -5.728  1.00 20.00     0.194 C 
HETATM    4 CL7  UNL     1     -35.340  14.298  -7.385  1.00 20.00    -0.122 Cl
ENDBRANCH   1   3
BRANCH   1   5
HETATM    5  C5  UNL     1     -33.954  14.882  -3.955  1.00 20.00     0.091 C 
HETATM    6  C2  UNL     1     -34.614  15.453  -2.697  1.00 20.00     0.041 C 
HETATM    7  C3  UNL     1     -33.410  16.024  -4.812  1.00 20.00     0.041 C 
HETATM    8 CL8  UNL     1     -32.601  13.818  -3.452  1.00 20.00    -0.112 Cl
ENDBRANCH   1   5
TORSDOF 2
ENDMDL
MODEL 2
REMARK VINA RESULT:      -3.6      1.170      1.612
REMARK  2 active torsions:
REMARK  status: ('A' for Active; 'I' for Inactive)
REMARK    1  A    between atoms: C1_1  and  C4_4 
REMARK    2  A    between atoms: C1_1  and  C5_5 
ROOT
HETATM    1  C1  UNL     1     -34.919  13.950  -4.742  1.00 20.00     0.163 C 
HETATM    2  O6  UNL     1     -34.922  12.724  -4.604  1.00 20.00    -0.295 OA
ENDROOT
BRANCH   1   3
HETATM    3  C4  UNL     1     -35.852  14.645  -5.716  1.00 20.00     0.194 C 
HETATM    4 CL7  UNL     1     -35.375  14.300  -7.388  1.00 20.00    -0.122 Cl
ENDBRANCH   1   3
BRANCH   1   5
HETATM    5  C5  UNL     1     -33.947  14.829  -3.936  1.00 20.00     0.091 C 
HETATM    6  C2  UNL     1     -32.731  14.018  -3.481  1.00 20.00     0.041 C 
HETATM    7  C3  UNL     1     -34.614  15.478  -2.724  1.00 20.00     0.041 C 
HETATM    8 CL8  UNL     1     -33.388  16.106  -5.064  1.00 20.00    -0.112 Cl
ENDBRANCH   1   5
TORSDOF 2
ENDMDL
MODEL 3
REMARK VINA RESULT:      -3.5      1.562      1.562
REMARK  2 active torsions:
REMARK  status: ('A' for Active; 'I' for Inactive)
REMARK    1  A    between atoms: C1_1  and  C4_4 
REMARK    2  A    between atoms: C1_1  and  C5_5 
ROOT
HETATM    1  C1  UNL     1     -35.206  13.997  -4.388  1.00 20.00     0.163 C 
HETATM    2  O6  UNL     1     -35.141  12.768  -4.315  1.00 20.00    -0.295 OA
ENDROOT
BRANCH   1   3
HETATM    3  C4  UNL     1     -36.403  14.697  -5.007  1.00 20.00     0.194 C 
HETATM    4 CL7  UNL     1     -37.785  14.665  -3.897  1.00 20.00    -0.122 Cl
ENDBRANCH   1   3
BRANCH   1   5
HETATM    5  C5  UNL     1     -34.059  14.877  -3.864  1.00 20.00     0.091 C 
HETATM    6  C2  UNL     1     -34.469  15.595  -2.575  1.00 20.00     0.041 C 
HETATM    7  C3  UNL     1     -33.592  15.903  -4.896  1.00 20.00     0.041 C 
HETATM    8 CL8  UNL     1     -32.712  13.756  -3.485  1.00 20.00    -0.112 Cl
ENDBRANCH   1   5
TORSDOF 2
ENDMDL
MODEL 4
REMARK VINA RESULT:      -3.5      1.754      2.187
REMARK  2 active torsions:
REMARK  status: ('A' for Active; 'I' for Inactive)
REMARK    1  A    between atoms: C1_1  and  C4_4 
REMARK    2  A    between atoms: C1_1  and  C5_5 
ROOT
HETATM    1  C1  UNL     1     -33.933  15.862  -4.936  1.00 20.00     0.163 C 
HETATM    2  O6  UNL     1     -32.847  16.446  -4.914  1.00 20.00    -0.295 OA
ENDROOT
BRANCH   1   3
HETATM    3  C4  UNL     1     -34.889  15.998  -6.108  1.00 20.00     0.194 C 
HETATM    4 CL7  UNL     1     -34.459  14.861  -7.397  1.00 20.00    -0.122 Cl
ENDBRANCH   1   3
BRANCH   1   5
HETATM    5  C5  UNL     1     -34.374  14.977  -3.758  1.00 20.00     0.091 C 
HETATM    6  C2  UNL     1     -35.759  14.377  -4.016  1.00 20.00     0.041 C 
HETATM    7  C3  UNL     1     -34.382  15.734  -2.430  1.00 20.00     0.041 C 
HETATM    8 CL8  UNL     1     -33.184  13.639  -3.674  1.00 20.00    -0.112 Cl
ENDBRANCH   1   5
TORSDOF 2
ENDMDL
MODEL 5
REMARK VINA RESULT:      -3.5      2.059      2.491
REMARK  2 active torsions:
REMARK  status: ('A' for Active; 'I' for Inactive)
REMARK    1  A    between atoms: C1_1  and  C4_4 
REMARK    2  A    between atoms: C1_1  and  C5_5 
ROOT
HETATM    1  C1  UNL     1     -33.911  15.836  -4.952  1.00 20.00     0.163 C 
HETATM    2  O6  UNL     1     -32.837  16.439  -4.891  1.00 20.00    -0.295 OA
ENDROOT
BRANCH   1   3
HETATM    3  C4  UNL     1     -34.862  16.017  -6.122  1.00 20.00     0.194 C 
HETATM    4 CL7  UNL     1     -34.477  14.873  -7.419  1.00 20.00    -0.122 Cl
ENDBRANCH   1   3
BRANCH   1   5
HETATM    5  C5  UNL     1     -34.341  14.880  -3.827  1.00 20.00     0.091 C 
HETATM    6  C2  UNL     1     -33.362  13.709  -3.705  1.00 20.00     0.041 C 
HETATM    7  C3  UNL     1     -35.759  14.344  -4.024  1.00 20.00     0.041 C 
HETATM    8 CL8  UNL     1     -34.270  15.838  -2.313  1.00 20.00    -0.112 Cl
ENDBRANCH   1   5
TORSDOF 2
ENDMDL
MODEL 6
REMARK VINA RESULT:      -3.4      1.685      3.080
REMARK  2 active torsions:
REMARK  status: ('A' for Active; 'I' for Inactive)
REMARK    1  A    between atoms: C1_1  and  C4_4 
REMARK    2  A    between atoms: C1_1  and  C5_5 
ROOT
HETATM    1  C1  UNL     1     -34.501  13.875  -4.766  1.00 20.00     0.163 C 
HETATM    2  O6  UNL     1     -34.901  12.709  -4.726  1.00 20.00    -0.295 OA
ENDROOT
BRANCH   1   3
HETATM    3  C4  UNL     1     -33.485  14.405  -3.770  1.00 20.00     0.194 C 
HETATM    4 CL7  UNL     1     -34.278  15.418  -2.551  1.00 20.00    -0.122 Cl
ENDBRANCH   1   3
BRANCH   1   5
HETATM    5  C5  UNL     1     -35.035  14.853  -5.826  1.00 20.00     0.091 C 
HETATM    6  C2  UNL     1     -36.359  15.476  -5.373  1.00 20.00     0.041 C 
HETATM    7  C3  UNL     1     -35.220  14.192  -7.191  1.00 20.00     0.041 C 
HETATM    8 CL8  UNL     1     -33.811  16.157  -5.955  1.00 20.00    -0.112 Cl
ENDBRANCH   1   5
TORSDOF 2
ENDMDL
MODEL 7
REMARK VINA RESULT:      -3.4      2.321      3.557
REMARK  2 active torsions:
REMARK  status: ('A' for Active; 'I' for Inactive)
REMARK    1  A    between atoms: C1_1  and  C4_4 
REMARK    2  A    between atoms: C1_1  and  C5_5 
ROOT
HETATM    1  C1  UNL     1     -33.829  16.127  -4.288  1.00 20.00     0.163 C 
HETATM    2  O6  UNL     1     -32.831  16.464  -4.929  1.00 20.00    -0.295 OA
ENDROOT
BRANCH   1   3
HETATM    3  C4  UNL     1     -34.469  17.048  -3.266  1.00 20.00     0.194 C 
HETATM    4 CL7  UNL     1     -33.799  16.749  -1.653  1.00 20.00    -0.122 Cl
ENDBRANCH   1   3
BRANCH   1   5
HETATM    5  C5  UNL     1     -34.460  14.739  -4.489  1.00 20.00     0.091 C 
HETATM    6  C2  UNL     1     -34.620  14.424  -5.979  1.00 20.00     0.041 C 
HETATM    7  C3  UNL     1     -35.812  14.604  -3.788  1.00 20.00     0.041 C 
HETATM    8 CL8  UNL     1     -33.302  13.565  -3.783  1.00 20.00    -0.112 Cl
ENDBRANCH   1   5
TORSDOF 2
ENDMDL
MODEL 8
REMARK VINA RESULT:      -3.4      1.937      3.099
REMARK  2 active torsions:
REMARK  status: ('A' for Active; 'I' for Inactive)
REMARK    1  A    between atoms: C1_1  and  C4_4 
REMARK    2  A    between atoms: C1_1  and  C5_5 
ROOT
HETATM    1  C1  UNL     1     -35.359  15.353  -3.650  1.00 20.00     0.163 C 
HETATM    2  O6  UNL     1     -36.340  14.607  -3.601  1.00 20.00    -0.295 OA
ENDROOT
BRANCH   1   3
HETATM    3  C4  UNL     1     -35.292  16.635  -2.839  1.00 20.00     0.194 C 
HETATM    4 CL7  UNL     1     -34.640  16.314  -1.222  1.00 20.00    -0.122 Cl
ENDBRANCH   1   3
BRANCH   1   5
HETATM    5  C5  UNL     1     -34.163  15.020  -4.556  1.00 20.00     0.091 C 
HETATM    6  C2  UNL     1     -33.218  16.219  -4.672  1.00 20.00     0.041 C 
HETATM    7  C3  UNL     1     -34.593  14.568  -5.951  1.00 20.00     0.041 C 
HETATM    8 CL8  UNL     1     -33.285  13.685  -3.741  1.00 20.00    -0.112 Cl
ENDBRANCH   1   5
TORSDOF 2
ENDMDL
MODEL 9
REMARK VINA RESULT:      -3.4      2.149      3.332
REMARK  2 active torsions:
REMARK  status: ('A' for Active; 'I' for Inactive)
REMARK    1  A    between atoms: C1_1  and  C4_4 
REMARK    2  A    between atoms: C1_1  and  C5_5 
ROOT
HETATM    1  C1  UNL     1     -35.550  15.163  -3.586  1.00 20.00     0.163 C 
HETATM    2  O6  UNL     1     -36.540  14.429  -3.535  1.00 20.00    -0.295 OA
ENDROOT
BRANCH   1   3
HETATM    3  C4  UNL     1     -35.495  16.480  -2.833  1.00 20.00     0.194 C 
HETATM    4 CL7  UNL     1     -34.666  16.274  -1.280  1.00 20.00    -0.122 Cl
ENDBRANCH   1   3
BRANCH   1   5
HETATM    5  C5  UNL     1     -34.328  14.777  -4.436  1.00 20.00     0.091 C 
HETATM    6  C2  UNL     1     -34.758  14.336  -5.838  1.00 20.00     0.041 C 
HETATM    7  C3  UNL     1     -33.488  13.678  -3.787  1.00 20.00     0.041 C 
HETATM    8 CL8  UNL     1     -33.344  16.269  -4.588  1.00 20.00    -0.112 Cl
ENDBRANCH   1   5
TORSDOF 2
ENDMDL
