MODEL 1
REMARK VINA RESULT:      -4.5      0.000      0.000
REMARK  1 active torsions:
REMARK  status: ('A' for Active; 'I' for Inactive)
REMARK    1  A    between atoms: C3_3  and  C8_8 
ROOT
HETATM    1  C1  UNL     1     -34.534  14.556  -5.604  1.00 20.00     0.145 C 
HETATM    2  C4  UNL     1     -34.231  13.770  -4.345  1.00 20.00     0.080 C 
HETATM    3  C5  UNL     1     -34.413  14.639  -3.108  1.00 20.00     0.016 C 
HETATM    4  C6  UNL     1     -34.020  16.726  -4.464  1.00 20.00     0.036 C 
HETATM    5  C7  UNL     1     -33.822  15.892  -5.728  1.00 20.00     0.152 C 
HETATM    6  C8  UNL     1     -33.609  15.944  -3.209  1.00 20.00     0.009 C 
HETATM    7  O9  UNL     1     -35.234  14.073  -6.491  1.00 20.00    -0.296 OA
HETATM    8 CL10 UNL     1     -34.437  16.777  -7.143  1.00 20.00    -0.117 Cl
ENDROOT
BRANCH   6   9
HETATM    9  C3  UNL     1     -33.799  16.785  -1.983  1.00 20.00    -0.032 C 
HETATM   10  C2  UNL     1     -34.654  16.488  -0.998  1.00 20.00     0.007 C 
ENDBRANCH   6   9
TORSDOF 1
ENDMDL
MODEL 2
REMARK VINA RESULT:      -4.4      2.165      2.332
REMARK  1 active torsions:
REMARK  status: ('A' for Active; 'I' for Inactive)
REMARK    1  A    between atoms: C3_3  and  C8_8 
ROOT
HETATM    1  C1  UNL     1     -35.222  13.924  -4.228  1.00 20.00     0.145 C 
HETATM    2  C4  UNL     1     -33.738  14.232  -4.219  1.00 20.00     0.080 C 
HETATM    3  C5  UNL     1     -33.361  15.033  -2.980  1.00 20.00     0.016 C 
HETATM    4  C6  UNL     1     -35.719  15.897  -2.768  1.00 20.00     0.036 C 
HETATM    5  C7  UNL     1     -36.139  15.116  -4.011  1.00 20.00     0.152 C 
HETATM    6  C8  UNL     1     -34.235  16.288  -2.829  1.00 20.00     0.009 C 
HETATM    7  O9  UNL     1     -35.626  12.795  -4.496  1.00 20.00    -0.296 OA
HETATM    8 CL10 UNL     1     -37.821  14.563  -3.843  1.00 20.00    -0.117 Cl
ENDROOT
BRANCH   6   9
HETATM    9  C3  UNL     1     -33.848  17.064  -1.607  1.00 20.00    -0.032 C 
HETATM   10  C2  UNL     1     -34.526  17.031  -0.454  1.00 20.00     0.007 C 
ENDBRANCH   6   9
TORSDOF 1
ENDMDL
MODEL 3
REMARK VINA RESULT:      -4.4      1.528      1.752
REMARK  1 active torsions:
REMARK  status: ('A' for Active; 'I' for Inactive)
REMARK    1  A    between atoms: C3_3  and  C8_8 
ROOT
HETATM    1  C1  UNL     1     -34.294  13.682  -4.832  1.00 20.00     0.145 C 
HETATM    2  C4  UNL     1     -33.398  14.012  -3.656  1.00 20.00     0.080 C 
HETATM    3  C5  UNL     1     -33.686  15.412  -3.134  1.00 20.00     0.016 C 
HETATM    4  C6  UNL     1     -34.604  16.107  -5.376  1.00 20.00     0.036 C 
HETATM    5  C7  UNL     1     -34.324  14.717  -5.943  1.00 20.00     0.152 C 
HETATM    6  C8  UNL     1     -33.617  16.461  -4.254  1.00 20.00     0.009 C 
HETATM    7  O9  UNL     1     -34.867  12.596  -4.898  1.00 20.00    -0.296 OA
HETATM    8 CL10 UNL     1     -35.568  14.287  -7.140  1.00 20.00    -0.117 Cl
ENDROOT
BRANCH   6   9
HETATM    9  C3  UNL     1     -33.902  17.832  -3.721  1.00 20.00    -0.032 C 
HETATM   10  C2  UNL     1     -33.715  18.193  -2.446  1.00 20.00     0.007 C 
ENDBRANCH   6   9
TORSDOF 1
ENDMDL
MODEL 4
REMARK VINA RESULT:      -4.4      0.939      1.078
REMARK  1 active torsions:
REMARK  status: ('A' for Active; 'I' for Inactive)
REMARK    1  A    between atoms: C3_3  and  C8_8 
ROOT
HETATM    1  C1  UNL     1     -34.015  15.336  -5.397  1.00 20.00     0.145 C 
HETATM    2  C4  UNL     1     -34.025  14.213  -4.380  1.00 20.00     0.080 C 
HETATM    3  C5  UNL     1     -34.690  14.662  -3.086  1.00 20.00     0.016 C 
HETATM    4  C6  UNL     1     -34.155  17.071  -3.596  1.00 20.00     0.036 C 
HETATM    5  C7  UNL     1     -33.471  16.664  -4.899  1.00 20.00     0.152 C 
HETATM    6  C8  UNL     1     -34.062  15.956  -2.545  1.00 20.00     0.009 C 
HETATM    7  O9  UNL     1     -34.339  15.128  -6.564  1.00 20.00    -0.296 OA
HETATM    8 CL10 UNL     1     -33.718  17.921  -6.134  1.00 20.00    -0.117 Cl
ENDROOT
BRANCH   6   9
HETATM    9  C3  UNL     1     -34.727  16.380  -1.271  1.00 20.00    -0.032 C 
HETATM   10  C2  UNL     1     -34.219  17.286  -0.427  1.00 20.00     0.007 C 
ENDBRANCH   6   9
TORSDOF 1
ENDMDL
MODEL 5
REMARK VINA RESULT:      -4.4     12.118     13.029
REMARK  1 active torsions:
REMARK  status: ('A' for Active; 'I' for Inactive)
REMARK    1  A    between atoms: C3_3  and  C8_8 
ROOT
HETATM    1  C1  UNL     1     -34.812   4.844   4.340  1.00 20.00     0.145 C 
HETATM    2  C4  UNL     1     -34.751   4.999   2.834  1.00 20.00     0.080 C 
HETATM    3  C5  UNL     1     -33.444   5.657   2.411  1.00 20.00     0.016 C 
HETATM    4  C6  UNL     1     -33.205   6.735   4.677  1.00 20.00     0.036 C 
HETATM    5  C7  UNL     1     -34.515   6.101   5.139  1.00 20.00     0.152 C 
HETATM    6  C8  UNL     1     -33.206   6.977   3.160  1.00 20.00     0.009 C 
HETATM    7  O9  UNL     1     -35.179   3.786   4.846  1.00 20.00    -0.296 OA
HETATM    8 CL10 UNL     1     -34.422   5.709   6.872  1.00 20.00    -0.117 Cl
ENDROOT
BRANCH   6   9
HETATM    9  C3  UNL     1     -31.918   7.610   2.730  1.00 20.00    -0.032 C 
HETATM   10  C2  UNL     1     -31.792   8.393   1.653  1.00 20.00     0.007 C 
ENDBRANCH   6   9
TORSDOF 1
ENDMDL
MODEL 6
REMARK VINA RESULT:      -4.2      2.235      3.215
REMARK  1 active torsions:
REMARK  status: ('A' for Active; 'I' for Inactive)
REMARK    1  A    between atoms: C3_3  and  C8_8 
ROOT
HETATM    1  C1  UNL     1     -33.628  16.707  -4.079  1.00 20.00     0.145 C 
HETATM    2  C4  UNL     1     -33.793  18.131  -3.588  1.00 20.00     0.080 C 
HETATM    3  C5  UNL     1     -33.803  18.179  -2.066  1.00 20.00     0.016 C 
HETATM    4  C6  UNL     1     -34.572  15.782  -1.951  1.00 20.00     0.036 C 
HETATM    5  C7  UNL     1     -34.584  15.692  -3.476  1.00 20.00     0.152 C 
HETATM    6  C8  UNL     1     -34.844  17.216  -1.475  1.00 20.00     0.009 C 
HETATM    7  O9  UNL     1     -32.833  16.442  -4.978  1.00 20.00    -0.296 OA
HETATM    8 CL10 UNL     1     -34.130  14.051  -3.991  1.00 20.00    -0.117 Cl
ENDROOT
BRANCH   6   9
HETATM    9  C3  UNL     1     -34.841  17.279   0.022  1.00 20.00    -0.032 C 
HETATM   10  C2  UNL     1     -34.092  18.129   0.734  1.00 20.00     0.007 C 
ENDBRANCH   6   9
TORSDOF 1
ENDMDL
MODEL 7
REMARK VINA RESULT:      -4.2      1.489      1.608
REMARK  1 active torsions:
REMARK  status: ('A' for Active; 'I' for Inactive)
REMARK    1  A    between atoms: C3_3  and  C8_8 
ROOT
HETATM    1  C1  UNL     1     -36.233  14.811  -5.458  1.00 20.00     0.145 C 
HETATM    2  C4  UNL     1     -36.845  14.614  -4.086  1.00 20.00     0.080 C 
HETATM    3  C5  UNL     1     -36.184  15.528  -3.064  1.00 20.00     0.016 C 
HETATM    4  C6  UNL     1     -34.096  15.662  -4.468  1.00 20.00     0.036 C 
HETATM    5  C7  UNL     1     -34.717  14.740  -5.515  1.00 20.00     0.152 C 
HETATM    6  C8  UNL     1     -34.656  15.373  -3.068  1.00 20.00     0.009 C 
HETATM    7  O9  UNL     1     -36.947  14.920  -6.453  1.00 20.00    -0.296 OA
HETATM    8 CL10 UNL     1     -34.150  15.195  -7.139  1.00 20.00    -0.117 Cl
ENDROOT
BRANCH   6   9
HETATM    9  C3  UNL     1     -34.024  16.279  -2.055  1.00 20.00    -0.032 C 
HETATM   10  C2  UNL     1     -34.606  16.635  -0.904  1.00 20.00     0.007 C 
ENDBRANCH   6   9
TORSDOF 1
ENDMDL
MODEL 8
REMARK VINA RESULT:      -4.1      1.782      2.455
REMARK  1 active torsions:
REMARK  status: ('A' for Active; 'I' for Inactive)
REMARK    1  A    between atoms: C3_3  and  C8_8 
ROOT
HETATM    1  C1  UNL     1     -34.444  15.712  -5.254  1.00 20.00     0.145 C 
HETATM    2  C4  UNL     1     -34.342  17.206  -5.025  1.00 20.00     0.080 C 
HETATM    3  C5  UNL     1     -33.793  17.503  -3.636  1.00 20.00     0.016 C 
HETATM    4  C6  UNL     1     -34.594  15.267  -2.794  1.00 20.00     0.036 C 
HETATM    5  C7  UNL     1     -35.166  14.932  -4.170  1.00 20.00     0.152 C 
HETATM    6  C8  UNL     1     -34.596  16.782  -2.543  1.00 20.00     0.009 C 
HETATM    7  O9  UNL     1     -34.047  15.211  -6.304  1.00 20.00    -0.296 OA
HETATM    8 CL10 UNL     1     -35.020  13.186  -4.480  1.00 20.00    -0.117 Cl
ENDROOT
BRANCH   6   9
HETATM    9  C3  UNL     1     -34.043  17.087  -1.184  1.00 20.00    -0.032 C 
HETATM   10  C2  UNL     1     -34.775  17.106  -0.065  1.00 20.00     0.007 C 
ENDBRANCH   6   9
TORSDOF 1
ENDMDL
MODEL 9
REMARK VINA RESULT:      -4.1     11.953     13.032
REMARK  1 active torsions:
REMARK  status: ('A' for Active; 'I' for Inactive)
REMARK    1  A    between atoms: C3_3  and  C8_8 
ROOT
HETATM    1  C1  UNL     1     -41.572   5.078  -0.555  1.00 20.00     0.145 C 
HETATM    2  C4  UNL     1     -40.940   6.448  -0.420  1.00 20.00     0.080 C 
HETATM    3  C5  UNL     1     -41.724   7.485  -1.213  1.00 20.00     0.016 C 
HETATM    4  C6  UNL     1     -42.629   5.696  -2.739  1.00 20.00     0.036 C 
HETATM    5  C7  UNL     1     -41.853   4.624  -1.977  1.00 20.00     0.152 C 
HETATM    6  C8  UNL     1     -41.916   7.054  -2.675  1.00 20.00     0.009 C 
HETATM    7  O9  UNL     1     -41.740   4.366   0.433  1.00 20.00    -0.296 OA
HETATM    8 CL10 UNL     1     -42.776   3.104  -1.956  1.00 20.00    -0.117 Cl
ENDROOT
BRANCH   6   9
HETATM    9  C3  UNL     1     -42.687   8.086  -3.440  1.00 20.00    -0.032 C 
HETATM   10  C2  UNL     1     -42.302   8.587  -4.619  1.00 20.00     0.007 C 
ENDBRANCH   6   9
TORSDOF 1
ENDMDL
