MODEL 1
REMARK VINA RESULT:      -4.4      0.000      0.000
REMARK  1 active torsions:
REMARK  status: ('A' for Active; 'I' for Inactive)
REMARK    1  A    between atoms: C4_4  and  C5_5 
ROOT
HETATM    1  C1  UNL     1     -32.019   8.083   2.176  1.00 20.00     0.015 C 
HETATM    2  C2  UNL     1     -32.454   7.178   2.835  1.00 20.00    -0.083 C 
HETATM    3  C3  UNL     1     -32.973   6.103   3.619  1.00 20.00     0.229 A 
HETATM    4  C4  UNL     1     -34.436   6.083   3.978  1.00 20.00     0.177 A 
HETATM    5  O6  UNL     1     -33.444   6.525   4.909  1.00 20.00    -0.361 OA
ENDROOT
BRANCH   4   6
HETATM    6  C5  UNL     1     -35.114   4.815   4.356  1.00 20.00     0.150 C 
HETATM    7 CL7  UNL     1     -35.052   4.546   6.121  1.00 20.00    -0.128 Cl
ENDBRANCH   4   6
TORSDOF 1
ENDMDL
MODEL 2
REMARK VINA RESULT:      -4.0      2.519      4.005
REMARK  1 active torsions:
REMARK  status: ('A' for Active; 'I' for Inactive)
REMARK    1  A    between atoms: C4_4  and  C5_5 
ROOT
HETATM    1  C1  UNL     1     -35.131   4.444   6.237  1.00 20.00     0.015 C 
HETATM    2  C2  UNL     1     -34.728   4.900   5.203  1.00 20.00    -0.083 C 
HETATM    3  C3  UNL     1     -34.246   5.443   3.972  1.00 20.00     0.229 A 
HETATM    4  C4  UNL     1     -33.015   6.311   3.973  1.00 20.00     0.177 A 
HETATM    5  O6  UNL     1     -34.328   6.877   3.922  1.00 20.00    -0.361 OA
ENDROOT
BRANCH   4   6
HETATM    6  C5  UNL     1     -32.212   6.503   2.737  1.00 20.00     0.150 C 
HETATM    7 CL7  UNL     1     -32.143   8.225   2.268  1.00 20.00    -0.128 Cl
ENDBRANCH   4   6
TORSDOF 1
ENDMDL
MODEL 3
REMARK VINA RESULT:      -4.0      2.934      4.184
REMARK  1 active torsions:
REMARK  status: ('A' for Active; 'I' for Inactive)
REMARK    1  A    between atoms: C4_4  and  C5_5 
ROOT
HETATM    1  C1  UNL     1     -35.260   4.981   4.419  1.00 20.00     0.015 C 
HETATM    2  C2  UNL     1     -34.285   5.664   4.268  1.00 20.00    -0.083 C 
HETATM    3  C3  UNL     1     -33.123   6.476   4.085  1.00 20.00     0.229 A 
HETATM    4  C4  UNL     1     -32.752   6.944   2.703  1.00 20.00     0.177 A 
HETATM    5  O6  UNL     1     -32.100   5.828   3.314  1.00 20.00    -0.361 OA
ENDROOT
BRANCH   4   6
HETATM    6  C5  UNL     1     -31.883   8.134   2.504  1.00 20.00     0.150 C 
HETATM    7 CL7  UNL     1     -32.152   8.874   0.901  1.00 20.00    -0.128 Cl
ENDBRANCH   4   6
TORSDOF 1
ENDMDL
MODEL 4
REMARK VINA RESULT:      -3.4     11.725     11.994
REMARK  1 active torsions:
REMARK  status: ('A' for Active; 'I' for Inactive)
REMARK    1  A    between atoms: C4_4  and  C5_5 
ROOT
HETATM    1  C1  UNL     1     -34.468  16.751  -0.734  1.00 20.00     0.015 C 
HETATM    2  C2  UNL     1     -34.795  16.201  -1.750  1.00 20.00    -0.083 C 
HETATM    3  C3  UNL     1     -35.182  15.546  -2.959  1.00 20.00     0.229 A 
HETATM    4  C4  UNL     1     -34.412  14.342  -3.432  1.00 20.00     0.177 A 
HETATM    5  O6  UNL     1     -34.188  15.639  -3.991  1.00 20.00    -0.361 OA
ENDROOT
BRANCH   4   6
HETATM    6  C5  UNL     1     -35.021  13.362  -4.370  1.00 20.00     0.150 C 
HETATM    7 CL7  UNL     1     -34.994  13.969  -6.050  1.00 20.00    -0.128 Cl
ENDBRANCH   4   6
TORSDOF 1
ENDMDL
MODEL 5
REMARK VINA RESULT:      -3.3     11.811     11.969
REMARK  1 active torsions:
REMARK  status: ('A' for Active; 'I' for Inactive)
REMARK    1  A    between atoms: C4_4  and  C5_5 
ROOT
HETATM    1  C1  UNL     1     -34.518  16.340  -1.613  1.00 20.00     0.015 C 
HETATM    2  C2  UNL     1     -34.247  15.602  -2.520  1.00 20.00    -0.083 C 
HETATM    3  C3  UNL     1     -33.926  14.722  -3.599  1.00 20.00     0.229 A 
HETATM    4  C4  UNL     1     -35.018  13.914  -4.250  1.00 20.00     0.177 A 
HETATM    5  O6  UNL     1     -34.141  13.338  -3.278  1.00 20.00    -0.361 OA
ENDROOT
BRANCH   4   6
HETATM    6  C5  UNL     1     -34.856  13.373  -5.625  1.00 20.00     0.150 C 
HETATM    7 CL7  UNL     1     -35.489  14.510  -6.849  1.00 20.00    -0.128 Cl
ENDBRANCH   4   6
TORSDOF 1
ENDMDL
MODEL 6
REMARK VINA RESULT:      -3.3     11.677     12.072
REMARK  1 active torsions:
REMARK  status: ('A' for Active; 'I' for Inactive)
REMARK    1  A    between atoms: C4_4  and  C5_5 
ROOT
HETATM    1  C1  UNL     1     -34.587  13.172  -4.826  1.00 20.00     0.015 C 
HETATM    2  C2  UNL     1     -34.041  14.035  -4.195  1.00 20.00    -0.083 C 
HETATM    3  C3  UNL     1     -33.393  15.063  -3.444  1.00 20.00     0.229 A 
HETATM    4  C4  UNL     1     -34.196  16.228  -2.930  1.00 20.00     0.177 A 
HETATM    5  O6  UNL     1     -33.398  16.334  -4.112  1.00 20.00    -0.361 OA
ENDROOT
BRANCH   4   6
HETATM    6  C5  UNL     1     -33.715  17.046  -1.786  1.00 20.00     0.150 C 
HETATM    7 CL7  UNL     1     -34.727  16.793  -0.336  1.00 20.00    -0.128 Cl
ENDBRANCH   4   6
TORSDOF 1
ENDMDL
MODEL 7
REMARK VINA RESULT:      -3.2     12.406     13.012
REMARK  1 active torsions:
REMARK  status: ('A' for Active; 'I' for Inactive)
REMARK    1  A    between atoms: C4_4  and  C5_5 
ROOT
HETATM    1  C1  UNL     1     -34.778  16.942  -0.400  1.00 20.00     0.015 C 
HETATM    2  C2  UNL     1     -34.291  16.557  -1.427  1.00 20.00    -0.083 C 
HETATM    3  C3  UNL     1     -33.712  16.099  -2.650  1.00 20.00     0.229 A 
HETATM    4  C4  UNL     1     -34.176  16.684  -3.957  1.00 20.00     0.177 A 
HETATM    5  O6  UNL     1     -34.653  15.417  -3.496  1.00 20.00    -0.361 OA
ENDROOT
BRANCH   4   6
HETATM    6  C5  UNL     1     -33.323  16.616  -5.173  1.00 20.00     0.150 C 
HETATM    7 CL7  UNL     1     -34.113  15.674  -6.469  1.00 20.00    -0.128 Cl
ENDBRANCH   4   6
TORSDOF 1
ENDMDL
MODEL 8
REMARK VINA RESULT:      -3.2     12.053     12.251
REMARK  1 active torsions:
REMARK  status: ('A' for Active; 'I' for Inactive)
REMARK    1  A    between atoms: C4_4  and  C5_5 
ROOT
HETATM    1  C1  UNL     1     -34.821  17.216   0.250  1.00 20.00     0.015 C 
HETATM    2  C2  UNL     1     -34.841  16.876  -0.901  1.00 20.00    -0.083 C 
HETATM    3  C3  UNL     1     -34.863  16.472  -2.272  1.00 20.00     0.229 A 
HETATM    4  C4  UNL     1     -33.578  16.075  -2.951  1.00 20.00     0.177 A 
HETATM    5  O6  UNL     1     -34.150  17.373  -3.134  1.00 20.00    -0.361 OA
ENDROOT
BRANCH   4   6
HETATM    6  C5  UNL     1     -33.587  15.220  -4.167  1.00 20.00     0.150 C 
HETATM    7 CL7  UNL     1     -33.239  13.514  -3.765  1.00 20.00    -0.128 Cl
ENDBRANCH   4   6
TORSDOF 1
ENDMDL
MODEL 9
REMARK VINA RESULT:      -3.1     11.322     12.489
REMARK  1 active torsions:
REMARK  status: ('A' for Active; 'I' for Inactive)
REMARK    1  A    between atoms: C4_4  and  C5_5 
ROOT
HETATM    1  C1  UNL     1     -35.499  14.580  -7.918  1.00 20.00     0.015 C 
HETATM    2  C2  UNL     1     -35.469  14.340  -6.742  1.00 20.00    -0.083 C 
HETATM    3  C3  UNL     1     -35.431  14.055  -5.343  1.00 20.00     0.229 A 
HETATM    4  C4  UNL     1     -34.111  14.058  -4.618  1.00 20.00     0.177 A 
HETATM    5  O6  UNL     1     -34.730  12.838  -5.037  1.00 20.00    -0.361 OA
ENDROOT
BRANCH   4   6
HETATM    6  C5  UNL     1     -34.047  14.242  -3.144  1.00 20.00     0.150 C 
HETATM    7 CL7  UNL     1     -33.600  15.918  -2.718  1.00 20.00    -0.128 Cl
ENDBRANCH   4   6
TORSDOF 1
ENDMDL
