MODEL 1
REMARK VINA RESULT:      -4.9      0.000      0.000
REMARK  3 active torsions:
REMARK  status: ('A' for Active; 'I' for Inactive)
REMARK    1  A    between atoms: C4_4  and  C8_8 
REMARK    2  A    between atoms: C7_7  and  C11_11 
REMARK    3  A    between atoms: C8_8  and  O12_12 
ROOT
HETATM    1  C1  UNL     1     -33.501  15.771  -3.405  1.00 20.00    -0.022 C 
HETATM    2  C2  UNL     1     -33.654  14.577  -3.994  1.00 20.00     0.011 C 
HETATM    3  C5  UNL     1     -35.915  16.345  -3.904  1.00 20.00     0.012 C 
HETATM    4  C6  UNL     1     -36.166  14.837  -3.872  1.00 20.00     0.047 C 
HETATM    5  C7  UNL     1     -34.633  16.731  -3.143  1.00 20.00     0.011 C 
HETATM    6  C8  UNL     1     -34.983  14.034  -4.450  1.00 20.00     0.092 C 
ENDROOT
BRANCH   6   7
HETATM    7  C4  UNL     1     -35.030  13.979  -5.950  1.00 20.00     0.004 C 
HETATM    8  C3  UNL     1     -34.440  14.873  -6.752  1.00 20.00     0.010 C 
ENDBRANCH   6   7
BRANCH   6   9
HETATM    9  O12 UNL     1     -35.090  12.692  -3.961  1.00 20.00    -0.382 OA
HETATM   10  H30 UNL     1     -35.766  12.710  -3.267  1.00 20.00     0.211 HD
ENDBRANCH   6   9
BRANCH   5  11
HETATM   11  C11 UNL     1     -34.885  16.834  -1.637  1.00 20.00    -0.015 C 
HETATM   12  C9  UNL     1     -33.639  17.348  -0.920  1.00 20.00     0.010 C 
HETATM   13  C10 UNL     1     -36.081  17.740  -1.355  1.00 20.00     0.010 C 
ENDBRANCH   5  11
TORSDOF 3
ENDMDL
MODEL 2
REMARK VINA RESULT:      -4.9      1.703      2.260
REMARK  3 active torsions:
REMARK  status: ('A' for Active; 'I' for Inactive)
REMARK    1  A    between atoms: C4_4  and  C8_8 
REMARK    2  A    between atoms: C7_7  and  C11_11 
REMARK    3  A    between atoms: C8_8  and  O12_12 
ROOT
HETATM    1  C1  UNL     1     -34.181  18.038  -3.057  1.00 20.00    -0.022 C 
HETATM    2  C2  UNL     1     -33.591  17.497  -4.132  1.00 20.00     0.011 C 
HETATM    3  C5  UNL     1     -35.134  15.782  -2.421  1.00 20.00     0.012 C 
HETATM    4  C6  UNL     1     -33.931  15.189  -3.157  1.00 20.00     0.047 C 
HETATM    5  C7  UNL     1     -34.883  17.238  -1.990  1.00 20.00     0.011 C 
HETATM    6  C8  UNL     1     -33.538  16.015  -4.398  1.00 20.00     0.092 C 
ENDROOT
BRANCH   6   7
HETATM    7  C4  UNL     1     -34.394  15.673  -5.585  1.00 20.00     0.004 C 
HETATM    8  C3  UNL     1     -34.782  14.431  -5.896  1.00 20.00     0.010 C 
ENDBRANCH   6   7
BRANCH   6   9
HETATM    9  O12 UNL     1     -32.184  15.686  -4.728  1.00 20.00    -0.382 OA
HETATM   10  H30 UNL     1     -31.657  16.470  -4.517  1.00 20.00     0.211 HD
ENDBRANCH   6   9
BRANCH   5  11
HETATM   11  C11 UNL     1     -34.086  17.308  -0.685  1.00 20.00    -0.015 C 
HETATM   12  C9  UNL     1     -33.146  18.510  -0.696  1.00 20.00     0.010 C 
HETATM   13  C10 UNL     1     -35.029  17.372   0.514  1.00 20.00     0.010 C 
ENDBRANCH   5  11
TORSDOF 3
ENDMDL
MODEL 3
REMARK VINA RESULT:      -4.6      1.691      2.169
REMARK  3 active torsions:
REMARK  status: ('A' for Active; 'I' for Inactive)
REMARK    1  A    between atoms: C4_4  and  C8_8 
REMARK    2  A    between atoms: C7_7  and  C11_11 
REMARK    3  A    between atoms: C8_8  and  O12_12 
ROOT
HETATM    1  C1  UNL     1     -35.553  16.729  -3.890  1.00 20.00    -0.022 C 
HETATM    2  C2  UNL     1     -35.217  16.449  -5.158  1.00 20.00     0.011 C 
HETATM    3  C5  UNL     1     -34.663  14.482  -3.141  1.00 20.00     0.012 C 
HETATM    4  C6  UNL     1     -33.731  14.570  -4.350  1.00 20.00     0.047 C 
HETATM    5  C7  UNL     1     -35.181  15.866  -2.712  1.00 20.00     0.011 C 
HETATM    6  C8  UNL     1     -34.405  15.246  -5.561  1.00 20.00     0.092 C 
ENDROOT
BRANCH   6   7
HETATM    7  C4  UNL     1     -35.262  14.281  -6.330  1.00 20.00     0.004 C 
HETATM    8  C3  UNL     1     -35.572  14.421  -7.624  1.00 20.00     0.010 C 
ENDBRANCH   6   7
BRANCH   6   9
HETATM    9  O12 UNL     1     -33.368  15.701  -6.437  1.00 20.00    -0.382 OA
HETATM   10  H30 UNL     1     -32.663  15.039  -6.388  1.00 20.00     0.211 HD
ENDBRANCH   6   9
BRANCH   5  11
HETATM   11  C11 UNL     1     -34.162  16.600  -1.837  1.00 20.00    -0.015 C 
HETATM   12  C9  UNL     1     -33.775  17.934  -2.471  1.00 20.00     0.010 C 
HETATM   13  C10 UNL     1     -34.718  16.812  -0.432  1.00 20.00     0.010 C 
ENDBRANCH   5  11
TORSDOF 3
ENDMDL
MODEL 4
REMARK VINA RESULT:      -4.5      1.483      1.848
REMARK  3 active torsions:
REMARK  status: ('A' for Active; 'I' for Inactive)
REMARK    1  A    between atoms: C4_4  and  C8_8 
REMARK    2  A    between atoms: C7_7  and  C11_11 
REMARK    3  A    between atoms: C8_8  and  O12_12 
ROOT
HETATM    1  C1  UNL     1     -34.322  15.147  -2.813  1.00 20.00    -0.022 C 
HETATM    2  C2  UNL     1     -35.077  14.597  -3.775  1.00 20.00     0.011 C 
HETATM    3  C5  UNL     1     -33.669  17.027  -4.377  1.00 20.00     0.012 C 
HETATM    4  C6  UNL     1     -35.006  16.766  -5.072  1.00 20.00     0.047 C 
HETATM    5  C7  UNL     1     -33.660  16.496  -2.932  1.00 20.00     0.011 C 
HETATM    6  C8  UNL     1     -35.375  15.269  -5.090  1.00 20.00     0.092 C 
ENDROOT
BRANCH   6   7
HETATM    7  C4  UNL     1     -34.687  14.541  -6.209  1.00 20.00     0.004 C 
HETATM    8  C3  UNL     1     -34.556  15.025  -7.449  1.00 20.00     0.010 C 
ENDBRANCH   6   7
BRANCH   6   9
HETATM    9  O12 UNL     1     -36.787  15.173  -5.311  1.00 20.00    -0.382 OA
HETATM   10  H30 UNL     1     -36.903  14.563  -6.055  1.00 20.00     0.211 HD
ENDBRANCH   6   9
BRANCH   5  11
HETATM   11  C11 UNL     1     -34.322  17.483  -1.967  1.00 20.00    -0.015 C 
HETATM   12  C9  UNL     1     -34.604  16.811  -0.626  1.00 20.00     0.010 C 
HETATM   13  C10 UNL     1     -33.443  18.716  -1.777  1.00 20.00     0.010 C 
ENDBRANCH   5  11
TORSDOF 3
ENDMDL
MODEL 5
REMARK VINA RESULT:      -4.4      2.082      4.710
REMARK  3 active torsions:
REMARK  status: ('A' for Active; 'I' for Inactive)
REMARK    1  A    between atoms: C4_4  and  C8_8 
REMARK    2  A    between atoms: C7_7  and  C11_11 
REMARK    3  A    between atoms: C8_8  and  O12_12 
ROOT
HETATM    1  C1  UNL     1     -33.553  16.926  -4.684  1.00 20.00    -0.022 C 
HETATM    2  C2  UNL     1     -33.967  17.825  -3.778  1.00 20.00     0.011 C 
HETATM    3  C5  UNL     1     -33.909  15.056  -3.016  1.00 20.00     0.012 C 
HETATM    4  C6  UNL     1     -34.968  15.964  -2.389  1.00 20.00     0.047 C 
HETATM    5  C7  UNL     1     -33.621  15.435  -4.480  1.00 20.00     0.011 C 
HETATM    6  C8  UNL     1     -34.573  17.453  -2.450  1.00 20.00     0.092 C 
ENDROOT
BRANCH   6   7
HETATM    7  C4  UNL     1     -33.639  17.825  -1.334  1.00 20.00     0.004 C 
HETATM    8  C3  UNL     1     -33.974  17.809  -0.039  1.00 20.00     0.010 C 
ENDBRANCH   6   7
BRANCH   6   9
HETATM    9  O12 UNL     1     -35.769  18.226  -2.292  1.00 20.00    -0.382 OA
HETATM   10  H30 UNL     1     -36.490  17.683  -2.644  1.00 20.00     0.211 HD
ENDBRANCH   6   9
BRANCH   5  11
HETATM   11  C11 UNL     1     -34.659  14.832  -5.430  1.00 20.00    -0.015 C 
HETATM   12  C9  UNL     1     -34.268  15.089  -6.883  1.00 20.00     0.010 C 
HETATM   13  C10 UNL     1     -34.816  13.336  -5.171  1.00 20.00     0.010 C 
ENDBRANCH   5  11
TORSDOF 3
ENDMDL
MODEL 6
REMARK VINA RESULT:      -4.4      2.003      4.179
REMARK  3 active torsions:
REMARK  status: ('A' for Active; 'I' for Inactive)
REMARK    1  A    between atoms: C4_4  and  C8_8 
REMARK    2  A    between atoms: C7_7  and  C11_11 
REMARK    3  A    between atoms: C8_8  and  O12_12 
ROOT
HETATM    1  C1  UNL     1     -36.897  15.561  -4.413  1.00 20.00    -0.022 C 
HETATM    2  C2  UNL     1     -36.118  14.673  -3.779  1.00 20.00     0.011 C 
HETATM    3  C5  UNL     1     -35.347  15.520  -6.412  1.00 20.00     0.012 C 
HETATM    4  C6  UNL     1     -34.989  14.101  -5.968  1.00 20.00     0.047 C 
HETATM    5  C7  UNL     1     -36.707  15.973  -5.850  1.00 20.00     0.011 C 
HETATM    6  C8  UNL     1     -34.965  13.957  -4.432  1.00 20.00     0.092 C 
ENDROOT
BRANCH   6   7
HETATM    7  C4  UNL     1     -33.665  14.435  -3.850  1.00 20.00     0.004 C 
HETATM    8  C3  UNL     1     -33.533  15.557  -3.133  1.00 20.00     0.010 C 
ENDBRANCH   6   7
BRANCH   6   9
HETATM    9  O12 UNL     1     -35.094  12.564  -4.126  1.00 20.00    -0.382 OA
HETATM   10  H30 UNL     1     -35.589  12.171  -4.859  1.00 20.00     0.211 HD
ENDBRANCH   6   9
BRANCH   5  11
HETATM   11  C11 UNL     1     -37.868  15.445  -6.696  1.00 20.00    -0.015 C 
HETATM   12  C9  UNL     1     -39.142  15.355  -5.860  1.00 20.00     0.010 C 
HETATM   13  C10 UNL     1     -38.086  16.334  -7.917  1.00 20.00     0.010 C 
ENDBRANCH   5  11
TORSDOF 3
ENDMDL
MODEL 7
REMARK VINA RESULT:      -4.4      1.891      4.514
REMARK  3 active torsions:
REMARK  status: ('A' for Active; 'I' for Inactive)
REMARK    1  A    between atoms: C4_4  and  C8_8 
REMARK    2  A    between atoms: C7_7  and  C11_11 
REMARK    3  A    between atoms: C8_8  and  O12_12 
ROOT
HETATM    1  C1  UNL     1     -34.177  17.612  -4.512  1.00 20.00    -0.022 C 
HETATM    2  C2  UNL     1     -34.815  17.747  -3.340  1.00 20.00     0.011 C 
HETATM    3  C5  UNL     1     -34.148  15.098  -4.224  1.00 20.00     0.012 C 
HETATM    4  C6  UNL     1     -35.407  15.289  -3.377  1.00 20.00     0.047 C 
HETATM    5  C7  UNL     1     -33.908  16.285  -5.174  1.00 20.00     0.011 C 
HETATM    6  C8  UNL     1     -35.363  16.589  -2.548  1.00 20.00     0.092 C 
ENDROOT
BRANCH   6   7
HETATM    7  C4  UNL     1     -34.575  16.413  -1.281  1.00 20.00     0.004 C 
HETATM    8  C3  UNL     1     -33.998  17.418  -0.612  1.00 20.00     0.010 C 
ENDBRANCH   6   7
BRANCH   6   9
HETATM    9  O12 UNL     1     -36.708  16.917  -2.182  1.00 20.00    -0.382 OA
HETATM   10  H30 UNL     1     -36.933  17.721  -2.672  1.00 20.00     0.211 HD
ENDBRANCH   6   9
BRANCH   5  11
HETATM   11  C11 UNL     1     -34.748  16.163  -6.447  1.00 20.00    -0.015 C 
HETATM   12  C9  UNL     1     -34.513  17.365  -7.359  1.00 20.00     0.010 C 
HETATM   13  C10 UNL     1     -34.428  14.862  -7.177  1.00 20.00     0.010 C 
ENDBRANCH   5  11
TORSDOF 3
ENDMDL
MODEL 8
REMARK VINA RESULT:      -4.3      1.778      4.349
REMARK  3 active torsions:
REMARK  status: ('A' for Active; 'I' for Inactive)
REMARK    1  A    between atoms: C4_4  and  C8_8 
REMARK    2  A    between atoms: C7_7  and  C11_11 
REMARK    3  A    between atoms: C8_8  and  O12_12 
ROOT
HETATM    1  C1  UNL     1     -35.786  14.883  -4.703  1.00 20.00    -0.022 C 
HETATM    2  C2  UNL     1     -34.747  14.698  -3.876  1.00 20.00     0.011 C 
HETATM    3  C5  UNL     1     -34.969  17.219  -5.233  1.00 20.00     0.012 C 
HETATM    4  C6  UNL     1     -33.573  16.688  -4.903  1.00 20.00     0.047 C 
HETATM    5  C7  UNL     1     -35.944  16.086  -5.599  1.00 20.00     0.011 C 
HETATM    6  C8  UNL     1     -33.594  15.660  -3.754  1.00 20.00     0.092 C 
ENDROOT
BRANCH   6   7
HETATM    7  C4  UNL     1     -33.623  16.330  -2.410  1.00 20.00     0.004 C 
HETATM    8  C3  UNL     1     -34.656  16.264  -1.561  1.00 20.00     0.010 C 
ENDBRANCH   6   7
BRANCH   6   9
HETATM    9  O12 UNL     1     -32.386  14.895  -3.833  1.00 20.00    -0.382 OA
HETATM   10  H30 UNL     1     -31.682  15.467  -3.494  1.00 20.00     0.211 HD
ENDBRANCH   6   9
BRANCH   5  11
HETATM   11  C11 UNL     1     -35.790  15.663  -7.062  1.00 20.00    -0.015 C 
HETATM   12  C9  UNL     1     -35.227  14.247  -7.153  1.00 20.00     0.010 C 
HETATM   13  C10 UNL     1     -37.128  15.759  -7.789  1.00 20.00     0.010 C 
ENDBRANCH   5  11
TORSDOF 3
ENDMDL
MODEL 9
REMARK VINA RESULT:      -4.3      1.798      2.702
REMARK  3 active torsions:
REMARK  status: ('A' for Active; 'I' for Inactive)
REMARK    1  A    between atoms: C4_4  and  C8_8 
REMARK    2  A    between atoms: C7_7  and  C11_11 
REMARK    3  A    between atoms: C8_8  and  O12_12 
ROOT
HETATM    1  C1  UNL     1     -35.920  16.677  -4.158  1.00 20.00    -0.022 C 
HETATM    2  C2  UNL     1     -34.928  16.018  -4.775  1.00 20.00     0.011 C 
HETATM    3  C5  UNL     1     -34.881  16.166  -1.908  1.00 20.00     0.012 C 
HETATM    4  C6  UNL     1     -33.550  16.107  -2.658  1.00 20.00     0.047 C 
HETATM    5  C7  UNL     1     -35.941  16.972  -2.680  1.00 20.00     0.011 C 
HETATM    6  C8  UNL     1     -33.699  15.507  -4.070  1.00 20.00     0.092 C 
ENDROOT
BRANCH   6   7
HETATM    7  C4  UNL     1     -33.711  14.005  -4.037  1.00 20.00     0.004 C 
HETATM    8  C3  UNL     1     -34.735  13.254  -4.460  1.00 20.00     0.010 C 
ENDBRANCH   6   7
BRANCH   6   9
HETATM    9  O12 UNL     1     -32.562  15.916  -4.838  1.00 20.00    -0.382 OA
HETATM   10  H30 UNL     1     -32.483  16.873  -4.715  1.00 20.00     0.211 HD
ENDBRANCH   6   9
BRANCH   5  11
HETATM   11  C11 UNL     1     -35.779  18.476  -2.452  1.00 20.00    -0.015 C 
HETATM   12  C9  UNL     1     -36.413  19.263  -3.596  1.00 20.00     0.010 C 
HETATM   13  C10 UNL     1     -36.391  18.883  -1.114  1.00 20.00     0.010 C 
ENDBRANCH   5  11
TORSDOF 3
ENDMDL
