MODEL 1
REMARK VINA RESULT:      -4.8      0.000      0.000
REMARK  1 active torsions:
REMARK  status: ('A' for Active; 'I' for Inactive)
REMARK    1  A    between atoms: C8_8  and  C11_11 
ROOT
HETATM    1  C1  UNL     1     -34.828  15.620  -2.884  1.00 20.00    -0.081 C 
HETATM    2  C2  UNL     1     -34.660  16.502  -1.887  1.00 20.00     0.015 C 
HETATM    3  C3  UNL     1     -36.175  15.004  -3.193  1.00 20.00     0.061 C 
HETATM    4  C4  UNL     1     -33.537  13.670  -3.823  1.00 20.00     0.039 C 
HETATM    5  C5  UNL     1     -36.434  14.823  -4.695  1.00 20.00     0.239 C 
HETATM    6  C6  UNL     1     -34.531  13.182  -4.887  1.00 20.00     0.236 C 
HETATM    7  C7  UNL     1     -33.685  15.204  -3.794  1.00 20.00     0.046 C 
HETATM    8  C8  UNL     1     -34.050  15.489  -5.248  1.00 20.00     0.199 C 
HETATM    9  N12 UNL     1     -35.157  14.464  -5.432  1.00 20.00    -0.066 N 
HETATM   10  H32 UNL     1     -35.371  14.348  -6.432  1.00 20.00     0.280 HD
ENDROOT
BRANCH   8  11
HETATM   11  C11 UNL     1     -34.465  16.901  -5.624  1.00 20.00     0.009 C 
HETATM   12  C9  UNL     1     -33.428  17.919  -5.144  1.00 20.00     0.011 C 
HETATM   13  C10 UNL     1     -34.670  17.025  -7.135  1.00 20.00     0.011 C 
ENDBRANCH   8  11
TORSDOF 1
ENDMDL
MODEL 2
REMARK VINA RESULT:      -4.5      1.564      3.568
REMARK  1 active torsions:
REMARK  status: ('A' for Active; 'I' for Inactive)
REMARK    1  A    between atoms: C8_8  and  C11_11 
ROOT
HETATM    1  C1  UNL     1     -33.794  15.039  -3.604  1.00 20.00    -0.081 C 
HETATM    2  C2  UNL     1     -33.612  13.720  -3.762  1.00 20.00     0.015 C 
HETATM    3  C3  UNL     1     -33.071  16.058  -4.458  1.00 20.00     0.061 C 
HETATM    4  C4  UNL     1     -34.058  16.618  -1.657  1.00 20.00     0.039 C 
HETATM    5  C5  UNL     1     -33.936  17.271  -4.825  1.00 20.00     0.239 C 
HETATM    6  C6  UNL     1     -34.109  17.956  -2.406  1.00 20.00     0.236 C 
HETATM    7  C7  UNL     1     -34.763  15.603  -2.579  1.00 20.00     0.046 C 
HETATM    8  C8  UNL     1     -35.785  16.500  -3.271  1.00 20.00     0.199 C 
HETATM    9  N12 UNL     1     -34.873  17.641  -3.690  1.00 20.00    -0.066 N 
HETATM   10  H32 UNL     1     -35.432  18.457  -3.971  1.00 20.00     0.280 HD
ENDROOT
BRANCH   8  11
HETATM   11  C11 UNL     1     -36.593  15.919  -4.419  1.00 20.00     0.009 C 
HETATM   12  C9  UNL     1     -37.381  14.689  -3.963  1.00 20.00     0.011 C 
HETATM   13  C10 UNL     1     -37.542  16.968  -5.004  1.00 20.00     0.011 C 
ENDBRANCH   8  11
TORSDOF 1
ENDMDL
MODEL 3
REMARK VINA RESULT:      -4.5      1.426      3.301
REMARK  1 active torsions:
REMARK  status: ('A' for Active; 'I' for Inactive)
REMARK    1  A    between atoms: C8_8  and  C11_11 
ROOT
HETATM    1  C1  UNL     1     -34.994  14.895  -6.129  1.00 20.00    -0.081 C 
HETATM    2  C2  UNL     1     -34.284  15.158  -7.236  1.00 20.00     0.015 C 
HETATM    3  C3  UNL     1     -34.932  13.553  -5.435  1.00 20.00     0.061 C 
HETATM    4  C4  UNL     1     -37.320  15.400  -5.300  1.00 20.00     0.039 C 
HETATM    5  C5  UNL     1     -34.978  13.655  -3.904  1.00 20.00     0.239 C 
HETATM    6  C6  UNL     1     -37.305  14.620  -3.978  1.00 20.00     0.236 C 
HETATM    7  C7  UNL     1     -35.887  15.938  -5.477  1.00 20.00     0.046 C 
HETATM    8  C8  UNL     1     -35.469  16.140  -4.023  1.00 20.00     0.199 C 
HETATM    9  N12 UNL     1     -35.880  14.790  -3.457  1.00 20.00    -0.066 N 
HETATM   10  H32 UNL     1     -35.888  14.824  -2.428  1.00 20.00     0.280 HD
ENDROOT
BRANCH   8  11
HETATM   11  C11 UNL     1     -34.023  16.503  -3.732  1.00 20.00     0.009 C 
HETATM   12  C9  UNL     1     -33.638  17.806  -4.435  1.00 20.00     0.011 C 
HETATM   13  C10 UNL     1     -33.785  16.624  -2.224  1.00 20.00     0.011 C 
ENDBRANCH   8  11
TORSDOF 1
ENDMDL
MODEL 4
REMARK VINA RESULT:      -4.5      1.468      2.844
REMARK  1 active torsions:
REMARK  status: ('A' for Active; 'I' for Inactive)
REMARK    1  A    between atoms: C8_8  and  C11_11 
ROOT
HETATM    1  C1  UNL     1     -34.146  14.681  -3.673  1.00 20.00    -0.081 C 
HETATM    2  C2  UNL     1     -33.400  13.570  -3.765  1.00 20.00     0.015 C 
HETATM    3  C3  UNL     1     -33.687  15.894  -2.894  1.00 20.00     0.061 C 
HETATM    4  C4  UNL     1     -36.592  15.209  -3.371  1.00 20.00     0.039 C 
HETATM    5  C5  UNL     1     -34.066  17.225  -3.559  1.00 20.00     0.239 C 
HETATM    6  C6  UNL     1     -36.522  16.739  -3.270  1.00 20.00     0.236 C 
HETATM    7  C7  UNL     1     -35.489  14.812  -4.371  1.00 20.00     0.046 C 
HETATM    8  C8  UNL     1     -35.478  16.029  -5.292  1.00 20.00     0.199 C 
HETATM    9  N12 UNL     1     -35.416  17.130  -4.247  1.00 20.00    -0.066 N 
HETATM   10  H32 UNL     1     -35.636  18.039  -4.675  1.00 20.00     0.280 HD
ENDROOT
BRANCH   8  11
HETATM   11  C11 UNL     1     -34.385  16.128  -6.342  1.00 20.00     0.009 C 
HETATM   12  C9  UNL     1     -34.434  14.931  -7.293  1.00 20.00     0.011 C 
HETATM   13  C10 UNL     1     -34.503  17.436  -7.130  1.00 20.00     0.011 C 
ENDBRANCH   8  11
TORSDOF 1
ENDMDL
MODEL 5
REMARK VINA RESULT:      -4.5      1.276      2.858
REMARK  1 active torsions:
REMARK  status: ('A' for Active; 'I' for Inactive)
REMARK    1  A    between atoms: C8_8  and  C11_11 
ROOT
HETATM    1  C1  UNL     1     -34.128  15.608  -3.480  1.00 20.00    -0.081 C 
HETATM    2  C2  UNL     1     -33.740  16.298  -2.397  1.00 20.00     0.015 C 
HETATM    3  C3  UNL     1     -33.910  14.116  -3.602  1.00 20.00     0.061 C 
HETATM    4  C4  UNL     1     -34.115  15.978  -5.973  1.00 20.00     0.039 C 
HETATM    5  C5  UNL     1     -35.071  13.383  -4.290  1.00 20.00     0.239 C 
HETATM    6  C6  UNL     1     -34.652  14.620  -6.445  1.00 20.00     0.236 C 
HETATM    7  C7  UNL     1     -34.843  16.270  -4.646  1.00 20.00     0.046 C 
HETATM    8  C8  UNL     1     -36.182  15.582  -4.891  1.00 20.00     0.199 C 
HETATM    9  N12 UNL     1     -35.683  14.235  -5.387  1.00 20.00    -0.066 N 
HETATM   10  H32 UNL     1     -36.452  13.710  -5.825  1.00 20.00     0.280 HD
ENDROOT
BRANCH   8  11
HETATM   11  C11 UNL     1     -37.161  15.475  -3.733  1.00 20.00     0.009 C 
HETATM   12  C9  UNL     1     -37.523  16.862  -3.198  1.00 20.00     0.011 C 
HETATM   13  C10 UNL     1     -38.425  14.724  -4.156  1.00 20.00     0.011 C 
ENDBRANCH   8  11
TORSDOF 1
ENDMDL
MODEL 6
REMARK VINA RESULT:      -4.5      1.299      2.899
REMARK  1 active torsions:
REMARK  status: ('A' for Active; 'I' for Inactive)
REMARK    1  A    between atoms: C8_8  and  C11_11 
ROOT
HETATM    1  C1  UNL     1     -33.958  14.179  -4.116  1.00 20.00    -0.081 C 
HETATM    2  C2  UNL     1     -32.934  13.583  -3.487  1.00 20.00     0.015 C 
HETATM    3  C3  UNL     1     -35.285  13.485  -4.327  1.00 20.00     0.061 C 
HETATM    4  C4  UNL     1     -34.234  15.673  -6.127  1.00 20.00     0.039 C 
HETATM    5  C5  UNL     1     -36.494  14.420  -4.177  1.00 20.00     0.239 C 
HETATM    6  C6  UNL     1     -35.764  15.780  -6.169  1.00 20.00     0.236 C 
HETATM    7  C7  UNL     1     -33.867  15.605  -4.632  1.00 20.00     0.046 C 
HETATM    8  C8  UNL     1     -34.982  16.449  -4.020  1.00 20.00     0.199 C 
HETATM    9  N12 UNL     1     -36.180  15.809  -4.701  1.00 20.00    -0.066 N 
HETATM   10  H32 UNL     1     -37.012  16.404  -4.587  1.00 20.00     0.280 HD
ENDROOT
BRANCH   8  11
HETATM   11  C11 UNL     1     -35.100  16.498  -2.506  1.00 20.00     0.009 C 
HETATM   12  C9  UNL     1     -33.764  16.879  -1.867  1.00 20.00     0.011 C 
HETATM   13  C10 UNL     1     -36.192  17.482  -2.077  1.00 20.00     0.011 C 
ENDBRANCH   8  11
TORSDOF 1
ENDMDL
MODEL 7
REMARK VINA RESULT:      -4.5      1.317      1.679
REMARK  1 active torsions:
REMARK  status: ('A' for Active; 'I' for Inactive)
REMARK    1  A    between atoms: C8_8  and  C11_11 
ROOT
HETATM    1  C1  UNL     1     -35.003  16.487  -3.810  1.00 20.00    -0.081 C 
HETATM    2  C2  UNL     1     -35.293  17.789  -3.670  1.00 20.00     0.015 C 
HETATM    3  C3  UNL     1     -35.907  15.400  -3.270  1.00 20.00     0.061 C 
HETATM    4  C4  UNL     1     -32.930  15.061  -3.668  1.00 20.00     0.039 C 
HETATM    5  C5  UNL     1     -35.999  14.172  -4.186  1.00 20.00     0.239 C 
HETATM    6  C6  UNL     1     -33.551  13.671  -3.862  1.00 20.00     0.236 C 
HETATM    7  C7  UNL     1     -33.764  16.011  -4.549  1.00 20.00     0.046 C 
HETATM    8  C8  UNL     1     -34.166  15.077  -5.686  1.00 20.00     0.199 C 
HETATM    9  N12 UNL     1     -34.674  13.898  -4.872  1.00 20.00    -0.066 N 
HETATM   10  H32 UNL     1     -34.774  13.069  -5.472  1.00 20.00     0.280 HD
ENDROOT
BRANCH   8  11
HETATM   11  C11 UNL     1     -35.167  15.579  -6.713  1.00 20.00     0.009 C 
HETATM   12  C9  UNL     1     -34.637  16.824  -7.426  1.00 20.00     0.011 C 
HETATM   13  C10 UNL     1     -35.498  14.485  -7.731  1.00 20.00     0.011 C 
ENDBRANCH   8  11
TORSDOF 1
ENDMDL
MODEL 8
REMARK VINA RESULT:      -4.4      1.380      3.342
REMARK  1 active torsions:
REMARK  status: ('A' for Active; 'I' for Inactive)
REMARK    1  A    between atoms: C8_8  and  C11_11 
ROOT
HETATM    1  C1  UNL     1     -35.541  15.853  -5.060  1.00 20.00    -0.081 C 
HETATM    2  C2  UNL     1     -36.618  16.468  -5.570  1.00 20.00     0.015 C 
HETATM    3  C3  UNL     1     -34.172  15.973  -5.693  1.00 20.00     0.061 C 
HETATM    4  C4  UNL     1     -35.048  13.604  -4.033  1.00 20.00     0.039 C 
HETATM    5  C5  UNL     1     -33.031  16.054  -4.670  1.00 20.00     0.239 C 
HETATM    6  C6  UNL     1     -33.532  13.730  -3.836  1.00 20.00     0.236 C 
HETATM    7  C7  UNL     1     -35.613  15.018  -3.792  1.00 20.00     0.046 C 
HETATM    8  C8  UNL     1     -34.624  15.556  -2.762  1.00 20.00     0.199 C 
HETATM    9  N12 UNL     1     -33.321  15.193  -3.454  1.00 20.00    -0.066 N 
HETATM   10  H32 UNL     1     -32.535  15.271  -2.795  1.00 20.00     0.280 HD
ENDROOT
BRANCH   8  11
HETATM   11  C11 UNL     1     -34.715  17.021  -2.371  1.00 20.00     0.009 C 
HETATM   12  C9  UNL     1     -36.142  17.386  -1.957  1.00 20.00     0.011 C 
HETATM   13  C10 UNL     1     -33.735  17.345  -1.241  1.00 20.00     0.011 C 
ENDBRANCH   8  11
TORSDOF 1
ENDMDL
MODEL 9
REMARK VINA RESULT:      -4.3      1.169      2.175
REMARK  1 active torsions:
REMARK  status: ('A' for Active; 'I' for Inactive)
REMARK    1  A    between atoms: C8_8  and  C11_11 
ROOT
HETATM    1  C1  UNL     1     -36.187  14.957  -3.783  1.00 20.00    -0.081 C 
HETATM    2  C2  UNL     1     -37.498  15.041  -3.513  1.00 20.00     0.015 C 
HETATM    3  C3  UNL     1     -35.545  13.673  -4.262  1.00 20.00     0.061 C 
HETATM    4  C4  UNL     1     -34.059  15.827  -2.749  1.00 20.00     0.039 C 
HETATM    5  C5  UNL     1     -34.451  13.894  -5.316  1.00 20.00     0.239 C 
HETATM    6  C6  UNL     1     -33.026  15.152  -3.661  1.00 20.00     0.236 C 
HETATM    7  C7  UNL     1     -35.259  16.155  -3.659  1.00 20.00     0.046 C 
HETATM    8  C8  UNL     1     -34.557  16.406  -4.990  1.00 20.00     0.199 C 
HETATM    9  N12 UNL     1     -33.675  15.169  -5.043  1.00 20.00    -0.066 N 
HETATM   10  H32 UNL     1     -32.952  15.280  -5.766  1.00 20.00     0.280 HD
ENDROOT
BRANCH   8  11
HETATM   11  C11 UNL     1     -35.411  16.594  -6.232  1.00 20.00     0.009 C 
HETATM   12  C9  UNL     1     -36.409  17.737  -6.038  1.00 20.00     0.011 C 
HETATM   13  C10 UNL     1     -34.537  16.858  -7.460  1.00 20.00     0.011 C 
ENDBRANCH   8  11
TORSDOF 1
ENDMDL
