MODEL 1
REMARK VINA RESULT:      -5.3      0.000      0.000
REMARK  1 active torsions:
REMARK  status: ('A' for Active; 'I' for Inactive)
REMARK    1  A    between atoms: C2_2  and  C6_6 
ROOT
HETATM    1  C3  UNL     1     -35.553   5.043   4.226  1.00 20.00     0.003 C 
HETATM    2  C4  UNL     1     -34.316   5.424   3.414  1.00 20.00     0.011 C 
HETATM    3  C5  UNL     1     -35.160   4.459   5.580  1.00 20.00     0.034 C 
HETATM    4  C6  UNL     1     -33.526   6.564   4.084  1.00 20.00     0.039 C 
HETATM    5  C7  UNL     1     -34.131   5.271   6.295  1.00 20.00     0.151 A 
HETATM    6  C8  UNL     1     -33.294   6.279   5.548  1.00 20.00     0.158 A 
HETATM    7  O9  UNL     1     -34.403   6.670   6.385  1.00 20.00    -0.375 OA
ENDROOT
BRANCH   4   8
HETATM    8  C2  UNL     1     -32.264   6.828   3.314  1.00 20.00    -0.030 C 
HETATM    9  C1  UNL     1     -32.134   7.792   2.396  1.00 20.00     0.007 C 
ENDBRANCH   4   8
TORSDOF 1
ENDMDL
MODEL 2
REMARK VINA RESULT:      -4.5     12.087     13.159
REMARK  1 active torsions:
REMARK  status: ('A' for Active; 'I' for Inactive)
REMARK    1  A    between atoms: C2_2  and  C6_6 
ROOT
HETATM    1  C3  UNL     1     -34.238  13.797  -4.753  1.00 20.00     0.003 C 
HETATM    2  C4  UNL     1     -34.825  14.346  -3.453  1.00 20.00     0.011 C 
HETATM    3  C5  UNL     1     -34.421  14.790  -5.899  1.00 20.00     0.034 C 
HETATM    4  C6  UNL     1     -34.066  15.596  -2.972  1.00 20.00     0.039 C 
HETATM    5  C7  UNL     1     -34.025  16.184  -5.537  1.00 20.00     0.151 A 
HETATM    6  C8  UNL     1     -33.894  16.594  -4.092  1.00 20.00     0.158 A 
HETATM    7  O9  UNL     1     -32.745  16.322  -4.922  1.00 20.00    -0.375 OA
ENDROOT
BRANCH   4   8
HETATM    8  C2  UNL     1     -34.745  16.165  -1.758  1.00 20.00    -0.030 C 
HETATM    9  C1  UNL     1     -34.167  17.023  -0.911  1.00 20.00     0.007 C 
ENDBRANCH   4   8
TORSDOF 1
ENDMDL
MODEL 3
REMARK VINA RESULT:      -4.4     11.574     12.606
REMARK  1 active torsions:
REMARK  status: ('A' for Active; 'I' for Inactive)
REMARK    1  A    between atoms: C2_2  and  C6_6 
ROOT
HETATM    1  C3  UNL     1     -36.174  15.175  -5.429  1.00 20.00     0.003 C 
HETATM    2  C4  UNL     1     -35.457  16.001  -4.362  1.00 20.00     0.011 C 
HETATM    3  C5  UNL     1     -35.215  14.193  -6.098  1.00 20.00     0.034 C 
HETATM    4  C6  UNL     1     -34.970  15.121  -3.196  1.00 20.00     0.039 C 
HETATM    5  C7  UNL     1     -34.386  13.425  -5.122  1.00 20.00     0.151 A 
HETATM    6  C8  UNL     1     -34.228  13.907  -3.702  1.00 20.00     0.158 A 
HETATM    7  O9  UNL     1     -35.103  12.813  -4.050  1.00 20.00    -0.375 OA
ENDROOT
BRANCH   4   8
HETATM    8  C2  UNL     1     -34.176  15.953  -2.230  1.00 20.00    -0.030 C 
HETATM    9  C1  UNL     1     -34.682  16.498  -1.118  1.00 20.00     0.007 C 
ENDBRANCH   4   8
TORSDOF 1
ENDMDL
MODEL 4
REMARK VINA RESULT:      -4.2     11.542     13.303
REMARK  1 active torsions:
REMARK  status: ('A' for Active; 'I' for Inactive)
REMARK    1  A    between atoms: C2_2  and  C6_6 
ROOT
HETATM    1  C3  UNL     1     -33.281  15.985  -4.438  1.00 20.00     0.003 C 
HETATM    2  C4  UNL     1     -34.231  15.920  -5.633  1.00 20.00     0.011 C 
HETATM    3  C5  UNL     1     -33.892  15.302  -3.216  1.00 20.00     0.034 C 
HETATM    4  C6  UNL     1     -34.454  14.470  -6.102  1.00 20.00     0.039 C 
HETATM    5  C7  UNL     1     -34.472  13.961  -3.520  1.00 20.00     0.151 A 
HETATM    6  C8  UNL     1     -34.791  13.567  -4.940  1.00 20.00     0.158 A 
HETATM    7  O9  UNL     1     -33.624  13.073  -4.249  1.00 20.00    -0.375 OA
ENDROOT
BRANCH   4   8
HETATM    8  C2  UNL     1     -35.477  14.445  -7.202  1.00 20.00    -0.030 C 
HETATM    9  C1  UNL     1     -36.607  15.160  -7.190  1.00 20.00     0.007 C 
ENDBRANCH   4   8
TORSDOF 1
ENDMDL
MODEL 5
REMARK VINA RESULT:      -4.2      9.220     10.756
REMARK  1 active torsions:
REMARK  status: ('A' for Active; 'I' for Inactive)
REMARK    1  A    between atoms: C2_2  and  C6_6 
ROOT
HETATM    1  C3  UNL     1     -40.919   5.878  -0.141  1.00 20.00     0.003 C 
HETATM    2  C4  UNL     1     -40.655   4.634  -0.988  1.00 20.00     0.011 C 
HETATM    3  C5  UNL     1     -41.102   7.111  -1.023  1.00 20.00     0.034 C 
HETATM    4  C6  UNL     1     -41.870   4.275  -1.863  1.00 20.00     0.039 C 
HETATM    5  C7  UNL     1     -42.038   6.884  -2.165  1.00 20.00     0.151 A 
HETATM    6  C8  UNL     1     -42.381   5.484  -2.608  1.00 20.00     0.158 A 
HETATM    7  O9  UNL     1     -43.290   6.289  -1.827  1.00 20.00    -0.375 OA
ENDROOT
BRANCH   4   8
HETATM    8  C2  UNL     1     -41.526   3.117  -2.757  1.00 20.00    -0.030 C 
HETATM    9  C1  UNL     1     -42.380   2.139  -3.077  1.00 20.00     0.007 C 
ENDBRANCH   4   8
TORSDOF 1
ENDMDL
MODEL 6
REMARK VINA RESULT:      -4.1     11.911     12.510
REMARK  1 active torsions:
REMARK  status: ('A' for Active; 'I' for Inactive)
REMARK    1  A    between atoms: C2_2  and  C6_6 
ROOT
HETATM    1  C3  UNL     1     -33.944  13.737  -4.353  1.00 20.00     0.003 C 
HETATM    2  C4  UNL     1     -33.546  14.631  -3.179  1.00 20.00     0.011 C 
HETATM    3  C5  UNL     1     -35.421  13.358  -4.275  1.00 20.00     0.034 C 
HETATM    4  C6  UNL     1     -34.271  15.989  -3.228  1.00 20.00     0.039 C 
HETATM    5  C7  UNL     1     -36.314  14.524  -4.005  1.00 20.00     0.151 A 
HETATM    6  C8  UNL     1     -35.754  15.807  -3.447  1.00 20.00     0.158 A 
HETATM    7  O9  UNL     1     -36.108  15.664  -4.839  1.00 20.00    -0.375 OA
ENDROOT
BRANCH   4   8
HETATM    8  C2  UNL     1     -33.936  16.787  -2.001  1.00 20.00    -0.030 C 
HETATM    9  C1  UNL     1     -34.554  16.645  -0.823  1.00 20.00     0.007 C 
ENDBRANCH   4   8
TORSDOF 1
ENDMDL
MODEL 7
REMARK VINA RESULT:      -4.1      1.334      2.120
REMARK  1 active torsions:
REMARK  status: ('A' for Active; 'I' for Inactive)
REMARK    1  A    between atoms: C2_2  and  C6_6 
ROOT
HETATM    1  C3  UNL     1     -33.839   5.542   6.378  1.00 20.00     0.003 C 
HETATM    2  C4  UNL     1     -33.432   6.611   5.366  1.00 20.00     0.011 C 
HETATM    3  C5  UNL     1     -35.270   5.071   6.132  1.00 20.00     0.034 C 
HETATM    4  C6  UNL     1     -33.386   6.048   3.933  1.00 20.00     0.039 C 
HETATM    5  C7  UNL     1     -35.548   4.758   4.698  1.00 20.00     0.151 A 
HETATM    6  C8  UNL     1     -34.643   5.277   3.610  1.00 20.00     0.158 A 
HETATM    7  O9  UNL     1     -34.598   3.906   4.058  1.00 20.00    -0.375 OA
ENDROOT
BRANCH   4   8
HETATM    8  C2  UNL     1     -33.092   7.156   2.962  1.00 20.00    -0.030 C 
HETATM    9  C1  UNL     1     -31.869   7.643   2.729  1.00 20.00     0.007 C 
ENDBRANCH   4   8
TORSDOF 1
ENDMDL
MODEL 8
REMARK VINA RESULT:      -4.0     11.975     12.799
REMARK  1 active torsions:
REMARK  status: ('A' for Active; 'I' for Inactive)
REMARK    1  A    between atoms: C2_2  and  C6_6 
ROOT
HETATM    1  C3  UNL     1     -34.076  15.496  -5.612  1.00 20.00     0.003 C 
HETATM    2  C4  UNL     1     -33.494  16.089  -4.329  1.00 20.00     0.011 C 
HETATM    3  C5  UNL     1     -34.478  14.037  -5.408  1.00 20.00     0.034 C 
HETATM    4  C6  UNL     1     -34.546  16.157  -3.207  1.00 20.00     0.039 C 
HETATM    5  C7  UNL     1     -35.272  13.815  -4.163  1.00 20.00     0.151 A 
HETATM    6  C8  UNL     1     -35.271  14.841  -3.058  1.00 20.00     0.158 A 
HETATM    7  O9  UNL     1     -36.379  14.696  -3.971  1.00 20.00    -0.375 OA
ENDROOT
BRANCH   4   8
HETATM    8  C2  UNL     1     -33.904  16.639  -1.938  1.00 20.00    -0.030 C 
HETATM    9  C1  UNL     1     -34.538  16.728  -0.764  1.00 20.00     0.007 C 
ENDBRANCH   4   8
TORSDOF 1
ENDMDL
MODEL 9
REMARK VINA RESULT:      -3.9     11.932     13.616
REMARK  1 active torsions:
REMARK  status: ('A' for Active; 'I' for Inactive)
REMARK    1  A    between atoms: C2_2  and  C6_6 
ROOT
HETATM    1  C3  UNL     1     -33.398  13.864  -3.786  1.00 20.00     0.003 C 
HETATM    2  C4  UNL     1     -33.313  15.380  -3.612  1.00 20.00     0.011 C 
HETATM    3  C5  UNL     1     -34.799  13.442  -4.223  1.00 20.00     0.034 C 
HETATM    4  C6  UNL     1     -33.512  16.117  -4.950  1.00 20.00     0.039 C 
HETATM    5  C7  UNL     1     -35.337  14.263  -5.348  1.00 20.00     0.151 A 
HETATM    6  C8  UNL     1     -34.730  15.603  -5.679  1.00 20.00     0.158 A 
HETATM    7  O9  UNL     1     -34.464  14.423  -6.467  1.00 20.00    -0.375 OA
ENDROOT
BRANCH   4   8
HETATM    8  C2  UNL     1     -33.532  17.600  -4.713  1.00 20.00    -0.030 C 
HETATM    9  C1  UNL     1     -33.620  18.513  -5.687  1.00 20.00     0.007 C 
ENDBRANCH   4   8
TORSDOF 1
ENDMDL
