MODEL 1
REMARK VINA RESULT:      -4.9      0.000      0.000
REMARK  1 active torsions:
REMARK  status: ('A' for Active; 'I' for Inactive)
REMARK    1  A    between atoms: C7_7  and  C10_10 
ROOT
HETATM    1  C1  UNL     1     -35.983  16.460  -2.900  1.00 20.00    -0.023 C 
HETATM    2  C2  UNL     1     -36.689  15.369  -3.353  1.00 20.00    -0.012 C 
HETATM    3  C3  UNL     1     -34.687  13.621  -4.169  1.00 20.00     0.140 C 
HETATM    4  C4  UNL     1     -33.244  13.994  -3.766  1.00 20.00     0.080 C 
HETATM    5  C5  UNL     1     -33.354  15.515  -3.382  1.00 20.00     0.017 C 
HETATM    6  C6  UNL     1     -34.763  15.588  -2.844  1.00 20.00     0.028 C 
HETATM    7  C7  UNL     1     -35.458  14.968  -4.157  1.00 20.00     0.048 C 
HETATM    8  O11 UNL     1     -35.061  12.492  -4.446  1.00 20.00    -0.297 OA
ENDROOT
BRANCH   7   9
HETATM    9  C10 UNL     1     -35.465  15.587  -5.568  1.00 20.00    -0.002 C 
HETATM   10  C8  UNL     1     -34.419  14.908  -6.441  1.00 20.00     0.011 C 
HETATM   11  C9  UNL     1     -36.852  15.471  -6.184  1.00 20.00     0.011 C 
ENDBRANCH   7   9
TORSDOF 1
ENDMDL
MODEL 2
REMARK VINA RESULT:      -4.8      1.177      3.056
REMARK  1 active torsions:
REMARK  status: ('A' for Active; 'I' for Inactive)
REMARK    1  A    between atoms: C7_7  and  C10_10 
ROOT
HETATM    1  C1  UNL     1     -33.298  16.902  -5.072  1.00 20.00    -0.023 C 
HETATM    2  C2  UNL     1     -33.025  15.826  -4.256  1.00 20.00    -0.012 C 
HETATM    3  C3  UNL     1     -34.713  13.850  -5.244  1.00 20.00     0.140 C 
HETATM    4  C4  UNL     1     -35.410  14.151  -6.588  1.00 20.00     0.080 C 
HETATM    5  C5  UNL     1     -35.255  15.709  -6.738  1.00 20.00     0.017 C 
HETATM    6  C6  UNL     1     -33.940  15.949  -6.036  1.00 20.00     0.028 C 
HETATM    7  C7  UNL     1     -34.377  15.245  -4.655  1.00 20.00     0.048 C 
HETATM    8  O11 UNL     1     -34.522  12.730  -4.796  1.00 20.00    -0.297 OA
ENDROOT
BRANCH   7   9
HETATM    9  C10 UNL     1     -35.503  15.705  -3.709  1.00 20.00    -0.002 C 
HETATM   10  C8  UNL     1     -36.690  14.758  -3.810  1.00 20.00     0.011 C 
HETATM   11  C9  UNL     1     -34.986  15.786  -2.280  1.00 20.00     0.011 C 
ENDBRANCH   7   9
TORSDOF 1
ENDMDL
MODEL 3
REMARK VINA RESULT:      -4.7      1.546      2.285
REMARK  1 active torsions:
REMARK  status: ('A' for Active; 'I' for Inactive)
REMARK    1  A    between atoms: C7_7  and  C10_10 
ROOT
HETATM    1  C1  UNL     1     -36.549  14.405  -4.052  1.00 20.00    -0.023 C 
HETATM    2  C2  UNL     1     -35.439  13.709  -4.475  1.00 20.00    -0.012 C 
HETATM    3  C3  UNL     1     -33.333  15.226  -3.480  1.00 20.00     0.140 C 
HETATM    4  C4  UNL     1     -33.702  16.338  -2.476  1.00 20.00     0.080 C 
HETATM    5  C5  UNL     1     -35.249  16.522  -2.688  1.00 20.00     0.017 C 
HETATM    6  C6  UNL     1     -35.668  15.124  -3.073  1.00 20.00     0.028 C 
HETATM    7  C7  UNL     1     -34.630  14.988  -4.297  1.00 20.00     0.048 C 
HETATM    8  O11 UNL     1     -32.230  14.709  -3.570  1.00 20.00    -0.297 OA
ENDROOT
BRANCH   7   9
HETATM    9  C10 UNL     1     -34.612  15.841  -5.581  1.00 20.00    -0.002 C 
HETATM   10  C8  UNL     1     -33.530  16.908  -5.483  1.00 20.00     0.011 C 
HETATM   11  C9  UNL     1     -34.397  14.952  -6.797  1.00 20.00     0.011 C 
ENDBRANCH   7   9
TORSDOF 1
ENDMDL
MODEL 4
REMARK VINA RESULT:      -4.7      1.392      1.948
REMARK  1 active torsions:
REMARK  status: ('A' for Active; 'I' for Inactive)
REMARK    1  A    between atoms: C7_7  and  C10_10 
ROOT
HETATM    1  C1  UNL     1     -33.852  16.260  -2.434  1.00 20.00    -0.023 C 
HETATM    2  C2  UNL     1     -35.214  16.402  -2.295  1.00 20.00    -0.012 C 
HETATM    3  C3  UNL     1     -36.223  14.352  -3.880  1.00 20.00     0.140 C 
HETATM    4  C4  UNL     1     -35.202  13.312  -4.387  1.00 20.00     0.080 C 
HETATM    5  C5  UNL     1     -33.818  14.028  -4.180  1.00 20.00     0.017 C 
HETATM    6  C6  UNL     1     -34.097  14.878  -2.965  1.00 20.00     0.028 C 
HETATM    7  C7  UNL     1     -35.379  15.623  -3.594  1.00 20.00     0.048 C 
HETATM    8  O11 UNL     1     -37.423  14.155  -3.774  1.00 20.00    -0.297 OA
ENDROOT
BRANCH   7   9
HETATM    9  C10 UNL     1     -35.385  16.550  -4.825  1.00 20.00    -0.002 C 
HETATM   10  C8  UNL     1     -35.684  15.747  -6.083  1.00 20.00     0.011 C 
HETATM   11  C9  UNL     1     -36.401  17.667  -4.633  1.00 20.00     0.011 C 
ENDBRANCH   7   9
TORSDOF 1
ENDMDL
MODEL 5
REMARK VINA RESULT:      -4.6      1.574      3.148
REMARK  1 active torsions:
REMARK  status: ('A' for Active; 'I' for Inactive)
REMARK    1  A    between atoms: C7_7  and  C10_10 
ROOT
HETATM    1  C1  UNL     1     -34.781  16.219  -1.612  1.00 20.00    -0.023 C 
HETATM    2  C2  UNL     1     -33.742  16.359  -2.504  1.00 20.00    -0.012 C 
HETATM    3  C3  UNL     1     -34.971  15.956  -4.965  1.00 20.00     0.140 C 
HETATM    4  C4  UNL     1     -36.515  15.922  -4.964  1.00 20.00     0.080 C 
HETATM    5  C5  UNL     1     -36.873  15.694  -3.450  1.00 20.00     0.017 C 
HETATM    6  C6  UNL     1     -35.730  16.398  -2.761  1.00 20.00     0.028 C 
HETATM    7  C7  UNL     1     -34.569  15.575  -3.516  1.00 20.00     0.048 C 
HETATM    8  O11 UNL     1     -34.282  16.213  -5.940  1.00 20.00    -0.297 OA
ENDROOT
BRANCH   7   9
HETATM    9  C10 UNL     1     -34.311  14.059  -3.419  1.00 20.00    -0.002 C 
HETATM   10  C8  UNL     1     -35.096  13.326  -4.497  1.00 20.00     0.011 C 
HETATM   11  C9  UNL     1     -32.821  13.774  -3.535  1.00 20.00     0.011 C 
ENDBRANCH   7   9
TORSDOF 1
ENDMDL
MODEL 6
REMARK VINA RESULT:      -4.5      1.955      3.519
REMARK  1 active torsions:
REMARK  status: ('A' for Active; 'I' for Inactive)
REMARK    1  A    between atoms: C7_7  and  C10_10 
ROOT
HETATM    1  C1  UNL     1     -34.461  13.193  -4.828  1.00 20.00    -0.023 C 
HETATM    2  C2  UNL     1     -35.246  13.929  -3.968  1.00 20.00    -0.012 C 
HETATM    3  C3  UNL     1     -35.832  16.207  -5.451  1.00 20.00     0.140 C 
HETATM    4  C4  UNL     1     -35.460  16.166  -6.949  1.00 20.00     0.080 C 
HETATM    5  C5  UNL     1     -34.449  14.965  -7.040  1.00 20.00     0.017 C 
HETATM    6  C6  UNL     1     -34.961  14.056  -5.949  1.00 20.00     0.028 C 
HETATM    7  C7  UNL     1     -34.893  15.167  -4.784  1.00 20.00     0.048 C 
HETATM    8  O11 UNL     1     -36.678  16.941  -4.965  1.00 20.00    -0.297 OA
ENDROOT
BRANCH   7   9
HETATM    9  C10 UNL     1     -33.624  15.862  -4.256  1.00 20.00    -0.002 C 
HETATM   10  C8  UNL     1     -33.397  17.171  -4.999  1.00 20.00     0.011 C 
HETATM   11  C9  UNL     1     -33.741  16.095  -2.757  1.00 20.00     0.011 C 
ENDBRANCH   7   9
TORSDOF 1
ENDMDL
MODEL 7
REMARK VINA RESULT:      -4.5      1.288      3.431
REMARK  1 active torsions:
REMARK  status: ('A' for Active; 'I' for Inactive)
REMARK    1  A    between atoms: C7_7  and  C10_10 
ROOT
HETATM    1  C1  UNL     1     -34.399  15.619  -6.717  1.00 20.00    -0.023 C 
HETATM    2  C2  UNL     1     -34.818  14.386  -6.269  1.00 20.00    -0.012 C 
HETATM    3  C3  UNL     1     -36.612  15.033  -4.245  1.00 20.00     0.140 C 
HETATM    4  C4  UNL     1     -37.026  16.516  -4.143  1.00 20.00     0.080 C 
HETATM    5  C5  UNL     1     -35.923  17.261  -4.981  1.00 20.00     0.017 C 
HETATM    6  C6  UNL     1     -35.585  16.223  -6.023  1.00 20.00     0.028 C 
HETATM    7  C7  UNL     1     -35.238  15.057  -4.967  1.00 20.00     0.048 C 
HETATM    8  O11 UNL     1     -37.265  14.098  -3.810  1.00 20.00    -0.297 OA
ENDROOT
BRANCH   7   9
HETATM    9  C10 UNL     1     -34.097  15.070  -3.931  1.00 20.00    -0.002 C 
HETATM   10  C8  UNL     1     -34.610  15.586  -2.594  1.00 20.00     0.011 C 
HETATM   11  C9  UNL     1     -33.503  13.676  -3.790  1.00 20.00     0.011 C 
ENDBRANCH   7   9
TORSDOF 1
ENDMDL
MODEL 8
REMARK VINA RESULT:      -4.5      1.911      2.759
REMARK  1 active torsions:
REMARK  status: ('A' for Active; 'I' for Inactive)
REMARK    1  A    between atoms: C7_7  and  C10_10 
ROOT
HETATM    1  C1  UNL     1     -35.124  13.358  -4.190  1.00 20.00    -0.023 C 
HETATM    2  C2  UNL     1     -34.514  13.878  -5.311  1.00 20.00    -0.012 C 
HETATM    3  C3  UNL     1     -33.696  16.397  -4.466  1.00 20.00     0.140 C 
HETATM    4  C4  UNL     1     -33.793  16.678  -2.951  1.00 20.00     0.080 C 
HETATM    5  C5  UNL     1     -34.758  15.550  -2.432  1.00 20.00     0.017 C 
HETATM    6  C6  UNL     1     -34.440  14.421  -3.382  1.00 20.00     0.028 C 
HETATM    7  C7  UNL     1     -34.728  15.267  -4.722  1.00 20.00     0.048 C 
HETATM    8  O11 UNL     1     -32.959  16.991  -5.237  1.00 20.00    -0.297 OA
ENDROOT
BRANCH   7   9
HETATM    9  C10 UNL     1     -36.080  15.872  -5.150  1.00 20.00    -0.002 C 
HETATM   10  C8  UNL     1     -36.160  17.329  -4.718  1.00 20.00     0.011 C 
HETATM   11  C9  UNL     1     -36.261  15.735  -6.655  1.00 20.00     0.011 C 
ENDBRANCH   7   9
TORSDOF 1
ENDMDL
MODEL 9
REMARK VINA RESULT:      -4.4      1.748      3.295
REMARK  1 active torsions:
REMARK  status: ('A' for Active; 'I' for Inactive)
REMARK    1  A    between atoms: C7_7  and  C10_10 
ROOT
HETATM    1  C1  UNL     1     -34.982  16.581  -6.080  1.00 20.00    -0.023 C 
HETATM    2  C2  UNL     1     -33.698  16.811  -5.638  1.00 20.00    -0.012 C 
HETATM    3  C3  UNL     1     -33.281  14.743  -3.827  1.00 20.00     0.140 C 
HETATM    4  C4  UNL     1     -34.339  13.619  -3.814  1.00 20.00     0.080 C 
HETATM    5  C5  UNL     1     -35.565  14.262  -4.559  1.00 20.00     0.017 C 
HETATM    6  C6  UNL     1     -34.873  15.190  -5.529  1.00 20.00     0.028 C 
HETATM    7  C7  UNL     1     -34.026  15.975  -4.407  1.00 20.00     0.048 C 
HETATM    8  O11 UNL     1     -32.133  14.622  -3.430  1.00 20.00    -0.297 OA
ENDROOT
BRANCH   7   9
HETATM    9  C10 UNL     1     -34.598  16.835  -3.263  1.00 20.00    -0.002 C 
HETATM   10  C8  UNL     1     -34.639  16.028  -1.973  1.00 20.00     0.011 C 
HETATM   11  C9  UNL     1     -33.767  18.099  -3.093  1.00 20.00     0.011 C 
ENDBRANCH   7   9
TORSDOF 1
ENDMDL
