MODEL 1
REMARK VINA RESULT:      -4.6      0.000      0.000
REMARK  0 active torsions:
REMARK  status: ('A' for Active; 'I' for Inactive)
ROOT
HETATM    1  C1  UNL     1     -42.532   7.674  -1.164  1.00 20.00    -0.025 A 
HETATM    2  C2  UNL     1     -43.148   6.859  -2.041  1.00 20.00    -0.020 A 
HETATM    3  C3  UNL     1     -40.792   6.069  -0.078  1.00 20.00     0.014 C 
HETATM    4  C4  UNL     1     -40.661   4.681  -0.695  1.00 20.00     0.070 C 
HETATM    5  C5  UNL     1     -43.417   2.986  -1.406  1.00 20.00     0.197 C 
HETATM    6  C6  UNL     1     -42.852   2.938  -2.799  1.00 20.00     0.197 C 
HETATM    7  C7  UNL     1     -41.209   6.944  -1.259  1.00 20.00     0.021 A 
HETATM    8  C8  UNL     1     -41.917   6.003  -2.271  1.00 20.00     0.078 A 
HETATM    9  C9  UNL     1     -41.848   4.601  -1.653  1.00 20.00     0.171 C 
HETATM   10  O10 UNL     1     -43.051   4.284  -0.938  1.00 20.00    -0.352 OA
HETATM   11  O11 UNL     1     -41.607   3.621  -2.668  1.00 20.00    -0.352 OA
ENDROOT
TORSDOF 0
ENDMDL
MODEL 2
REMARK VINA RESULT:      -4.5     12.426     13.989
REMARK  0 active torsions:
REMARK  status: ('A' for Active; 'I' for Inactive)
ROOT
HETATM    1  C1  UNL     1     -35.394  13.492  -4.121  1.00 20.00    -0.025 A 
HETATM    2  C2  UNL     1     -34.936  14.537  -3.409  1.00 20.00    -0.020 A 
HETATM    3  C3  UNL     1     -35.004  14.300  -6.566  1.00 20.00     0.014 C 
HETATM    4  C4  UNL     1     -34.231  15.602  -6.742  1.00 20.00     0.070 C 
HETATM    5  C5  UNL     1     -35.029  18.198  -4.844  1.00 20.00     0.197 C 
HETATM    6  C6  UNL     1     -33.580  18.162  -4.440  1.00 20.00     0.197 C 
HETATM    7  C7  UNL     1     -34.436  13.723  -5.270  1.00 20.00     0.021 A 
HETATM    8  C8  UNL     1     -33.905  14.930  -4.450  1.00 20.00     0.078 A 
HETATM    9  C9  UNL     1     -34.151  16.167  -5.325  1.00 20.00     0.171 C 
HETATM   10  O10 UNL     1     -35.378  16.821  -4.972  1.00 20.00    -0.352 OA
HETATM   11  O11 UNL     1     -33.056  17.082  -5.210  1.00 20.00    -0.352 OA
ENDROOT
TORSDOF 0
ENDMDL
MODEL 3
REMARK VINA RESULT:      -4.5     12.274     13.541
REMARK  0 active torsions:
REMARK  status: ('A' for Active; 'I' for Inactive)
ROOT
HETATM    1  C1  UNL     1     -33.668  16.263  -2.687  1.00 20.00    -0.025 A 
HETATM    2  C2  UNL     1     -33.768  16.994  -3.812  1.00 20.00    -0.020 A 
HETATM    3  C3  UNL     1     -34.263  13.878  -3.547  1.00 20.00     0.014 C 
HETATM    4  C4  UNL     1     -34.419  13.712  -5.054  1.00 20.00     0.070 C 
HETATM    5  C5  UNL     1     -36.192  15.954  -6.729  1.00 20.00     0.197 C 
HETATM    6  C6  UNL     1     -34.938  16.123  -7.542  1.00 20.00     0.197 C 
HETATM    7  C7  UNL     1     -33.242  15.008  -3.418  1.00 20.00     0.021 A 
HETATM    8  C8  UNL     1     -33.356  15.849  -4.718  1.00 20.00     0.078 A 
HETATM    9  C9  UNL     1     -34.418  15.148  -5.575  1.00 20.00     0.171 C 
HETATM   10  O10 UNL     1     -35.710  15.748  -5.402  1.00 20.00    -0.352 OA
HETATM   11  O11 UNL     1     -34.043  15.180  -6.956  1.00 20.00    -0.352 OA
ENDROOT
TORSDOF 0
ENDMDL
MODEL 4
REMARK VINA RESULT:      -4.4      9.238     10.783
REMARK  0 active torsions:
REMARK  status: ('A' for Active; 'I' for Inactive)
ROOT
HETATM    1  C1  UNL     1     -34.861   5.806   6.515  1.00 20.00    -0.025 A 
HETATM    2  C2  UNL     1     -33.688   6.425   6.289  1.00 20.00    -0.020 A 
HETATM    3  C3  UNL     1     -35.505   4.998   4.124  1.00 20.00     0.014 C 
HETATM    4  C4  UNL     1     -34.458   5.184   3.032  1.00 20.00     0.070 C 
HETATM    5  C5  UNL     1     -32.877   8.088   2.818  1.00 20.00     0.197 C 
HETATM    6  C6  UNL     1     -31.633   7.254   2.954  1.00 20.00     0.197 C 
HETATM    7  C7  UNL     1     -34.669   4.811   5.390  1.00 20.00     0.021 A 
HETATM    8  C8  UNL     1     -33.315   5.524   5.127  1.00 20.00     0.078 A 
HETATM    9  C9  UNL     1     -33.402   6.067   3.695  1.00 20.00     0.171 C 
HETATM   10  O10 UNL     1     -33.812   7.442   3.681  1.00 20.00    -0.352 OA
HETATM   11  O11 UNL     1     -32.141   5.924   3.032  1.00 20.00    -0.352 OA
ENDROOT
TORSDOF 0
ENDMDL
MODEL 5
REMARK VINA RESULT:      -4.4     11.940     13.504
REMARK  0 active torsions:
REMARK  status: ('A' for Active; 'I' for Inactive)
ROOT
HETATM    1  C1  UNL     1     -34.493  13.209  -4.734  1.00 20.00    -0.025 A 
HETATM    2  C2  UNL     1     -33.660  13.704  -3.800  1.00 20.00    -0.020 A 
HETATM    3  C3  UNL     1     -36.081  15.230  -5.155  1.00 20.00     0.014 C 
HETATM    4  C4  UNL     1     -35.712  16.545  -4.478  1.00 20.00     0.070 C 
HETATM    5  C5  UNL     1     -34.821  16.500  -1.288  1.00 20.00     0.197 C 
HETATM    6  C6  UNL     1     -33.564  17.162  -1.781  1.00 20.00     0.197 C 
HETATM    7  C7  UNL     1     -34.729  14.556  -5.384  1.00 20.00     0.021 A 
HETATM    8  C8  UNL     1     -33.769  15.130  -4.306  1.00 20.00     0.078 A 
HETATM    9  C9  UNL     1     -34.595  16.151  -3.514  1.00 20.00     0.171 C 
HETATM   10  O10 UNL     1     -35.140  15.569  -2.321  1.00 20.00    -0.352 OA
HETATM   11  O11 UNL     1     -33.794  17.289  -3.183  1.00 20.00    -0.352 OA
ENDROOT
TORSDOF 0
ENDMDL
MODEL 6
REMARK VINA RESULT:      -4.4     10.867     12.212
REMARK  0 active torsions:
REMARK  status: ('A' for Active; 'I' for Inactive)
ROOT
HETATM    1  C1  UNL     1     -34.078  16.087  -2.298  1.00 20.00    -0.025 A 
HETATM    2  C2  UNL     1     -35.160  16.705  -2.806  1.00 20.00    -0.020 A 
HETATM    3  C3  UNL     1     -34.176  13.775  -3.493  1.00 20.00     0.014 C 
HETATM    4  C4  UNL     1     -35.225  13.613  -4.588  1.00 20.00     0.070 C 
HETATM    5  C5  UNL     1     -38.309  14.678  -4.010  1.00 20.00     0.197 C 
HETATM    6  C6  UNL     1     -38.098  15.505  -5.248  1.00 20.00     0.197 C 
HETATM    7  C7  UNL     1     -33.836  15.264  -3.546  1.00 20.00     0.021 A 
HETATM    8  C8  UNL     1     -35.084  15.976  -4.134  1.00 20.00     0.078 A 
HETATM    9  C9  UNL     1     -36.093  14.861  -4.441  1.00 20.00     0.171 C 
HETATM   10  O10 UNL     1     -37.034  14.699  -3.370  1.00 20.00    -0.352 OA
HETATM   11  O11 UNL     1     -36.784  15.139  -5.663  1.00 20.00    -0.352 OA
ENDROOT
TORSDOF 0
ENDMDL
MODEL 7
REMARK VINA RESULT:      -4.4     11.689     13.190
REMARK  0 active torsions:
REMARK  status: ('A' for Active; 'I' for Inactive)
ROOT
HETATM    1  C1  UNL     1     -34.336  15.141  -7.031  1.00 20.00    -0.025 A 
HETATM    2  C2  UNL     1     -34.583  16.241  -6.297  1.00 20.00    -0.020 A 
HETATM    3  C3  UNL     1     -34.626  13.247  -5.268  1.00 20.00     0.014 C 
HETATM    4  C4  UNL     1     -35.155  13.660  -3.899  1.00 20.00     0.070 C 
HETATM    5  C5  UNL     1     -33.862  16.335  -2.431  1.00 20.00     0.197 C 
HETATM    6  C6  UNL     1     -35.284  16.823  -2.397  1.00 20.00     0.197 C 
HETATM    7  C7  UNL     1     -35.262  14.264  -6.215  1.00 20.00     0.021 A 
HETATM    8  C8  UNL     1     -35.548  15.532  -5.366  1.00 20.00     0.078 A 
HETATM    9  C9  UNL     1     -35.102  15.186  -3.939  1.00 20.00     0.171 C 
HETATM   10  O10 UNL     1     -33.769  15.652  -3.681  1.00 20.00    -0.352 OA
HETATM   11  O11 UNL     1     -36.011  15.746  -2.985  1.00 20.00    -0.352 OA
ENDROOT
TORSDOF 0
ENDMDL
MODEL 8
REMARK VINA RESULT:      -4.4     11.898     13.255
REMARK  0 active torsions:
REMARK  status: ('A' for Active; 'I' for Inactive)
ROOT
HETATM    1  C1  UNL     1     -34.452  13.303  -4.859  1.00 20.00    -0.025 A 
HETATM    2  C2  UNL     1     -35.658  13.889  -4.750  1.00 20.00    -0.020 A 
HETATM    3  C3  UNL     1     -32.915  15.018  -3.643  1.00 20.00     0.014 C 
HETATM    4  C4  UNL     1     -33.607  16.173  -2.930  1.00 20.00     0.070 C 
HETATM    5  C5  UNL     1     -36.028  17.797  -4.504  1.00 20.00     0.197 C 
HETATM    6  C6  UNL     1     -36.857  17.426  -3.305  1.00 20.00     0.197 C 
HETATM    7  C7  UNL     1     -33.938  13.885  -3.560  1.00 20.00     0.021 A 
HETATM    8  C8  UNL     1     -35.329  14.563  -3.432  1.00 20.00     0.078 A 
HETATM    9  C9  UNL     1     -35.055  16.072  -3.405  1.00 20.00     0.171 C 
HETATM   10  O10 UNL     1     -35.200  16.653  -4.709  1.00 20.00    -0.352 OA
HETATM   11  O11 UNL     1     -35.933  16.720  -2.478  1.00 20.00    -0.352 OA
ENDROOT
TORSDOF 0
ENDMDL
MODEL 9
REMARK VINA RESULT:      -4.4     11.866     13.193
REMARK  0 active torsions:
REMARK  status: ('A' for Active; 'I' for Inactive)
ROOT
HETATM    1  C1  UNL     1     -33.737  13.639  -3.553  1.00 20.00    -0.025 A 
HETATM    2  C2  UNL     1     -34.747  13.286  -4.368  1.00 20.00    -0.020 A 
HETATM    3  C3  UNL     1     -33.296  16.099  -4.285  1.00 20.00     0.014 C 
HETATM    4  C4  UNL     1     -34.282  16.706  -5.276  1.00 20.00     0.070 C 
HETATM    5  C5  UNL     1     -35.190  14.924  -7.917  1.00 20.00     0.197 C 
HETATM    6  C6  UNL     1     -36.586  15.144  -7.403  1.00 20.00     0.197 C 
HETATM    7  C7  UNL     1     -34.146  15.096  -3.507  1.00 20.00     0.021 A 
HETATM    8  C8  UNL     1     -35.313  14.691  -4.449  1.00 20.00     0.078 A 
HETATM    9  C9  UNL     1     -35.116  15.510  -5.731  1.00 20.00     0.171 C 
HETATM   10  O10 UNL     1     -34.415  14.757  -6.731  1.00 20.00    -0.352 OA
HETATM   11  O11 UNL     1     -36.381  15.946  -6.241  1.00 20.00    -0.352 OA
ENDROOT
TORSDOF 0
ENDMDL
