MODEL 1
REMARK VINA RESULT:      -4.6      0.000      0.000
REMARK  2 active torsions:
REMARK  status: ('A' for Active; 'I' for Inactive)
REMARK    1  A    between atoms: C3_3  and  C4_4 
REMARK    2  A    between atoms: C4_4  and  C5_5 
ROOT
HETATM    1  C1  UNL     1     -32.062   8.242   2.124  1.00 20.00    -0.151 C 
HETATM    2  C2  UNL     1     -32.045   8.887   0.997  1.00 20.00     0.096 C 
HETATM    3  C3  UNL     1     -32.077   7.599   3.253  1.00 20.00     0.103 C 
ENDROOT
BRANCH   3   4
HETATM    4  C4  UNL     1     -32.544   6.197   3.316  1.00 20.00     0.188 C 
HETATM    5  O9  UNL     1     -32.502   5.423   2.369  1.00 20.00    -0.290 OA
BRANCH   4   6
HETATM    6  C5  UNL     1     -33.076   5.768   4.609  1.00 20.00     0.230 A 
HETATM    7  C6  UNL     1     -34.542   5.436   4.799  1.00 20.00     0.088 A 
HETATM    8  C7  UNL     1     -34.941   4.570   5.954  1.00 20.00     0.049 C 
HETATM    9  C8  UNL     1     -35.508   5.517   3.659  1.00 20.00     0.049 C 
HETATM   10  O10 UNL     1     -34.000   6.704   5.189  1.00 20.00    -0.362 OA
ENDBRANCH   4   6
ENDBRANCH   3   4
TORSDOF 2
ENDMDL
MODEL 2
REMARK VINA RESULT:      -4.5     11.100     11.998
REMARK  2 active torsions:
REMARK  status: ('A' for Active; 'I' for Inactive)
REMARK    1  A    between atoms: C3_3  and  C4_4 
REMARK    2  A    between atoms: C4_4  and  C5_5 
ROOT
HETATM    1  C1  UNL     1     -33.960  16.068  -2.273  1.00 20.00    -0.151 C 
HETATM    2  C2  UNL     1     -34.661  16.487  -1.263  1.00 20.00     0.096 C 
HETATM    3  C3  UNL     1     -33.256  15.652  -3.282  1.00 20.00     0.103 C 
ENDROOT
BRANCH   3   4
HETATM    4  C4  UNL     1     -33.667  14.453  -4.045  1.00 20.00     0.188 C 
HETATM    5  O9  UNL     1     -33.419  13.307  -3.697  1.00 20.00    -0.290 OA
BRANCH   4   6
HETATM    6  C5  UNL     1     -34.408  14.716  -5.279  1.00 20.00     0.230 A 
HETATM    7  C6  UNL     1     -35.923  14.704  -5.318  1.00 20.00     0.088 A 
HETATM    8  C7  UNL     1     -36.620  15.425  -6.430  1.00 20.00     0.049 C 
HETATM    9  C8  UNL     1     -36.727  14.439  -4.084  1.00 20.00     0.049 C 
HETATM   10  O10 UNL     1     -35.149  13.579  -5.756  1.00 20.00    -0.362 OA
ENDBRANCH   4   6
ENDBRANCH   3   4
TORSDOF 2
ENDMDL
MODEL 3
REMARK VINA RESULT:      -4.4     11.427     12.380
REMARK  2 active torsions:
REMARK  status: ('A' for Active; 'I' for Inactive)
REMARK    1  A    between atoms: C3_3  and  C4_4 
REMARK    2  A    between atoms: C4_4  and  C5_5 
ROOT
HETATM    1  C1  UNL     1     -34.559  16.566  -1.129  1.00 20.00    -0.151 C 
HETATM    2  C2  UNL     1     -34.829  17.141   0.004  1.00 20.00     0.096 C 
HETATM    3  C3  UNL     1     -34.285  15.990  -2.261  1.00 20.00     0.103 C 
ENDROOT
BRANCH   3   4
HETATM    4  C4  UNL     1     -35.340  15.786  -3.278  1.00 20.00     0.188 C 
HETATM    5  O9  UNL     1     -36.503  15.520  -3.006  1.00 20.00    -0.290 OA
BRANCH   4   6
HETATM    6  C5  UNL     1     -34.909  15.921  -4.669  1.00 20.00     0.230 A 
HETATM    7  C6  UNL     1     -34.489  14.723  -5.496  1.00 20.00     0.088 A 
HETATM    8  C7  UNL     1     -34.523  14.830  -6.988  1.00 20.00     0.049 C 
HETATM    9  C8  UNL     1     -34.517  13.340  -4.923  1.00 20.00     0.049 C 
HETATM   10  O10 UNL     1     -33.526  15.585  -4.876  1.00 20.00    -0.362 OA
ENDBRANCH   4   6
ENDBRANCH   3   4
TORSDOF 2
ENDMDL
MODEL 4
REMARK VINA RESULT:      -4.3     11.030     12.035
REMARK  2 active torsions:
REMARK  status: ('A' for Active; 'I' for Inactive)
REMARK    1  A    between atoms: C3_3  and  C4_4 
REMARK    2  A    between atoms: C4_4  and  C5_5 
ROOT
HETATM    1  C1  UNL     1     -35.424  14.573  -6.683  1.00 20.00    -0.151 C 
HETATM    2  C2  UNL     1     -36.446  14.771  -7.459  1.00 20.00     0.096 C 
HETATM    3  C3  UNL     1     -34.400  14.377  -5.909  1.00 20.00     0.103 C 
ENDROOT
BRANCH   3   4
HETATM    4  C4  UNL     1     -34.579  13.838  -4.543  1.00 20.00     0.188 C 
HETATM    5  O9  UNL     1     -35.081  12.748  -4.303  1.00 20.00    -0.290 OA
BRANCH   4   6
HETATM    6  C5  UNL     1     -34.111  14.701  -3.458  1.00 20.00     0.230 A 
HETATM    7  C6  UNL     1     -35.005  15.752  -2.832  1.00 20.00     0.088 A 
HETATM    8  C7  UNL     1     -34.673  16.257  -1.462  1.00 20.00     0.049 C 
HETATM    9  C8  UNL     1     -36.418  15.937  -3.288  1.00 20.00     0.049 C 
HETATM   10  O10 UNL     1     -34.028  16.089  -3.825  1.00 20.00    -0.362 OA
ENDBRANCH   4   6
ENDBRANCH   3   4
TORSDOF 2
ENDMDL
MODEL 5
REMARK VINA RESULT:      -4.3     11.254     12.656
REMARK  2 active torsions:
REMARK  status: ('A' for Active; 'I' for Inactive)
REMARK    1  A    between atoms: C3_3  and  C4_4 
REMARK    2  A    between atoms: C4_4  and  C5_5 
ROOT
HETATM    1  C1  UNL     1     -34.380  16.245  -1.840  1.00 20.00    -0.151 C 
HETATM    2  C2  UNL     1     -34.059  17.163  -0.980  1.00 20.00     0.096 C 
HETATM    3  C3  UNL     1     -34.706  15.326  -2.699  1.00 20.00     0.103 C 
ENDROOT
BRANCH   3   4
HETATM    4  C4  UNL     1     -33.742  14.884  -3.732  1.00 20.00     0.188 C 
HETATM    5  O9  UNL     1     -32.531  14.851  -3.562  1.00 20.00    -0.290 OA
BRANCH   4   6
HETATM    6  C5  UNL     1     -34.330  14.475  -5.008  1.00 20.00     0.230 A 
HETATM    7  C6  UNL     1     -34.491  15.446  -6.160  1.00 20.00     0.088 A 
HETATM    8  C7  UNL     1     -34.635  14.900  -7.547  1.00 20.00     0.049 C 
HETATM    9  C8  UNL     1     -34.035  16.866  -6.045  1.00 20.00     0.049 C 
HETATM   10  O10 UNL     1     -35.584  15.117  -5.294  1.00 20.00    -0.362 OA
ENDBRANCH   4   6
ENDBRANCH   3   4
TORSDOF 2
ENDMDL
MODEL 6
REMARK VINA RESULT:      -4.2     11.211     12.225
REMARK  2 active torsions:
REMARK  status: ('A' for Active; 'I' for Inactive)
REMARK    1  A    between atoms: C3_3  and  C4_4 
REMARK    2  A    between atoms: C4_4  and  C5_5 
ROOT
HETATM    1  C1  UNL     1     -34.810  15.245  -6.816  1.00 20.00    -0.151 C 
HETATM    2  C2  UNL     1     -34.474  16.406  -7.291  1.00 20.00     0.096 C 
HETATM    3  C3  UNL     1     -35.147  14.082  -6.344  1.00 20.00     0.103 C 
ENDROOT
BRANCH   3   4
HETATM    4  C4  UNL     1     -35.094  13.814  -4.890  1.00 20.00     0.188 C 
HETATM    5  O9  UNL     1     -35.026  12.692  -4.408  1.00 20.00    -0.290 OA
BRANCH   4   6
HETATM    6  C5  UNL     1     -35.128  14.997  -4.030  1.00 20.00     0.230 A 
HETATM    7  C6  UNL     1     -33.872  15.561  -3.397  1.00 20.00     0.088 A 
HETATM    8  C7  UNL     1     -33.872  16.988  -2.945  1.00 20.00     0.049 C 
HETATM    9  C8  UNL     1     -32.534  14.937  -3.644  1.00 20.00     0.049 C 
HETATM   10  O10 UNL     1     -34.774  14.722  -2.664  1.00 20.00    -0.362 OA
ENDBRANCH   4   6
ENDBRANCH   3   4
TORSDOF 2
ENDMDL
MODEL 7
REMARK VINA RESULT:      -4.2     11.188     12.364
REMARK  2 active torsions:
REMARK  status: ('A' for Active; 'I' for Inactive)
REMARK    1  A    between atoms: C3_3  and  C4_4 
REMARK    2  A    between atoms: C4_4  and  C5_5 
ROOT
HETATM    1  C1  UNL     1     -34.166  17.114  -1.722  1.00 20.00    -0.151 C 
HETATM    2  C2  UNL     1     -34.664  16.661  -0.612  1.00 20.00     0.096 C 
HETATM    3  C3  UNL     1     -33.667  17.571  -2.831  1.00 20.00     0.103 C 
ENDROOT
BRANCH   3   4
HETATM    4  C4  UNL     1     -33.781  16.794  -4.085  1.00 20.00     0.188 C 
HETATM    5  O9  UNL     1     -32.842  16.582  -4.841  1.00 20.00    -0.290 OA
BRANCH   4   6
HETATM    6  C5  UNL     1     -35.115  16.277  -4.387  1.00 20.00     0.230 A 
HETATM    7  C6  UNL     1     -35.485  14.828  -4.140  1.00 20.00     0.088 A 
HETATM    8  C7  UNL     1     -36.931  14.467  -4.005  1.00 20.00     0.049 C 
HETATM    9  C8  UNL     1     -34.498  13.867  -3.556  1.00 20.00     0.049 C 
HETATM   10  O10 UNL     1     -35.127  15.303  -5.444  1.00 20.00    -0.362 OA
ENDBRANCH   4   6
ENDBRANCH   3   4
TORSDOF 2
ENDMDL
MODEL 8
REMARK VINA RESULT:      -4.1     11.455     12.211
REMARK  2 active torsions:
REMARK  status: ('A' for Active; 'I' for Inactive)
REMARK    1  A    between atoms: C3_3  and  C4_4 
REMARK    2  A    between atoms: C4_4  and  C5_5 
ROOT
HETATM    1  C1  UNL     1     -34.845  17.131  -0.007  1.00 20.00    -0.151 C 
HETATM    2  C2  UNL     1     -35.249  17.689   1.094  1.00 20.00     0.096 C 
HETATM    3  C3  UNL     1     -34.437  16.572  -1.107  1.00 20.00     0.103 C 
ENDROOT
BRANCH   3   4
HETATM    4  C4  UNL     1     -35.275  16.607  -2.326  1.00 20.00     0.188 C 
HETATM    5  O9  UNL     1     -35.868  17.604  -2.714  1.00 20.00    -0.290 OA
BRANCH   4   6
HETATM    6  C5  UNL     1     -35.361  15.349  -3.067  1.00 20.00     0.230 A 
HETATM    7  C6  UNL     1     -34.378  15.000  -4.166  1.00 20.00     0.088 A 
HETATM    8  C7  UNL     1     -34.206  13.563  -4.550  1.00 20.00     0.049 C 
HETATM    9  C8  UNL     1     -33.261  15.928  -4.527  1.00 20.00     0.049 C 
HETATM   10  O10 UNL     1     -35.680  15.524  -4.458  1.00 20.00    -0.362 OA
ENDBRANCH   4   6
ENDBRANCH   3   4
TORSDOF 2
ENDMDL
MODEL 9
REMARK VINA RESULT:      -4.1     11.376     12.380
REMARK  2 active torsions:
REMARK  status: ('A' for Active; 'I' for Inactive)
REMARK    1  A    between atoms: C3_3  and  C4_4 
REMARK    2  A    between atoms: C4_4  and  C5_5 
ROOT
HETATM    1  C1  UNL     1     -34.038  15.982  -6.124  1.00 20.00    -0.151 C 
HETATM    2  C2  UNL     1     -33.649  17.192  -5.859  1.00 20.00     0.096 C 
HETATM    3  C3  UNL     1     -34.426  14.771  -6.392  1.00 20.00     0.103 C 
ENDROOT
BRANCH   3   4
HETATM    4  C4  UNL     1     -35.226  14.001  -5.414  1.00 20.00     0.188 C 
HETATM    5  O9  UNL     1     -34.917  12.889  -5.009  1.00 20.00    -0.290 OA
BRANCH   4   6
HETATM    6  C5  UNL     1     -36.445  14.657  -4.942  1.00 20.00     0.230 A 
HETATM    7  C6  UNL     1     -36.501  15.375  -3.608  1.00 20.00     0.088 A 
HETATM    8  C7  UNL     1     -37.565  16.404  -3.388  1.00 20.00     0.049 C 
HETATM    9  C8  UNL     1     -35.297  15.457  -2.724  1.00 20.00     0.049 C 
HETATM   10  O10 UNL     1     -37.009  14.044  -3.770  1.00 20.00    -0.362 OA
ENDBRANCH   4   6
ENDBRANCH   3   4
TORSDOF 2
ENDMDL
