MODEL 1
REMARK VINA RESULT:      -5.5      0.000      0.000
REMARK  1 active torsions:
REMARK  status: ('A' for Active; 'I' for Inactive)
REMARK    1  A    between atoms: C7_7  and  C10_10 
ROOT
HETATM    1  C1  UNL     1     -34.657   4.843   6.063  1.00 20.00    -0.004 C 
HETATM    2  C2  UNL     1     -33.864   6.035   6.251  1.00 20.00    -0.004 C 
HETATM    3  C3  UNL     1     -35.422   4.527   5.008  1.00 20.00    -0.019 C 
HETATM    4  C4  UNL     1     -33.390   6.903   5.343  1.00 20.00    -0.014 C 
HETATM    5  C5  UNL     1     -34.159   5.664   3.270  1.00 20.00     0.138 C 
HETATM    6  C6  UNL     1     -35.549   5.321   3.752  1.00 20.00     0.106 C 
HETATM    7  C7  UNL     1     -33.527   6.931   3.842  1.00 20.00     0.081 C 
HETATM    8  O11 UNL     1     -33.570   4.928   2.477  1.00 20.00    -0.297 OA
ENDROOT
BRANCH   7   9
HETATM    9  C10 UNL     1     -32.164   7.189   3.198  1.00 20.00    -0.008 C 
HETATM   10  C8  UNL     1     -32.297   8.178   2.044  1.00 20.00     0.010 C 
HETATM   11  C9  UNL     1     -31.171   7.702   4.236  1.00 20.00     0.010 C 
ENDBRANCH   7   9
TORSDOF 1
ENDMDL
MODEL 2
REMARK VINA RESULT:      -4.8     11.614     12.798
REMARK  1 active torsions:
REMARK  status: ('A' for Active; 'I' for Inactive)
REMARK    1  A    between atoms: C7_7  and  C10_10 
ROOT
HETATM    1  C1  UNL     1     -34.368  15.241  -6.413  1.00 20.00    -0.004 C 
HETATM    2  C2  UNL     1     -33.766  16.218  -5.536  1.00 20.00    -0.004 C 
HETATM    3  C3  UNL     1     -34.794  14.010  -6.097  1.00 20.00    -0.019 C 
HETATM    4  C4  UNL     1     -33.820  16.320  -4.199  1.00 20.00    -0.014 C 
HETATM    5  C5  UNL     1     -35.440  14.413  -3.788  1.00 20.00     0.138 C 
HETATM    6  C6  UNL     1     -34.808  13.414  -4.730  1.00 20.00     0.106 C 
HETATM    7  C7  UNL     1     -34.512  15.459  -3.173  1.00 20.00     0.081 C 
HETATM    8  O11 UNL     1     -36.651  14.388  -3.567  1.00 20.00    -0.297 OA
ENDROOT
BRANCH   7   9
HETATM    9  C10 UNL     1     -35.278  16.338  -2.183  1.00 20.00    -0.008 C 
HETATM   10  C8  UNL     1     -34.418  16.638  -0.959  1.00 20.00     0.010 C 
HETATM   11  C9  UNL     1     -35.728  17.632  -2.855  1.00 20.00     0.010 C 
ENDBRANCH   7   9
TORSDOF 1
ENDMDL
MODEL 3
REMARK VINA RESULT:      -4.6     11.787     12.914
REMARK  1 active torsions:
REMARK  status: ('A' for Active; 'I' for Inactive)
REMARK    1  A    between atoms: C7_7  and  C10_10 
ROOT
HETATM    1  C1  UNL     1     -35.294  13.661  -5.116  1.00 20.00    -0.004 C 
HETATM    2  C2  UNL     1     -35.861  14.183  -3.895  1.00 20.00    -0.004 C 
HETATM    3  C3  UNL     1     -34.710  14.351  -6.107  1.00 20.00    -0.019 C 
HETATM    4  C4  UNL     1     -35.632  15.350  -3.272  1.00 20.00    -0.014 C 
HETATM    5  C5  UNL     1     -33.793  16.186  -4.804  1.00 20.00     0.138 C 
HETATM    6  C6  UNL     1     -34.449  15.818  -6.115  1.00 20.00     0.106 C 
HETATM    7  C7  UNL     1     -34.724  16.498  -3.634  1.00 20.00     0.081 C 
HETATM    8  O11 UNL     1     -32.566  16.197  -4.697  1.00 20.00    -0.297 OA
ENDROOT
BRANCH   7   9
HETATM    9  C10 UNL     1     -33.919  16.933  -2.409  1.00 20.00    -0.008 C 
HETATM   10  C8  UNL     1     -33.749  18.449  -2.393  1.00 20.00     0.010 C 
HETATM   11  C9  UNL     1     -34.593  16.452  -1.128  1.00 20.00     0.010 C 
ENDBRANCH   7   9
TORSDOF 1
ENDMDL
MODEL 4
REMARK VINA RESULT:      -4.4     11.305     13.615
REMARK  1 active torsions:
REMARK  status: ('A' for Active; 'I' for Inactive)
REMARK    1  A    between atoms: C7_7  and  C10_10 
ROOT
HETATM    1  C1  UNL     1     -34.516  13.479  -4.698  1.00 20.00    -0.004 C 
HETATM    2  C2  UNL     1     -34.734  14.255  -5.897  1.00 20.00    -0.004 C 
HETATM    3  C3  UNL     1     -33.580  13.672  -3.758  1.00 20.00    -0.019 C 
HETATM    4  C4  UNL     1     -34.358  15.510  -6.187  1.00 20.00    -0.014 C 
HETATM    5  C5  UNL     1     -33.362  16.087  -3.929  1.00 20.00     0.138 C 
HETATM    6  C6  UNL     1     -32.603  14.797  -3.716  1.00 20.00     0.106 C 
HETATM    7  C7  UNL     1     -33.587  16.519  -5.376  1.00 20.00     0.081 C 
HETATM    8  O11 UNL     1     -33.797  16.725  -2.969  1.00 20.00    -0.297 OA
ENDROOT
BRANCH   7   9
HETATM    9  C10 UNL     1     -34.290  17.877  -5.426  1.00 20.00    -0.008 C 
HETATM   10  C8  UNL     1     -33.648  18.772  -6.483  1.00 20.00     0.010 C 
HETATM   11  C9  UNL     1     -35.779  17.698  -5.704  1.00 20.00     0.010 C 
ENDBRANCH   7   9
TORSDOF 1
ENDMDL
MODEL 5
REMARK VINA RESULT:      -4.3     11.304     12.550
REMARK  1 active torsions:
REMARK  status: ('A' for Active; 'I' for Inactive)
REMARK    1  A    between atoms: C7_7  and  C10_10 
ROOT
HETATM    1  C1  UNL     1     -33.333  15.491  -3.183  1.00 20.00    -0.004 C 
HETATM    2  C2  UNL     1     -34.592  15.950  -2.644  1.00 20.00    -0.004 C 
HETATM    3  C3  UNL     1     -33.084  14.328  -3.802  1.00 20.00    -0.019 C 
HETATM    4  C4  UNL     1     -35.843  15.559  -2.932  1.00 20.00    -0.014 C 
HETATM    5  C5  UNL     1     -35.264  13.960  -4.812  1.00 20.00     0.138 C 
HETATM    6  C6  UNL     1     -34.093  13.283  -4.138  1.00 20.00     0.106 C 
HETATM    7  C7  UNL     1     -36.352  14.519  -3.898  1.00 20.00     0.081 C 
HETATM    8  O11 UNL     1     -35.303  14.072  -6.038  1.00 20.00    -0.297 OA
ENDROOT
BRANCH   7   9
HETATM    9  C10 UNL     1     -37.504  15.094  -4.726  1.00 20.00    -0.008 C 
HETATM   10  C8  UNL     1     -38.845  14.740  -4.091  1.00 20.00     0.010 C 
HETATM   11  C9  UNL     1     -37.357  16.606  -4.868  1.00 20.00     0.010 C 
ENDBRANCH   7   9
TORSDOF 1
ENDMDL
MODEL 6
REMARK VINA RESULT:      -4.3     11.760     13.309
REMARK  1 active torsions:
REMARK  status: ('A' for Active; 'I' for Inactive)
REMARK    1  A    between atoms: C7_7  and  C10_10 
ROOT
HETATM    1  C1  UNL     1     -33.462  15.843  -3.089  1.00 20.00    -0.004 C 
HETATM    2  C2  UNL     1     -33.317  16.208  -4.479  1.00 20.00    -0.004 C 
HETATM    3  C3  UNL     1     -34.599  15.729  -2.388  1.00 20.00    -0.019 C 
HETATM    4  C4  UNL     1     -34.210  16.154  -5.479  1.00 20.00    -0.014 C 
HETATM    5  C5  UNL     1     -36.087  15.046  -4.184  1.00 20.00     0.138 C 
HETATM    6  C6  UNL     1     -35.979  15.883  -2.930  1.00 20.00     0.106 C 
HETATM    7  C7  UNL     1     -35.650  15.707  -5.490  1.00 20.00     0.081 C 
HETATM    8  O11 UNL     1     -36.481  13.880  -4.129  1.00 20.00    -0.297 OA
ENDROOT
BRANCH   7   9
HETATM    9  C10 UNL     1     -35.897  14.770  -6.674  1.00 20.00    -0.008 C 
HETATM   10  C8  UNL     1     -37.199  15.135  -7.380  1.00 20.00     0.010 C 
HETATM   11  C9  UNL     1     -34.723  14.819  -7.647  1.00 20.00     0.010 C 
ENDBRANCH   7   9
TORSDOF 1
ENDMDL
MODEL 7
REMARK VINA RESULT:      -4.3     12.162     13.462
REMARK  1 active torsions:
REMARK  status: ('A' for Active; 'I' for Inactive)
REMARK    1  A    between atoms: C7_7  and  C10_10 
ROOT
HETATM    1  C1  UNL     1     -35.184  15.941  -2.401  1.00 20.00    -0.004 C 
HETATM    2  C2  UNL     1     -36.062  15.343  -3.379  1.00 20.00    -0.004 C 
HETATM    3  C3  UNL     1     -33.843  15.965  -2.411  1.00 20.00    -0.019 C 
HETATM    4  C4  UNL     1     -35.827  15.019  -4.660  1.00 20.00    -0.014 C 
HETATM    5  C5  UNL     1     -33.482  15.971  -4.815  1.00 20.00     0.138 C 
HETATM    6  C6  UNL     1     -32.968  15.438  -3.498  1.00 20.00     0.106 C 
HETATM    7  C7  UNL     1     -34.583  15.163  -5.499  1.00 20.00     0.081 C 
HETATM    8  O11 UNL     1     -33.044  17.023  -5.281  1.00 20.00    -0.297 OA
ENDROOT
BRANCH   7   9
HETATM    9  C10 UNL     1     -34.935  15.778  -6.855  1.00 20.00    -0.008 C 
HETATM   10  C8  UNL     1     -35.175  14.684  -7.891  1.00 20.00     0.010 C 
HETATM   11  C9  UNL     1     -36.160  16.680  -6.730  1.00 20.00     0.010 C 
ENDBRANCH   7   9
TORSDOF 1
ENDMDL
MODEL 8
REMARK VINA RESULT:      -4.2     10.324     11.223
REMARK  1 active torsions:
REMARK  status: ('A' for Active; 'I' for Inactive)
REMARK    1  A    between atoms: C7_7  and  C10_10 
ROOT
HETATM    1  C1  UNL     1     -43.169   6.473   0.135  1.00 20.00    -0.004 C 
HETATM    2  C2  UNL     1     -42.781   5.093   0.307  1.00 20.00    -0.004 C 
HETATM    3  C3  UNL     1     -42.771   7.321  -0.825  1.00 20.00    -0.019 C 
HETATM    4  C4  UNL     1     -42.274   4.226  -0.583  1.00 20.00    -0.014 C 
HETATM    5  C5  UNL     1     -42.423   5.723  -2.623  1.00 20.00     0.138 C 
HETATM    6  C6  UNL     1     -41.891   6.983  -1.980  1.00 20.00     0.106 C 
HETATM    7  C7  UNL     1     -41.936   4.398  -2.042  1.00 20.00     0.081 C 
HETATM    8  O11 UNL     1     -43.232   5.785  -3.549  1.00 20.00    -0.297 OA
ENDROOT
BRANCH   7   9
HETATM    9  C10 UNL     1     -42.491   3.222  -2.849  1.00 20.00    -0.008 C 
HETATM   10  C8  UNL     1     -41.353   2.377  -3.413  1.00 20.00     0.010 C 
HETATM   11  C9  UNL     1     -43.417   2.372  -1.985  1.00 20.00     0.010 C 
ENDBRANCH   7   9
TORSDOF 1
ENDMDL
MODEL 9
REMARK VINA RESULT:      -4.2     11.414     13.598
REMARK  1 active torsions:
REMARK  status: ('A' for Active; 'I' for Inactive)
REMARK    1  A    between atoms: C7_7  and  C10_10 
ROOT
HETATM    1  C1  UNL     1     -34.461  13.611  -5.020  1.00 20.00    -0.004 C 
HETATM    2  C2  UNL     1     -34.891  14.265  -6.234  1.00 20.00    -0.004 C 
HETATM    3  C3  UNL     1     -34.781  13.935  -3.759  1.00 20.00    -0.019 C 
HETATM    4  C4  UNL     1     -35.950  15.060  -6.452  1.00 20.00    -0.014 C 
HETATM    5  C5  UNL     1     -36.997  14.853  -4.153  1.00 20.00     0.138 C 
HETATM    6  C6  UNL     1     -35.728  15.010  -3.346  1.00 20.00     0.106 C 
HETATM    7  C7  UNL     1     -37.032  15.538  -5.517  1.00 20.00     0.081 C 
HETATM    8  O11 UNL     1     -37.933  14.176  -3.726  1.00 20.00    -0.297 OA
ENDROOT
BRANCH   7   9
HETATM    9  C10 UNL     1     -38.403  15.362  -6.171  1.00 20.00    -0.008 C 
HETATM   10  C8  UNL     1     -39.261  16.605  -5.956  1.00 20.00     0.010 C 
HETATM   11  C9  UNL     1     -38.251  15.062  -7.659  1.00 20.00     0.010 C 
ENDBRANCH   7   9
TORSDOF 1
ENDMDL
