MODEL 1
REMARK VINA RESULT:      -3.9      0.000      0.000
REMARK  1 active torsions:
REMARK  status: ('A' for Active; 'I' for Inactive)
REMARK    1  A    between atoms: C4_4  and  C7_7 
ROOT
HETATM    1  C1  UNL     1     -34.856  14.438  -6.125  1.00 20.00     0.075 C 
HETATM    2  C2  UNL     1     -34.807  14.018  -3.674  1.00 20.00     0.105 C 
HETATM    3  C3  UNL     1     -34.019  14.419  -4.915  1.00 20.00     0.164 C 
HETATM    4  C4  UNL     1     -34.516  16.689  -3.432  1.00 20.00     0.113 C 
HETATM    5  N8  UNL     1     -35.515  14.452  -7.081  1.00 20.00    -0.196 NA
HETATM    6  S9  UNL     1     -35.804  15.439  -3.151  1.00 20.00    -0.151 SA
HETATM    7  S10 UNL     1     -33.270  16.052  -4.604  1.00 20.00    -0.133 SA
ENDROOT
BRANCH   4   8
HETATM    8  C7  UNL     1     -33.839  17.047  -2.114  1.00 20.00     0.001 C 
HETATM    9  C5  UNL     1     -33.576  18.550  -2.032  1.00 20.00     0.011 C 
HETATM   10  C6  UNL     1     -34.688  16.586  -0.930  1.00 20.00     0.011 C 
ENDBRANCH   4   8
TORSDOF 1
ENDMDL
MODEL 2
REMARK VINA RESULT:      -3.8      1.443      2.274
REMARK  1 active torsions:
REMARK  status: ('A' for Active; 'I' for Inactive)
REMARK    1  A    between atoms: C4_4  and  C7_7 
ROOT
HETATM    1  C1  UNL     1     -35.066  13.705  -4.916  1.00 20.00     0.075 C 
HETATM    2  C2  UNL     1     -34.128  16.008  -4.838  1.00 20.00     0.105 C 
HETATM    3  C3  UNL     1     -35.372  15.134  -4.741  1.00 20.00     0.164 C 
HETATM    4  C4  UNL     1     -34.656  15.910  -2.195  1.00 20.00     0.113 C 
HETATM    5  N8  UNL     1     -34.826  12.578  -5.055  1.00 20.00    -0.196 NA
HETATM    6  S9  UNL     1     -33.204  15.856  -3.287  1.00 20.00    -0.151 SA
HETATM    7  S10 UNL     1     -36.156  15.448  -3.125  1.00 20.00    -0.133 SA
ENDROOT
BRANCH   4   8
HETATM    8  C7  UNL     1     -34.824  17.311  -1.620  1.00 20.00     0.001 C 
HETATM    9  C5  UNL     1     -34.906  17.264  -0.095  1.00 20.00     0.011 C 
HETATM   10  C6  UNL     1     -33.679  18.219  -2.068  1.00 20.00     0.011 C 
ENDBRANCH   4   8
TORSDOF 1
ENDMDL
MODEL 3
REMARK VINA RESULT:      -3.7      1.432      1.865
REMARK  1 active torsions:
REMARK  status: ('A' for Active; 'I' for Inactive)
REMARK    1  A    between atoms: C4_4  and  C7_7 
ROOT
HETATM    1  C1  UNL     1     -35.458  15.721  -5.944  1.00 20.00     0.075 C 
HETATM    2  C2  UNL     1     -33.294  16.412  -4.932  1.00 20.00     0.105 C 
HETATM    3  C3  UNL     1     -34.738  16.790  -5.234  1.00 20.00     0.164 C 
HETATM    4  C4  UNL     1     -34.553  16.141  -2.561  1.00 20.00     0.113 C 
HETATM    5  N8  UNL     1     -36.027  14.879  -6.504  1.00 20.00    -0.196 NA
HETATM    6  S9  UNL     1     -33.289  15.265  -3.529  1.00 20.00    -0.151 SA
HETATM    7  S10 UNL     1     -35.555  17.203  -3.657  1.00 20.00    -0.133 SA
ENDROOT
BRANCH   4   8
HETATM    8  C7  UNL     1     -33.889  16.998  -1.490  1.00 20.00     0.001 C 
HETATM    9  C5  UNL     1     -33.674  18.424  -1.995  1.00 20.00     0.011 C 
HETATM   10  C6  UNL     1     -34.722  17.003  -0.209  1.00 20.00     0.011 C 
ENDBRANCH   4   8
TORSDOF 1
ENDMDL
MODEL 4
REMARK VINA RESULT:      -3.7      2.453      4.603
REMARK  1 active torsions:
REMARK  status: ('A' for Active; 'I' for Inactive)
REMARK    1  A    between atoms: C4_4  and  C7_7 
ROOT
HETATM    1  C1  UNL     1     -35.634  17.360  -1.927  1.00 20.00     0.075 C 
HETATM    2  C2  UNL     1     -33.624  16.154  -2.758  1.00 20.00     0.105 C 
HETATM    3  C3  UNL     1     -35.061  16.047  -2.264  1.00 20.00     0.164 C 
HETATM    4  C4  UNL     1     -35.060  15.734  -5.003  1.00 20.00     0.113 C 
HETATM    5  N8  UNL     1     -36.087  18.394  -1.660  1.00 20.00    -0.196 NA
HETATM    6  S9  UNL     1     -33.654  16.754  -4.468  1.00 20.00    -0.151 SA
HETATM    7  S10 UNL     1     -36.040  15.211  -3.555  1.00 20.00    -0.133 SA
ENDROOT
BRANCH   4   8
HETATM    8  C7  UNL     1     -34.557  14.503  -5.749  1.00 20.00     0.001 C 
HETATM    9  C5  UNL     1     -34.722  13.248  -4.893  1.00 20.00     0.011 C 
HETATM   10  C6  UNL     1     -35.289  14.343  -7.081  1.00 20.00     0.011 C 
ENDBRANCH   4   8
TORSDOF 1
ENDMDL
MODEL 5
REMARK VINA RESULT:      -3.7      2.202      2.828
REMARK  1 active torsions:
REMARK  status: ('A' for Active; 'I' for Inactive)
REMARK    1  A    between atoms: C4_4  and  C7_7 
ROOT
HETATM    1  C1  UNL     1     -35.059  13.698  -4.271  1.00 20.00     0.075 C 
HETATM    2  C2  UNL     1     -36.027  15.845  -5.073  1.00 20.00     0.105 C 
HETATM    3  C3  UNL     1     -35.378  15.091  -3.919  1.00 20.00     0.164 C 
HETATM    4  C4  UNL     1     -33.491  16.764  -5.035  1.00 20.00     0.113 C 
HETATM    5  N8  UNL     1     -34.808  12.600  -4.547  1.00 20.00    -0.196 NA
HETATM    6  S9  UNL     1     -34.735  16.278  -6.267  1.00 20.00    -0.151 SA
HETATM    7  S10 UNL     1     -33.881  16.006  -3.421  1.00 20.00    -0.133 SA
ENDROOT
BRANCH   4   8
HETATM    8  C7  UNL     1     -33.464  18.281  -4.891  1.00 20.00     0.001 C 
HETATM    9  C5  UNL     1     -34.073  18.951  -6.122  1.00 20.00     0.011 C 
HETATM   10  C6  UNL     1     -34.199  18.717  -3.625  1.00 20.00     0.011 C 
ENDBRANCH   4   8
TORSDOF 1
ENDMDL
MODEL 6
REMARK VINA RESULT:      -3.7      1.409      1.838
REMARK  1 active torsions:
REMARK  status: ('A' for Active; 'I' for Inactive)
REMARK    1  A    between atoms: C4_4  and  C7_7 
ROOT
HETATM    1  C1  UNL     1     -34.005  15.682  -6.233  1.00 20.00     0.075 C 
HETATM    2  C2  UNL     1     -33.050  15.478  -3.945  1.00 20.00     0.105 C 
HETATM    3  C3  UNL     1     -33.332  16.390  -5.132  1.00 20.00     0.164 C 
HETATM    4  C4  UNL     1     -35.170  16.946  -3.153  1.00 20.00     0.113 C 
HETATM    5  N8  UNL     1     -34.535  15.125  -7.101  1.00 20.00    -0.196 NA
HETATM    6  S9  UNL     1     -34.600  15.224  -3.042  1.00 20.00    -0.151 SA
HETATM    7  S10 UNL     1     -34.335  17.793  -4.538  1.00 20.00    -0.133 SA
ENDROOT
BRANCH   4   8
HETATM    8  C7  UNL     1     -34.869  17.680  -1.852  1.00 20.00     0.001 C 
HETATM    9  C5  UNL     1     -34.591  16.688  -0.723  1.00 20.00     0.011 C 
HETATM   10  C6  UNL     1     -33.687  18.633  -2.030  1.00 20.00     0.011 C 
ENDBRANCH   4   8
TORSDOF 1
ENDMDL
MODEL 7
REMARK VINA RESULT:      -3.6      2.420      3.121
REMARK  1 active torsions:
REMARK  status: ('A' for Active; 'I' for Inactive)
REMARK    1  A    between atoms: C4_4  and  C7_7 
ROOT
HETATM    1  C1  UNL     1     -38.246  14.905  -4.471  1.00 20.00     0.075 C 
HETATM    2  C2  UNL     1     -35.970  14.795  -5.469  1.00 20.00     0.105 C 
HETATM    3  C3  UNL     1     -37.046  15.672  -4.841  1.00 20.00     0.164 C 
HETATM    4  C4  UNL     1     -35.075  15.238  -2.963  1.00 20.00     0.113 C 
HETATM    5  N8  UNL     1     -39.193  14.301  -4.179  1.00 20.00    -0.196 NA
HETATM    6  S9  UNL     1     -35.155  13.862  -4.147  1.00 20.00    -0.151 SA
HETATM    7  S10 UNL     1     -36.319  16.503  -3.390  1.00 20.00    -0.133 SA
ENDROOT
BRANCH   4   8
HETATM    8  C7  UNL     1     -33.686  15.863  -2.983  1.00 20.00     0.001 C 
HETATM    9  C5  UNL     1     -32.686  14.937  -3.674  1.00 20.00     0.011 C 
HETATM   10  C6  UNL     1     -33.717  17.227  -3.672  1.00 20.00     0.011 C 
ENDBRANCH   4   8
TORSDOF 1
ENDMDL
MODEL 8
REMARK VINA RESULT:      -3.6      2.487      4.464
REMARK  1 active torsions:
REMARK  status: ('A' for Active; 'I' for Inactive)
REMARK    1  A    between atoms: C4_4  and  C7_7 
ROOT
HETATM    1  C1  UNL     1     -34.885  16.750  -1.913  1.00 20.00     0.075 C 
HETATM    2  C2  UNL     1     -36.352  16.254  -3.860  1.00 20.00     0.105 C 
HETATM    3  C3  UNL     1     -35.227  17.113  -3.298  1.00 20.00     0.164 C 
HETATM    4  C4  UNL     1     -34.127  15.263  -5.020  1.00 20.00     0.113 C 
HETATM    5  N8  UNL     1     -34.616  16.464  -0.821  1.00 20.00    -0.196 NA
HETATM    6  S9  UNL     1     -35.668  14.633  -4.290  1.00 20.00    -0.151 SA
HETATM    7  S10 UNL     1     -33.784  16.944  -4.400  1.00 20.00    -0.133 SA
ENDROOT
BRANCH   4   8
HETATM    8  C7  UNL     1     -34.244  15.294  -6.539  1.00 20.00     0.001 C 
HETATM    9  C5  UNL     1     -35.368  14.373  -7.013  1.00 20.00     0.011 C 
HETATM   10  C6  UNL     1     -34.476  16.721  -7.033  1.00 20.00     0.011 C 
ENDBRANCH   4   8
TORSDOF 1
ENDMDL
MODEL 9
REMARK VINA RESULT:      -3.6      2.118      2.612
REMARK  1 active torsions:
REMARK  status: ('A' for Active; 'I' for Inactive)
REMARK    1  A    between atoms: C4_4  and  C7_7 
ROOT
HETATM    1  C1  UNL     1     -37.465  15.169  -3.921  1.00 20.00     0.075 C 
HETATM    2  C2  UNL     1     -35.137  15.786  -4.546  1.00 20.00     0.105 C 
HETATM    3  C3  UNL     1     -36.510  16.275  -4.100  1.00 20.00     0.164 C 
HETATM    4  C4  UNL     1     -34.809  16.365  -1.932  1.00 20.00     0.113 C 
HETATM    5  N8  UNL     1     -38.219  14.299  -3.780  1.00 20.00    -0.196 NA
HETATM    6  S9  UNL     1     -34.290  15.081  -3.108  1.00 20.00    -0.151 SA
HETATM    7  S10 UNL     1     -36.296  17.220  -2.555  1.00 20.00    -0.133 SA
ENDROOT
BRANCH   4   8
HETATM    8  C7  UNL     1     -33.686  17.376  -1.734  1.00 20.00     0.001 C 
HETATM    9  C5  UNL     1     -33.848  18.558  -2.689  1.00 20.00     0.011 C 
HETATM   10  C6  UNL     1     -33.644  17.860  -0.285  1.00 20.00     0.011 C 
ENDBRANCH   4   8
TORSDOF 1
ENDMDL
