MODEL 1
REMARK VINA RESULT:      -4.9      0.000      0.000
REMARK  1 active torsions:
REMARK  status: ('A' for Active; 'I' for Inactive)
REMARK    1  A    between atoms: C2_2  and  C10_10 
ROOT
HETATM    1  C1  UNL     1     -32.987  15.191  -3.824  1.00 20.00    -0.017 C 
HETATM    2  C2  UNL     1     -33.790  15.655  -2.844  1.00 20.00    -0.068 C 
HETATM    3  C3  UNL     1     -36.047  15.006  -3.845  1.00 20.00     0.135 C 
HETATM    4  C4  UNL     1     -35.764  14.789  -5.316  1.00 20.00     0.080 C 
HETATM    5  C5  UNL     1     -34.604  13.780  -5.331  1.00 20.00     0.017 C 
HETATM    6  C6  UNL     1     -33.799  13.930  -4.035  1.00 20.00     0.024 C 
HETATM    7  C7  UNL     1     -34.803  14.538  -3.031  1.00 20.00     0.092 C 
HETATM    8  O11 UNL     1     -37.081  15.518  -3.428  1.00 20.00    -0.297 OA
ENDROOT
BRANCH   2   9
HETATM    9  C10 UNL     1     -33.757  16.903  -1.941  1.00 20.00     0.007 C 
HETATM   10  C8  UNL     1     -34.173  18.105  -2.756  1.00 20.00     0.014 C 
HETATM   11  C9  UNL     1     -34.651  16.677  -0.743  1.00 20.00     0.014 C 
ENDBRANCH   2   9
TORSDOF 1
ENDMDL
MODEL 2
REMARK VINA RESULT:      -4.8      1.654      2.071
REMARK  1 active torsions:
REMARK  status: ('A' for Active; 'I' for Inactive)
REMARK    1  A    between atoms: C2_2  and  C10_10 
ROOT
HETATM    1  C1  UNL     1     -34.093  17.249  -4.387  1.00 20.00    -0.017 C 
HETATM    2  C2  UNL     1     -33.611  16.601  -3.305  1.00 20.00    -0.068 C 
HETATM    3  C3  UNL     1     -33.915  14.200  -4.116  1.00 20.00     0.135 C 
HETATM    4  C4  UNL     1     -34.919  14.302  -5.244  1.00 20.00     0.080 C 
HETATM    5  C5  UNL     1     -34.319  15.356  -6.188  1.00 20.00     0.017 C 
HETATM    6  C6  UNL     1     -33.434  16.306  -5.373  1.00 20.00     0.024 C 
HETATM    7  C7  UNL     1     -33.020  15.476  -4.138  1.00 20.00     0.092 C 
HETATM    8  O11 UNL     1     -33.892  13.269  -3.318  1.00 20.00    -0.297 OA
ENDROOT
BRANCH   2   9
HETATM    9  C10 UNL     1     -33.708  16.846  -1.788  1.00 20.00     0.007 C 
HETATM   10  C8  UNL     1     -33.481  18.315  -1.516  1.00 20.00     0.014 C 
HETATM   11  C9  UNL     1     -35.052  16.367  -1.288  1.00 20.00     0.014 C 
ENDBRANCH   2   9
TORSDOF 1
ENDMDL
MODEL 3
REMARK VINA RESULT:      -4.6      1.715      3.880
REMARK  1 active torsions:
REMARK  status: ('A' for Active; 'I' for Inactive)
REMARK    1  A    between atoms: C2_2  and  C10_10 
ROOT
HETATM    1  C1  UNL     1     -35.022  15.938  -1.985  1.00 20.00    -0.017 C 
HETATM    2  C2  UNL     1     -34.676  15.203  -3.063  1.00 20.00    -0.068 C 
HETATM    3  C3  UNL     1     -33.530  17.028  -4.432  1.00 20.00     0.135 C 
HETATM    4  C4  UNL     1     -34.033  18.325  -3.836  1.00 20.00     0.080 C 
HETATM    5  C5  UNL     1     -33.728  18.193  -2.335  1.00 20.00     0.017 C 
HETATM    6  C6  UNL     1     -33.716  16.706  -1.960  1.00 20.00     0.024 C 
HETATM    7  C7  UNL     1     -33.390  15.982  -3.284  1.00 20.00     0.092 C 
HETATM    8  O11 UNL     1     -33.334  16.870  -5.632  1.00 20.00    -0.297 OA
ENDROOT
BRANCH   2   9
HETATM    9  C10 UNL     1     -35.366  14.069  -3.844  1.00 20.00     0.007 C 
HETATM   10  C8  UNL     1     -36.503  14.655  -4.649  1.00 20.00     0.014 C 
HETATM   11  C9  UNL     1     -34.346  13.366  -4.710  1.00 20.00     0.014 C 
ENDBRANCH   2   9
TORSDOF 1
ENDMDL
MODEL 4
REMARK VINA RESULT:      -4.6      1.035      1.587
REMARK  1 active torsions:
REMARK  status: ('A' for Active; 'I' for Inactive)
REMARK    1  A    between atoms: C2_2  and  C10_10 
ROOT
HETATM    1  C1  UNL     1     -33.891  14.549  -3.231  1.00 20.00    -0.017 C 
HETATM    2  C2  UNL     1     -34.871  15.443  -2.982  1.00 20.00    -0.068 C 
HETATM    3  C3  UNL     1     -36.169  15.224  -5.170  1.00 20.00     0.135 C 
HETATM    4  C4  UNL     1     -35.191  14.583  -6.131  1.00 20.00     0.080 C 
HETATM    5  C5  UNL     1     -34.714  13.320  -5.397  1.00 20.00     0.017 C 
HETATM    6  C6  UNL     1     -34.826  13.552  -3.885  1.00 20.00     0.024 C 
HETATM    7  C7  UNL     1     -35.911  14.641  -3.747  1.00 20.00     0.092 C 
HETATM    8  O11 UNL     1     -36.972  16.088  -5.504  1.00 20.00    -0.297 OA
ENDROOT
BRANCH   2   9
HETATM    9  C10 UNL     1     -34.908  16.813  -2.280  1.00 20.00     0.007 C 
HETATM   10  C8  UNL     1     -34.596  16.618  -0.814  1.00 20.00     0.014 C 
HETATM   11  C9  UNL     1     -33.935  17.750  -2.959  1.00 20.00     0.014 C 
ENDBRANCH   2   9
TORSDOF 1
ENDMDL
MODEL 5
REMARK VINA RESULT:      -4.5      1.948      4.222
REMARK  1 active torsions:
REMARK  status: ('A' for Active; 'I' for Inactive)
REMARK    1  A    between atoms: C2_2  and  C10_10 
ROOT
HETATM    1  C1  UNL     1     -35.908  16.459  -4.776  1.00 20.00    -0.017 C 
HETATM    2  C2  UNL     1     -36.339  15.363  -5.435  1.00 20.00    -0.068 C 
HETATM    3  C3  UNL     1     -35.018  13.590  -4.158  1.00 20.00     0.135 C 
HETATM    4  C4  UNL     1     -33.905  14.359  -3.480  1.00 20.00     0.080 C 
HETATM    5  C5  UNL     1     -34.631  15.472  -2.708  1.00 20.00     0.017 C 
HETATM    6  C6  UNL     1     -35.953  15.788  -3.419  1.00 20.00     0.024 C 
HETATM    7  C7  UNL     1     -36.289  14.493  -4.190  1.00 20.00     0.092 C 
HETATM    8  O11 UNL     1     -34.871  12.468  -4.630  1.00 20.00    -0.297 OA
ENDROOT
BRANCH   2   9
HETATM    9  C10 UNL     1     -36.663  15.068  -6.911  1.00 20.00     0.007 C 
HETATM   10  C8  UNL     1     -37.248  16.311  -7.540  1.00 20.00     0.014 C 
HETATM   11  C9  UNL     1     -35.410  14.599  -7.615  1.00 20.00     0.014 C 
ENDBRANCH   2   9
TORSDOF 1
ENDMDL
MODEL 6
REMARK VINA RESULT:      -4.4      2.208      4.325
REMARK  1 active torsions:
REMARK  status: ('A' for Active; 'I' for Inactive)
REMARK    1  A    between atoms: C2_2  and  C10_10 
ROOT
HETATM    1  C1  UNL     1     -35.060  15.830  -1.969  1.00 20.00    -0.017 C 
HETATM    2  C2  UNL     1     -33.834  16.061  -2.484  1.00 20.00    -0.068 C 
HETATM    3  C3  UNL     1     -33.709  18.580  -2.091  1.00 20.00     0.135 C 
HETATM    4  C4  UNL     1     -35.147  19.006  -1.887  1.00 20.00     0.080 C 
HETATM    5  C5  UNL     1     -35.659  18.083  -0.769  1.00 20.00     0.017 C 
HETATM    6  C6  UNL     1     -34.861  16.774  -0.802  1.00 20.00     0.024 C 
HETATM    7  C7  UNL     1     -33.527  17.158  -1.478  1.00 20.00     0.092 C 
HETATM    8  O11 UNL     1     -32.885  19.261  -2.691  1.00 20.00    -0.297 OA
ENDROOT
BRANCH   2   9
HETATM    9  C10 UNL     1     -33.066  15.502  -3.696  1.00 20.00     0.007 C 
HETATM   10  C8  UNL     1     -33.435  14.047  -3.878  1.00 20.00     0.014 C 
HETATM   11  C9  UNL     1     -33.383  16.336  -4.917  1.00 20.00     0.014 C 
ENDBRANCH   2   9
TORSDOF 1
ENDMDL
MODEL 7
REMARK VINA RESULT:      -4.4      1.843      3.974
REMARK  1 active torsions:
REMARK  status: ('A' for Active; 'I' for Inactive)
REMARK    1  A    between atoms: C2_2  and  C10_10 
ROOT
HETATM    1  C1  UNL     1     -34.355  16.644  -5.148  1.00 20.00    -0.017 C 
HETATM    2  C2  UNL     1     -35.335  15.815  -5.568  1.00 20.00    -0.068 C 
HETATM    3  C3  UNL     1     -34.737  13.761  -4.175  1.00 20.00     0.135 C 
HETATM    4  C4  UNL     1     -33.300  13.987  -3.759  1.00 20.00     0.080 C 
HETATM    5  C5  UNL     1     -33.312  15.377  -3.102  1.00 20.00     0.017 C 
HETATM    6  C6  UNL     1     -34.458  16.200  -3.703  1.00 20.00     0.024 C 
HETATM    7  C7  UNL     1     -35.460  15.142  -4.212  1.00 20.00     0.092 C 
HETATM    8  O11 UNL     1     -35.186  12.659  -4.472  1.00 20.00    -0.297 OA
ENDROOT
BRANCH   2   9
HETATM    9  C10 UNL     1     -36.006  15.567  -6.932  1.00 20.00     0.007 C 
HETATM   10  C8  UNL     1     -35.229  14.502  -7.670  1.00 20.00     0.014 C 
HETATM   11  C9  UNL     1     -37.452  15.182  -6.714  1.00 20.00     0.014 C 
ENDBRANCH   2   9
TORSDOF 1
ENDMDL
MODEL 8
REMARK VINA RESULT:      -4.4      1.728      2.425
REMARK  1 active torsions:
REMARK  status: ('A' for Active; 'I' for Inactive)
REMARK    1  A    between atoms: C2_2  and  C10_10 
ROOT
HETATM    1  C1  UNL     1     -33.488  16.143  -4.535  1.00 20.00    -0.017 C 
HETATM    2  C2  UNL     1     -34.754  16.547  -4.297  1.00 20.00    -0.068 C 
HETATM    3  C3  UNL     1     -35.819  14.267  -3.864  1.00 20.00     0.135 C 
HETATM    4  C4  UNL     1     -34.852  13.273  -4.469  1.00 20.00     0.080 C 
HETATM    5  C5  UNL     1     -33.502  13.619  -3.822  1.00 20.00     0.017 C 
HETATM    6  C6  UNL     1     -33.503  15.103  -3.434  1.00 20.00     0.024 C 
HETATM    7  C7  UNL     1     -34.998  15.452  -3.271  1.00 20.00     0.092 C 
HETATM    8  O11 UNL     1     -37.037  14.134  -3.910  1.00 20.00    -0.297 OA
ENDROOT
BRANCH   2   9
HETATM    9  C10 UNL     1     -35.655  17.638  -4.904  1.00 20.00     0.007 C 
HETATM   10  C8  UNL     1     -36.152  17.165  -6.251  1.00 20.00     0.014 C 
HETATM   11  C9  UNL     1     -36.783  17.945  -3.946  1.00 20.00     0.014 C 
ENDBRANCH   2   9
TORSDOF 1
ENDMDL
MODEL 9
REMARK VINA RESULT:      -4.4      1.913      4.100
REMARK  1 active torsions:
REMARK  status: ('A' for Active; 'I' for Inactive)
REMARK    1  A    between atoms: C2_2  and  C10_10 
ROOT
HETATM    1  C1  UNL     1     -35.770  14.569  -3.844  1.00 20.00    -0.017 C 
HETATM    2  C2  UNL     1     -35.198  14.767  -5.050  1.00 20.00    -0.068 C 
HETATM    3  C3  UNL     1     -33.587  16.644  -4.418  1.00 20.00     0.135 C 
HETATM    4  C4  UNL     1     -34.135  17.197  -3.120  1.00 20.00     0.080 C 
HETATM    5  C5  UNL     1     -34.264  15.964  -2.211  1.00 20.00     0.017 C 
HETATM    6  C6  UNL     1     -34.467  14.721  -3.086  1.00 20.00     0.024 C 
HETATM    7  C7  UNL     1     -33.846  15.107  -4.446  1.00 20.00     0.092 C 
HETATM    8  O11 UNL     1     -33.082  17.346  -5.288  1.00 20.00    -0.297 OA
ENDROOT
BRANCH   2   9
HETATM    9  C10 UNL     1     -35.731  14.757  -6.495  1.00 20.00     0.007 C 
HETATM   10  C8  UNL     1     -36.724  15.885  -6.655  1.00 20.00     0.014 C 
HETATM   11  C9  UNL     1     -34.570  14.867  -7.457  1.00 20.00     0.014 C 
ENDBRANCH   2   9
TORSDOF 1
ENDMDL
