MODEL 1
REMARK VINA RESULT:      -4.7      0.000      0.000
REMARK  0 active torsions:
REMARK  status: ('A' for Active; 'I' for Inactive)
ROOT
HETATM    1  C1  UNL     1     -33.075   6.386   3.430  1.00 20.00     0.218 C 
HETATM    2  C2  UNL     1     -34.195   5.653   2.722  1.00 20.00     0.105 C 
HETATM    3  C3  UNL     1     -35.162   5.230   3.836  1.00 20.00     0.040 C 
HETATM    4  C4  UNL     1     -35.016   5.361   6.432  1.00 20.00     0.033 A 
HETATM    5  C5  UNL     1     -34.253   4.135   6.021  1.00 20.00     0.033 A 
HETATM    6  C6  UNL     1     -34.338   5.316   5.089  1.00 20.00     0.033 A 
HETATM    7  N7  UNL     1     -33.196   6.114   4.785  1.00 20.00    -0.352 N 
HETATM    8  O8  UNL     1     -32.211   7.054   2.883  1.00 20.00    -0.274 OA
HETATM    9  H17 UNL     1     -32.542   6.446   5.484  1.00 20.00     0.163 HD
ENDROOT
TORSDOF 0
ENDMDL
MODEL 2
REMARK VINA RESULT:      -4.5      1.923      3.267
REMARK  0 active torsions:
REMARK  status: ('A' for Active; 'I' for Inactive)
ROOT
HETATM    1  C1  UNL     1     -34.619   5.585   5.524  1.00 20.00     0.218 C 
HETATM    2  C2  UNL     1     -35.366   5.157   4.279  1.00 20.00     0.105 C 
HETATM    3  C3  UNL     1     -34.345   5.274   3.139  1.00 20.00     0.040 C 
HETATM    4  C4  UNL     1     -31.923   6.225   3.042  1.00 20.00     0.033 A 
HETATM    5  C5  UNL     1     -32.850   7.400   2.927  1.00 20.00     0.033 A 
HETATM    6  C6  UNL     1     -33.280   6.176   3.694  1.00 20.00     0.033 A 
HETATM    7  N7  UNL     1     -33.447   6.200   5.109  1.00 20.00    -0.352 N 
HETATM    8  O8  UNL     1     -35.015   5.441   6.670  1.00 20.00    -0.274 OA
HETATM    9  H17 UNL     1     -32.780   6.622   5.745  1.00 20.00     0.163 HD
ENDROOT
TORSDOF 0
ENDMDL
MODEL 3
REMARK VINA RESULT:      -4.4      1.781      3.018
REMARK  0 active torsions:
REMARK  status: ('A' for Active; 'I' for Inactive)
ROOT
HETATM    1  C1  UNL     1     -33.822   6.513   6.221  1.00 20.00     0.218 C 
HETATM    2  C2  UNL     1     -34.662   5.307   6.587  1.00 20.00     0.105 C 
HETATM    3  C3  UNL     1     -34.850   4.536   5.274  1.00 20.00     0.040 C 
HETATM    4  C4  UNL     1     -34.225   5.090   2.808  1.00 20.00     0.033 A 
HETATM    5  C5  UNL     1     -35.517   5.800   3.092  1.00 20.00     0.033 A 
HETATM    6  C6  UNL     1     -34.536   5.548   4.208  1.00 20.00     0.033 A 
HETATM    7  N7  UNL     1     -33.828   6.613   4.837  1.00 20.00    -0.352 N 
HETATM    8  O8  UNL     1     -33.285   7.267   7.016  1.00 20.00    -0.274 OA
HETATM    9  H17 UNL     1     -33.377   7.364   4.328  1.00 20.00     0.163 HD
ENDROOT
TORSDOF 0
ENDMDL
MODEL 4
REMARK VINA RESULT:      -4.3      2.226      3.479
REMARK  0 active torsions:
REMARK  status: ('A' for Active; 'I' for Inactive)
ROOT
HETATM    1  C1  UNL     1     -34.854   4.605   5.064  1.00 20.00     0.218 C 
HETATM    2  C2  UNL     1     -34.335   5.478   6.187  1.00 20.00     0.105 C 
HETATM    3  C3  UNL     1     -33.714   6.697   5.491  1.00 20.00     0.040 C 
HETATM    4  C4  UNL     1     -33.269   7.251   2.987  1.00 20.00     0.033 A 
HETATM    5  C5  UNL     1     -32.136   6.377   3.440  1.00 20.00     0.033 A 
HETATM    6  C6  UNL     1     -33.494   6.238   4.078  1.00 20.00     0.033 A 
HETATM    7  N7  UNL     1     -34.297   5.076   3.885  1.00 20.00    -0.352 N 
HETATM    8  O8  UNL     1     -35.593   3.643   5.202  1.00 20.00    -0.274 OA
HETATM    9  H17 UNL     1     -34.444   4.640   2.982  1.00 20.00     0.163 HD
ENDROOT
TORSDOF 0
ENDMDL
MODEL 5
REMARK VINA RESULT:      -4.2     11.784     12.408
REMARK  0 active torsions:
REMARK  status: ('A' for Active; 'I' for Inactive)
ROOT
HETATM    1  C1  UNL     1     -35.176  13.733  -3.972  1.00 20.00     0.218 C 
HETATM    2  C2  UNL     1     -36.476  14.508  -4.016  1.00 20.00     0.105 C 
HETATM    3  C3  UNL     1     -36.113  15.924  -3.547  1.00 20.00     0.040 C 
HETATM    4  C4  UNL     1     -33.924  16.944  -2.574  1.00 20.00     0.033 A 
HETATM    5  C5  UNL     1     -34.624  16.266  -1.433  1.00 20.00     0.033 A 
HETATM    6  C6  UNL     1     -34.801  15.748  -2.837  1.00 20.00     0.033 A 
HETATM    7  N7  UNL     1     -34.270  14.489  -3.243  1.00 20.00    -0.352 N 
HETATM    8  O8  UNL     1     -34.996  12.628  -4.459  1.00 20.00    -0.274 OA
HETATM    9  H17 UNL     1     -33.331  14.179  -3.022  1.00 20.00     0.163 HD
ENDROOT
TORSDOF 0
ENDMDL
MODEL 6
REMARK VINA RESULT:      -4.1     12.216     12.646
REMARK  0 active torsions:
REMARK  status: ('A' for Active; 'I' for Inactive)
ROOT
HETATM    1  C1  UNL     1     -36.775  14.625  -3.603  1.00 20.00     0.218 C 
HETATM    2  C2  UNL     1     -35.466  14.077  -4.130  1.00 20.00     0.105 C 
HETATM    3  C3  UNL     1     -34.386  14.680  -3.221  1.00 20.00     0.040 C 
HETATM    4  C4  UNL     1     -34.479  16.470  -1.333  1.00 20.00     0.033 A 
HETATM    5  C5  UNL     1     -34.433  17.220  -2.632  1.00 20.00     0.033 A 
HETATM    6  C6  UNL     1     -35.066  15.854  -2.575  1.00 20.00     0.033 A 
HETATM    7  N7  UNL     1     -36.469  15.671  -2.745  1.00 20.00    -0.352 N 
HETATM    8  O8  UNL     1     -37.886  14.230  -3.922  1.00 20.00    -0.274 OA
HETATM    9  H17 UNL     1     -37.168  16.245  -2.288  1.00 20.00     0.163 HD
ENDROOT
TORSDOF 0
ENDMDL
MODEL 7
REMARK VINA RESULT:      -3.9     12.019     13.350
REMARK  0 active torsions:
REMARK  status: ('A' for Active; 'I' for Inactive)
ROOT
HETATM    1  C1  UNL     1     -34.405  13.589  -4.592  1.00 20.00     0.218 C 
HETATM    2  C2  UNL     1     -33.228  13.843  -3.675  1.00 20.00     0.105 C 
HETATM    3  C3  UNL     1     -33.210  15.362  -3.458  1.00 20.00     0.040 C 
HETATM    4  C4  UNL     1     -34.583  17.303  -4.518  1.00 20.00     0.033 A 
HETATM    5  C5  UNL     1     -33.479  16.983  -5.483  1.00 20.00     0.033 A 
HETATM    6  C6  UNL     1     -34.035  15.903  -4.591  1.00 20.00     0.033 A 
HETATM    7  N7  UNL     1     -34.791  14.815  -5.115  1.00 20.00    -0.352 N 
HETATM    8  O8  UNL     1     -34.882  12.494  -4.843  1.00 20.00    -0.274 OA
HETATM    9  H17 UNL     1     -35.533  14.925  -5.797  1.00 20.00     0.163 HD
ENDROOT
TORSDOF 0
ENDMDL
MODEL 8
REMARK VINA RESULT:      -3.9      9.416     10.214
REMARK  0 active torsions:
REMARK  status: ('A' for Active; 'I' for Inactive)
ROOT
HETATM    1  C1  UNL     1     -41.665   3.297  -2.681  1.00 20.00     0.218 C 
HETATM    2  C2  UNL     1     -42.791   4.251  -3.021  1.00 20.00     0.105 C 
HETATM    3  C3  UNL     1     -42.484   5.531  -2.231  1.00 20.00     0.040 C 
HETATM    4  C4  UNL     1     -40.681   6.099  -0.441  1.00 20.00     0.033 A 
HETATM    5  C5  UNL     1     -41.792   5.392   0.280  1.00 20.00     0.033 A 
HETATM    6  C6  UNL     1     -41.519   5.083  -1.170  1.00 20.00     0.033 A 
HETATM    7  N7  UNL     1     -41.001   3.820  -1.581  1.00 20.00    -0.352 N 
HETATM    8  O8  UNL     1     -41.430   2.247  -3.257  1.00 20.00    -0.274 OA
HETATM    9  H17 UNL     1     -40.229   3.354  -1.118  1.00 20.00     0.163 HD
ENDROOT
TORSDOF 0
ENDMDL
MODEL 9
REMARK VINA RESULT:      -3.9     12.110     13.322
REMARK  0 active torsions:
REMARK  status: ('A' for Active; 'I' for Inactive)
ROOT
HETATM    1  C1  UNL     1     -36.310  14.357  -4.082  1.00 20.00     0.218 C 
HETATM    2  C2  UNL     1     -35.224  13.315  -4.252  1.00 20.00     0.105 C 
HETATM    3  C3  UNL     1     -33.912  14.110  -4.303  1.00 20.00     0.040 C 
HETATM    4  C4  UNL     1     -33.407  16.663  -4.387  1.00 20.00     0.033 A 
HETATM    5  C5  UNL     1     -33.723  16.242  -5.793  1.00 20.00     0.033 A 
HETATM    6  C6  UNL     1     -34.345  15.510  -4.631  1.00 20.00     0.033 A 
HETATM    7  N7  UNL     1     -35.741  15.592  -4.355  1.00 20.00    -0.352 N 
HETATM    8  O8  UNL     1     -37.474  14.124  -3.798  1.00 20.00    -0.274 OA
HETATM    9  H17 UNL     1     -36.263  16.461  -4.359  1.00 20.00     0.163 HD
ENDROOT
TORSDOF 0
ENDMDL
