MODEL 1
REMARK VINA RESULT:      -4.7      0.000      0.000
REMARK  0 active torsions:
REMARK  status: ('A' for Active; 'I' for Inactive)
ROOT
HETATM    1  C1  UNL     1     -33.403  14.240  -3.991  1.00 20.00     0.050 C 
HETATM    2  C2  UNL     1     -33.019  15.516  -3.881  1.00 20.00    -0.014 C 
HETATM    3  C3  UNL     1     -34.841  13.881  -4.030  1.00 20.00     0.188 C 
HETATM    4  C4  UNL     1     -35.357  16.314  -4.360  1.00 20.00     0.064 C 
HETATM    5  C5  UNL     1     -33.952  16.706  -3.842  1.00 20.00    -0.026 C 
HETATM    6  C6  UNL     1     -35.867  14.983  -3.798  1.00 20.00     0.164 C 
HETATM    7  C7  UNL     1     -33.394  17.818  -4.749  1.00 20.00     0.019 C 
HETATM    8  C8  UNL     1     -34.014  17.241  -2.400  1.00 20.00     0.019 C 
HETATM    9  C9  UNL     1     -37.206  14.618  -4.434  1.00 20.00     0.060 C 
HETATM   10  O10 UNL     1     -35.157  12.700  -4.173  1.00 20.00    -0.290 OA
HETATM   11  F11 UNL     1     -36.088  15.126  -2.460  1.00 20.00    -0.235 F 
ENDROOT
TORSDOF 0
ENDMDL
MODEL 2
REMARK VINA RESULT:      -4.6      1.692      1.834
REMARK  0 active torsions:
REMARK  status: ('A' for Active; 'I' for Inactive)
ROOT
HETATM    1  C1  UNL     1     -34.343  14.114  -3.337  1.00 20.00     0.050 C 
HETATM    2  C2  UNL     1     -34.365  15.402  -2.979  1.00 20.00    -0.014 C 
HETATM    3  C3  UNL     1     -34.811  13.692  -4.680  1.00 20.00     0.188 C 
HETATM    4  C4  UNL     1     -34.801  16.110  -5.355  1.00 20.00     0.064 C 
HETATM    5  C5  UNL     1     -34.794  16.547  -3.870  1.00 20.00    -0.026 C 
HETATM    6  C6  UNL     1     -35.448  14.740  -5.585  1.00 20.00     0.164 C 
HETATM    7  C7  UNL     1     -33.797  17.711  -3.714  1.00 20.00     0.019 C 
HETATM    8  C8  UNL     1     -36.182  17.033  -3.420  1.00 20.00     0.019 C 
HETATM    9  C9  UNL     1     -35.325  14.335  -7.051  1.00 20.00     0.060 C 
HETATM   10  O10 UNL     1     -34.738  12.504  -4.991  1.00 20.00    -0.290 OA
HETATM   11  F11 UNL     1     -36.781  14.830  -5.309  1.00 20.00    -0.235 F 
ENDROOT
TORSDOF 0
ENDMDL
MODEL 3
REMARK VINA RESULT:      -4.6      2.144      3.141
REMARK  0 active torsions:
REMARK  status: ('A' for Active; 'I' for Inactive)
ROOT
HETATM    1  C1  UNL     1     -34.766  13.537  -5.437  1.00 20.00     0.050 C 
HETATM    2  C2  UNL     1     -35.346  14.357  -6.320  1.00 20.00    -0.014 C 
HETATM    3  C3  UNL     1     -34.084  14.077  -4.235  1.00 20.00     0.188 C 
HETATM    4  C4  UNL     1     -35.142  16.298  -4.731  1.00 20.00     0.064 C 
HETATM    5  C5  UNL     1     -35.429  15.861  -6.188  1.00 20.00    -0.026 C 
HETATM    6  C6  UNL     1     -33.936  15.588  -4.107  1.00 20.00     0.164 C 
HETATM    7  C7  UNL     1     -36.849  16.325  -6.561  1.00 20.00     0.019 C 
HETATM    8  C8  UNL     1     -34.435  16.501  -7.173  1.00 20.00     0.019 C 
HETATM    9  C9  UNL     1     -33.782  15.993  -2.643  1.00 20.00     0.060 C 
HETATM   10  O10 UNL     1     -33.597  13.292  -3.423  1.00 20.00    -0.290 OA
HETATM   11  F11 UNL     1     -32.805  15.992  -4.752  1.00 20.00    -0.235 F 
ENDROOT
TORSDOF 0
ENDMDL
MODEL 4
REMARK VINA RESULT:      -4.5      1.542      2.832
REMARK  0 active torsions:
REMARK  status: ('A' for Active; 'I' for Inactive)
ROOT
HETATM    1  C1  UNL     1     -36.540  14.418  -4.070  1.00 20.00     0.050 C 
HETATM    2  C2  UNL     1     -36.697  15.699  -3.717  1.00 20.00    -0.014 C 
HETATM    3  C3  UNL     1     -35.189  13.812  -4.144  1.00 20.00     0.188 C 
HETATM    4  C4  UNL     1     -34.304  15.835  -2.951  1.00 20.00     0.064 C 
HETATM    5  C5  UNL     1     -35.580  16.634  -3.312  1.00 20.00    -0.026 C 
HETATM    6  C6  UNL     1     -33.980  14.718  -3.949  1.00 20.00     0.164 C 
HETATM    7  C7  UNL     1     -36.015  17.436  -2.071  1.00 20.00     0.019 C 
HETATM    8  C8  UNL     1     -35.318  17.622  -4.462  1.00 20.00     0.019 C 
HETATM    9  C9  UNL     1     -32.773  13.914  -3.471  1.00 20.00     0.060 C 
HETATM   10  O10 UNL     1     -35.085  12.621  -4.432  1.00 20.00    -0.290 OA
HETATM   11  F11 UNL     1     -33.634  15.281  -5.142  1.00 20.00    -0.235 F 
ENDROOT
TORSDOF 0
ENDMDL
MODEL 5
REMARK VINA RESULT:      -4.5      2.450      3.899
REMARK  0 active torsions:
REMARK  status: ('A' for Active; 'I' for Inactive)
ROOT
HETATM    1  C1  UNL     1     -34.482  16.734  -2.096  1.00 20.00     0.050 C 
HETATM    2  C2  UNL     1     -35.056  15.558  -2.370  1.00 20.00    -0.014 C 
HETATM    3  C3  UNL     1     -33.840  17.533  -3.168  1.00 20.00     0.188 C 
HETATM    4  C4  UNL     1     -34.930  16.013  -4.842  1.00 20.00     0.064 C 
HETATM    5  C5  UNL     1     -35.173  14.945  -3.748  1.00 20.00    -0.026 C 
HETATM    6  C6  UNL     1     -33.726  16.918  -4.557  1.00 20.00     0.164 C 
HETATM    7  C7  UNL     1     -36.592  14.378  -3.932  1.00 20.00     0.019 C 
HETATM    8  C8  UNL     1     -34.167  13.786  -3.862  1.00 20.00     0.019 C 
HETATM    9  C9  UNL     1     -33.617  18.005  -5.623  1.00 20.00     0.060 C 
HETATM   10  O10 UNL     1     -33.358  18.630  -2.887  1.00 20.00    -0.290 OA
HETATM   11  F11 UNL     1     -32.587  16.171  -4.633  1.00 20.00    -0.235 F 
ENDROOT
TORSDOF 0
ENDMDL
MODEL 6
REMARK VINA RESULT:      -4.5      2.200      3.553
REMARK  0 active torsions:
REMARK  status: ('A' for Active; 'I' for Inactive)
ROOT
HETATM    1  C1  UNL     1     -33.643  16.953  -4.704  1.00 20.00     0.050 C 
HETATM    2  C2  UNL     1     -34.091  15.798  -5.207  1.00 20.00    -0.014 C 
HETATM    3  C3  UNL     1     -33.932  17.333  -3.299  1.00 20.00     0.188 C 
HETATM    4  C4  UNL     1     -34.711  14.979  -2.909  1.00 20.00     0.064 C 
HETATM    5  C5  UNL     1     -34.863  14.753  -4.432  1.00 20.00    -0.026 C 
HETATM    6  C6  UNL     1     -34.868  16.445  -2.490  1.00 20.00     0.164 C 
HETATM    7  C7  UNL     1     -34.307  13.357  -4.772  1.00 20.00     0.019 C 
HETATM    8  C8  UNL     1     -36.339  14.805  -4.863  1.00 20.00     0.019 C 
HETATM    9  C9  UNL     1     -34.603  16.600  -0.995  1.00 20.00     0.060 C 
HETATM   10  O10 UNL     1     -33.468  18.384  -2.858  1.00 20.00    -0.290 OA
HETATM   11  F11 UNL     1     -36.159  16.828  -2.706  1.00 20.00    -0.235 F 
ENDROOT
TORSDOF 0
ENDMDL
MODEL 7
REMARK VINA RESULT:      -4.4     11.629     13.336
REMARK  0 active torsions:
REMARK  status: ('A' for Active; 'I' for Inactive)
ROOT
HETATM    1  C1  UNL     1     -42.915   6.004  -3.072  1.00 20.00     0.050 C 
HETATM    2  C2  UNL     1     -42.980   4.676  -3.217  1.00 20.00    -0.014 C 
HETATM    3  C3  UNL     1     -42.187   6.607  -1.929  1.00 20.00     0.188 C 
HETATM    4  C4  UNL     1     -41.204   4.345  -1.465  1.00 20.00     0.064 C 
HETATM    5  C5  UNL     1     -42.306   3.667  -2.314  1.00 20.00    -0.026 C 
HETATM    6  C6  UNL     1     -41.640   5.680  -0.851  1.00 20.00     0.164 C 
HETATM    7  C7  UNL     1     -41.647   2.574  -3.177  1.00 20.00     0.019 C 
HETATM    8  C8  UNL     1     -43.374   3.006  -1.425  1.00 20.00     0.019 C 
HETATM    9  C9  UNL     1     -40.471   6.333  -0.118  1.00 20.00     0.060 C 
HETATM   10  O10 UNL     1     -42.113   7.833  -1.849  1.00 20.00    -0.290 OA
HETATM   11  F11 UNL     1     -42.608   5.441   0.079  1.00 20.00    -0.235 F 
ENDROOT
TORSDOF 0
ENDMDL
MODEL 8
REMARK VINA RESULT:      -4.4      2.511      3.093
REMARK  0 active torsions:
REMARK  status: ('A' for Active; 'I' for Inactive)
ROOT
HETATM    1  C1  UNL     1     -33.393  16.591  -5.541  1.00 20.00     0.050 C 
HETATM    2  C2  UNL     1     -33.368  16.138  -4.283  1.00 20.00    -0.014 C 
HETATM    3  C3  UNL     1     -34.474  16.185  -6.472  1.00 20.00     0.188 C 
HETATM    4  C4  UNL     1     -35.714  15.255  -4.499  1.00 20.00     0.064 C 
HETATM    5  C5  UNL     1     -34.415  15.243  -3.658  1.00 20.00    -0.026 C 
HETATM    6  C6  UNL     1     -35.469  15.130  -6.006  1.00 20.00     0.164 C 
HETATM    7  C7  UNL     1     -34.747  15.760  -2.246  1.00 20.00     0.019 C 
HETATM    8  C8  UNL     1     -33.840  13.821  -3.532  1.00 20.00     0.019 C 
HETATM    9  C9  UNL     1     -36.785  15.254  -6.769  1.00 20.00     0.060 C 
HETATM   10  O10 UNL     1     -34.488  16.654  -7.609  1.00 20.00    -0.290 OA
HETATM   11  F11 UNL     1     -34.973  13.887  -6.269  1.00 20.00    -0.235 F 
ENDROOT
TORSDOF 0
ENDMDL
MODEL 9
REMARK VINA RESULT:      -4.3      2.513      3.721
REMARK  0 active torsions:
REMARK  status: ('A' for Active; 'I' for Inactive)
ROOT
HETATM    1  C1  UNL     1     -34.638  14.987  -6.924  1.00 20.00     0.050 C 
HETATM    2  C2  UNL     1     -34.608  14.210  -5.836  1.00 20.00    -0.014 C 
HETATM    3  C3  UNL     1     -34.431  16.452  -6.816  1.00 20.00     0.188 C 
HETATM    4  C4  UNL     1     -33.653  16.087  -4.458  1.00 20.00     0.064 C 
HETATM    5  C5  UNL     1     -34.317  14.689  -4.431  1.00 20.00    -0.026 C 
HETATM    6  C6  UNL     1     -34.328  17.065  -5.426  1.00 20.00     0.164 C 
HETATM    7  C7  UNL     1     -33.347  13.706  -3.751  1.00 20.00     0.019 C 
HETATM    8  C8  UNL     1     -35.631  14.706  -3.631  1.00 20.00     0.019 C 
HETATM    9  C9  UNL     1     -33.556  18.382  -5.472  1.00 20.00     0.060 C 
HETATM   10  O10 UNL     1     -34.424  17.130  -7.842  1.00 20.00    -0.290 OA
HETATM   11  F11 UNL     1     -35.577  17.354  -4.960  1.00 20.00    -0.235 F 
ENDROOT
TORSDOF 0
ENDMDL
