MODEL 1
REMARK VINA RESULT:      -3.4      0.000      0.000
REMARK  3 active torsions:
REMARK  status: ('A' for Active; 'I' for Inactive)
REMARK    1  A    between atoms: C1_1  and  C7_7 
REMARK    2  A    between atoms: C1_1  and  N9_9 
REMARK    3  A    between atoms: C7_7  and  C8_8 
ROOT
HETATM    1  C1  UNL     1     -34.920  16.100  -2.819  1.00 20.00     0.075 C 
HETATM    2  S10 UNL     1     -36.490  15.797  -3.396  1.00 20.00    -0.066 SA
ENDROOT
BRANCH   1   3
HETATM    3  C7  UNL     1     -34.751  16.202  -1.288  1.00 20.00     0.077 C 
BRANCH   3   4
HETATM    4  C8  UNL     1     -34.628  17.635  -0.689  1.00 20.00    -0.045 C 
HETATM    5  C2  UNL     1     -35.144  17.579   0.765  1.00 20.00     0.015 C 
HETATM    6  C3  UNL     1     -35.464  18.674  -1.450  1.00 20.00     0.015 C 
HETATM    7  C4  UNL     1     -33.164  18.108  -0.655  1.00 20.00     0.015 C 
ENDBRANCH   3   4
ENDBRANCH   1   3
BRANCH   1   8
HETATM    8  N9  UNL     1     -33.800  16.277  -3.642  1.00 20.00    -0.384 N 
HETATM    9  C5  UNL     1     -33.600  17.421  -4.530  1.00 20.00     0.149 C 
HETATM   10  C6  UNL     1     -32.774  15.240  -3.798  1.00 20.00     0.149 C 
ENDBRANCH   1   8
TORSDOF 3
ENDMDL
MODEL 2
REMARK VINA RESULT:      -3.4      1.713      4.046
REMARK  3 active torsions:
REMARK  status: ('A' for Active; 'I' for Inactive)
REMARK    1  A    between atoms: C1_1  and  C7_7 
REMARK    2  A    between atoms: C1_1  and  N9_9 
REMARK    3  A    between atoms: C7_7  and  C8_8 
ROOT
HETATM    1  C1  UNL     1     -35.662  16.424  -2.989  1.00 20.00     0.075 C 
HETATM    2  S10 UNL     1     -37.052  17.129  -3.667  1.00 20.00    -0.066 SA
ENDROOT
BRANCH   1   3
HETATM    3  C7  UNL     1     -35.413  14.934  -3.311  1.00 20.00     0.077 C 
BRANCH   3   4
HETATM    4  C8  UNL     1     -34.245  14.612  -4.290  1.00 20.00    -0.045 C 
HETATM    5  C2  UNL     1     -34.510  13.214  -4.889  1.00 20.00     0.015 C 
HETATM    6  C3  UNL     1     -32.877  14.578  -3.594  1.00 20.00     0.015 C 
HETATM    7  C4  UNL     1     -34.184  15.622  -5.449  1.00 20.00     0.015 C 
ENDBRANCH   3   4
ENDBRANCH   1   3
BRANCH   1   8
HETATM    8  N9  UNL     1     -34.761  17.100  -2.156  1.00 20.00    -0.384 N 
HETATM    9  C5  UNL     1     -33.830  18.132  -2.613  1.00 20.00     0.149 C 
HETATM   10  C6  UNL     1     -34.564  16.728  -0.751  1.00 20.00     0.149 C 
ENDBRANCH   1   8
TORSDOF 3
ENDMDL
MODEL 3
REMARK VINA RESULT:      -3.4      1.977      2.271
REMARK  3 active torsions:
REMARK  status: ('A' for Active; 'I' for Inactive)
REMARK    1  A    between atoms: C1_1  and  C7_7 
REMARK    2  A    between atoms: C1_1  and  N9_9 
REMARK    3  A    between atoms: C7_7  and  C8_8 
ROOT
HETATM    1  C1  UNL     1     -34.400  15.670  -3.785  1.00 20.00     0.075 C 
HETATM    2  S10 UNL     1     -33.635  16.640  -4.952  1.00 20.00    -0.066 SA
ENDROOT
BRANCH   1   3
HETATM    3  C7  UNL     1     -34.040  15.948  -2.309  1.00 20.00     0.077 C 
BRANCH   3   4
HETATM    4  C8  UNL     1     -34.574  17.274  -1.692  1.00 20.00    -0.045 C 
HETATM    5  C2  UNL     1     -34.796  17.032  -0.184  1.00 20.00     0.015 C 
HETATM    6  C3  UNL     1     -35.910  17.721  -2.303  1.00 20.00     0.015 C 
HETATM    7  C4  UNL     1     -33.556  18.418  -1.844  1.00 20.00     0.015 C 
ENDBRANCH   3   4
ENDBRANCH   1   3
BRANCH   1   8
HETATM    8  N9  UNL     1     -35.305  14.643  -4.084  1.00 20.00    -0.384 N 
HETATM    9  C5  UNL     1     -36.750  14.729  -3.875  1.00 20.00     0.149 C 
HETATM   10  C6  UNL     1     -34.862  13.310  -4.506  1.00 20.00     0.149 C 
ENDBRANCH   1   8
TORSDOF 3
ENDMDL
MODEL 4
REMARK VINA RESULT:      -3.4      2.291      4.580
REMARK  3 active torsions:
REMARK  status: ('A' for Active; 'I' for Inactive)
REMARK    1  A    between atoms: C1_1  and  C7_7 
REMARK    2  A    between atoms: C1_1  and  N9_9 
REMARK    3  A    between atoms: C7_7  and  C8_8 
ROOT
HETATM    1  C1  UNL     1     -33.687  16.935  -3.900  1.00 20.00     0.075 C 
HETATM    2  S10 UNL     1     -33.653  18.100  -5.137  1.00 20.00    -0.066 SA
ENDROOT
BRANCH   1   3
HETATM    3  C7  UNL     1     -33.484  15.465  -4.327  1.00 20.00     0.077 C 
BRANCH   3   4
HETATM    4  C8  UNL     1     -34.648  14.795  -5.117  1.00 20.00    -0.045 C 
HETATM    5  C2  UNL     1     -34.689  13.306  -4.715  1.00 20.00     0.015 C 
HETATM    6  C3  UNL     1     -34.456  14.871  -6.638  1.00 20.00     0.015 C 
HETATM    7  C4  UNL     1     -36.007  15.421  -4.759  1.00 20.00     0.015 C 
ENDBRANCH   3   4
ENDBRANCH   1   3
BRANCH   1   8
HETATM    8  N9  UNL     1     -33.904  17.228  -2.548  1.00 20.00    -0.384 N 
HETATM    9  C5  UNL     1     -34.523  16.309  -1.593  1.00 20.00     0.149 C 
HETATM   10  C6  UNL     1     -33.658  18.562  -1.988  1.00 20.00     0.149 C 
ENDBRANCH   1   8
TORSDOF 3
ENDMDL
MODEL 5
REMARK VINA RESULT:      -3.4      2.827      4.218
REMARK  3 active torsions:
REMARK  status: ('A' for Active; 'I' for Inactive)
REMARK    1  A    between atoms: C1_1  and  C7_7 
REMARK    2  A    between atoms: C1_1  and  N9_9 
REMARK    3  A    between atoms: C7_7  and  C8_8 
ROOT
HETATM    1  C1  UNL     1     -35.669  14.752  -5.663  1.00 20.00     0.075 C 
HETATM    2  S10 UNL     1     -35.335  14.560  -7.319  1.00 20.00    -0.066 SA
ENDROOT
BRANCH   1   3
HETATM    3  C7  UNL     1     -34.621  14.194  -4.676  1.00 20.00     0.077 C 
BRANCH   3   4
HETATM    4  C8  UNL     1     -33.773  15.236  -3.888  1.00 20.00    -0.045 C 
HETATM    5  C2  UNL     1     -32.422  14.573  -3.543  1.00 20.00     0.015 C 
HETATM    6  C3  UNL     1     -34.436  15.673  -2.574  1.00 20.00     0.015 C 
HETATM    7  C4  UNL     1     -33.485  16.487  -4.735  1.00 20.00     0.015 C 
ENDBRANCH   3   4
ENDBRANCH   1   3
BRANCH   1   8
HETATM    8  N9  UNL     1     -36.827  15.357  -5.158  1.00 20.00    -0.384 N 
HETATM    9  C5  UNL     1     -37.256  16.717  -5.483  1.00 20.00     0.149 C 
HETATM   10  C6  UNL     1     -37.653  14.724  -4.125  1.00 20.00     0.149 C 
ENDBRANCH   1   8
TORSDOF 3
ENDMDL
MODEL 6
REMARK VINA RESULT:      -3.4      2.216      4.016
REMARK  3 active torsions:
REMARK  status: ('A' for Active; 'I' for Inactive)
REMARK    1  A    between atoms: C1_1  and  C7_7 
REMARK    2  A    between atoms: C1_1  and  N9_9 
REMARK    3  A    between atoms: C7_7  and  C8_8 
ROOT
HETATM    1  C1  UNL     1     -34.206  16.995  -2.555  1.00 20.00     0.075 C 
HETATM    2  S10 UNL     1     -34.477  16.922  -0.878  1.00 20.00    -0.066 SA
ENDROOT
BRANCH   1   3
HETATM    3  C7  UNL     1     -33.469  15.796  -3.190  1.00 20.00     0.077 C 
BRANCH   3   4
HETATM    4  C8  UNL     1     -34.317  14.845  -4.086  1.00 20.00    -0.045 C 
HETATM    5  C2  UNL     1     -33.709  13.430  -3.972  1.00 20.00     0.015 C 
HETATM    6  C3  UNL     1     -34.301  15.249  -5.567  1.00 20.00     0.015 C 
HETATM    7  C4  UNL     1     -35.778  14.773  -3.610  1.00 20.00     0.015 C 
ENDBRANCH   3   4
ENDBRANCH   1   3
BRANCH   1   8
HETATM    8  N9  UNL     1     -34.588  18.069  -3.369  1.00 20.00    -0.384 N 
HETATM    9  C5  UNL     1     -35.961  18.554  -3.503  1.00 20.00     0.149 C 
HETATM   10  C6  UNL     1     -33.653  18.724  -4.289  1.00 20.00     0.149 C 
ENDBRANCH   1   8
TORSDOF 3
ENDMDL
MODEL 7
REMARK VINA RESULT:      -3.3      2.299      4.516
REMARK  3 active torsions:
REMARK  status: ('A' for Active; 'I' for Inactive)
REMARK    1  A    between atoms: C1_1  and  C7_7 
REMARK    2  A    between atoms: C1_1  and  N9_9 
REMARK    3  A    between atoms: C7_7  and  C8_8 
ROOT
HETATM    1  C1  UNL     1     -33.676  16.954  -3.924  1.00 20.00     0.075 C 
HETATM    2  S10 UNL     1     -33.632  18.045  -5.227  1.00 20.00    -0.066 SA
ENDROOT
BRANCH   1   3
HETATM    3  C7  UNL     1     -33.550  15.455  -4.272  1.00 20.00     0.077 C 
BRANCH   3   4
HETATM    4  C8  UNL     1     -34.817  14.759  -4.851  1.00 20.00    -0.045 C 
HETATM    5  C2  UNL     1     -34.619  14.621  -6.376  1.00 20.00     0.015 C 
HETATM    6  C3  UNL     1     -36.102  15.563  -4.611  1.00 20.00     0.015 C 
HETATM    7  C4  UNL     1     -35.003  13.347  -4.268  1.00 20.00     0.015 C 
ENDBRANCH   3   4
ENDBRANCH   1   3
BRANCH   1   8
HETATM    8  N9  UNL     1     -33.836  17.332  -2.585  1.00 20.00    -0.384 N 
HETATM    9  C5  UNL     1     -34.390  16.467  -1.544  1.00 20.00     0.149 C 
HETATM   10  C6  UNL     1     -33.595  18.704  -2.126  1.00 20.00     0.149 C 
ENDBRANCH   1   8
TORSDOF 3
ENDMDL
MODEL 8
REMARK VINA RESULT:      -3.3      2.247      4.048
REMARK  3 active torsions:
REMARK  status: ('A' for Active; 'I' for Inactive)
REMARK    1  A    between atoms: C1_1  and  C7_7 
REMARK    2  A    between atoms: C1_1  and  N9_9 
REMARK    3  A    between atoms: C7_7  and  C8_8 
ROOT
HETATM    1  C1  UNL     1     -34.990  16.788  -2.588  1.00 20.00     0.075 C 
HETATM    2  S10 UNL     1     -34.587  16.752  -0.937  1.00 20.00    -0.066 SA
ENDROOT
BRANCH   1   3
HETATM    3  C7  UNL     1     -35.370  15.441  -3.238  1.00 20.00     0.077 C 
BRANCH   3   4
HETATM    4  C8  UNL     1     -34.309  14.786  -4.172  1.00 20.00    -0.045 C 
HETATM    5  C2  UNL     1     -34.612  13.274  -4.235  1.00 20.00     0.015 C 
HETATM    6  C3  UNL     1     -32.873  14.962  -3.659  1.00 20.00     0.015 C 
HETATM    7  C4  UNL     1     -34.394  15.347  -5.602  1.00 20.00     0.015 C 
ENDBRANCH   3   4
ENDBRANCH   1   3
BRANCH   1   8
HETATM    8  N9  UNL     1     -34.976  17.946  -3.377  1.00 20.00    -0.384 N 
HETATM    9  C5  UNL     1     -36.098  18.398  -4.199  1.00 20.00     0.149 C 
HETATM   10  C6  UNL     1     -33.762  18.747  -3.567  1.00 20.00     0.149 C 
ENDBRANCH   1   8
TORSDOF 3
ENDMDL
MODEL 9
REMARK VINA RESULT:      -3.3      2.318      4.807
REMARK  3 active torsions:
REMARK  status: ('A' for Active; 'I' for Inactive)
REMARK    1  A    between atoms: C1_1  and  C7_7 
REMARK    2  A    between atoms: C1_1  and  N9_9 
REMARK    3  A    between atoms: C7_7  and  C8_8 
ROOT
HETATM    1  C1  UNL     1     -33.676  15.795  -3.906  1.00 20.00     0.075 C 
HETATM    2  S10 UNL     1     -33.591  14.107  -3.726  1.00 20.00    -0.066 SA
ENDROOT
BRANCH   1   3
HETATM    3  C7  UNL     1     -33.395  16.357  -5.316  1.00 20.00     0.077 C 
BRANCH   3   4
HETATM    4  C8  UNL     1     -34.559  16.279  -6.349  1.00 20.00    -0.045 C 
HETATM    5  C2  UNL     1     -34.474  17.533  -7.244  1.00 20.00     0.015 C 
HETATM    6  C3  UNL     1     -35.944  16.261  -5.686  1.00 20.00     0.015 C 
HETATM    7  C4  UNL     1     -34.429  15.040  -7.253  1.00 20.00     0.015 C 
ENDBRANCH   3   4
ENDBRANCH   1   3
BRANCH   1   8
HETATM    8  N9  UNL     1     -33.962  16.685  -2.862  1.00 20.00    -0.384 N 
HETATM    9  C5  UNL     1     -34.556  16.294  -1.584  1.00 20.00     0.149 C 
HETATM   10  C6  UNL     1     -33.824  18.137  -3.013  1.00 20.00     0.149 C 
ENDBRANCH   1   8
TORSDOF 3
ENDMDL
