MODEL 1
REMARK VINA RESULT:      -4.0      0.000      0.000
REMARK  0 active torsions:
REMARK  status: ('A' for Active; 'I' for Inactive)
ROOT
HETATM    1  C1  UNL     1     -34.500  13.671  -4.527  1.00 20.00     0.161 C 
HETATM    2  C2  UNL     1     -33.220  13.875  -3.751  1.00 20.00     0.091 C 
HETATM    3  C3  UNL     1     -33.097  15.364  -3.498  1.00 20.00     0.084 C 
HETATM    4  C4  UNL     1     -34.934  14.863  -5.360  1.00 20.00     0.141 C 
HETATM    5  C5  UNL     1     -36.326  15.332  -4.961  1.00 20.00     0.053 C 
HETATM    6  O6  UNL     1     -35.102  12.601  -4.516  1.00 20.00    -0.295 OA
HETATM    7  S7  UNL     1     -33.690  16.143  -5.014  1.00 20.00    -0.135 SA
HETATM    8 CL8  UNL     1     -34.885  14.385  -7.068  1.00 20.00    -0.099 Cl
ENDROOT
TORSDOF 0
ENDMDL
MODEL 2
REMARK VINA RESULT:      -4.0      1.870      2.758
REMARK  0 active torsions:
REMARK  status: ('A' for Active; 'I' for Inactive)
ROOT
HETATM    1  C1  UNL     1     -34.708  13.834  -4.825  1.00 20.00     0.161 C 
HETATM    2  C2  UNL     1     -35.147  14.176  -6.229  1.00 20.00     0.091 C 
HETATM    3  C3  UNL     1     -34.214  15.263  -6.725  1.00 20.00     0.084 C 
HETATM    4  C4  UNL     1     -34.007  14.960  -4.087  1.00 20.00     0.141 C 
HETATM    5  C5  UNL     1     -32.613  14.542  -3.645  1.00 20.00     0.053 C 
HETATM    6  O6  UNL     1     -34.952  12.744  -4.316  1.00 20.00    -0.295 OA
HETATM    7  S7  UNL     1     -33.930  16.321  -5.291  1.00 20.00    -0.135 SA
HETATM    8 CL8  UNL     1     -35.012  15.410  -2.695  1.00 20.00    -0.099 Cl
ENDROOT
TORSDOF 0
ENDMDL
MODEL 3
REMARK VINA RESULT:      -3.7      2.765      3.376
REMARK  0 active torsions:
REMARK  status: ('A' for Active; 'I' for Inactive)
ROOT
HETATM    1  C1  UNL     1     -33.670  15.868  -5.177  1.00 20.00     0.161 C 
HETATM    2  C2  UNL     1     -34.190  15.395  -6.514  1.00 20.00     0.091 C 
HETATM    3  C3  UNL     1     -35.310  14.415  -6.225  1.00 20.00     0.084 C 
HETATM    4  C4  UNL     1     -33.866  14.885  -4.037  1.00 20.00     0.141 C 
HETATM    5  C5  UNL     1     -34.679  15.507  -2.912  1.00 20.00     0.053 C 
HETATM    6  O6  UNL     1     -33.091  16.943  -5.049  1.00 20.00    -0.295 OA
HETATM    7  S7  UNL     1     -34.750  13.483  -4.784  1.00 20.00    -0.135 SA
HETATM    8 CL8  UNL     1     -32.262  14.384  -3.466  1.00 20.00    -0.099 Cl
ENDROOT
TORSDOF 0
ENDMDL
MODEL 4
REMARK VINA RESULT:      -3.6      2.882      3.280
REMARK  0 active torsions:
REMARK  status: ('A' for Active; 'I' for Inactive)
ROOT
HETATM    1  C1  UNL     1     -33.522  14.800  -3.576  1.00 20.00     0.161 C 
HETATM    2  C2  UNL     1     -34.392  13.577  -3.746  1.00 20.00     0.091 C 
HETATM    3  C3  UNL     1     -35.735  14.064  -4.254  1.00 20.00     0.084 C 
HETATM    4  C4  UNL     1     -34.281  16.087  -3.309  1.00 20.00     0.141 C 
HETATM    5  C5  UNL     1     -33.968  17.136  -4.365  1.00 20.00     0.053 C 
HETATM    6  O6  UNL     1     -32.296  14.733  -3.602  1.00 20.00    -0.295 OA
HETATM    7  S7  UNL     1     -36.034  15.606  -3.365  1.00 20.00    -0.135 SA
HETATM    8 CL8  UNL     1     -33.838  16.657  -1.688  1.00 20.00    -0.099 Cl
ENDROOT
TORSDOF 0
ENDMDL
MODEL 5
REMARK VINA RESULT:      -3.6      2.296      2.706
REMARK  0 active torsions:
REMARK  status: ('A' for Active; 'I' for Inactive)
ROOT
HETATM    1  C1  UNL     1     -35.758  14.731  -3.563  1.00 20.00     0.161 C 
HETATM    2  C2  UNL     1     -35.090  13.577  -4.273  1.00 20.00     0.091 C 
HETATM    3  C3  UNL     1     -33.623  13.621  -3.892  1.00 20.00     0.084 C 
HETATM    4  C4  UNL     1     -34.842  15.901  -3.255  1.00 20.00     0.141 C 
HETATM    5  C5  UNL     1     -34.811  16.194  -1.762  1.00 20.00     0.053 C 
HETATM    6  O6  UNL     1     -36.959  14.729  -3.309  1.00 20.00    -0.295 OA
HETATM    7  S7  UNL     1     -33.207  15.376  -3.852  1.00 20.00    -0.135 SA
HETATM    8 CL8  UNL     1     -35.423  17.307  -4.170  1.00 20.00    -0.099 Cl
ENDROOT
TORSDOF 0
ENDMDL
MODEL 6
REMARK VINA RESULT:      -3.6      2.379      2.703
REMARK  0 active torsions:
REMARK  status: ('A' for Active; 'I' for Inactive)
ROOT
HETATM    1  C1  UNL     1     -33.534  15.876  -4.805  1.00 20.00     0.161 C 
HETATM    2  C2  UNL     1     -33.052  15.107  -3.597  1.00 20.00     0.091 C 
HETATM    3  C3  UNL     1     -33.450  13.661  -3.813  1.00 20.00     0.084 C 
HETATM    4  C4  UNL     1     -34.732  15.266  -5.508  1.00 20.00     0.141 C 
HETATM    5  C5  UNL     1     -34.417  14.963  -6.965  1.00 20.00     0.053 C 
HETATM    6  O6  UNL     1     -33.018  16.936  -5.148  1.00 20.00    -0.295 OA
HETATM    7  S7  UNL     1     -35.080  13.739  -4.584  1.00 20.00    -0.135 SA
HETATM    8 CL8  UNL     1     -36.086  16.405  -5.369  1.00 20.00    -0.099 Cl
ENDROOT
TORSDOF 0
ENDMDL
MODEL 7
REMARK VINA RESULT:      -3.6      2.026      2.464
REMARK  0 active torsions:
REMARK  status: ('A' for Active; 'I' for Inactive)
ROOT
HETATM    1  C1  UNL     1     -33.447  15.206  -3.515  1.00 20.00     0.161 C 
HETATM    2  C2  UNL     1     -33.741  16.288  -2.504  1.00 20.00     0.091 C 
HETATM    3  C3  UNL     1     -35.225  16.211  -2.203  1.00 20.00     0.084 C 
HETATM    4  C4  UNL     1     -34.624  14.819  -4.392  1.00 20.00     0.141 C 
HETATM    5  C5  UNL     1     -34.943  13.338  -4.259  1.00 20.00     0.053 C 
HETATM    6  O6  UNL     1     -32.325  14.722  -3.641  1.00 20.00    -0.295 OA
HETATM    7  S7  UNL     1     -36.001  15.841  -3.789  1.00 20.00    -0.135 SA
HETATM    8 CL8  UNL     1     -34.218  15.239  -6.068  1.00 20.00    -0.099 Cl
ENDROOT
TORSDOF 0
ENDMDL
MODEL 8
REMARK VINA RESULT:      -3.5      1.922      2.669
REMARK  0 active torsions:
REMARK  status: ('A' for Active; 'I' for Inactive)
ROOT
HETATM    1  C1  UNL     1     -35.506  13.990  -4.437  1.00 20.00     0.161 C 
HETATM    2  C2  UNL     1     -36.840  14.433  -3.886  1.00 20.00     0.091 C 
HETATM    3  C3  UNL     1     -37.234  15.683  -4.647  1.00 20.00     0.084 C 
HETATM    4  C4  UNL     1     -34.662  15.105  -5.029  1.00 20.00     0.141 C 
HETATM    5  C5  UNL     1     -34.327  14.825  -6.486  1.00 20.00     0.053 C 
HETATM    6  O6  UNL     1     -35.125  12.825  -4.360  1.00 20.00    -0.295 OA
HETATM    7  S7  UNL     1     -35.693  16.595  -4.870  1.00 20.00    -0.135 SA
HETATM    8 CL8  UNL     1     -33.189  15.254  -4.050  1.00 20.00    -0.099 Cl
ENDROOT
TORSDOF 0
ENDMDL
MODEL 9
REMARK VINA RESULT:      -3.4      1.923      2.128
REMARK  0 active torsions:
REMARK  status: ('A' for Active; 'I' for Inactive)
ROOT
HETATM    1  C1  UNL     1     -35.653  15.129  -3.385  1.00 20.00     0.161 C 
HETATM    2  C2  UNL     1     -34.988  15.857  -2.240  1.00 20.00     0.091 C 
HETATM    3  C3  UNL     1     -33.887  16.706  -2.843  1.00 20.00     0.084 C 
HETATM    4  C4  UNL     1     -34.761  14.897  -4.591  1.00 20.00     0.141 C 
HETATM    5  C5  UNL     1     -35.360  15.523  -5.843  1.00 20.00     0.053 C 
HETATM    6  O6  UNL     1     -36.808  14.719  -3.311  1.00 20.00    -0.295 OA
HETATM    7  S7  UNL     1     -33.183  15.688  -4.156  1.00 20.00    -0.135 SA
HETATM    8 CL8  UNL     1     -34.553  13.146  -4.788  1.00 20.00    -0.099 Cl
ENDROOT
TORSDOF 0
ENDMDL
