MODEL 1
REMARK VINA RESULT:      -5.5      0.000      0.000
REMARK  1 active torsions:
REMARK  status: ('A' for Active; 'I' for Inactive)
REMARK    1  A    between atoms: C4_4  and  C10_10 
ROOT
HETATM    1  C1  UNL     1     -34.032   6.180   6.318  1.00 20.00    -0.003 C 
HETATM    2  C2  UNL     1     -33.198   6.756   5.287  1.00 20.00     0.011 C 
HETATM    3  C3  UNL     1     -34.940   5.201   6.236  1.00 20.00    -0.026 C 
HETATM    4  C4  UNL     1     -33.115   6.508   3.970  1.00 20.00    -0.009 C 
HETATM    5  C5  UNL     1     -34.010   5.561   3.239  1.00 20.00     0.156 C 
HETATM    6  C6  UNL     1     -35.418   4.482   5.015  1.00 20.00     0.035 C 
HETATM    7  C7  UNL     1     -35.408   5.326   3.756  1.00 20.00     0.087 C 
HETATM    8  O11 UNL     1     -33.625   5.020   2.201  1.00 20.00    -0.293 OA
ENDROOT
BRANCH   4   9
HETATM    9  C10 UNL     1     -32.073   7.179   3.117  1.00 20.00     0.014 C 
HETATM   10  C8  UNL     1     -32.721   8.231   2.227  1.00 20.00     0.015 C 
HETATM   11  C9  UNL     1     -30.981   7.793   3.987  1.00 20.00     0.015 C 
ENDBRANCH   4   9
TORSDOF 1
ENDMDL
MODEL 2
REMARK VINA RESULT:      -4.7      9.025     10.936
REMARK  1 active torsions:
REMARK  status: ('A' for Active; 'I' for Inactive)
REMARK    1  A    between atoms: C4_4  and  C10_10 
ROOT
HETATM    1  C1  UNL     1     -40.634   5.342  -0.247  1.00 20.00    -0.003 C 
HETATM    2  C2  UNL     1     -41.122   4.352  -1.180  1.00 20.00     0.011 C 
HETATM    3  C3  UNL     1     -40.859   6.661  -0.203  1.00 20.00    -0.026 C 
HETATM    4  C4  UNL     1     -41.898   4.464  -2.270  1.00 20.00    -0.009 C 
HETATM    5  C5  UNL     1     -42.381   5.766  -2.823  1.00 20.00     0.156 C 
HETATM    6  C6  UNL     1     -41.617   7.503  -1.179  1.00 20.00     0.035 C 
HETATM    7  C7  UNL     1     -41.548   7.006  -2.610  1.00 20.00     0.087 C 
HETATM    8  O11 UNL     1     -43.417   5.812  -3.486  1.00 20.00    -0.293 OA
ENDROOT
BRANCH   4   9
HETATM    9  C10 UNL     1     -42.361   3.247  -3.023  1.00 20.00     0.014 C 
HETATM   10  C8  UNL     1     -41.166   2.385  -3.412  1.00 20.00     0.015 C 
HETATM   11  C9  UNL     1     -43.364   2.452  -2.195  1.00 20.00     0.015 C 
ENDBRANCH   4   9
TORSDOF 1
ENDMDL
MODEL 3
REMARK VINA RESULT:      -4.7     11.752     12.274
REMARK  1 active torsions:
REMARK  status: ('A' for Active; 'I' for Inactive)
REMARK    1  A    between atoms: C4_4  and  C10_10 
ROOT
HETATM    1  C1  UNL     1     -36.703  14.950  -3.562  1.00 20.00    -0.003 C 
HETATM    2  C2  UNL     1     -35.833  15.809  -2.791  1.00 20.00     0.011 C 
HETATM    3  C3  UNL     1     -36.398  14.020  -4.475  1.00 20.00    -0.026 C 
HETATM    4  C4  UNL     1     -34.498  15.949  -2.788  1.00 20.00    -0.009 C 
HETATM    5  C5  UNL     1     -33.580  15.235  -3.727  1.00 20.00     0.156 C 
HETATM    6  C6  UNL     1     -35.052  13.672  -5.027  1.00 20.00     0.035 C 
HETATM    7  C7  UNL     1     -34.089  14.841  -5.091  1.00 20.00     0.087 C 
HETATM    8  O11 UNL     1     -32.410  15.019  -3.406  1.00 20.00    -0.293 OA
ENDROOT
BRANCH   4   9
HETATM    9  C10 UNL     1     -33.813  16.851  -1.798  1.00 20.00     0.014 C 
HETATM   10  C8  UNL     1     -33.661  18.250  -2.382  1.00 20.00     0.015 C 
HETATM   11  C9  UNL     1     -34.582  16.886  -0.482  1.00 20.00     0.015 C 
ENDBRANCH   4   9
TORSDOF 1
ENDMDL
MODEL 4
REMARK VINA RESULT:      -4.6     11.883     12.936
REMARK  1 active torsions:
REMARK  status: ('A' for Active; 'I' for Inactive)
REMARK    1  A    between atoms: C4_4  and  C10_10 
ROOT
HETATM    1  C1  UNL     1     -31.835  18.928   0.381  1.00 20.00    -0.003 C 
HETATM    2  C2  UNL     1     -32.992  18.337  -0.252  1.00 20.00     0.011 C 
HETATM    3  C3  UNL     1     -31.608  19.195   1.672  1.00 20.00    -0.026 C 
HETATM    4  C4  UNL     1     -34.166  17.921   0.252  1.00 20.00    -0.009 C 
HETATM    5  C5  UNL     1     -34.566  18.083   1.683  1.00 20.00     0.156 C 
HETATM    6  C6  UNL     1     -32.544  19.036   2.828  1.00 20.00     0.035 C 
HETATM    7  C7  UNL     1     -34.005  19.239   2.474  1.00 20.00     0.087 C 
HETATM    8  O11 UNL     1     -35.381  17.312   2.190  1.00 20.00    -0.293 OA
ENDROOT
BRANCH   4   9
HETATM    9  C10 UNL     1     -35.182  17.229  -0.614  1.00 20.00     0.014 C 
HETATM   10  C8  UNL     1     -36.039  18.259  -1.340  1.00 20.00     0.015 C 
HETATM   11  C9  UNL     1     -34.497  16.291  -1.601  1.00 20.00     0.015 C 
ENDBRANCH   4   9
TORSDOF 1
ENDMDL
MODEL 5
REMARK VINA RESULT:      -4.5     11.775     13.156
REMARK  1 active torsions:
REMARK  status: ('A' for Active; 'I' for Inactive)
REMARK    1  A    between atoms: C4_4  and  C10_10 
ROOT
HETATM    1  C1  UNL     1     -33.979  16.359  -5.991  1.00 20.00    -0.003 C 
HETATM    2  C2  UNL     1     -34.445  16.516  -4.632  1.00 20.00     0.011 C 
HETATM    3  C3  UNL     1     -34.264  15.410  -6.890  1.00 20.00    -0.026 C 
HETATM    4  C4  UNL     1     -35.255  15.756  -3.877  1.00 20.00    -0.009 C 
HETATM    5  C5  UNL     1     -35.812  14.439  -4.313  1.00 20.00     0.156 C 
HETATM    6  C6  UNL     1     -35.087  14.175  -6.701  1.00 20.00     0.035 C 
HETATM    7  C7  UNL     1     -35.033  13.603  -5.298  1.00 20.00     0.087 C 
HETATM    8  O11 UNL     1     -36.867  14.023  -3.833  1.00 20.00    -0.293 OA
ENDROOT
BRANCH   4   9
HETATM    9  C10 UNL     1     -35.680  16.200  -2.504  1.00 20.00     0.014 C 
HETATM   10  C8  UNL     1     -34.469  16.292  -1.584  1.00 20.00     0.015 C 
HETATM   11  C9  UNL     1     -36.419  17.531  -2.575  1.00 20.00     0.015 C 
ENDBRANCH   4   9
TORSDOF 1
ENDMDL
MODEL 6
REMARK VINA RESULT:      -4.5     11.714     12.393
REMARK  1 active torsions:
REMARK  status: ('A' for Active; 'I' for Inactive)
REMARK    1  A    between atoms: C4_4  and  C10_10 
ROOT
HETATM    1  C1  UNL     1     -33.326  14.366  -3.755  1.00 20.00    -0.003 C 
HETATM    2  C2  UNL     1     -33.628  15.471  -2.875  1.00 20.00     0.011 C 
HETATM    3  C3  UNL     1     -34.095  13.764  -4.670  1.00 20.00    -0.026 C 
HETATM    4  C4  UNL     1     -34.754  16.182  -2.695  1.00 20.00    -0.009 C 
HETATM    5  C5  UNL     1     -36.050  15.881  -3.375  1.00 20.00     0.156 C 
HETATM    6  C6  UNL     1     -35.538  14.014  -4.974  1.00 20.00     0.035 C 
HETATM    7  C7  UNL     1     -36.355  14.459  -3.776  1.00 20.00     0.087 C 
HETATM    8  O11 UNL     1     -36.877  16.776  -3.558  1.00 20.00    -0.293 OA
ENDROOT
BRANCH   4   9
HETATM    9  C10 UNL     1     -34.782  17.375  -1.779  1.00 20.00     0.014 C 
HETATM   10  C8  UNL     1     -34.740  16.920  -0.325  1.00 20.00     0.015 C 
HETATM   11  C9  UNL     1     -33.627  18.319  -2.092  1.00 20.00     0.015 C 
ENDBRANCH   4   9
TORSDOF 1
ENDMDL
MODEL 7
REMARK VINA RESULT:      -4.4     11.882     13.150
REMARK  1 active torsions:
REMARK  status: ('A' for Active; 'I' for Inactive)
REMARK    1  A    between atoms: C4_4  and  C10_10 
ROOT
HETATM    1  C1  UNL     1     -35.463  13.953  -4.138  1.00 20.00    -0.003 C 
HETATM    2  C2  UNL     1     -35.188  15.070  -3.263  1.00 20.00     0.011 C 
HETATM    3  C3  UNL     1     -35.110  13.757  -5.414  1.00 20.00    -0.026 C 
HETATM    4  C4  UNL     1     -34.543  16.229  -3.477  1.00 20.00    -0.009 C 
HETATM    5  C5  UNL     1     -34.009  16.655  -4.806  1.00 20.00     0.156 C 
HETATM    6  C6  UNL     1     -34.399  14.700  -6.332  1.00 20.00     0.035 C 
HETATM    7  C7  UNL     1     -34.688  16.164  -6.061  1.00 20.00     0.087 C 
HETATM    8  O11 UNL     1     -33.061  17.438  -4.871  1.00 20.00    -0.293 OA
ENDROOT
BRANCH   4   9
HETATM    9  C10 UNL     1     -34.292  17.198  -2.355  1.00 20.00     0.014 C 
HETATM   10  C8  UNL     1     -35.152  18.443  -2.536  1.00 20.00     0.015 C 
HETATM   11  C9  UNL     1     -34.559  16.538  -1.006  1.00 20.00     0.015 C 
ENDBRANCH   4   9
TORSDOF 1
ENDMDL
MODEL 8
REMARK VINA RESULT:      -4.3     11.601     13.336
REMARK  1 active torsions:
REMARK  status: ('A' for Active; 'I' for Inactive)
REMARK    1  A    between atoms: C4_4  and  C10_10 
ROOT
HETATM    1  C1  UNL     1     -36.061  16.951  -5.996  1.00 20.00    -0.003 C 
HETATM    2  C2  UNL     1     -35.284  16.430  -4.894  1.00 20.00     0.011 C 
HETATM    3  C3  UNL     1     -36.581  16.316  -7.053  1.00 20.00    -0.026 C 
HETATM    4  C4  UNL     1     -34.836  15.191  -4.630  1.00 20.00    -0.009 C 
HETATM    5  C5  UNL     1     -35.003  14.027  -5.552  1.00 20.00     0.156 C 
HETATM    6  C6  UNL     1     -36.421  14.880  -7.440  1.00 20.00     0.035 C 
HETATM    7  C7  UNL     1     -35.090  14.275  -7.038  1.00 20.00     0.087 C 
HETATM    8  O11 UNL     1     -35.018  12.879  -5.105  1.00 20.00    -0.293 OA
ENDROOT
BRANCH   4   9
HETATM    9  C10 UNL     1     -34.128  14.880  -3.340  1.00 20.00     0.014 C 
HETATM   10  C8  UNL     1     -32.619  14.914  -3.549  1.00 20.00     0.015 C 
HETATM   11  C9  UNL     1     -34.553  15.852  -2.246  1.00 20.00     0.015 C 
ENDBRANCH   4   9
TORSDOF 1
ENDMDL
MODEL 9
REMARK VINA RESULT:      -4.3     11.692     13.239
REMARK  1 active torsions:
REMARK  status: ('A' for Active; 'I' for Inactive)
REMARK    1  A    between atoms: C4_4  and  C10_10 
ROOT
HETATM    1  C1  UNL     1     -33.413  16.442  -4.249  1.00 20.00    -0.003 C 
HETATM    2  C2  UNL     1     -34.266  15.935  -5.300  1.00 20.00     0.011 C 
HETATM    3  C3  UNL     1     -33.549  16.358  -2.921  1.00 20.00    -0.026 C 
HETATM    4  C4  UNL     1     -35.436  15.278  -5.255  1.00 20.00    -0.009 C 
HETATM    5  C5  UNL     1     -36.187  14.992  -3.995  1.00 20.00     0.156 C 
HETATM    6  C6  UNL     1     -34.692  15.788  -2.142  1.00 20.00     0.035 C 
HETATM    7  C7  UNL     1     -36.039  15.932  -2.824  1.00 20.00     0.087 C 
HETATM    8  O11 UNL     1     -36.955  14.031  -3.935  1.00 20.00    -0.293 OA
ENDROOT
BRANCH   4   9
HETATM    9  C10 UNL     1     -36.083  14.755  -6.509  1.00 20.00     0.014 C 
HETATM   10  C8  UNL     1     -37.240  15.659  -6.917  1.00 20.00     0.015 C 
HETATM   11  C9  UNL     1     -35.058  14.635  -7.631  1.00 20.00     0.015 C 
ENDBRANCH   4   9
TORSDOF 1
ENDMDL
