MODEL 1
REMARK VINA RESULT:      -5.4      0.000      0.000
REMARK  1 active torsions:
REMARK  status: ('A' for Active; 'I' for Inactive)
REMARK    1  A    between atoms: C7_7  and  C10_10 
ROOT
HETATM    1  C1  UNL     1     -34.051  16.031  -5.694  1.00 20.00     0.011 C 
HETATM    2  C2  UNL     1     -33.510  16.543  -4.580  1.00 20.00    -0.020 C 
HETATM    3  C3  UNL     1     -34.626  14.706  -5.732  1.00 20.00     0.000 C 
HETATM    4  C4  UNL     1     -34.734  13.929  -4.456  1.00 20.00     0.159 C 
HETATM    5  C5  UNL     1     -35.089  14.150  -6.861  1.00 20.00     0.027 C 
HETATM    6  C6  UNL     1     -34.552  14.714  -3.172  1.00 20.00     0.092 C 
HETATM    7  C7  UNL     1     -33.469  15.798  -3.270  1.00 20.00     0.019 C 
HETATM    8  O11 UNL     1     -35.023  12.736  -4.438  1.00 20.00    -0.292 OA
ENDROOT
BRANCH   7   9
HETATM    9  C10 UNL     1     -33.598  16.768  -2.093  1.00 20.00    -0.015 C 
HETATM   10  C8  UNL     1     -33.746  18.200  -2.595  1.00 20.00     0.010 C 
HETATM   11  C9  UNL     1     -34.781  16.380  -1.210  1.00 20.00     0.010 C 
ENDBRANCH   7   9
TORSDOF 1
ENDMDL
MODEL 2
REMARK VINA RESULT:      -4.9      1.193      1.230
REMARK  1 active torsions:
REMARK  status: ('A' for Active; 'I' for Inactive)
REMARK    1  A    between atoms: C7_7  and  C10_10 
ROOT
HETATM    1  C1  UNL     1     -33.760  15.368  -4.949  1.00 20.00     0.011 C 
HETATM    2  C2  UNL     1     -33.303  15.792  -3.764  1.00 20.00    -0.020 C 
HETATM    3  C3  UNL     1     -35.068  14.771  -5.101  1.00 20.00     0.000 C 
HETATM    4  C4  UNL     1     -35.988  14.740  -3.920  1.00 20.00     0.159 C 
HETATM    5  C5  UNL     1     -35.501  14.263  -6.263  1.00 20.00     0.027 C 
HETATM    6  C6  UNL     1     -35.620  15.638  -2.754  1.00 20.00     0.092 C 
HETATM    7  C7  UNL     1     -34.109  15.705  -2.493  1.00 20.00     0.019 C 
HETATM    8  O11 UNL     1     -37.024  14.081  -3.913  1.00 20.00    -0.292 OA
ENDROOT
BRANCH   7   9
HETATM    9  C10 UNL     1     -33.794  16.886  -1.572  1.00 20.00    -0.015 C 
HETATM   10  C8  UNL     1     -33.868  18.200  -2.343  1.00 20.00     0.010 C 
HETATM   11  C9  UNL     1     -34.750  16.904  -0.382  1.00 20.00     0.010 C 
ENDBRANCH   7   9
TORSDOF 1
ENDMDL
MODEL 3
REMARK VINA RESULT:      -4.7      2.129      4.504
REMARK  1 active torsions:
REMARK  status: ('A' for Active; 'I' for Inactive)
REMARK    1  A    between atoms: C7_7  and  C10_10 
ROOT
HETATM    1  C1  UNL     1     -34.481  15.163  -2.894  1.00 20.00     0.011 C 
HETATM    2  C2  UNL     1     -34.120  14.981  -4.171  1.00 20.00    -0.020 C 
HETATM    3  C3  UNL     1     -34.301  16.427  -2.216  1.00 20.00     0.000 C 
HETATM    4  C4  UNL     1     -33.811  17.604  -3.001  1.00 20.00     0.159 C 
HETATM    5  C5  UNL     1     -34.576  16.595  -0.914  1.00 20.00     0.027 C 
HETATM    6  C6  UNL     1     -33.868  17.478  -4.511  1.00 20.00     0.092 C 
HETATM    7  C7  UNL     1     -33.516  16.072  -5.018  1.00 20.00     0.019 C 
HETATM    8  O11 UNL     1     -33.448  18.645  -2.463  1.00 20.00    -0.292 OA
ENDROOT
BRANCH   7   9
HETATM    9  C10 UNL     1     -33.946  15.924  -6.478  1.00 20.00    -0.015 C 
HETATM   10  C8  UNL     1     -34.785  14.663  -6.663  1.00 20.00     0.010 C 
HETATM   11  C9  UNL     1     -34.720  17.158  -6.934  1.00 20.00     0.010 C 
ENDBRANCH   7   9
TORSDOF 1
ENDMDL
MODEL 4
REMARK VINA RESULT:      -4.6     11.699     13.021
REMARK  1 active torsions:
REMARK  status: ('A' for Active; 'I' for Inactive)
REMARK    1  A    between atoms: C7_7  and  C10_10 
ROOT
HETATM    1  C1  UNL     1     -33.885   6.426   6.215  1.00 20.00     0.011 C 
HETATM    2  C2  UNL     1     -33.303   7.156   5.254  1.00 20.00    -0.020 C 
HETATM    3  C3  UNL     1     -34.663   5.245   5.918  1.00 20.00     0.000 C 
HETATM    4  C4  UNL     1     -34.717   4.752   4.506  1.00 20.00     0.159 C 
HETATM    5  C5  UNL     1     -35.323   4.558   6.862  1.00 20.00     0.027 C 
HETATM    6  C6  UNL     1     -33.682   5.318   3.554  1.00 20.00     0.092 C 
HETATM    7  C7  UNL     1     -33.388   6.807   3.791  1.00 20.00     0.019 C 
HETATM    8  O11 UNL     1     -35.506   3.884   4.144  1.00 20.00    -0.292 OA
ENDROOT
BRANCH   7   9
HETATM    9  C10 UNL     1     -32.102   7.204   3.064  1.00 20.00    -0.015 C 
HETATM   10  C8  UNL     1     -32.394   8.254   1.997  1.00 20.00     0.010 C 
HETATM   11  C9  UNL     1     -31.064   7.718   4.057  1.00 20.00     0.010 C 
ENDBRANCH   7   9
TORSDOF 1
ENDMDL
MODEL 5
REMARK VINA RESULT:      -4.4      2.054      4.325
REMARK  1 active torsions:
REMARK  status: ('A' for Active; 'I' for Inactive)
REMARK    1  A    between atoms: C7_7  and  C10_10 
ROOT
HETATM    1  C1  UNL     1     -33.650  15.814  -2.639  1.00 20.00     0.011 C 
HETATM    2  C2  UNL     1     -33.747  15.482  -3.934  1.00 20.00    -0.020 C 
HETATM    3  C3  UNL     1     -34.706  16.513  -1.943  1.00 20.00     0.000 C 
HETATM    4  C4  UNL     1     -35.998  16.763  -2.657  1.00 20.00     0.159 C 
HETATM    5  C5  UNL     1     -34.584  16.929  -0.675  1.00 20.00     0.027 C 
HETATM    6  C6  UNL     1     -36.232  15.969  -3.927  1.00 20.00     0.092 C 
HETATM    7  C7  UNL     1     -34.963  15.786  -4.771  1.00 20.00     0.019 C 
HETATM    8  O11 UNL     1     -36.859  17.515  -2.209  1.00 20.00    -0.292 OA
ENDROOT
BRANCH   7   9
HETATM    9  C10 UNL     1     -35.189  14.690  -5.815  1.00 20.00    -0.015 C 
HETATM   10  C8  UNL     1     -34.414  15.002  -7.092  1.00 20.00     0.010 C 
HETATM   11  C9  UNL     1     -34.783  13.329  -5.256  1.00 20.00     0.010 C 
ENDBRANCH   7   9
TORSDOF 1
ENDMDL
MODEL 6
REMARK VINA RESULT:      -4.4      2.295      3.266
REMARK  1 active torsions:
REMARK  status: ('A' for Active; 'I' for Inactive)
REMARK    1  A    between atoms: C7_7  and  C10_10 
ROOT
HETATM    1  C1  UNL     1     -34.345  15.614  -2.774  1.00 20.00     0.011 C 
HETATM    2  C2  UNL     1     -35.594  16.086  -2.668  1.00 20.00    -0.020 C 
HETATM    3  C3  UNL     1     -34.044  14.380  -3.464  1.00 20.00     0.000 C 
HETATM    4  C4  UNL     1     -35.146  13.673  -4.190  1.00 20.00     0.159 C 
HETATM    5  C5  UNL     1     -32.812  13.853  -3.499  1.00 20.00     0.027 C 
HETATM    6  C6  UNL     1     -36.411  14.471  -4.439  1.00 20.00     0.092 C 
HETATM    7  C7  UNL     1     -36.789  15.391  -3.270  1.00 20.00     0.019 C 
HETATM    8  O11 UNL     1     -35.016  12.532  -4.627  1.00 20.00    -0.292 OA
ENDROOT
BRANCH   7   9
HETATM    9  C10 UNL     1     -37.833  16.411  -3.730  1.00 20.00    -0.015 C 
HETATM   10  C8  UNL     1     -37.806  17.644  -2.832  1.00 20.00     0.010 C 
HETATM   11  C9  UNL     1     -37.595  16.798  -5.186  1.00 20.00     0.010 C 
ENDBRANCH   7   9
TORSDOF 1
ENDMDL
MODEL 7
REMARK VINA RESULT:      -4.4      1.877      2.588
REMARK  1 active torsions:
REMARK  status: ('A' for Active; 'I' for Inactive)
REMARK    1  A    between atoms: C7_7  and  C10_10 
ROOT
HETATM    1  C1  UNL     1     -36.134  15.086  -3.433  1.00 20.00     0.011 C 
HETATM    2  C2  UNL     1     -36.219  16.303  -2.879  1.00 20.00    -0.020 C 
HETATM    3  C3  UNL     1     -34.865  14.468  -3.741  1.00 20.00     0.000 C 
HETATM    4  C4  UNL     1     -33.605  15.155  -3.315  1.00 20.00     0.159 C 
HETATM    5  C5  UNL     1     -34.769  13.291  -4.375  1.00 20.00     0.027 C 
HETATM    6  C6  UNL     1     -33.755  16.267  -2.295  1.00 20.00     0.092 C 
HETATM    7  C7  UNL     1     -35.010  17.125  -2.512  1.00 20.00     0.019 C 
HETATM    8  O11 UNL     1     -32.498  14.799  -3.709  1.00 20.00    -0.292 OA
ENDROOT
BRANCH   7   9
HETATM    9  C10 UNL     1     -35.286  17.965  -1.263  1.00 20.00    -0.015 C 
HETATM   10  C8  UNL     1     -36.760  18.351  -1.195  1.00 20.00     0.010 C 
HETATM   11  C9  UNL     1     -34.868  17.206  -0.007  1.00 20.00     0.010 C 
ENDBRANCH   7   9
TORSDOF 1
ENDMDL
MODEL 8
REMARK VINA RESULT:      -4.3     12.432     14.295
REMARK  1 active torsions:
REMARK  status: ('A' for Active; 'I' for Inactive)
REMARK    1  A    between atoms: C7_7  and  C10_10 
ROOT
HETATM    1  C1  UNL     1     -43.043   5.796  -2.938  1.00 20.00     0.011 C 
HETATM    2  C2  UNL     1     -43.332   4.507  -3.162  1.00 20.00    -0.020 C 
HETATM    3  C3  UNL     1     -42.010   6.203  -2.013  1.00 20.00     0.000 C 
HETATM    4  C4  UNL     1     -41.152   5.151  -1.380  1.00 20.00     0.159 C 
HETATM    5  C5  UNL     1     -41.773   7.488  -1.714  1.00 20.00     0.027 C 
HETATM    6  C6  UNL     1     -41.198   3.773  -2.011  1.00 20.00     0.092 C 
HETATM    7  C7  UNL     1     -42.600   3.372  -2.492  1.00 20.00     0.019 C 
HETATM    8  O11 UNL     1     -40.396   5.398  -0.445  1.00 20.00    -0.292 OA
ENDROOT
BRANCH   7   9
HETATM    9  C10 UNL     1     -42.501   2.165  -3.427  1.00 20.00    -0.015 C 
HETATM   10  C8  UNL     1     -41.049   1.911  -3.819  1.00 20.00     0.010 C 
HETATM   11  C9  UNL     1     -43.107   0.929  -2.768  1.00 20.00     0.010 C 
ENDBRANCH   7   9
TORSDOF 1
ENDMDL
MODEL 9
REMARK VINA RESULT:      -4.3      2.251      4.629
REMARK  1 active torsions:
REMARK  status: ('A' for Active; 'I' for Inactive)
REMARK    1  A    between atoms: C7_7  and  C10_10 
ROOT
HETATM    1  C1  UNL     1     -34.427  15.951  -1.915  1.00 20.00     0.011 C 
HETATM    2  C2  UNL     1     -34.398  15.209  -3.031  1.00 20.00    -0.020 C 
HETATM    3  C3  UNL     1     -34.094  17.357  -1.917  1.00 20.00     0.000 C 
HETATM    4  C4  UNL     1     -33.830  18.034  -3.226  1.00 20.00     0.159 C 
HETATM    5  C5  UNL     1     -34.033  18.088  -0.795  1.00 20.00     0.027 C 
HETATM    6  C6  UNL     1     -34.265  17.287  -4.472  1.00 20.00     0.092 C 
HETATM    7  C7  UNL     1     -34.038  15.772  -4.382  1.00 20.00     0.019 C 
HETATM    8  O11 UNL     1     -33.352  19.163  -3.296  1.00 20.00    -0.292 OA
ENDROOT
BRANCH   7   9
HETATM    9  C10 UNL     1     -34.822  15.063  -5.489  1.00 20.00    -0.015 C 
HETATM   10  C8  UNL     1     -34.222  15.380  -6.855  1.00 20.00     0.010 C 
HETATM   11  C9  UNL     1     -34.846  13.557  -5.246  1.00 20.00     0.010 C 
ENDBRANCH   7   9
TORSDOF 1
ENDMDL
