MODEL 1
REMARK VINA RESULT:      -4.3      0.000      0.000
REMARK  1 active torsions:
REMARK  status: ('A' for Active; 'I' for Inactive)
REMARK    1  A    between atoms: C7_7  and  N8_8 
ROOT
HETATM    1  C1  UNL     1     -42.448   5.182   0.449  1.00 20.00     0.005 C 
HETATM    2  C2  UNL     1     -43.051   4.706  -0.881  1.00 20.00     0.007 C 
HETATM    3  C3  UNL     1     -40.687   4.584  -1.039  1.00 20.00     0.011 C 
HETATM    4  C4  UNL     1     -41.108   6.918  -0.756  1.00 20.00     0.027 C 
HETATM    5  C5  UNL     1     -41.026   5.606   0.048  1.00 20.00    -0.013 C 
HETATM    6  C6  UNL     1     -41.908   4.948  -1.889  1.00 20.00     0.006 C 
HETATM    7  C7  UNL     1     -41.666   6.455  -2.112  1.00 20.00     0.097 C 
ENDROOT
BRANCH   7   8
HETATM    8  N8  UNL     1     -42.819   7.221  -2.556  1.00 20.00    -0.131 NA
HETATM    9 CL9  UNL     1     -43.417   8.311  -1.303  1.00 20.00    -0.005 Cl
HETATM   10 CL10 UNL     1     -42.488   8.128  -4.035  1.00 20.00    -0.005 Cl
ENDBRANCH   7   8
TORSDOF 1
ENDMDL
MODEL 2
REMARK VINA RESULT:      -4.2     11.503     12.477
REMARK  1 active torsions:
REMARK  status: ('A' for Active; 'I' for Inactive)
REMARK    1  A    between atoms: C7_7  and  N8_8 
ROOT
HETATM    1  C1  UNL     1     -34.338  15.458  -5.598  1.00 20.00     0.005 C 
HETATM    2  C2  UNL     1     -33.259  15.993  -4.645  1.00 20.00     0.007 C 
HETATM    3  C3  UNL     1     -33.676  13.720  -4.110  1.00 20.00     0.011 C 
HETATM    4  C4  UNL     1     -35.760  14.794  -3.649  1.00 20.00     0.027 C 
HETATM    5  C5  UNL     1     -34.916  14.263  -4.824  1.00 20.00    -0.013 C 
HETATM    6  C6  UNL     1     -33.374  15.056  -3.426  1.00 20.00     0.006 C 
HETATM    7  C7  UNL     1     -34.693  15.292  -2.659  1.00 20.00     0.097 C 
ENDROOT
BRANCH   7   8
HETATM    8  N8  UNL     1     -34.920  16.653  -2.198  1.00 20.00    -0.131 NA
HETATM    9 CL9  UNL     1     -36.514  17.255  -2.662  1.00 20.00    -0.005 Cl
HETATM   10 CL10 UNL     1     -34.700  16.811  -0.454  1.00 20.00    -0.005 Cl
ENDBRANCH   7   8
TORSDOF 1
ENDMDL
MODEL 3
REMARK VINA RESULT:      -4.2     11.919     12.946
REMARK  1 active torsions:
REMARK  status: ('A' for Active; 'I' for Inactive)
REMARK    1  A    between atoms: C7_7  and  N8_8 
ROOT
HETATM    1  C1  UNL     1     -34.421  13.784  -3.798  1.00 20.00     0.005 C 
HETATM    2  C2  UNL     1     -33.125  14.593  -3.642  1.00 20.00     0.007 C 
HETATM    3  C3  UNL     1     -34.824  15.635  -2.356  1.00 20.00     0.011 C 
HETATM    4  C4  UNL     1     -35.625  15.826  -4.599  1.00 20.00     0.027 C 
HETATM    5  C5  UNL     1     -35.510  14.809  -3.446  1.00 20.00    -0.013 C 
HETATM    6  C6  UNL     1     -33.634  15.995  -3.250  1.00 20.00     0.006 C 
HETATM    7  C7  UNL     1     -34.356  16.680  -4.430  1.00 20.00     0.097 C 
ENDROOT
BRANCH   7   8
HETATM    8  N8  UNL     1     -33.581  16.814  -5.653  1.00 20.00    -0.131 NA
HETATM    9 CL9  UNL     1     -34.108  15.683  -6.903  1.00 20.00    -0.005 Cl
HETATM   10 CL10 UNL     1     -33.609  18.463  -6.282  1.00 20.00    -0.005 Cl
ENDBRANCH   7   8
TORSDOF 1
ENDMDL
MODEL 4
REMARK VINA RESULT:      -4.1     11.280     12.313
REMARK  1 active torsions:
REMARK  status: ('A' for Active; 'I' for Inactive)
REMARK    1  A    between atoms: C7_7  and  N8_8 
ROOT
HETATM    1  C1  UNL     1     -34.960  15.453  -2.918  1.00 20.00     0.005 C 
HETATM    2  C2  UNL     1     -35.703  14.437  -3.797  1.00 20.00     0.007 C 
HETATM    3  C3  UNL     1     -33.405  13.848  -3.740  1.00 20.00     0.011 C 
HETATM    4  C4  UNL     1     -33.408  15.985  -4.808  1.00 20.00     0.027 C 
HETATM    5  C5  UNL     1     -33.509  15.338  -3.412  1.00 20.00    -0.013 C 
HETATM    6  C6  UNL     1     -34.589  13.886  -4.711  1.00 20.00     0.006 C 
HETATM    7  C7  UNL     1     -34.105  14.956  -5.713  1.00 20.00     0.097 C 
ENDROOT
BRANCH   7   8
HETATM    8  N8  UNL     1     -35.133  15.535  -6.564  1.00 20.00    -0.131 NA
HETATM    9 CL9  UNL     1     -34.628  17.075  -7.264  1.00 20.00    -0.005 Cl
HETATM   10 CL10 UNL     1     -35.641  14.429  -7.843  1.00 20.00    -0.005 Cl
ENDBRANCH   7   8
TORSDOF 1
ENDMDL
MODEL 5
REMARK VINA RESULT:      -4.1      2.475      2.866
REMARK  1 active torsions:
REMARK  status: ('A' for Active; 'I' for Inactive)
REMARK    1  A    between atoms: C7_7  and  N8_8 
ROOT
HETATM    1  C1  UNL     1     -42.966   6.992  -0.199  1.00 20.00     0.005 C 
HETATM    2  C2  UNL     1     -42.819   5.570   0.361  1.00 20.00     0.007 C 
HETATM    3  C3  UNL     1     -40.654   6.504   0.096  1.00 20.00     0.011 C 
HETATM    4  C4  UNL     1     -41.497   6.403  -2.137  1.00 20.00     0.027 C 
HETATM    5  C5  UNL     1     -41.598   7.247  -0.851  1.00 20.00    -0.013 C 
HETATM    6  C6  UNL     1     -41.392   5.172  -0.068  1.00 20.00     0.006 C 
HETATM    7  C7  UNL     1     -41.299   4.977  -1.596  1.00 20.00     0.097 C 
ENDROOT
BRANCH   7   8
HETATM    8  N8  UNL     1     -42.223   4.008  -2.167  1.00 20.00    -0.131 NA
HETATM    9 CL9  UNL     1     -43.417   4.769  -3.222  1.00 20.00    -0.005 Cl
HETATM   10 CL10 UNL     1     -41.384   2.721  -3.036  1.00 20.00    -0.005 Cl
ENDBRANCH   7   8
TORSDOF 1
ENDMDL
MODEL 6
REMARK VINA RESULT:      -4.0     11.250     12.239
REMARK  1 active torsions:
REMARK  status: ('A' for Active; 'I' for Inactive)
REMARK    1  A    between atoms: C7_7  and  N8_8 
ROOT
HETATM    1  C1  UNL     1     -36.483  14.389  -4.083  1.00 20.00     0.005 C 
HETATM    2  C2  UNL     1     -36.038  15.714  -4.719  1.00 20.00     0.007 C 
HETATM    3  C3  UNL     1     -34.857  13.941  -5.764  1.00 20.00     0.011 C 
HETATM    4  C4  UNL     1     -34.111  13.850  -3.496  1.00 20.00     0.027 C 
HETATM    5  C5  UNL     1     -35.304  13.450  -4.386  1.00 20.00    -0.013 C 
HETATM    6  C6  UNL     1     -34.641  15.379  -5.281  1.00 20.00     0.006 C 
HETATM    7  C7  UNL     1     -33.619  15.153  -4.148  1.00 20.00     0.097 C 
ENDROOT
BRANCH   7   8
HETATM    8  N8  UNL     1     -33.468  16.251  -3.206  1.00 20.00    -0.131 NA
HETATM    9 CL9  UNL     1     -33.753  17.821  -3.962  1.00 20.00    -0.005 Cl
HETATM   10 CL10 UNL     1     -34.510  16.064  -1.793  1.00 20.00    -0.005 Cl
ENDBRANCH   7   8
TORSDOF 1
ENDMDL
MODEL 7
REMARK VINA RESULT:      -4.0     11.557     12.515
REMARK  1 active torsions:
REMARK  status: ('A' for Active; 'I' for Inactive)
REMARK    1  A    between atoms: C7_7  and  N8_8 
ROOT
HETATM    1  C1  UNL     1     -35.612  13.723  -4.085  1.00 20.00     0.005 C 
HETATM    2  C2  UNL     1     -36.274  15.040  -4.514  1.00 20.00     0.007 C 
HETATM    3  C3  UNL     1     -34.370  14.673  -5.882  1.00 20.00     0.011 C 
HETATM    4  C4  UNL     1     -33.447  14.914  -3.692  1.00 20.00     0.027 C 
HETATM    5  C5  UNL     1     -34.168  13.886  -4.585  1.00 20.00    -0.013 C 
HETATM    6  C6  UNL     1     -35.116  15.812  -5.180  1.00 20.00     0.006 C 
HETATM    7  C7  UNL     1     -34.063  16.250  -4.142  1.00 20.00     0.097 C 
ENDROOT
BRANCH   7   8
HETATM    8  N8  UNL     1     -34.560  17.059  -3.040  1.00 20.00    -0.131 NA
HETATM    9 CL9  UNL     1     -34.564  16.173  -1.512  1.00 20.00    -0.005 Cl
HETATM   10 CL10 UNL     1     -33.659  18.566  -2.860  1.00 20.00    -0.005 Cl
ENDBRANCH   7   8
TORSDOF 1
ENDMDL
MODEL 8
REMARK VINA RESULT:      -3.9     11.695     12.756
REMARK  1 active torsions:
REMARK  status: ('A' for Active; 'I' for Inactive)
REMARK    1  A    between atoms: C7_7  and  N8_8 
ROOT
HETATM    1  C1  UNL     1     -34.475  18.007  -3.070  1.00 20.00     0.005 C 
HETATM    2  C2  UNL     1     -35.816  17.279  -3.249  1.00 20.00     0.007 C 
HETATM    3  C3  UNL     1     -34.718  16.379  -1.349  1.00 20.00     0.011 C 
HETATM    4  C4  UNL     1     -33.255  15.823  -3.154  1.00 20.00     0.027 C 
HETATM    5  C5  UNL     1     -33.650  17.005  -2.247  1.00 20.00    -0.013 C 
HETATM    6  C6  UNL     1     -35.581  15.934  -2.533  1.00 20.00     0.006 C 
HETATM    7  C7  UNL     1     -34.578  15.053  -3.307  1.00 20.00     0.097 C 
ENDROOT
BRANCH   7   8
HETATM    8  N8  UNL     1     -34.925  14.766  -4.690  1.00 20.00    -0.131 NA
HETATM    9 CL9  UNL     1     -33.951  15.701  -5.828  1.00 20.00    -0.005 Cl
HETATM   10 CL10 UNL     1     -34.803  13.045  -5.064  1.00 20.00    -0.005 Cl
ENDBRANCH   7   8
TORSDOF 1
ENDMDL
MODEL 9
REMARK VINA RESULT:      -3.9     12.695     13.724
REMARK  1 active torsions:
REMARK  status: ('A' for Active; 'I' for Inactive)
REMARK    1  A    between atoms: C7_7  and  N8_8 
ROOT
HETATM    1  C1  UNL     1     -33.608  17.677  -0.762  1.00 20.00     0.005 C 
HETATM    2  C2  UNL     1     -33.496  18.544  -2.024  1.00 20.00     0.007 C 
HETATM    3  C3  UNL     1     -35.767  17.920  -1.738  1.00 20.00     0.011 C 
HETATM    4  C4  UNL     1     -34.655  15.835  -2.094  1.00 20.00     0.027 C 
HETATM    5  C5  UNL     1     -34.907  16.892  -1.000  1.00 20.00    -0.013 C 
HETATM    6  C6  UNL     1     -34.731  18.123  -2.847  1.00 20.00     0.006 C 
HETATM    7  C7  UNL     1     -34.588  16.681  -3.377  1.00 20.00     0.097 C 
ENDROOT
BRANCH   7   8
HETATM    8  N8  UNL     1     -33.405  16.419  -4.182  1.00 20.00    -0.131 NA
HETATM    9 CL9  UNL     1     -32.540  14.976  -3.645  1.00 20.00    -0.005 Cl
HETATM   10 CL10 UNL     1     -33.786  16.288  -5.901  1.00 20.00    -0.005 Cl
ENDBRANCH   7   8
TORSDOF 1
ENDMDL
