MODEL 1
REMARK VINA RESULT:      -4.8      0.000      0.000
REMARK  1 active torsions:
REMARK  status: ('A' for Active; 'I' for Inactive)
REMARK    1  A    between atoms: C5_5  and  C7_7 
ROOT
HETATM    1  C1  UNL     1     -35.336   5.035   4.718  1.00 20.00     0.003 C 
HETATM    2  C2  UNL     1     -34.426   5.529   5.840  1.00 20.00     0.003 C 
HETATM    3  C3  UNL     1     -34.408   4.964   3.503  1.00 20.00     0.041 C 
HETATM    4  C4  UNL     1     -33.547   6.580   5.156  1.00 20.00     0.041 C 
HETATM    5  C5  UNL     1     -32.738   6.813   2.631  1.00 20.00     0.167 A 
HETATM    6  C6  UNL     1     -33.422   6.066   3.754  1.00 20.00     0.088 A 
HETATM    7  O8  UNL     1     -32.078   5.762   3.342  1.00 20.00    -0.368 OA
ENDROOT
BRANCH   5   8
HETATM    8  C7  UNL     1     -32.139   8.161   2.820  1.00 20.00     0.120 C 
HETATM    9 BR9  UNL     1     -32.126   9.148   1.135  1.00 20.00    -0.094 Br
ENDBRANCH   5   8
TORSDOF 1
ENDMDL
MODEL 2
REMARK VINA RESULT:      -3.9     11.084     12.007
REMARK  1 active torsions:
REMARK  status: ('A' for Active; 'I' for Inactive)
REMARK    1  A    between atoms: C5_5  and  C7_7 
ROOT
HETATM    1  C1  UNL     1     -34.932  14.413  -6.159  1.00 20.00     0.003 C 
HETATM    2  C2  UNL     1     -34.795  13.247  -5.184  1.00 20.00     0.003 C 
HETATM    3  C3  UNL     1     -34.058  15.507  -5.541  1.00 20.00     0.041 C 
HETATM    4  C4  UNL     1     -34.812  13.920  -3.809  1.00 20.00     0.041 C 
HETATM    5  C5  UNL     1     -34.049  16.351  -3.040  1.00 20.00     0.167 A 
HETATM    6  C6  UNL     1     -34.168  15.249  -4.068  1.00 20.00     0.088 A 
HETATM    7  O8  UNL     1     -32.953  15.480  -3.335  1.00 20.00    -0.368 OA
ENDROOT
BRANCH   5   8
HETATM    8  C7  UNL     1     -34.592  16.218  -1.662  1.00 20.00     0.120 C 
HETATM    9 BR9  UNL     1     -33.981  17.693  -0.538  1.00 20.00    -0.094 Br
ENDBRANCH   5   8
TORSDOF 1
ENDMDL
MODEL 3
REMARK VINA RESULT:      -3.9     11.759     13.522
REMARK  1 active torsions:
REMARK  status: ('A' for Active; 'I' for Inactive)
REMARK    1  A    between atoms: C5_5  and  C7_7 
ROOT
HETATM    1  C1  UNL     1     -35.238  16.269  -7.509  1.00 20.00     0.003 C 
HETATM    2  C2  UNL     1     -34.629  14.877  -7.359  1.00 20.00     0.003 C 
HETATM    3  C3  UNL     1     -34.416  17.131  -6.548  1.00 20.00     0.041 C 
HETATM    4  C4  UNL     1     -34.352  14.764  -5.857  1.00 20.00     0.041 C 
HETATM    5  C5  UNL     1     -33.811  16.622  -4.030  1.00 20.00     0.167 A 
HETATM    6  C6  UNL     1     -34.042  16.174  -5.456  1.00 20.00     0.088 A 
HETATM    7  O8  UNL     1     -32.722  16.372  -4.923  1.00 20.00    -0.368 OA
ENDROOT
BRANCH   5   8
HETATM    8  C7  UNL     1     -33.896  15.687  -2.878  1.00 20.00     0.120 C 
HETATM    9 BR9  UNL     1     -34.614  16.597  -1.306  1.00 20.00    -0.094 Br
ENDBRANCH   5   8
TORSDOF 1
ENDMDL
MODEL 4
REMARK VINA RESULT:      -3.9     10.063     10.890
REMARK  1 active torsions:
REMARK  status: ('A' for Active; 'I' for Inactive)
REMARK    1  A    between atoms: C5_5  and  C7_7 
ROOT
HETATM    1  C1  UNL     1     -41.209   7.051  -1.170  1.00 20.00     0.003 C 
HETATM    2  C2  UNL     1     -40.676   6.037  -0.161  1.00 20.00     0.003 C 
HETATM    3  C3  UNL     1     -42.360   6.309  -1.855  1.00 20.00     0.041 C 
HETATM    4  C4  UNL     1     -40.736   4.708  -0.917  1.00 20.00     0.041 C 
HETATM    5  C5  UNL     1     -42.340   3.873  -2.870  1.00 20.00     0.167 A 
HETATM    6  C6  UNL     1     -41.921   4.876  -1.819  1.00 20.00     0.088 A 
HETATM    7  O8  UNL     1     -42.985   3.936  -1.595  1.00 20.00    -0.368 OA
ENDROOT
BRANCH   5   8
HETATM    8  C7  UNL     1     -41.583   2.617  -3.119  1.00 20.00     0.120 C 
HETATM    9 BR9  UNL     1     -42.408   1.595  -4.565  1.00 20.00    -0.094 Br
ENDBRANCH   5   8
TORSDOF 1
ENDMDL
MODEL 5
REMARK VINA RESULT:      -3.8     11.839     12.694
REMARK  1 active torsions:
REMARK  status: ('A' for Active; 'I' for Inactive)
REMARK    1  A    between atoms: C5_5  and  C7_7 
ROOT
HETATM    1  C1  UNL     1     -33.517  17.801  -0.769  1.00 20.00     0.003 C 
HETATM    2  C2  UNL     1     -34.647  16.786  -0.622  1.00 20.00     0.003 C 
HETATM    3  C3  UNL     1     -33.622  18.252  -2.228  1.00 20.00     0.041 C 
HETATM    4  C4  UNL     1     -34.612  16.011  -1.942  1.00 20.00     0.041 C 
HETATM    5  C5  UNL     1     -33.829  16.737  -4.380  1.00 20.00     0.167 A 
HETATM    6  C6  UNL     1     -34.145  17.035  -2.931  1.00 20.00     0.088 A 
HETATM    7  O8  UNL     1     -35.077  17.318  -3.989  1.00 20.00    -0.368 OA
ENDROOT
BRANCH   5   8
HETATM    8  C7  UNL     1     -33.935  15.369  -4.953  1.00 20.00     0.120 C 
HETATM    9 BR9  UNL     1     -34.404  15.453  -6.847  1.00 20.00    -0.094 Br
ENDBRANCH   5   8
TORSDOF 1
ENDMDL
MODEL 6
REMARK VINA RESULT:      -3.7     11.290     12.595
REMARK  1 active torsions:
REMARK  status: ('A' for Active; 'I' for Inactive)
REMARK    1  A    between atoms: C5_5  and  C7_7 
ROOT
HETATM    1  C1  UNL     1     -34.632  13.493  -4.850  1.00 20.00     0.003 C 
HETATM    2  C2  UNL     1     -33.502  13.543  -3.825  1.00 20.00     0.003 C 
HETATM    3  C3  UNL     1     -34.436  14.772  -5.669  1.00 20.00     0.041 C 
HETATM    4  C4  UNL     1     -33.441  15.020  -3.426  1.00 20.00     0.041 C 
HETATM    5  C5  UNL     1     -34.069  17.227  -4.773  1.00 20.00     0.167 A 
HETATM    6  C6  UNL     1     -33.853  15.734  -4.677  1.00 20.00     0.088 A 
HETATM    7  O8  UNL     1     -32.857  16.614  -5.223  1.00 20.00    -0.368 OA
ENDROOT
BRANCH   5   8
HETATM    8  C7  UNL     1     -33.909  18.132  -3.605  1.00 20.00     0.120 C 
HETATM    9 BR9  UNL     1     -35.641  18.502  -2.781  1.00 20.00    -0.094 Br
ENDBRANCH   5   8
TORSDOF 1
ENDMDL
MODEL 7
REMARK VINA RESULT:      -3.7     11.931     13.039
REMARK  1 active torsions:
REMARK  status: ('A' for Active; 'I' for Inactive)
REMARK    1  A    between atoms: C5_5  and  C7_7 
ROOT
HETATM    1  C1  UNL     1     -34.718  16.229  -1.523  1.00 20.00     0.003 C 
HETATM    2  C2  UNL     1     -33.768  17.423  -1.487  1.00 20.00     0.003 C 
HETATM    3  C3  UNL     1     -34.331  15.496  -2.810  1.00 20.00     0.041 C 
HETATM    4  C4  UNL     1     -33.703  17.877  -2.947  1.00 20.00     0.041 C 
HETATM    5  C5  UNL     1     -33.997  16.522  -5.219  1.00 20.00     0.167 A 
HETATM    6  C6  UNL     1     -33.871  16.601  -3.714  1.00 20.00     0.088 A 
HETATM    7  O8  UNL     1     -32.759  16.252  -4.555  1.00 20.00    -0.368 OA
ENDROOT
BRANCH   5   8
HETATM    8  C7  UNL     1     -33.986  17.731  -6.083  1.00 20.00     0.120 C 
HETATM    9 BR9  UNL     1     -34.770  17.334  -7.828  1.00 20.00    -0.094 Br
ENDBRANCH   5   8
TORSDOF 1
ENDMDL
MODEL 8
REMARK VINA RESULT:      -3.7     11.703     13.050
REMARK  1 active torsions:
REMARK  status: ('A' for Active; 'I' for Inactive)
REMARK    1  A    between atoms: C5_5  and  C7_7 
ROOT
HETATM    1  C1  UNL     1     -34.541  14.803  -7.323  1.00 20.00     0.003 C 
HETATM    2  C2  UNL     1     -34.572  16.326  -7.219  1.00 20.00     0.003 C 
HETATM    3  C3  UNL     1     -35.128  14.336  -5.989  1.00 20.00     0.041 C 
HETATM    4  C4  UNL     1     -34.167  16.598  -5.768  1.00 20.00     0.041 C 
HETATM    5  C5  UNL     1     -34.471  15.140  -3.562  1.00 20.00     0.167 A 
HETATM    6  C6  UNL     1     -34.710  15.411  -5.030  1.00 20.00     0.088 A 
HETATM    7  O8  UNL     1     -35.691  15.724  -4.027  1.00 20.00    -0.368 OA
ENDROOT
BRANCH   5   8
HETATM    8  C7  UNL     1     -33.641  16.034  -2.712  1.00 20.00     0.120 C 
HETATM    9 BR9  UNL     1     -34.656  16.635  -1.155  1.00 20.00    -0.094 Br
ENDBRANCH   5   8
TORSDOF 1
ENDMDL
MODEL 9
REMARK VINA RESULT:      -3.6     11.786     12.469
REMARK  1 active torsions:
REMARK  status: ('A' for Active; 'I' for Inactive)
REMARK    1  A    between atoms: C5_5  and  C7_7 
ROOT
HETATM    1  C1  UNL     1     -35.135  15.944  -2.453  1.00 20.00     0.003 C 
HETATM    2  C2  UNL     1     -33.629  16.002  -2.694  1.00 20.00     0.003 C 
HETATM    3  C3  UNL     1     -35.613  14.843  -3.403  1.00 20.00     0.041 C 
HETATM    4  C4  UNL     1     -33.498  15.824  -4.209  1.00 20.00     0.041 C 
HETATM    5  C5  UNL     1     -35.045  14.557  -5.965  1.00 20.00     0.167 A 
HETATM    6  C6  UNL     1     -34.656  14.939  -4.554  1.00 20.00     0.088 A 
HETATM    7  O8  UNL     1     -34.294  13.672  -5.129  1.00 20.00    -0.368 OA
ENDROOT
BRANCH   5   8
HETATM    8  C7  UNL     1     -34.309  15.057  -7.156  1.00 20.00     0.120 C 
HETATM    9 BR9  UNL     1     -35.113  16.710  -7.815  1.00 20.00    -0.094 Br
ENDBRANCH   5   8
TORSDOF 1
ENDMDL
