MODEL 1
REMARK VINA RESULT:      -5.7      0.000      0.000
REMARK  1 active torsions:
REMARK  status: ('A' for Active; 'I' for Inactive)
REMARK    1  A    between atoms: C6_6  and  C11_11 
ROOT
HETATM    1  C1  UNL     1     -34.364  13.487  -4.531  1.00 20.00     0.136 C 
HETATM    2  C2  UNL     1     -33.234  13.882  -3.566  1.00 20.00     0.085 C 
HETATM    3  C3  UNL     1     -35.925  16.309  -3.054  1.00 20.00     0.006 C 
HETATM    4  C4  UNL     1     -36.210  15.287  -4.149  1.00 20.00     0.018 C 
HETATM    5  C5  UNL     1     -33.801  15.327  -3.583  1.00 20.00     0.012 C 
HETATM    6  C6  UNL     1     -34.661  15.766  -2.392  1.00 20.00    -0.006 C 
HETATM    7  C7  UNL     1     -34.822  14.956  -4.710  1.00 20.00     0.021 C 
HETATM    8  C8  UNL     1     -34.552  15.546  -6.083  1.00 20.00     0.024 C 
HETATM    9  O12 UNL     1     -34.746  12.426  -4.978  1.00 20.00    -0.297 OA
ENDROOT
BRANCH   6  10
HETATM   10  C11 UNL     1     -33.950  16.798  -1.535  1.00 20.00    -0.018 C 
HETATM   11  C9  UNL     1     -33.766  18.101  -2.309  1.00 20.00     0.010 C 
HETATM   12  C10 UNL     1     -34.721  17.045  -0.241  1.00 20.00     0.010 C 
ENDBRANCH   6  10
TORSDOF 1
ENDMDL
MODEL 2
REMARK VINA RESULT:      -5.0      1.583      4.001
REMARK  1 active torsions:
REMARK  status: ('A' for Active; 'I' for Inactive)
REMARK    1  A    between atoms: C6_6  and  C11_11 
ROOT
HETATM    1  C1  UNL     1     -33.663  13.617  -3.928  1.00 20.00     0.136 C 
HETATM    2  C2  UNL     1     -34.822  13.269  -4.876  1.00 20.00     0.085 C 
HETATM    3  C3  UNL     1     -33.870  16.720  -5.633  1.00 20.00     0.006 C 
HETATM    4  C4  UNL     1     -33.083  16.096  -4.486  1.00 20.00     0.018 C 
HETATM    5  C5  UNL     1     -35.127  14.788  -4.969  1.00 20.00     0.012 C 
HETATM    6  C6  UNL     1     -34.635  15.535  -6.215  1.00 20.00    -0.006 C 
HETATM    7  C7  UNL     1     -34.074  15.109  -3.857  1.00 20.00     0.021 C 
HETATM    8  C8  UNL     1     -34.626  15.557  -2.516  1.00 20.00     0.024 C 
HETATM    9  O12 UNL     1     -32.769  12.965  -3.429  1.00 20.00    -0.297 OA
ENDROOT
BRANCH   6  10
HETATM   10  C11 UNL     1     -35.788  15.955  -7.110  1.00 20.00    -0.018 C 
HETATM   11  C9  UNL     1     -36.299  14.764  -7.918  1.00 20.00     0.010 C 
HETATM   12  C10 UNL     1     -36.915  16.567  -6.282  1.00 20.00     0.010 C 
ENDBRANCH   6  10
TORSDOF 1
ENDMDL
MODEL 3
REMARK VINA RESULT:      -4.9      1.528      2.908
REMARK  1 active torsions:
REMARK  status: ('A' for Active; 'I' for Inactive)
REMARK    1  A    between atoms: C6_6  and  C11_11 
ROOT
HETATM    1  C1  UNL     1     -34.975  13.675  -4.860  1.00 20.00     0.136 C 
HETATM    2  C2  UNL     1     -34.720  14.517  -6.121  1.00 20.00     0.085 C 
HETATM    3  C3  UNL     1     -33.820  16.629  -3.272  1.00 20.00     0.006 C 
HETATM    4  C4  UNL     1     -34.368  15.261  -2.882  1.00 20.00     0.018 C 
HETATM    5  C5  UNL     1     -34.895  15.784  -5.242  1.00 20.00     0.012 C 
HETATM    6  C6  UNL     1     -33.625  16.509  -4.781  1.00 20.00    -0.006 C 
HETATM    7  C7  UNL     1     -35.343  14.921  -4.016  1.00 20.00     0.021 C 
HETATM    8  C8  UNL     1     -36.806  15.017  -3.624  1.00 20.00     0.024 C 
HETATM    9  O12 UNL     1     -34.909  12.487  -4.623  1.00 20.00    -0.297 OA
ENDROOT
BRANCH   6  10
HETATM   10  C11 UNL     1     -33.465  17.854  -5.468  1.00 20.00    -0.018 C 
HETATM   11  C9  UNL     1     -34.503  18.017  -6.575  1.00 20.00     0.010 C 
HETATM   12  C10 UNL     1     -33.576  18.990  -4.454  1.00 20.00     0.010 C 
ENDBRANCH   6  10
TORSDOF 1
ENDMDL
MODEL 4
REMARK VINA RESULT:      -4.7      1.477      2.186
REMARK  1 active torsions:
REMARK  status: ('A' for Active; 'I' for Inactive)
REMARK    1  A    between atoms: C6_6  and  C11_11 
ROOT
HETATM    1  C1  UNL     1     -34.512  15.357  -6.530  1.00 20.00     0.136 C 
HETATM    2  C2  UNL     1     -34.006  16.686  -5.944  1.00 20.00     0.085 C 
HETATM    3  C3  UNL     1     -34.499  14.429  -3.107  1.00 20.00     0.006 C 
HETATM    4  C4  UNL     1     -34.892  13.830  -4.453  1.00 20.00     0.018 C 
HETATM    5  C5  UNL     1     -34.687  16.291  -4.607  1.00 20.00     0.012 C 
HETATM    6  C6  UNL     1     -33.795  15.726  -3.495  1.00 20.00    -0.006 C 
HETATM    7  C7  UNL     1     -35.356  15.041  -5.271  1.00 20.00     0.021 C 
HETATM    8  C8  UNL     1     -36.859  15.111  -5.475  1.00 20.00     0.024 C 
HETATM    9  O12 UNL     1     -34.318  14.781  -7.580  1.00 20.00    -0.297 OA
ENDROOT
BRANCH   6  10
HETATM   10  C11 UNL     1     -33.657  16.698  -2.336  1.00 20.00    -0.018 C 
HETATM   11  C9  UNL     1     -33.808  18.137  -2.824  1.00 20.00     0.010 C 
HETATM   12  C10 UNL     1     -34.684  16.386  -1.251  1.00 20.00     0.010 C 
ENDBRANCH   6  10
TORSDOF 1
ENDMDL
MODEL 5
REMARK VINA RESULT:      -4.7      1.294      2.257
REMARK  1 active torsions:
REMARK  status: ('A' for Active; 'I' for Inactive)
REMARK    1  A    between atoms: C6_6  and  C11_11 
ROOT
HETATM    1  C1  UNL     1     -35.252  14.358  -5.133  1.00 20.00     0.136 C 
HETATM    2  C2  UNL     1     -36.340  14.597  -4.072  1.00 20.00     0.085 C 
HETATM    3  C3  UNL     1     -33.664  16.991  -3.366  1.00 20.00     0.006 C 
HETATM    4  C4  UNL     1     -33.367  16.053  -4.531  1.00 20.00     0.018 C 
HETATM    5  C5  UNL     1     -35.236  15.192  -3.157  1.00 20.00     0.012 C 
HETATM    6  C6  UNL     1     -35.135  16.719  -3.067  1.00 20.00    -0.006 C 
HETATM    7  C7  UNL     1     -34.116  14.766  -4.163  1.00 20.00     0.021 C 
HETATM    8  C8  UNL     1     -33.212  13.628  -3.723  1.00 20.00     0.024 C 
HETATM    9  O12 UNL     1     -35.282  13.989  -6.289  1.00 20.00    -0.297 OA
ENDROOT
BRANCH   6  10
HETATM   10  C11 UNL     1     -35.569  17.232  -1.705  1.00 20.00    -0.018 C 
HETATM   11  C9  UNL     1     -34.578  16.795  -0.629  1.00 20.00     0.010 C 
HETATM   12  C10 UNL     1     -35.708  18.752  -1.723  1.00 20.00     0.010 C 
ENDBRANCH   6  10
TORSDOF 1
ENDMDL
MODEL 6
REMARK VINA RESULT:      -4.6      1.438      2.318
REMARK  1 active torsions:
REMARK  status: ('A' for Active; 'I' for Inactive)
REMARK    1  A    between atoms: C6_6  and  C11_11 
ROOT
HETATM    1  C1  UNL     1     -36.462  15.127  -4.950  1.00 20.00     0.136 C 
HETATM    2  C2  UNL     1     -36.691  15.626  -3.514  1.00 20.00     0.085 C 
HETATM    3  C3  UNL     1     -33.178  16.294  -4.291  1.00 20.00     0.006 C 
HETATM    4  C4  UNL     1     -33.937  15.584  -5.406  1.00 20.00     0.018 C 
HETATM    5  C5  UNL     1     -35.170  15.437  -3.266  1.00 20.00     0.012 C 
HETATM    6  C6  UNL     1     -34.282  16.687  -3.314  1.00 20.00    -0.006 C 
HETATM    7  C7  UNL     1     -34.987  14.752  -4.661  1.00 20.00     0.021 C 
HETATM    8  C8  UNL     1     -34.699  13.261  -4.645  1.00 20.00     0.024 C 
HETATM    9  O12 UNL     1     -37.171  15.058  -5.932  1.00 20.00    -0.297 OA
ENDROOT
BRANCH   6  10
HETATM   10  C11 UNL     1     -33.755  17.055  -1.939  1.00 20.00    -0.018 C 
HETATM   11  C9  UNL     1     -33.562  18.566  -1.826  1.00 20.00     0.010 C 
HETATM   12  C10 UNL     1     -34.699  16.551  -0.850  1.00 20.00     0.010 C 
ENDBRANCH   6  10
TORSDOF 1
ENDMDL
MODEL 7
REMARK VINA RESULT:      -4.6      2.000      4.274
REMARK  1 active torsions:
REMARK  status: ('A' for Active; 'I' for Inactive)
REMARK    1  A    between atoms: C6_6  and  C11_11 
ROOT
HETATM    1  C1  UNL     1     -34.545  16.012  -2.634  1.00 20.00     0.136 C 
HETATM    2  C2  UNL     1     -34.880  17.051  -3.718  1.00 20.00     0.085 C 
HETATM    3  C3  UNL     1     -35.117  13.771  -5.323  1.00 20.00     0.006 C 
HETATM    4  C4  UNL     1     -34.679  13.718  -3.864  1.00 20.00     0.018 C 
HETATM    5  C5  UNL     1     -34.437  16.005  -4.776  1.00 20.00     0.012 C 
HETATM    6  C6  UNL     1     -35.538  15.226  -5.508  1.00 20.00    -0.006 C 
HETATM    7  C7  UNL     1     -33.921  15.036  -3.662  1.00 20.00     0.021 C 
HETATM    8  C8  UNL     1     -32.415  14.873  -3.556  1.00 20.00     0.024 C 
HETATM    9  O12 UNL     1     -34.710  15.977  -1.433  1.00 20.00    -0.297 OA
ENDROOT
BRANCH   6  10
HETATM   10  C11 UNL     1     -35.641  15.635  -6.967  1.00 20.00    -0.018 C 
HETATM   11  C9  UNL     1     -34.519  16.604  -7.331  1.00 20.00     0.010 C 
HETATM   12  C10 UNL     1     -35.606  14.406  -7.871  1.00 20.00     0.010 C 
ENDBRANCH   6  10
TORSDOF 1
ENDMDL
MODEL 8
REMARK VINA RESULT:      -4.5      2.499      4.376
REMARK  1 active torsions:
REMARK  status: ('A' for Active; 'I' for Inactive)
REMARK    1  A    between atoms: C6_6  and  C11_11 
ROOT
HETATM    1  C1  UNL     1     -33.872  17.964  -1.489  1.00 20.00     0.136 C 
HETATM    2  C2  UNL     1     -34.452  16.628  -0.997  1.00 20.00     0.085 C 
HETATM    3  C3  UNL     1     -34.049  16.307  -4.620  1.00 20.00     0.006 C 
HETATM    4  C4  UNL     1     -33.669  17.678  -4.071  1.00 20.00     0.018 C 
HETATM    5  C5  UNL     1     -35.016  16.411  -2.427  1.00 20.00     0.012 C 
HETATM    6  C6  UNL     1     -34.243  15.469  -3.359  1.00 20.00    -0.006 C 
HETATM    7  C7  UNL     1     -34.589  17.854  -2.857  1.00 20.00     0.021 C 
HETATM    8  C8  UNL     1     -35.713  18.852  -3.072  1.00 20.00     0.024 C 
HETATM    9  O12 UNL     1     -33.133  18.787  -0.989  1.00 20.00    -0.297 OA
ENDROOT
BRANCH   6  10
HETATM   10  C11 UNL     1     -35.005  14.180  -3.613  1.00 20.00    -0.018 C 
HETATM   11  C9  UNL     1     -36.442  14.482  -4.033  1.00 20.00     0.010 C 
HETATM   12  C10 UNL     1     -34.299  13.341  -4.674  1.00 20.00     0.010 C 
ENDBRANCH   6  10
TORSDOF 1
ENDMDL
MODEL 9
REMARK VINA RESULT:      -4.5      2.207      3.638
REMARK  1 active torsions:
REMARK  status: ('A' for Active; 'I' for Inactive)
REMARK    1  A    between atoms: C6_6  and  C11_11 
ROOT
HETATM    1  C1  UNL     1     -36.592  14.822  -4.012  1.00 20.00     0.136 C 
HETATM    2  C2  UNL     1     -36.302  16.325  -3.861  1.00 20.00     0.085 C 
HETATM    3  C3  UNL     1     -34.346  15.179  -6.733  1.00 20.00     0.006 C 
HETATM    4  C4  UNL     1     -35.126  14.073  -6.032  1.00 20.00     0.018 C 
HETATM    5  C5  UNL     1     -34.957  16.082  -4.597  1.00 20.00     0.012 C 
HETATM    6  C6  UNL     1     -34.885  16.451  -6.084  1.00 20.00    -0.006 C 
HETATM    7  C7  UNL     1     -35.177  14.532  -4.570  1.00 20.00     0.021 C 
HETATM    8  C8  UNL     1     -34.273  13.741  -3.641  1.00 20.00     0.024 C 
HETATM    9  O12 UNL     1     -37.563  14.133  -3.780  1.00 20.00    -0.297 OA
ENDROOT
BRANCH   6  10
HETATM   10  C11 UNL     1     -33.998  17.660  -6.320  1.00 20.00    -0.018 C 
HETATM   11  C9  UNL     1     -34.731  18.706  -7.156  1.00 20.00     0.010 C 
HETATM   12  C10 UNL     1     -33.540  18.257  -4.992  1.00 20.00     0.010 C 
ENDBRANCH   6  10
TORSDOF 1
ENDMDL
