MODEL 1
REMARK VINA RESULT:      -4.1      0.000      0.000
REMARK  1 active torsions:
REMARK  status: ('A' for Active; 'I' for Inactive)
REMARK    1  A    between atoms: C9_9  and  N10_10 
ROOT
HETATM    1  C1  UNL     1     -33.402  13.841  -3.758  1.00 20.00     0.004 A 
HETATM    2  C2  UNL     1     -33.183  15.157  -3.829  1.00 20.00     0.042 A 
HETATM    3  C3  UNL     1     -34.337  13.201  -4.637  1.00 20.00     0.017 A 
HETATM    4  C4  UNL     1     -34.994  13.924  -5.549  1.00 20.00     0.093 A 
HETATM    5  C5  UNL     1     -33.917  15.999  -4.838  1.00 20.00     0.103 A 
HETATM    6  N10 UNL     1     -34.813  15.301  -5.695  1.00 20.00    -0.339 N 
HETATM    7  S11 UNL     1     -33.648  17.669  -4.892  1.00 20.00    -0.060 SA
ENDROOT
BRANCH   6   8
HETATM    8  C9  UNL     1     -35.592  15.969  -6.722  1.00 20.00     0.027 C 
HETATM    9  C6  UNL     1     -34.651  16.762  -7.636  1.00 20.00     0.038 C 
HETATM   10  C7  UNL     1     -36.345  14.916  -7.543  1.00 20.00     0.038 C 
HETATM   11  C8  UNL     1     -36.592  16.924  -6.061  1.00 20.00     0.038 C 
ENDBRANCH   6   8
TORSDOF 1
ENDMDL
MODEL 2
REMARK VINA RESULT:      -4.0      1.997      4.085
REMARK  1 active torsions:
REMARK  status: ('A' for Active; 'I' for Inactive)
REMARK    1  A    between atoms: C9_9  and  N10_10 
ROOT
HETATM    1  C1  UNL     1     -33.919  18.216  -6.549  1.00 20.00     0.004 A 
HETATM    2  C2  UNL     1     -34.382  17.044  -6.994  1.00 20.00     0.042 A 
HETATM    3  C3  UNL     1     -33.678  18.432  -5.152  1.00 20.00     0.017 A 
HETATM    4  C4  UNL     1     -33.907  17.446  -4.279  1.00 20.00     0.093 A 
HETATM    5  C5  UNL     1     -34.661  15.920  -6.032  1.00 20.00     0.103 A 
HETATM    6  N10 UNL     1     -34.380  16.190  -4.663  1.00 20.00    -0.339 N 
HETATM    7  S11 UNL     1     -35.275  14.453  -6.611  1.00 20.00    -0.060 SA
ENDROOT
BRANCH   6   8
HETATM    8  C9  UNL     1     -34.592  15.209  -3.614  1.00 20.00     0.027 C 
HETATM    9  C6  UNL     1     -33.640  14.026  -3.826  1.00 20.00     0.038 C 
HETATM   10  C7  UNL     1     -34.313  15.861  -2.255  1.00 20.00     0.038 C 
HETATM   11  C8  UNL     1     -36.043  14.716  -3.666  1.00 20.00     0.038 C 
ENDBRANCH   6   8
TORSDOF 1
ENDMDL
MODEL 3
REMARK VINA RESULT:      -4.0      2.002      3.556
REMARK  1 active torsions:
REMARK  status: ('A' for Active; 'I' for Inactive)
REMARK    1  A    between atoms: C9_9  and  N10_10 
ROOT
HETATM    1  C1  UNL     1     -33.560  18.695  -4.841  1.00 20.00     0.004 A 
HETATM    2  C2  UNL     1     -33.841  18.252  -3.612  1.00 20.00     0.042 A 
HETATM    3  C3  UNL     1     -33.698  17.840  -5.983  1.00 20.00     0.017 A 
HETATM    4  C4  UNL     1     -34.124  16.583  -5.824  1.00 20.00     0.093 A 
HETATM    5  C5  UNL     1     -34.310  16.837  -3.401  1.00 20.00     0.103 A 
HETATM    6  N10 UNL     1     -34.447  16.046  -4.576  1.00 20.00    -0.339 N 
HETATM    7  S11 UNL     1     -34.631  16.285  -1.834  1.00 20.00    -0.060 SA
ENDROOT
BRANCH   6   8
HETATM    8  C9  UNL     1     -34.893  14.665  -4.541  1.00 20.00     0.027 C 
HETATM    9  C6  UNL     1     -36.287  14.598  -3.906  1.00 20.00     0.038 C 
HETATM   10  C7  UNL     1     -34.950  14.121  -5.973  1.00 20.00     0.038 C 
HETATM   11  C8  UNL     1     -33.909  13.836  -3.709  1.00 20.00     0.038 C 
ENDBRANCH   6   8
TORSDOF 1
ENDMDL
MODEL 4
REMARK VINA RESULT:      -4.0      2.169      3.550
REMARK  1 active torsions:
REMARK  status: ('A' for Active; 'I' for Inactive)
REMARK    1  A    between atoms: C9_9  and  N10_10 
ROOT
HETATM    1  C1  UNL     1     -34.796  13.567  -5.320  1.00 20.00     0.004 A 
HETATM    2  C2  UNL     1     -35.307  14.687  -5.841  1.00 20.00     0.042 A 
HETATM    3  C3  UNL     1     -34.342  13.527  -3.960  1.00 20.00     0.017 A 
HETATM    4  C4  UNL     1     -34.439  14.619  -3.195  1.00 20.00     0.093 A 
HETATM    5  C5  UNL     1     -35.416  15.935  -5.007  1.00 20.00     0.103 A 
HETATM    6  N10 UNL     1     -34.970  15.824  -3.660  1.00 20.00    -0.339 N 
HETATM    7  S11 UNL     1     -36.038  17.351  -5.694  1.00 20.00    -0.060 SA
ENDROOT
BRANCH   6   8
HETATM    8  C9  UNL     1     -35.014  16.935  -2.728  1.00 20.00     0.027 C 
HETATM    9  C6  UNL     1     -36.440  17.494  -2.672  1.00 20.00     0.038 C 
HETATM   10  C7  UNL     1     -34.596  16.441  -1.339  1.00 20.00     0.038 C 
HETATM   11  C8  UNL     1     -34.052  18.031  -3.200  1.00 20.00     0.038 C 
ENDBRANCH   6   8
TORSDOF 1
ENDMDL
MODEL 5
REMARK VINA RESULT:      -4.0      2.350      3.124
REMARK  1 active torsions:
REMARK  status: ('A' for Active; 'I' for Inactive)
REMARK    1  A    between atoms: C9_9  and  N10_10 
ROOT
HETATM    1  C1  UNL     1     -33.842  17.715  -1.189  1.00 20.00     0.004 A 
HETATM    2  C2  UNL     1     -33.577  18.267  -2.377  1.00 20.00     0.042 A 
HETATM    3  C3  UNL     1     -34.587  16.494  -1.093  1.00 20.00     0.017 A 
HETATM    4  C4  UNL     1     -35.015  15.888  -2.204  1.00 20.00     0.093 A 
HETATM    5  C5  UNL     1     -34.057  17.613  -3.645  1.00 20.00     0.103 A 
HETATM    6  N10 UNL     1     -34.771  16.392  -3.483  1.00 20.00    -0.339 N 
HETATM    7  S11 UNL     1     -33.737  18.342  -5.138  1.00 20.00    -0.060 SA
ENDROOT
BRANCH   6   8
HETATM    8  C9  UNL     1     -35.295  15.639  -4.607  1.00 20.00     0.027 C 
HETATM    9  C6  UNL     1     -34.157  15.330  -5.586  1.00 20.00     0.038 C 
HETATM   10  C7  UNL     1     -35.905  14.330  -4.092  1.00 20.00     0.038 C 
HETATM   11  C8  UNL     1     -36.371  16.469  -5.317  1.00 20.00     0.038 C 
ENDBRANCH   6   8
TORSDOF 1
ENDMDL
MODEL 6
REMARK VINA RESULT:      -4.0      1.718      2.447
REMARK  1 active torsions:
REMARK  status: ('A' for Active; 'I' for Inactive)
REMARK    1  A    between atoms: C9_9  and  N10_10 
ROOT
HETATM    1  C1  UNL     1     -33.520  13.684  -3.921  1.00 20.00     0.004 A 
HETATM    2  C2  UNL     1     -34.429  13.603  -4.897  1.00 20.00     0.042 A 
HETATM    3  C3  UNL     1     -32.923  14.940  -3.571  1.00 20.00     0.017 A 
HETATM    4  C4  UNL     1     -33.286  16.051  -4.220  1.00 20.00     0.093 A 
HETATM    5  C5  UNL     1     -34.847  14.836  -5.653  1.00 20.00     0.103 A 
HETATM    6  N10 UNL     1     -34.236  16.053  -5.243  1.00 20.00    -0.339 N 
HETATM    7  S11 UNL     1     -35.978  14.708  -6.906  1.00 20.00    -0.060 SA
ENDROOT
BRANCH   6   8
HETATM    8  C9  UNL     1     -34.536  17.328  -5.869  1.00 20.00     0.027 C 
HETATM    9  C6  UNL     1     -33.561  18.391  -5.350  1.00 20.00     0.038 C 
HETATM   10  C7  UNL     1     -34.388  17.187  -7.389  1.00 20.00     0.038 C 
HETATM   11  C8  UNL     1     -35.972  17.737  -5.524  1.00 20.00     0.038 C 
ENDBRANCH   6   8
TORSDOF 1
ENDMDL
MODEL 7
REMARK VINA RESULT:      -4.0      1.882      3.950
REMARK  1 active torsions:
REMARK  status: ('A' for Active; 'I' for Inactive)
REMARK    1  A    between atoms: C9_9  and  N10_10 
ROOT
HETATM    1  C1  UNL     1     -35.155  15.564  -7.918  1.00 20.00     0.004 A 
HETATM    2  C2  UNL     1     -35.150  14.465  -7.157  1.00 20.00     0.042 A 
HETATM    3  C3  UNL     1     -34.791  16.839  -7.373  1.00 20.00     0.017 A 
HETATM    4  C4  UNL     1     -34.430  16.936  -6.090  1.00 20.00     0.093 A 
HETATM    5  C5  UNL     1     -34.760  14.545  -5.705  1.00 20.00     0.103 A 
HETATM    6  N10 UNL     1     -34.388  15.835  -5.232  1.00 20.00    -0.339 N 
HETATM    7  S11 UNL     1     -34.789  13.148  -4.751  1.00 20.00    -0.060 SA
ENDROOT
BRANCH   6   8
HETATM    8  C9  UNL     1     -33.983  16.076  -3.859  1.00 20.00     0.027 C 
HETATM    9  C6  UNL     1     -32.723  15.259  -3.551  1.00 20.00     0.038 C 
HETATM   10  C7  UNL     1     -33.689  17.570  -3.679  1.00 20.00     0.038 C 
HETATM   11  C8  UNL     1     -35.114  15.653  -2.915  1.00 20.00     0.038 C 
ENDBRANCH   6   8
TORSDOF 1
ENDMDL
MODEL 8
REMARK VINA RESULT:      -3.9      3.158      4.144
REMARK  1 active torsions:
REMARK  status: ('A' for Active; 'I' for Inactive)
REMARK    1  A    between atoms: C9_9  and  N10_10 
ROOT
HETATM    1  C1  UNL     1     -34.052  17.496  -0.362  1.00 20.00     0.004 A 
HETATM    2  C2  UNL     1     -34.632  16.490  -1.023  1.00 20.00     0.042 A 
HETATM    3  C3  UNL     1     -33.481  18.609  -1.064  1.00 20.00     0.017 A 
HETATM    4  C4  UNL     1     -33.538  18.651  -2.398  1.00 20.00     0.093 A 
HETATM    5  C5  UNL     1     -34.699  16.505  -2.527  1.00 20.00     0.103 A 
HETATM    6  N10 UNL     1     -34.136  17.646  -3.162  1.00 20.00    -0.339 N 
HETATM    7  S11 UNL     1     -35.411  15.208  -3.347  1.00 20.00    -0.060 SA
ENDROOT
BRANCH   6   8
HETATM    8  C9  UNL     1     -34.126  17.813  -4.605  1.00 20.00     0.027 C 
HETATM    9  C6  UNL     1     -33.477  19.156  -4.956  1.00 20.00     0.038 C 
HETATM   10  C7  UNL     1     -33.322  16.669  -5.235  1.00 20.00     0.038 C 
HETATM   11  C8  UNL     1     -35.566  17.785  -5.128  1.00 20.00     0.038 C 
ENDBRANCH   6   8
TORSDOF 1
ENDMDL
MODEL 9
REMARK VINA RESULT:      -3.9      2.648      3.884
REMARK  1 active torsions:
REMARK  status: ('A' for Active; 'I' for Inactive)
REMARK    1  A    between atoms: C9_9  and  N10_10 
ROOT
HETATM    1  C1  UNL     1     -35.655  17.636  -1.430  1.00 20.00     0.004 A 
HETATM    2  C2  UNL     1     -36.425  17.505  -2.514  1.00 20.00     0.042 A 
HETATM    3  C3  UNL     1     -34.505  16.801  -1.236  1.00 20.00     0.017 A 
HETATM    4  C4  UNL     1     -34.187  15.885  -2.155  1.00 20.00     0.093 A 
HETATM    5  C5  UNL     1     -36.098  16.473  -3.560  1.00 20.00     0.103 A 
HETATM    6  N10 UNL     1     -34.932  15.692  -3.320  1.00 20.00    -0.339 N 
HETATM    7  S11 UNL     1     -37.102  16.302  -4.912  1.00 20.00    -0.060 SA
ENDROOT
BRANCH   6   8
HETATM    8  C9  UNL     1     -34.481  14.660  -4.236  1.00 20.00     0.027 C 
HETATM    9  C6  UNL     1     -34.262  15.273  -5.624  1.00 20.00     0.038 C 
HETATM   10  C7  UNL     1     -33.165  14.070  -3.716  1.00 20.00     0.038 C 
HETATM   11  C8  UNL     1     -35.544  13.559  -4.322  1.00 20.00     0.038 C 
ENDBRANCH   6   8
TORSDOF 1
ENDMDL
