MODEL 1
REMARK VINA RESULT:      -3.6      0.000      0.000
REMARK  1 active torsions:
REMARK  status: ('A' for Active; 'I' for Inactive)
REMARK    1  A    between atoms: C3_3  and  C7_7 
ROOT
HETATM    1  C1  UNL     1     -36.111  16.870  -2.641  1.00 20.00     0.089 C 
HETATM    2  C2  UNL     1     -34.989  16.230  -1.837  1.00 20.00     0.053 C 
HETATM    3  C3  UNL     1     -34.393  15.701  -4.422  1.00 20.00     0.112 C 
HETATM    4  C4  UNL     1     -34.703  16.996  -0.553  1.00 20.00     0.022 C 
HETATM    5  S8  UNL     1     -36.168  16.090  -4.280  1.00 20.00    -0.152 SA
HETATM    6  S9  UNL     1     -33.525  16.234  -2.914  1.00 20.00    -0.148 SA
ENDROOT
BRANCH   3   7
HETATM    7  C7  UNL     1     -34.211  14.202  -4.625  1.00 20.00     0.001 C 
HETATM    8  C5  UNL     1     -33.111  13.661  -3.713  1.00 20.00     0.011 C 
HETATM    9  C6  UNL     1     -35.524  13.459  -4.377  1.00 20.00     0.011 C 
ENDBRANCH   3   7
TORSDOF 1
ENDMDL
MODEL 2
REMARK VINA RESULT:      -3.6      1.480      3.960
REMARK  1 active torsions:
REMARK  status: ('A' for Active; 'I' for Inactive)
REMARK    1  A    between atoms: C3_3  and  C7_7 
ROOT
HETATM    1  C1  UNL     1     -34.016  15.626  -5.497  1.00 20.00     0.089 C 
HETATM    2  C2  UNL     1     -34.229  14.609  -4.386  1.00 20.00     0.053 C 
HETATM    3  C3  UNL     1     -34.729  17.011  -3.247  1.00 20.00     0.112 C 
HETATM    4  C4  UNL     1     -34.738  13.279  -4.924  1.00 20.00     0.022 C 
HETATM    5  S8  UNL     1     -33.720  17.253  -4.746  1.00 20.00    -0.152 SA
HETATM    6  S9  UNL     1     -35.449  15.340  -3.254  1.00 20.00    -0.148 SA
ENDROOT
BRANCH   3   7
HETATM    7  C7  UNL     1     -33.860  17.199  -2.009  1.00 20.00     0.001 C 
HETATM    8  C5  UNL     1     -33.470  18.667  -1.840  1.00 20.00     0.011 C 
HETATM    9  C6  UNL     1     -34.580  16.691  -0.761  1.00 20.00     0.011 C 
ENDBRANCH   3   7
TORSDOF 1
ENDMDL
MODEL 3
REMARK VINA RESULT:      -3.6      1.731      2.020
REMARK  1 active torsions:
REMARK  status: ('A' for Active; 'I' for Inactive)
REMARK    1  A    between atoms: C3_3  and  C7_7 
ROOT
HETATM    1  C1  UNL     1     -34.060  17.882  -3.276  1.00 20.00     0.089 C 
HETATM    2  C2  UNL     1     -34.582  16.618  -2.612  1.00 20.00     0.053 C 
HETATM    3  C3  UNL     1     -33.621  15.808  -5.007  1.00 20.00     0.112 C 
HETATM    4  C4  UNL     1     -34.451  16.678  -1.096  1.00 20.00     0.022 C 
HETATM    5  S8  UNL     1     -33.961  17.599  -5.067  1.00 20.00    -0.152 SA
HETATM    6  S9  UNL     1     -33.591  15.247  -3.277  1.00 20.00    -0.148 SA
ENDROOT
BRANCH   3   7
HETATM    7  C7  UNL     1     -34.697  15.057  -5.781  1.00 20.00     0.001 C 
HETATM    8  C5  UNL     1     -34.387  15.057  -7.277  1.00 20.00     0.011 C 
HETATM    9  C6  UNL     1     -34.833  13.624  -5.264  1.00 20.00     0.011 C 
ENDBRANCH   3   7
TORSDOF 1
ENDMDL
MODEL 4
REMARK VINA RESULT:      -3.6      1.844      2.370
REMARK  1 active torsions:
REMARK  status: ('A' for Active; 'I' for Inactive)
REMARK    1  A    between atoms: C3_3  and  C7_7 
ROOT
HETATM    1  C1  UNL     1     -33.990  18.058  -3.167  1.00 20.00     0.089 C 
HETATM    2  C2  UNL     1     -34.524  16.670  -2.846  1.00 20.00     0.053 C 
HETATM    3  C3  UNL     1     -33.226  16.396  -5.203  1.00 20.00     0.112 C 
HETATM    4  C4  UNL     1     -34.590  16.421  -1.345  1.00 20.00     0.022 C 
HETATM    5  S8  UNL     1     -33.650  18.151  -4.949  1.00 20.00    -0.152 SA
HETATM    6  S9  UNL     1     -33.385  15.492  -3.632  1.00 20.00    -0.148 SA
ENDROOT
BRANCH   3   7
HETATM    7  C7  UNL     1     -34.153  15.791  -6.249  1.00 20.00     0.001 C 
HETATM    8  C5  UNL     1     -34.612  14.397  -5.825  1.00 20.00     0.011 C 
HETATM    9  C6  UNL     1     -35.359  16.698  -6.493  1.00 20.00     0.011 C 
ENDBRANCH   3   7
TORSDOF 1
ENDMDL
MODEL 5
REMARK VINA RESULT:      -3.6      1.995      4.064
REMARK  1 active torsions:
REMARK  status: ('A' for Active; 'I' for Inactive)
REMARK    1  A    between atoms: C3_3  and  C7_7 
ROOT
HETATM    1  C1  UNL     1     -34.225  16.302  -6.831  1.00 20.00     0.089 C 
HETATM    2  C2  UNL     1     -34.900  14.962  -6.581  1.00 20.00     0.053 C 
HETATM    3  C3  UNL     1     -35.039  16.271  -4.218  1.00 20.00     0.112 C 
HETATM    4  C4  UNL     1     -35.587  14.432  -7.832  1.00 20.00     0.022 C 
HETATM    5  S8  UNL     1     -33.713  17.000  -5.234  1.00 20.00    -0.152 SA
HETATM    6  S9  UNL     1     -36.118  15.244  -5.262  1.00 20.00    -0.148 SA
ENDROOT
BRANCH   3   7
HETATM    7  C7  UNL     1     -34.427  15.424  -3.109  1.00 20.00     0.001 C 
HETATM    8  C5  UNL     1     -32.989  15.039  -3.452  1.00 20.00     0.011 C 
HETATM    9  C6  UNL     1     -34.477  16.165  -1.773  1.00 20.00     0.011 C 
ENDBRANCH   3   7
TORSDOF 1
ENDMDL
MODEL 6
REMARK VINA RESULT:      -3.5      1.811      4.105
REMARK  1 active torsions:
REMARK  status: ('A' for Active; 'I' for Inactive)
REMARK    1  A    between atoms: C3_3  and  C7_7 
ROOT
HETATM    1  C1  UNL     1     -34.440  13.881  -5.222  1.00 20.00     0.089 C 
HETATM    2  C2  UNL     1     -34.639  15.248  -5.858  1.00 20.00     0.053 C 
HETATM    3  C3  UNL     1     -33.703  15.758  -3.372  1.00 20.00     0.112 C 
HETATM    4  C4  UNL     1     -34.416  15.212  -7.363  1.00 20.00     0.022 C 
HETATM    5  S8  UNL     1     -34.412  14.079  -3.417  1.00 20.00    -0.152 SA
HETATM    6  S9  UNL     1     -33.434  16.357  -5.068  1.00 20.00    -0.148 SA
ENDROOT
BRANCH   3   7
HETATM    7  C7  UNL     1     -34.651  16.694  -2.632  1.00 20.00     0.001 C 
HETATM    8  C5  UNL     1     -34.490  16.545  -1.120  1.00 20.00     0.011 C 
HETATM    9  C6  UNL     1     -34.416  18.145  -3.053  1.00 20.00     0.011 C 
ENDBRANCH   3   7
TORSDOF 1
ENDMDL
MODEL 7
REMARK VINA RESULT:      -3.5      1.778      3.807
REMARK  1 active torsions:
REMARK  status: ('A' for Active; 'I' for Inactive)
REMARK    1  A    between atoms: C3_3  and  C7_7 
ROOT
HETATM    1  C1  UNL     1     -36.269  16.192  -5.427  1.00 20.00     0.089 C 
HETATM    2  C2  UNL     1     -35.021  15.324  -5.438  1.00 20.00     0.053 C 
HETATM    3  C3  UNL     1     -35.543  15.770  -2.822  1.00 20.00     0.112 C 
HETATM    4  C4  UNL     1     -34.999  14.378  -6.631  1.00 20.00     0.022 C 
HETATM    5  S8  UNL     1     -36.366  17.049  -3.828  1.00 20.00    -0.152 SA
HETATM    6  S9  UNL     1     -35.043  14.381  -3.884  1.00 20.00    -0.148 SA
ENDROOT
BRANCH   3   7
HETATM    7  C7  UNL     1     -34.322  16.367  -2.134  1.00 20.00     0.001 C 
HETATM    8  C5  UNL     1     -33.846  17.621  -2.867  1.00 20.00     0.011 C 
HETATM    9  C6  UNL     1     -34.627  16.688  -0.671  1.00 20.00     0.011 C 
ENDBRANCH   3   7
TORSDOF 1
ENDMDL
MODEL 8
REMARK VINA RESULT:      -3.4      1.654      2.837
REMARK  1 active torsions:
REMARK  status: ('A' for Active; 'I' for Inactive)
REMARK    1  A    between atoms: C3_3  and  C7_7 
ROOT
HETATM    1  C1  UNL     1     -33.859  17.510  -3.089  1.00 20.00     0.089 C 
HETATM    2  C2  UNL     1     -33.764  17.306  -4.593  1.00 20.00     0.053 C 
HETATM    3  C3  UNL     1     -35.406  15.342  -3.720  1.00 20.00     0.112 C 
HETATM    4  C4  UNL     1     -33.567  18.623  -5.332  1.00 20.00     0.022 C 
HETATM    5  S8  UNL     1     -34.403  15.954  -2.326  1.00 20.00    -0.152 SA
HETATM    6  S9  UNL     1     -35.324  16.524  -5.100  1.00 20.00    -0.148 SA
ENDROOT
BRANCH   3   7
HETATM    7  C7  UNL     1     -34.886  13.982  -4.167  1.00 20.00     0.001 C 
HETATM    8  C5  UNL     1     -34.980  13.839  -5.686  1.00 20.00     0.011 C 
HETATM    9  C6  UNL     1     -33.445  13.773  -3.700  1.00 20.00     0.011 C 
ENDBRANCH   3   7
TORSDOF 1
ENDMDL
MODEL 9
REMARK VINA RESULT:      -3.4      2.229      2.963
REMARK  1 active torsions:
REMARK  status: ('A' for Active; 'I' for Inactive)
REMARK    1  A    between atoms: C3_3  and  C7_7 
ROOT
HETATM    1  C1  UNL     1     -34.242  14.110  -3.329  1.00 20.00     0.089 C 
HETATM    2  C2  UNL     1     -34.625  15.581  -3.279  1.00 20.00     0.053 C 
HETATM    3  C3  UNL     1     -36.091  14.541  -5.300  1.00 20.00     0.112 C 
HETATM    4  C4  UNL     1     -34.547  16.139  -1.864  1.00 20.00     0.022 C 
HETATM    5  S8  UNL     1     -34.663  13.456  -4.970  1.00 20.00    -0.152 SA
HETATM    6  S9  UNL     1     -36.328  15.684  -3.905  1.00 20.00    -0.148 SA
ENDROOT
BRANCH   3   7
HETATM    7  C7  UNL     1     -35.852  15.326  -6.584  1.00 20.00     0.001 C 
HETATM    8  C5  UNL     1     -34.491  14.979  -7.185  1.00 20.00     0.011 C 
HETATM    9  C6  UNL     1     -36.966  15.060  -7.596  1.00 20.00     0.011 C 
ENDBRANCH   3   7
TORSDOF 1
ENDMDL
