MODEL 1
REMARK VINA RESULT:      -5.2      0.000      0.000
REMARK  1 active torsions:
REMARK  status: ('A' for Active; 'I' for Inactive)
REMARK    1  A    between atoms: C6_6  and  C11_11 
ROOT
HETATM    1  C1  UNL     1     -34.755  14.885  -5.552  1.00 20.00    -0.014 C 
HETATM    2  C2  UNL     1     -34.479  16.206  -5.547  1.00 20.00    -0.074 C 
HETATM    3  C3  UNL     1     -34.862  14.159  -4.240  1.00 20.00     0.155 C 
HETATM    4  C4  UNL     1     -34.176  16.981  -4.284  1.00 20.00     0.039 C 
HETATM    5  C5  UNL     1     -34.727  14.944  -2.954  1.00 20.00     0.088 C 
HETATM    6  C6  UNL     1     -33.738  16.088  -3.122  1.00 20.00     0.000 C 
HETATM    7  C7  UNL     1     -34.987  14.035  -6.768  1.00 20.00     0.052 C 
HETATM    8  C8  UNL     1     -34.450  17.065  -6.786  1.00 20.00     0.044 C 
HETATM    9  O12 UNL     1     -35.119  12.955  -4.207  1.00 20.00    -0.293 OA
ENDROOT
BRANCH   6  10
HETATM   10  C11 UNL     1     -33.606  16.893  -1.832  1.00 20.00    -0.018 C 
HETATM   11  C9  UNL     1     -33.626  18.391  -2.131  1.00 20.00     0.010 C 
HETATM   12  C10 UNL     1     -34.718  16.527  -0.853  1.00 20.00     0.010 C 
ENDBRANCH   6  10
TORSDOF 1
ENDMDL
MODEL 2
REMARK VINA RESULT:      -5.2      3.495      6.480
REMARK  1 active torsions:
REMARK  status: ('A' for Active; 'I' for Inactive)
REMARK    1  A    between atoms: C6_6  and  C11_11 
ROOT
HETATM    1  C1  UNL     1     -33.208  18.648   1.412  1.00 20.00    -0.014 C 
HETATM    2  C2  UNL     1     -34.423  18.067   1.498  1.00 20.00    -0.074 C 
HETATM    3  C3  UNL     1     -32.529  18.721   0.072  1.00 20.00     0.155 C 
HETATM    4  C4  UNL     1     -35.102  17.396   0.325  1.00 20.00     0.039 C 
HETATM    5  C5  UNL     1     -33.258  18.205  -1.148  1.00 20.00     0.088 C 
HETATM    6  C6  UNL     1     -34.129  17.009  -0.790  1.00 20.00     0.000 C 
HETATM    7  C7  UNL     1     -32.439  19.263   2.547  1.00 20.00     0.052 C 
HETATM    8  C8  UNL     1     -35.249  18.025   2.758  1.00 20.00     0.044 C 
HETATM    9  O12 UNL     1     -31.423  19.250  -0.043  1.00 20.00    -0.293 OA
ENDROOT
BRANCH   6  10
HETATM   10  C11 UNL     1     -34.878  16.490  -2.015  1.00 20.00    -0.018 C 
HETATM   11  C9  UNL     1     -35.575  17.637  -2.743  1.00 20.00     0.010 C 
HETATM   12  C10 UNL     1     -33.926  15.756  -2.957  1.00 20.00     0.010 C 
ENDBRANCH   6  10
TORSDOF 1
ENDMDL
MODEL 3
REMARK VINA RESULT:      -5.1      2.060      2.637
REMARK  1 active torsions:
REMARK  status: ('A' for Active; 'I' for Inactive)
REMARK    1  A    between atoms: C6_6  and  C11_11 
ROOT
HETATM    1  C1  UNL     1     -34.920  14.583  -3.608  1.00 20.00    -0.014 C 
HETATM    2  C2  UNL     1     -33.733  15.111  -3.241  1.00 20.00    -0.074 C 
HETATM    3  C3  UNL     1     -36.186  15.238  -3.132  1.00 20.00     0.155 C 
HETATM    4  C4  UNL     1     -33.609  16.281  -2.289  1.00 20.00     0.039 C 
HETATM    5  C5  UNL     1     -36.093  16.507  -2.315  1.00 20.00     0.088 C 
HETATM    6  C6  UNL     1     -34.857  16.489  -1.429  1.00 20.00     0.000 C 
HETATM    7  C7  UNL     1     -35.118  13.378  -4.482  1.00 20.00     0.052 C 
HETATM    8  C8  UNL     1     -32.399  14.612  -3.735  1.00 20.00     0.044 C 
HETATM    9  O12 UNL     1     -37.286  14.787  -3.455  1.00 20.00    -0.293 OA
ENDROOT
BRANCH   6  10
HETATM   10  C11 UNL     1     -34.749  17.773  -0.610  1.00 20.00    -0.018 C 
HETATM   11  C9  UNL     1     -35.219  17.536   0.824  1.00 20.00     0.010 C 
HETATM   12  C10 UNL     1     -33.317  18.302  -0.625  1.00 20.00     0.010 C 
ENDBRANCH   6  10
TORSDOF 1
ENDMDL
MODEL 4
REMARK VINA RESULT:      -5.1      2.007      4.748
REMARK  1 active torsions:
REMARK  status: ('A' for Active; 'I' for Inactive)
REMARK    1  A    between atoms: C6_6  and  C11_11 
ROOT
HETATM    1  C1  UNL     1     -33.814  17.872  -2.759  1.00 20.00    -0.014 C 
HETATM    2  C2  UNL     1     -34.268  16.759  -2.145  1.00 20.00    -0.074 C 
HETATM    3  C3  UNL     1     -33.643  17.862  -4.252  1.00 20.00     0.155 C 
HETATM    4  C4  UNL     1     -34.526  15.460  -2.877  1.00 20.00     0.039 C 
HETATM    5  C5  UNL     1     -34.050  16.630  -5.029  1.00 20.00     0.088 C 
HETATM    6  C6  UNL     1     -33.791  15.370  -4.216  1.00 20.00     0.000 C 
HETATM    7  C7  UNL     1     -33.462  19.170  -2.088  1.00 20.00     0.052 C 
HETATM    8  C8  UNL     1     -34.580  16.676  -0.673  1.00 20.00     0.044 C 
HETATM    9  O12 UNL     1     -33.238  18.863  -4.844  1.00 20.00    -0.293 OA
ENDROOT
BRANCH   6  10
HETATM   10  C11 UNL     1     -34.212  14.122  -4.988  1.00 20.00    -0.018 C 
HETATM   11  C9  UNL     1     -35.247  13.325  -4.196  1.00 20.00     0.010 C 
HETATM   12  C10 UNL     1     -34.761  14.499  -6.361  1.00 20.00     0.010 C 
ENDBRANCH   6  10
TORSDOF 1
ENDMDL
MODEL 5
REMARK VINA RESULT:      -5.0      1.792      2.582
REMARK  1 active torsions:
REMARK  status: ('A' for Active; 'I' for Inactive)
REMARK    1  A    between atoms: C6_6  and  C11_11 
ROOT
HETATM    1  C1  UNL     1     -34.181  15.544  -5.684  1.00 20.00    -0.014 C 
HETATM    2  C2  UNL     1     -34.150  14.708  -4.624  1.00 20.00    -0.074 C 
HETATM    3  C3  UNL     1     -33.852  16.996  -5.475  1.00 20.00     0.155 C 
HETATM    4  C4  UNL     1     -33.891  15.177  -3.210  1.00 20.00     0.039 C 
HETATM    5  C5  UNL     1     -33.428  17.461  -4.100  1.00 20.00     0.088 C 
HETATM    6  C6  UNL     1     -34.150  16.673  -3.017  1.00 20.00     0.000 C 
HETATM    7  C7  UNL     1     -34.509  15.164  -7.100  1.00 20.00     0.052 C 
HETATM    8  C8  UNL     1     -34.357  13.218  -4.721  1.00 20.00     0.044 C 
HETATM    9  O12 UNL     1     -33.864  17.784  -6.420  1.00 20.00    -0.293 OA
ENDROOT
BRANCH   6  10
HETATM   10  C11 UNL     1     -33.718  17.128  -1.626  1.00 20.00    -0.018 C 
HETATM   11  C9  UNL     1     -33.468  18.635  -1.608  1.00 20.00     0.010 C 
HETATM   12  C10 UNL     1     -34.767  16.745  -0.584  1.00 20.00     0.010 C 
ENDBRANCH   6  10
TORSDOF 1
ENDMDL
MODEL 6
REMARK VINA RESULT:      -4.7      2.420      3.754
REMARK  1 active torsions:
REMARK  status: ('A' for Active; 'I' for Inactive)
REMARK    1  A    between atoms: C6_6  and  C11_11 
ROOT
HETATM    1  C1  UNL     1     -34.202  14.468  -3.504  1.00 20.00    -0.014 C 
HETATM    2  C2  UNL     1     -34.605  15.633  -2.955  1.00 20.00    -0.074 C 
HETATM    3  C3  UNL     1     -35.176  13.676  -4.332  1.00 20.00     0.155 C 
HETATM    4  C4  UNL     1     -36.027  16.141  -3.052  1.00 20.00     0.039 C 
HETATM    5  C5  UNL     1     -36.555  14.243  -4.582  1.00 20.00     0.088 C 
HETATM    6  C6  UNL     1     -37.037  15.040  -3.379  1.00 20.00     0.000 C 
HETATM    7  C7  UNL     1     -32.832  13.862  -3.384  1.00 20.00     0.052 C 
HETATM    8  C8  UNL     1     -33.698  16.566  -2.195  1.00 20.00     0.044 C 
HETATM    9  O12 UNL     1     -34.838  12.613  -4.853  1.00 20.00    -0.293 OA
ENDROOT
BRANCH   6  10
HETATM   10  C11 UNL     1     -38.425  15.626  -3.629  1.00 20.00    -0.018 C 
HETATM   11  C9  UNL     1     -38.318  16.963  -4.361  1.00 20.00     0.010 C 
HETATM   12  C10 UNL     1     -39.288  14.647  -4.421  1.00 20.00     0.010 C 
ENDBRANCH   6  10
TORSDOF 1
ENDMDL
MODEL 7
REMARK VINA RESULT:      -4.7      1.337      2.002
REMARK  1 active torsions:
REMARK  status: ('A' for Active; 'I' for Inactive)
REMARK    1  A    between atoms: C6_6  and  C11_11 
ROOT
HETATM    1  C1  UNL     1     -34.109  16.121  -4.494  1.00 20.00    -0.014 C 
HETATM    2  C2  UNL     1     -33.910  17.454  -4.414  1.00 20.00    -0.074 C 
HETATM    3  C3  UNL     1     -34.492  15.366  -3.251  1.00 20.00     0.155 C 
HETATM    4  C4  UNL     1     -33.960  18.219  -3.109  1.00 20.00     0.039 C 
HETATM    5  C5  UNL     1     -34.710  16.132  -1.966  1.00 20.00     0.088 C 
HETATM    6  C6  UNL     1     -33.769  17.325  -1.882  1.00 20.00     0.000 C 
HETATM    7  C7  UNL     1     -33.998  15.285  -5.737  1.00 20.00     0.052 C 
HETATM    8  C8  UNL     1     -33.627  18.337  -5.602  1.00 20.00     0.044 C 
HETATM    9  O12 UNL     1     -34.688  14.152  -3.291  1.00 20.00    -0.293 OA
ENDROOT
BRANCH   6  10
HETATM   10  C11 UNL     1     -33.993  18.111  -0.593  1.00 20.00    -0.018 C 
HETATM   11  C9  UNL     1     -34.838  17.302   0.389  1.00 20.00     0.010 C 
HETATM   12  C10 UNL     1     -32.658  18.498   0.040  1.00 20.00     0.010 C 
ENDBRANCH   6  10
TORSDOF 1
ENDMDL
MODEL 8
REMARK VINA RESULT:      -4.6      2.012      3.024
REMARK  1 active torsions:
REMARK  status: ('A' for Active; 'I' for Inactive)
REMARK    1  A    between atoms: C6_6  and  C11_11 
ROOT
HETATM    1  C1  UNL     1     -33.987  16.033  -5.011  1.00 20.00    -0.014 C 
HETATM    2  C2  UNL     1     -34.144  15.309  -3.883  1.00 20.00    -0.074 C 
HETATM    3  C3  UNL     1     -33.751  17.513  -4.899  1.00 20.00     0.155 C 
HETATM    4  C4  UNL     1     -34.189  15.929  -2.503  1.00 20.00     0.039 C 
HETATM    5  C5  UNL     1     -33.625  18.134  -3.526  1.00 20.00     0.088 C 
HETATM    6  C6  UNL     1     -34.526  17.421  -2.528  1.00 20.00     0.000 C 
HETATM    7  C7  UNL     1     -34.012  15.498  -6.415  1.00 20.00     0.052 C 
HETATM    8  C8  UNL     1     -34.283  13.808  -3.857  1.00 20.00     0.044 C 
HETATM    9  O12 UNL     1     -33.596  18.202  -5.908  1.00 20.00    -0.293 OA
ENDROOT
BRANCH   6  10
HETATM   10  C11 UNL     1     -34.396  18.034  -1.135  1.00 20.00    -0.018 C 
HETATM   11  C9  UNL     1     -34.790  17.020  -0.064  1.00 20.00     0.010 C 
HETATM   12  C10 UNL     1     -32.973  18.537  -0.900  1.00 20.00     0.010 C 
ENDBRANCH   6  10
TORSDOF 1
ENDMDL
MODEL 9
REMARK VINA RESULT:      -4.5      1.762      4.096
REMARK  1 active torsions:
REMARK  status: ('A' for Active; 'I' for Inactive)
REMARK    1  A    between atoms: C6_6  and  C11_11 
ROOT
HETATM    1  C1  UNL     1     -34.012  17.826  -2.634  1.00 20.00    -0.014 C 
HETATM    2  C2  UNL     1     -33.865  17.922  -3.972  1.00 20.00    -0.074 C 
HETATM    3  C3  UNL     1     -34.394  16.500  -2.037  1.00 20.00     0.155 C 
HETATM    4  C4  UNL     1     -34.159  16.779  -4.919  1.00 20.00     0.039 C 
HETATM    5  C5  UNL     1     -34.532  15.299  -2.946  1.00 20.00     0.088 C 
HETATM    6  C6  UNL     1     -35.069  15.713  -4.308  1.00 20.00     0.000 C 
HETATM    7  C7  UNL     1     -33.816  18.936  -1.641  1.00 20.00     0.052 C 
HETATM    8  C8  UNL     1     -33.386  19.164  -4.680  1.00 20.00     0.044 C 
HETATM    9  O12 UNL     1     -34.529  16.376  -0.820  1.00 20.00    -0.293 OA
ENDROOT
BRANCH   6  10
HETATM   10  C11 UNL     1     -35.200  14.508  -5.236  1.00 20.00    -0.018 C 
HETATM   11  C9  UNL     1     -34.549  14.798  -6.587  1.00 20.00     0.010 C 
HETATM   12  C10 UNL     1     -34.580  13.267  -4.597  1.00 20.00     0.010 C 
ENDBRANCH   6  10
TORSDOF 1
ENDMDL
