MODEL 1
REMARK VINA RESULT:      -4.2      0.000      0.000
REMARK  1 active torsions:
REMARK  status: ('A' for Active; 'I' for Inactive)
REMARK    1  A    between atoms: C4_4  and  C5_5 
ROOT
HETATM    1  C1  UNL     1     -32.517   6.236   3.089  1.00 20.00     0.015 C 
HETATM    2  C2  UNL     1     -33.613   5.858   3.403  1.00 20.00    -0.083 C 
HETATM    3  C3  UNL     1     -34.916   5.409   3.777  1.00 20.00     0.229 A 
HETATM    4  C4  UNL     1     -35.254   5.075   5.209  1.00 20.00     0.177 A 
HETATM    5  O6  UNL     1     -34.930   4.054   4.261  1.00 20.00    -0.361 OA
ENDROOT
BRANCH   4   6
HETATM    6  C5  UNL     1     -34.286   5.207   6.331  1.00 20.00     0.150 C 
HETATM    7 CL7  UNL     1     -33.908   6.922   6.663  1.00 20.00    -0.128 Cl
ENDBRANCH   4   6
TORSDOF 1
ENDMDL
MODEL 2
REMARK VINA RESULT:      -3.9      1.823      2.900
REMARK  1 active torsions:
REMARK  status: ('A' for Active; 'I' for Inactive)
REMARK    1  A    between atoms: C4_4  and  C5_5 
ROOT
HETATM    1  C1  UNL     1     -33.914   6.894   6.769  1.00 20.00     0.015 C 
HETATM    2  C2  UNL     1     -34.252   5.969   6.083  1.00 20.00    -0.083 C 
HETATM    3  C3  UNL     1     -34.653   4.867   5.266  1.00 20.00     0.229 A 
HETATM    4  C4  UNL     1     -34.487   4.896   3.767  1.00 20.00     0.177 A 
HETATM    5  O6  UNL     1     -35.744   5.186   4.385  1.00 20.00    -0.361 OA
ENDROOT
BRANCH   4   6
HETATM    6  C5  UNL     1     -33.881   6.038   3.032  1.00 20.00     0.150 C 
HETATM    7 CL7  UNL     1     -32.098   6.019   3.158  1.00 20.00    -0.128 Cl
ENDBRANCH   4   6
TORSDOF 1
ENDMDL
MODEL 3
REMARK VINA RESULT:      -3.8      1.970      3.115
REMARK  1 active torsions:
REMARK  status: ('A' for Active; 'I' for Inactive)
REMARK    1  A    between atoms: C4_4  and  C5_5 
ROOT
HETATM    1  C1  UNL     1     -34.922   4.651   6.705  1.00 20.00     0.015 C 
HETATM    2  C2  UNL     1     -34.944   4.623   5.504  1.00 20.00    -0.083 C 
HETATM    3  C3  UNL     1     -34.969   4.590   4.077  1.00 20.00     0.229 A 
HETATM    4  C4  UNL     1     -34.129   5.533   3.251  1.00 20.00     0.177 A 
HETATM    5  O6  UNL     1     -35.516   5.786   3.494  1.00 20.00    -0.361 OA
ENDROOT
BRANCH   4   6
HETATM    6  C5  UNL     1     -33.205   6.538   3.843  1.00 20.00     0.150 C 
HETATM    7 CL7  UNL     1     -32.193   7.307   2.587  1.00 20.00    -0.128 Cl
ENDBRANCH   4   6
TORSDOF 1
ENDMDL
MODEL 4
REMARK VINA RESULT:      -3.7     12.420     13.094
REMARK  1 active torsions:
REMARK  status: ('A' for Active; 'I' for Inactive)
REMARK    1  A    between atoms: C4_4  and  C5_5 
ROOT
HETATM    1  C1  UNL     1     -34.740  15.809  -2.516  1.00 20.00     0.015 C 
HETATM    2  C2  UNL     1     -34.420  14.815  -3.109  1.00 20.00    -0.083 C 
HETATM    3  C3  UNL     1     -34.038  13.634  -3.816  1.00 20.00     0.229 A 
HETATM    4  C4  UNL     1     -34.463  13.398  -5.244  1.00 20.00     0.177 A 
HETATM    5  O6  UNL     1     -35.154  12.790  -4.149  1.00 20.00    -0.361 OA
ENDROOT
BRANCH   4   6
HETATM    6  C5  UNL     1     -35.277  14.366  -6.027  1.00 20.00     0.150 C 
HETATM    7 CL7  UNL     1     -34.238  15.483  -6.958  1.00 20.00    -0.128 Cl
ENDBRANCH   4   6
TORSDOF 1
ENDMDL
MODEL 5
REMARK VINA RESULT:      -3.7     11.949     12.783
REMARK  1 active torsions:
REMARK  status: ('A' for Active; 'I' for Inactive)
REMARK    1  A    between atoms: C4_4  and  C5_5 
ROOT
HETATM    1  C1  UNL     1     -34.450  15.017  -6.980  1.00 20.00     0.015 C 
HETATM    2  C2  UNL     1     -34.650  14.345  -6.006  1.00 20.00    -0.083 C 
HETATM    3  C3  UNL     1     -34.888  13.547  -4.845  1.00 20.00     0.229 A 
HETATM    4  C4  UNL     1     -34.541  14.041  -3.463  1.00 20.00     0.177 A 
HETATM    5  O6  UNL     1     -33.679  13.149  -4.175  1.00 20.00    -0.361 OA
ENDROOT
BRANCH   4   6
HETATM    6  C5  UNL     1     -33.957  15.384  -3.197  1.00 20.00     0.150 C 
HETATM    7 CL7  UNL     1     -34.576  16.069  -1.666  1.00 20.00    -0.128 Cl
ENDBRANCH   4   6
TORSDOF 1
ENDMDL
MODEL 6
REMARK VINA RESULT:      -3.5      2.864      3.696
REMARK  1 active torsions:
REMARK  status: ('A' for Active; 'I' for Inactive)
REMARK    1  A    between atoms: C4_4  and  C5_5 
ROOT
HETATM    1  C1  UNL     1     -32.584   9.522   1.491  1.00 20.00     0.015 C 
HETATM    2  C2  UNL     1     -32.178   8.496   1.963  1.00 20.00    -0.083 C 
HETATM    3  C3  UNL     1     -31.695   7.275   2.525  1.00 20.00     0.229 A 
HETATM    4  C4  UNL     1     -32.566   6.415   3.408  1.00 20.00     0.177 A 
HETATM    5  O6  UNL     1     -31.599   7.313   3.960  1.00 20.00    -0.361 OA
ENDROOT
BRANCH   4   6
HETATM    6  C5  UNL     1     -33.978   6.747   3.738  1.00 20.00     0.150 C 
HETATM    7 CL7  UNL     1     -35.008   5.286   3.727  1.00 20.00    -0.128 Cl
ENDBRANCH   4   6
TORSDOF 1
ENDMDL
MODEL 7
REMARK VINA RESULT:      -3.4     12.513     12.720
REMARK  1 active torsions:
REMARK  status: ('A' for Active; 'I' for Inactive)
REMARK    1  A    between atoms: C4_4  and  C5_5 
ROOT
HETATM    1  C1  UNL     1     -34.364  16.235  -1.882  1.00 20.00     0.015 C 
HETATM    2  C2  UNL     1     -33.892  15.568  -2.762  1.00 20.00    -0.083 C 
HETATM    3  C3  UNL     1     -33.331  14.776  -3.810  1.00 20.00     0.229 A 
HETATM    4  C4  UNL     1     -34.176  13.816  -4.611  1.00 20.00     0.177 A 
HETATM    5  O6  UNL     1     -33.358  13.365  -3.527  1.00 20.00    -0.361 OA
ENDROOT
BRANCH   4   6
HETATM    6  C5  UNL     1     -35.638  13.638  -4.397  1.00 20.00     0.150 C 
HETATM    7 CL7  UNL     1     -36.576  14.904  -5.241  1.00 20.00    -0.128 Cl
ENDBRANCH   4   6
TORSDOF 1
ENDMDL
MODEL 8
REMARK VINA RESULT:      -3.4      1.207      1.542
REMARK  1 active torsions:
REMARK  status: ('A' for Active; 'I' for Inactive)
REMARK    1  A    between atoms: C4_4  and  C5_5 
ROOT
HETATM    1  C1  UNL     1     -34.279   5.401   2.690  1.00 20.00     0.015 C 
HETATM    2  C2  UNL     1     -34.715   5.169   3.784  1.00 20.00    -0.083 C 
HETATM    3  C3  UNL     1     -35.235   4.895   5.086  1.00 20.00     0.229 A 
HETATM    4  C4  UNL     1     -34.651   5.537   6.320  1.00 20.00     0.177 A 
HETATM    5  O6  UNL     1     -34.300   4.206   5.934  1.00 20.00    -0.361 OA
ENDROOT
BRANCH   4   6
HETATM    6  C5  UNL     1     -33.526   6.509   6.282  1.00 20.00     0.150 C 
HETATM    7 CL7  UNL     1     -33.793   7.857   7.425  1.00 20.00    -0.128 Cl
ENDBRANCH   4   6
TORSDOF 1
ENDMDL
MODEL 9
REMARK VINA RESULT:      -3.4     12.349     12.772
REMARK  1 active torsions:
REMARK  status: ('A' for Active; 'I' for Inactive)
REMARK    1  A    between atoms: C4_4  and  C5_5 
ROOT
HETATM    1  C1  UNL     1     -34.780  13.242  -4.404  1.00 20.00     0.015 C 
HETATM    2  C2  UNL     1     -34.027  14.116  -4.072  1.00 20.00    -0.083 C 
HETATM    3  C3  UNL     1     -33.131  15.155  -3.676  1.00 20.00     0.229 A 
HETATM    4  C4  UNL     1     -33.539  16.212  -2.678  1.00 20.00     0.177 A 
HETATM    5  O6  UNL     1     -33.566  16.464  -4.086  1.00 20.00    -0.361 OA
ENDROOT
BRANCH   4   6
HETATM    6  C5  UNL     1     -34.873  16.243  -2.019  1.00 20.00     0.150 C 
HETATM    7 CL7  UNL     1     -34.746  16.798  -0.325  1.00 20.00    -0.128 Cl
ENDBRANCH   4   6
TORSDOF 1
ENDMDL
