MODEL 1
REMARK VINA RESULT:      -4.8      0.000      0.000
REMARK  0 active torsions:
REMARK  status: ('A' for Active; 'I' for Inactive)
ROOT
HETATM    1  C1  UNL     1     -33.933   5.974   6.092  1.00 20.00    -0.021 C 
HETATM    2  C2  UNL     1     -34.653   5.059   5.421  1.00 20.00    -0.087 C 
HETATM    3  C3  UNL     1     -33.091   7.018   5.413  1.00 20.00     0.068 C 
HETATM    4  C4  UNL     1     -34.695   5.027   3.912  1.00 20.00     0.036 C 
HETATM    5  C5  UNL     1     -34.245   6.337   3.252  1.00 20.00     0.045 C 
HETATM    6  C6  UNL     1     -31.979   7.692   3.164  1.00 20.00     0.153 A 
HETATM    7  C7  UNL     1     -33.012   6.875   3.916  1.00 20.00     0.090 A 
HETATM    8  C8  UNL     1     -35.447   4.000   6.127  1.00 20.00     0.043 C 
HETATM    9  C9  UNL     1     -32.092   8.030   1.721  1.00 20.00     0.042 C 
HETATM   10  O10 UNL     1     -31.785   6.299   3.440  1.00 20.00    -0.369 OA
ENDROOT
TORSDOF 0
ENDMDL
MODEL 2
REMARK VINA RESULT:      -4.5     11.805     12.854
REMARK  0 active torsions:
REMARK  status: ('A' for Active; 'I' for Inactive)
ROOT
HETATM    1  C1  UNL     1     -33.436  16.235  -2.991  1.00 20.00    -0.021 C 
HETATM    2  C2  UNL     1     -34.603  16.200  -2.325  1.00 20.00    -0.087 C 
HETATM    3  C3  UNL     1     -33.304  15.863  -4.441  1.00 20.00     0.068 C 
HETATM    4  C4  UNL     1     -35.895  15.809  -3.001  1.00 20.00     0.036 C 
HETATM    5  C5  UNL     1     -35.845  15.897  -4.532  1.00 20.00     0.045 C 
HETATM    6  C6  UNL     1     -34.476  14.659  -6.422  1.00 20.00     0.153 A 
HETATM    7  C7  UNL     1     -34.564  15.320  -5.060  1.00 20.00     0.090 A 
HETATM    8  C8  UNL     1     -34.694  16.532  -0.865  1.00 20.00     0.043 C 
HETATM    9  C9  UNL     1     -35.633  14.525  -7.345  1.00 20.00     0.042 C 
HETATM   10  O10 UNL     1     -34.580  13.892  -5.216  1.00 20.00    -0.369 OA
ENDROOT
TORSDOF 0
ENDMDL
MODEL 3
REMARK VINA RESULT:      -4.3     11.770     13.186
REMARK  0 active torsions:
REMARK  status: ('A' for Active; 'I' for Inactive)
ROOT
HETATM    1  C1  UNL     1     -34.351  15.164  -2.607  1.00 20.00    -0.021 C 
HETATM    2  C2  UNL     1     -33.958  16.449  -2.639  1.00 20.00    -0.087 C 
HETATM    3  C3  UNL     1     -34.619  14.353  -3.843  1.00 20.00     0.068 C 
HETATM    4  C4  UNL     1     -33.723  17.178  -3.941  1.00 20.00     0.036 C 
HETATM    5  C5  UNL     1     -33.533  16.248  -5.146  1.00 20.00     0.045 C 
HETATM    6  C6  UNL     1     -35.059  14.493  -6.401  1.00 20.00     0.153 A 
HETATM    7  C7  UNL     1     -34.539  15.135  -5.128  1.00 20.00     0.090 A 
HETATM    8  C8  UNL     1     -33.745  17.246  -1.387  1.00 20.00     0.043 C 
HETATM    9  C9  UNL     1     -34.625  14.902  -7.762  1.00 20.00     0.042 C 
HETATM   10  O10 UNL     1     -35.815  15.482  -5.690  1.00 20.00    -0.369 OA
ENDROOT
TORSDOF 0
ENDMDL
MODEL 4
REMARK VINA RESULT:      -4.3     11.518     12.811
REMARK  0 active torsions:
REMARK  status: ('A' for Active; 'I' for Inactive)
ROOT
HETATM    1  C1  UNL     1     -33.649  18.369  -2.719  1.00 20.00    -0.021 C 
HETATM    2  C2  UNL     1     -33.900  18.055  -1.436  1.00 20.00    -0.087 C 
HETATM    3  C3  UNL     1     -33.759  17.379  -3.845  1.00 20.00     0.068 C 
HETATM    4  C4  UNL     1     -34.347  16.672  -1.026  1.00 20.00     0.036 C 
HETATM    5  C5  UNL     1     -34.906  15.833  -2.183  1.00 20.00     0.045 C 
HETATM    6  C6  UNL     1     -33.903  14.849  -4.421  1.00 20.00     0.153 A 
HETATM    7  C7  UNL     1     -34.047  15.968  -3.406  1.00 20.00     0.090 A 
HETATM    8  C8  UNL     1     -33.735  19.053  -0.328  1.00 20.00     0.043 C 
HETATM    9  C9  UNL     1     -34.591  13.538  -4.298  1.00 20.00     0.042 C 
HETATM   10  O10 UNL     1     -32.904  15.097  -3.424  1.00 20.00    -0.369 OA
ENDROOT
TORSDOF 0
ENDMDL
MODEL 5
REMARK VINA RESULT:      -4.3     12.016     13.312
REMARK  0 active torsions:
REMARK  status: ('A' for Active; 'I' for Inactive)
ROOT
HETATM    1  C1  UNL     1     -33.675  18.535  -2.282  1.00 20.00    -0.021 C 
HETATM    2  C2  UNL     1     -33.996  17.594  -1.378  1.00 20.00    -0.087 C 
HETATM    3  C3  UNL     1     -33.668  18.285  -3.764  1.00 20.00     0.068 C 
HETATM    4  C4  UNL     1     -34.410  16.201  -1.790  1.00 20.00     0.036 C 
HETATM    5  C5  UNL     1     -34.855  16.095  -3.254  1.00 20.00     0.045 C 
HETATM    6  C6  UNL     1     -33.666  16.435  -5.589  1.00 20.00     0.153 A 
HETATM    7  C7  UNL     1     -33.924  16.853  -4.153  1.00 20.00     0.090 A 
HETATM    8  C8  UNL     1     -33.948  17.861   0.097  1.00 20.00     0.043 C 
HETATM    9  C9  UNL     1     -34.303  15.254  -6.226  1.00 20.00     0.042 C 
HETATM   10  O10 UNL     1     -32.746  16.124  -4.535  1.00 20.00    -0.369 OA
ENDROOT
TORSDOF 0
ENDMDL
MODEL 6
REMARK VINA RESULT:      -4.3     11.934     13.284
REMARK  0 active torsions:
REMARK  status: ('A' for Active; 'I' for Inactive)
ROOT
HETATM    1  C1  UNL     1     -33.736  15.927  -5.869  1.00 20.00    -0.021 C 
HETATM    2  C2  UNL     1     -34.737  15.036  -5.969  1.00 20.00    -0.087 C 
HETATM    3  C3  UNL     1     -33.349  16.590  -4.577  1.00 20.00     0.068 C 
HETATM    4  C4  UNL     1     -35.541  14.602  -4.766  1.00 20.00     0.036 C 
HETATM    5  C5  UNL     1     -34.858  14.897  -3.425  1.00 20.00     0.045 C 
HETATM    6  C6  UNL     1     -34.132  17.095  -2.151  1.00 20.00     0.153 A 
HETATM    7  C7  UNL     1     -34.260  16.273  -3.420  1.00 20.00     0.090 A 
HETATM    8  C8  UNL     1     -35.130  14.427  -7.282  1.00 20.00     0.043 C 
HETATM    9  C9  UNL     1     -34.581  16.620  -0.817  1.00 20.00     0.042 C 
HETATM   10  O10 UNL     1     -35.189  17.320  -3.094  1.00 20.00    -0.369 OA
ENDROOT
TORSDOF 0
ENDMDL
MODEL 7
REMARK VINA RESULT:      -4.2      9.822     10.927
REMARK  0 active torsions:
REMARK  status: ('A' for Active; 'I' for Inactive)
ROOT
HETATM    1  C1  UNL     1     -40.834   3.903  -1.730  1.00 20.00    -0.021 C 
HETATM    2  C2  UNL     1     -41.743   3.480  -2.625  1.00 20.00    -0.087 C 
HETATM    3  C3  UNL     1     -40.952   5.206  -0.990  1.00 20.00     0.068 C 
HETATM    4  C4  UNL     1     -42.985   4.279  -2.938  1.00 20.00     0.036 C 
HETATM    5  C5  UNL     1     -43.334   5.327  -1.872  1.00 20.00     0.045 C 
HETATM    6  C6  UNL     1     -42.159   7.507  -0.954  1.00 20.00     0.153 A 
HETATM    7  C7  UNL     1     -42.107   6.067  -1.429  1.00 20.00     0.090 A 
HETATM    8  C8  UNL     1     -41.573   2.197  -3.382  1.00 20.00     0.043 C 
HETATM    9  C9  UNL     1     -43.411   8.304  -0.886  1.00 20.00     0.042 C 
HETATM   10  O10 UNL     1     -41.738   7.164  -2.281  1.00 20.00    -0.369 OA
ENDROOT
TORSDOF 0
ENDMDL
MODEL 8
REMARK VINA RESULT:      -4.1     11.559     12.276
REMARK  0 active torsions:
REMARK  status: ('A' for Active; 'I' for Inactive)
ROOT
HETATM    1  C1  UNL     1     -35.979  15.107  -3.664  1.00 20.00    -0.021 C 
HETATM    2  C2  UNL     1     -34.864  14.396  -3.906  1.00 20.00    -0.087 C 
HETATM    3  C3  UNL     1     -35.999  16.336  -2.799  1.00 20.00     0.068 C 
HETATM    4  C4  UNL     1     -33.522  14.800  -3.345  1.00 20.00     0.036 C 
HETATM    5  C5  UNL     1     -33.458  16.263  -2.885  1.00 20.00     0.045 C 
HETATM    6  C6  UNL     1     -34.671  17.678  -1.013  1.00 20.00     0.153 A 
HETATM    7  C7  UNL     1     -34.691  16.636  -2.116  1.00 20.00     0.090 A 
HETATM    8  C8  UNL     1     -34.885  13.146  -4.736  1.00 20.00     0.043 C 
HETATM    9  C9  UNL     1     -33.448  18.413  -0.600  1.00 20.00     0.042 C 
HETATM   10  O10 UNL     1     -34.653  16.274  -0.726  1.00 20.00    -0.369 OA
ENDROOT
TORSDOF 0
ENDMDL
MODEL 9
REMARK VINA RESULT:      -4.1     11.527     12.928
REMARK  0 active torsions:
REMARK  status: ('A' for Active; 'I' for Inactive)
ROOT
HETATM    1  C1  UNL     1     -34.434  13.938  -4.945  1.00 20.00    -0.021 C 
HETATM    2  C2  UNL     1     -35.024  14.767  -5.823  1.00 20.00    -0.087 C 
HETATM    3  C3  UNL     1     -34.281  14.260  -3.485  1.00 20.00     0.068 C 
HETATM    4  C4  UNL     1     -35.615  16.090  -5.399  1.00 20.00     0.036 C 
HETATM    5  C5  UNL     1     -35.881  16.195  -3.891  1.00 20.00     0.045 C 
HETATM    6  C6  UNL     1     -34.363  16.174  -1.729  1.00 20.00     0.153 A 
HETATM    7  C7  UNL     1     -34.726  15.648  -3.105  1.00 20.00     0.090 A 
HETATM    8  C8  UNL     1     -35.120  14.437  -7.284  1.00 20.00     0.043 C 
HETATM    9  C9  UNL     1     -35.106  17.264  -1.045  1.00 20.00     0.042 C 
HETATM   10  O10 UNL     1     -33.651  16.581  -2.906  1.00 20.00    -0.369 OA
ENDROOT
TORSDOF 0
ENDMDL
