MODEL 1
REMARK VINA RESULT:      -5.2      0.000      0.000
REMARK  0 active torsions:
REMARK  status: ('A' for Active; 'I' for Inactive)
ROOT
HETATM    1  C1  UNL     1     -33.444  13.939  -3.754  1.00 20.00     0.050 C 
HETATM    2  C2  UNL     1     -33.051  15.132  -3.293  1.00 20.00    -0.014 C 
HETATM    3  C3  UNL     1     -34.851  13.710  -4.163  1.00 20.00     0.188 C 
HETATM    4  C4  UNL     1     -35.440  15.888  -3.067  1.00 20.00     0.064 C 
HETATM    5  C5  UNL     1     -33.955  16.326  -3.086  1.00 20.00    -0.026 C 
HETATM    6  C6  UNL     1     -35.801  14.900  -4.180  1.00 20.00     0.164 C 
HETATM    7  C7  UNL     1     -33.686  17.352  -4.200  1.00 20.00     0.019 C 
HETATM    8  C8  UNL     1     -33.626  16.981  -1.731  1.00 20.00     0.019 C 
HETATM    9  C9  UNL     1     -37.248  14.439  -4.031  1.00 20.00     0.060 C 
HETATM   10  O10 UNL     1     -35.184  12.589  -4.544  1.00 20.00    -0.290 OA
HETATM   11  F11 UNL     1     -35.710  15.540  -5.381  1.00 20.00    -0.235 F 
ENDROOT
TORSDOF 0
ENDMDL
MODEL 2
REMARK VINA RESULT:      -4.6      1.810      2.858
REMARK  0 active torsions:
REMARK  status: ('A' for Active; 'I' for Inactive)
ROOT
HETATM    1  C1  UNL     1     -35.536  14.544  -5.812  1.00 20.00     0.050 C 
HETATM    2  C2  UNL     1     -35.448  15.876  -5.892  1.00 20.00    -0.014 C 
HETATM    3  C3  UNL     1     -34.703  13.786  -4.848  1.00 20.00     0.188 C 
HETATM    4  C4  UNL     1     -33.359  15.874  -4.489  1.00 20.00     0.064 C 
HETATM    5  C5  UNL     1     -34.495  16.735  -5.092  1.00 20.00    -0.026 C 
HETATM    6  C6  UNL     1     -33.851  14.568  -3.857  1.00 20.00     0.164 C 
HETATM    7  C7  UNL     1     -35.288  17.466  -3.995  1.00 20.00     0.019 C 
HETATM    8  C8  UNL     1     -33.863  17.790  -6.019  1.00 20.00     0.019 C 
HETATM    9  C9  UNL     1     -32.667  13.730  -3.381  1.00 20.00     0.060 C 
HETATM   10  O10 UNL     1     -34.781  12.558  -4.831  1.00 20.00    -0.290 OA
HETATM   11  F11 UNL     1     -34.594  14.868  -2.753  1.00 20.00    -0.235 F 
ENDROOT
TORSDOF 0
ENDMDL
MODEL 3
REMARK VINA RESULT:      -4.6      1.556      1.866
REMARK  0 active torsions:
REMARK  status: ('A' for Active; 'I' for Inactive)
ROOT
HETATM    1  C1  UNL     1     -34.433  14.136  -3.363  1.00 20.00     0.050 C 
HETATM    2  C2  UNL     1     -34.531  15.411  -2.969  1.00 20.00    -0.014 C 
HETATM    3  C3  UNL     1     -34.650  13.761  -4.781  1.00 20.00     0.188 C 
HETATM    4  C4  UNL     1     -35.580  16.060  -5.163  1.00 20.00     0.064 C 
HETATM    5  C5  UNL     1     -34.914  16.570  -3.862  1.00 20.00    -0.026 C 
HETATM    6  C6  UNL     1     -34.848  14.875  -5.801  1.00 20.00     0.164 C 
HETATM    7  C7  UNL     1     -33.655  17.401  -4.164  1.00 20.00     0.019 C 
HETATM    8  C8  UNL     1     -35.923  17.468  -3.121  1.00 20.00     0.019 C 
HETATM    9  C9  UNL     1     -35.620  14.366  -7.015  1.00 20.00     0.060 C 
HETATM   10  O10 UNL     1     -34.591  12.574  -5.098  1.00 20.00    -0.290 OA
HETATM   11  F11 UNL     1     -33.634  15.301  -6.252  1.00 20.00    -0.235 F 
ENDROOT
TORSDOF 0
ENDMDL
MODEL 4
REMARK VINA RESULT:      -4.4      2.179      3.815
REMARK  0 active torsions:
REMARK  status: ('A' for Active; 'I' for Inactive)
ROOT
HETATM    1  C1  UNL     1     -34.555  16.460  -5.590  1.00 20.00     0.050 C 
HETATM    2  C2  UNL     1     -35.400  15.431  -5.464  1.00 20.00    -0.014 C 
HETATM    3  C3  UNL     1     -33.814  16.983  -4.417  1.00 20.00     0.188 C 
HETATM    4  C4  UNL     1     -35.325  15.614  -2.955  1.00 20.00     0.064 C 
HETATM    5  C5  UNL     1     -35.738  14.738  -4.163  1.00 20.00    -0.026 C 
HETATM    6  C6  UNL     1     -33.931  16.233  -3.096  1.00 20.00     0.164 C 
HETATM    7  C7  UNL     1     -35.035  13.371  -4.132  1.00 20.00     0.019 C 
HETATM    8  C8  UNL     1     -37.259  14.505  -4.093  1.00 20.00     0.019 C 
HETATM    9  C9  UNL     1     -33.640  17.161  -1.920  1.00 20.00     0.060 C 
HETATM   10  O10 UNL     1     -33.076  17.956  -4.565  1.00 20.00    -0.290 OA
HETATM   11  F11 UNL     1     -33.002  15.235  -3.054  1.00 20.00    -0.235 F 
ENDROOT
TORSDOF 0
ENDMDL
MODEL 5
REMARK VINA RESULT:      -4.4      2.101      2.686
REMARK  0 active torsions:
REMARK  status: ('A' for Active; 'I' for Inactive)
ROOT
HETATM    1  C1  UNL     1     -35.629  13.936  -4.061  1.00 20.00     0.050 C 
HETATM    2  C2  UNL     1     -34.531  14.392  -4.674  1.00 20.00    -0.014 C 
HETATM    3  C3  UNL     1     -36.950  14.565  -4.302  1.00 20.00     0.188 C 
HETATM    4  C4  UNL     1     -35.751  16.459  -5.429  1.00 20.00     0.064 C 
HETATM    5  C5  UNL     1     -34.485  15.585  -5.601  1.00 20.00    -0.026 C 
HETATM    6  C6  UNL     1     -37.049  15.649  -5.368  1.00 20.00     0.164 C 
HETATM    7  C7  UNL     1     -34.340  15.084  -7.048  1.00 20.00     0.019 C 
HETATM    8  C8  UNL     1     -33.253  16.445  -5.260  1.00 20.00     0.019 C 
HETATM    9  C9  UNL     1     -38.236  16.569  -5.094  1.00 20.00     0.060 C 
HETATM   10  O10 UNL     1     -37.930  14.144  -3.690  1.00 20.00    -0.290 OA
HETATM   11  F11 UNL     1     -37.266  15.074  -6.585  1.00 20.00    -0.235 F 
ENDROOT
TORSDOF 0
ENDMDL
MODEL 6
REMARK VINA RESULT:      -4.4      2.481      3.307
REMARK  0 active torsions:
REMARK  status: ('A' for Active; 'I' for Inactive)
ROOT
HETATM    1  C1  UNL     1     -33.500  16.807  -5.580  1.00 20.00     0.050 C 
HETATM    2  C2  UNL     1     -33.406  16.060  -4.474  1.00 20.00    -0.014 C 
HETATM    3  C3  UNL     1     -34.374  16.391  -6.703  1.00 20.00     0.188 C 
HETATM    4  C4  UNL     1     -34.581  14.145  -5.605  1.00 20.00     0.064 C 
HETATM    5  C5  UNL     1     -34.098  14.734  -4.258  1.00 20.00    -0.026 C 
HETATM    6  C6  UNL     1     -35.267  15.172  -6.511  1.00 20.00     0.164 C 
HETATM    7  C7  UNL     1     -35.270  14.938  -3.282  1.00 20.00     0.019 C 
HETATM    8  C8  UNL     1     -33.106  13.741  -3.623  1.00 20.00     0.019 C 
HETATM    9  C9  UNL     1     -35.619  14.542  -7.856  1.00 20.00     0.060 C 
HETATM   10  O10 UNL     1     -34.403  17.082  -7.721  1.00 20.00    -0.290 OA
HETATM   11  F11 UNL     1     -36.441  15.553  -5.932  1.00 20.00    -0.235 F 
ENDROOT
TORSDOF 0
ENDMDL
MODEL 7
REMARK VINA RESULT:      -4.4      2.083      2.945
REMARK  0 active torsions:
REMARK  status: ('A' for Active; 'I' for Inactive)
ROOT
HETATM    1  C1  UNL     1     -36.638  14.804  -4.528  1.00 20.00     0.050 C 
HETATM    2  C2  UNL     1     -35.719  14.780  -3.556  1.00 20.00    -0.014 C 
HETATM    3  C3  UNL     1     -36.278  15.227  -5.903  1.00 20.00     0.188 C 
HETATM    4  C4  UNL     1     -34.100  16.071  -4.986  1.00 20.00     0.064 C 
HETATM    5  C5  UNL     1     -34.279  15.213  -3.710  1.00 20.00    -0.026 C 
HETATM    6  C6  UNL     1     -34.811  15.496  -6.215  1.00 20.00     0.164 C 
HETATM    7  C7  UNL     1     -33.386  13.961  -3.746  1.00 20.00     0.019 C 
HETATM    8  C8  UNL     1     -33.873  16.064  -2.492  1.00 20.00     0.019 C 
HETATM    9  C9  UNL     1     -34.676  16.448  -7.400  1.00 20.00     0.060 C 
HETATM   10  O10 UNL     1     -37.158  15.276  -6.761  1.00 20.00    -0.290 OA
HETATM   11  F11 UNL     1     -34.199  14.330  -6.570  1.00 20.00    -0.235 F 
ENDROOT
TORSDOF 0
ENDMDL
MODEL 8
REMARK VINA RESULT:      -4.4      2.517      3.729
REMARK  0 active torsions:
REMARK  status: ('A' for Active; 'I' for Inactive)
ROOT
HETATM    1  C1  UNL     1     -33.992  16.751  -5.130  1.00 20.00     0.050 C 
HETATM    2  C2  UNL     1     -33.985  15.416  -5.211  1.00 20.00    -0.014 C 
HETATM    3  C3  UNL     1     -34.285  17.432  -3.846  1.00 20.00     0.188 C 
HETATM    4  C4  UNL     1     -35.059  15.222  -2.943  1.00 20.00     0.064 C 
HETATM    5  C5  UNL     1     -34.313  14.474  -4.075  1.00 20.00    -0.026 C 
HETATM    6  C6  UNL     1     -34.437  16.578  -2.594  1.00 20.00     0.164 C 
HETATM    7  C7  UNL     1     -33.009  13.839  -3.564  1.00 20.00     0.019 C 
HETATM    8  C8  UNL     1     -35.228  13.350  -4.597  1.00 20.00     0.019 C 
HETATM    9  C9  UNL     1     -35.285  17.297  -1.548  1.00 20.00     0.060 C 
HETATM   10  O10 UNL     1     -34.323  18.661  -3.819  1.00 20.00    -0.290 OA
HETATM   11  F11 UNL     1     -33.211  16.367  -2.034  1.00 20.00    -0.235 F 
ENDROOT
TORSDOF 0
ENDMDL
MODEL 9
REMARK VINA RESULT:      -4.3     11.819     13.285
REMARK  0 active torsions:
REMARK  status: ('A' for Active; 'I' for Inactive)
ROOT
HETATM    1  C1  UNL     1     -43.159   5.893  -2.514  1.00 20.00     0.050 C 
HETATM    2  C2  UNL     1     -42.581   6.313  -1.383  1.00 20.00    -0.014 C 
HETATM    3  C3  UNL     1     -42.901   4.529  -3.036  1.00 20.00     0.188 C 
HETATM    4  C4  UNL     1     -41.017   4.342  -1.390  1.00 20.00     0.064 C 
HETATM    5  C5  UNL     1     -41.595   5.515  -0.560  1.00 20.00    -0.026 C 
HETATM    6  C6  UNL     1     -42.077   3.573  -2.183  1.00 20.00     0.164 C 
HETATM    7  C7  UNL     1     -42.301   5.010   0.710  1.00 20.00     0.019 C 
HETATM    8  C8  UNL     1     -40.430   6.429  -0.138  1.00 20.00     0.019 C 
HETATM    9  C9  UNL     1     -41.418   2.504  -3.052  1.00 20.00     0.060 C 
HETATM   10  O10 UNL     1     -43.417   4.192  -4.100  1.00 20.00    -0.290 OA
HETATM   11  F11 UNL     1     -42.895   2.923  -1.307  1.00 20.00    -0.235 F 
ENDROOT
TORSDOF 0
ENDMDL
