MODEL 1
REMARK VINA RESULT:      -5.3      0.000      0.000
REMARK  1 active torsions:
REMARK  status: ('A' for Active; 'I' for Inactive)
REMARK    1  A    between atoms: C8_8  and  C11_11 
ROOT
HETATM    1  C1  UNL     1     -34.862  14.089  -3.658  1.00 20.00     0.131 C 
HETATM    2  C2  UNL     1     -36.158  14.853  -3.684  1.00 20.00     0.079 C 
HETATM    3  C3  UNL     1     -35.864  15.994  -2.721  1.00 20.00     0.018 C 
HETATM    4  C4  UNL     1     -33.263  16.241  -5.066  1.00 20.00     0.002 C 
HETATM    5  C5  UNL     1     -32.649  15.170  -4.176  1.00 20.00     0.013 C 
HETATM    6  C6  UNL     1     -34.020  17.153  -4.104  1.00 20.00     0.011 C 
HETATM    7  C7  UNL     1     -33.712  14.920  -3.119  1.00 20.00     0.064 C 
HETATM    8  C8  UNL     1     -34.363  16.295  -2.862  1.00 20.00    -0.027 C 
HETATM    9  O12 UNL     1     -34.744  12.942  -4.069  1.00 20.00    -0.298 OA
ENDROOT
BRANCH   8  10
HETATM   10  C11 UNL     1     -33.828  16.959  -1.591  1.00 20.00    -0.013 C 
HETATM   11  C9  UNL     1     -33.543  18.437  -1.843  1.00 20.00     0.010 C 
HETATM   12  C10 UNL     1     -34.818  16.786  -0.445  1.00 20.00     0.010 C 
ENDBRANCH   8  10
TORSDOF 1
ENDMDL
MODEL 2
REMARK VINA RESULT:      -5.0      1.554      3.304
REMARK  1 active torsions:
REMARK  status: ('A' for Active; 'I' for Inactive)
REMARK    1  A    between atoms: C8_8  and  C11_11 
ROOT
HETATM    1  C1  UNL     1     -36.310  14.385  -4.068  1.00 20.00     0.131 C 
HETATM    2  C2  UNL     1     -35.261  13.317  -4.214  1.00 20.00     0.079 C 
HETATM    3  C3  UNL     1     -34.154  14.065  -4.941  1.00 20.00     0.018 C 
HETATM    4  C4  UNL     1     -34.718  16.043  -2.096  1.00 20.00     0.002 C 
HETATM    5  C5  UNL     1     -35.834  16.599  -2.969  1.00 20.00     0.013 C 
HETATM    6  C6  UNL     1     -33.581  15.746  -3.069  1.00 20.00     0.011 C 
HETATM    7  C7  UNL     1     -35.740  15.781  -4.246  1.00 20.00     0.064 C 
HETATM    8  C8  UNL     1     -34.233  15.521  -4.454  1.00 20.00    -0.027 C 
HETATM    9  O12 UNL     1     -37.480  14.154  -3.792  1.00 20.00    -0.298 OA
ENDROOT
BRANCH   8  10
HETATM   10  C11 UNL     1     -33.622  16.467  -5.491  1.00 20.00    -0.013 C 
HETATM   11  C9  UNL     1     -34.452  16.460  -6.772  1.00 20.00     0.010 C 
HETATM   12  C10 UNL     1     -33.514  17.878  -4.924  1.00 20.00     0.010 C 
ENDBRANCH   8  10
TORSDOF 1
ENDMDL
MODEL 3
REMARK VINA RESULT:      -5.0      1.154      3.033
REMARK  1 active torsions:
REMARK  status: ('A' for Active; 'I' for Inactive)
REMARK    1  A    between atoms: C8_8  and  C11_11 
ROOT
HETATM    1  C1  UNL     1     -34.403  13.699  -4.095  1.00 20.00     0.131 C 
HETATM    2  C2  UNL     1     -33.008  13.647  -3.535  1.00 20.00     0.079 C 
HETATM    3  C3  UNL     1     -32.447  14.992  -3.973  1.00 20.00     0.018 C 
HETATM    4  C4  UNL     1     -35.356  15.873  -2.215  1.00 20.00     0.002 C 
HETATM    5  C5  UNL     1     -36.001  15.568  -3.559  1.00 20.00     0.013 C 
HETATM    6  C6  UNL     1     -34.007  16.493  -2.568  1.00 20.00     0.011 C 
HETATM    7  C7  UNL     1     -34.840  15.114  -4.427  1.00 20.00     0.064 C 
HETATM    8  C8  UNL     1     -33.635  15.967  -3.976  1.00 20.00    -0.027 C 
HETATM    9  O12 UNL     1     -35.119  12.714  -4.224  1.00 20.00    -0.298 OA
ENDROOT
BRANCH   8  10
HETATM   10  C11 UNL     1     -33.367  17.136  -4.927  1.00 20.00    -0.013 C 
HETATM   11  C9  UNL     1     -34.119  16.937  -6.239  1.00 20.00     0.010 C 
HETATM   12  C10 UNL     1     -33.760  18.455  -4.272  1.00 20.00     0.010 C 
ENDBRANCH   8  10
TORSDOF 1
ENDMDL
MODEL 4
REMARK VINA RESULT:      -5.0      1.631      2.212
REMARK  1 active torsions:
REMARK  status: ('A' for Active; 'I' for Inactive)
REMARK    1  A    between atoms: C8_8  and  C11_11 
ROOT
HETATM    1  C1  UNL     1     -37.191  14.933  -3.975  1.00 20.00     0.131 C 
HETATM    2  C2  UNL     1     -37.352  16.227  -4.724  1.00 20.00     0.079 C 
HETATM    3  C3  UNL     1     -36.142  17.015  -4.247  1.00 20.00     0.018 C 
HETATM    4  C4  UNL     1     -34.725  14.056  -5.499  1.00 20.00     0.002 C 
HETATM    5  C5  UNL     1     -35.094  13.548  -4.112  1.00 20.00     0.013 C 
HETATM    6  C6  UNL     1     -34.317  15.510  -5.279  1.00 20.00     0.011 C 
HETATM    7  C7  UNL     1     -35.778  14.737  -3.458  1.00 20.00     0.064 C 
HETATM    8  C8  UNL     1     -35.034  15.980  -3.991  1.00 20.00    -0.027 C 
HETATM    9  O12 UNL     1     -38.090  14.112  -3.840  1.00 20.00    -0.298 OA
ENDROOT
BRANCH   8  10
HETATM   10  C11 UNL     1     -34.018  16.521  -2.982  1.00 20.00    -0.013 C 
HETATM   11  C9  UNL     1     -33.749  18.001  -3.239  1.00 20.00     0.010 C 
HETATM   12  C10 UNL     1     -34.514  16.300  -1.558  1.00 20.00     0.010 C 
ENDBRANCH   8  10
TORSDOF 1
ENDMDL
MODEL 5
REMARK VINA RESULT:      -4.9      2.138      3.964
REMARK  1 active torsions:
REMARK  status: ('A' for Active; 'I' for Inactive)
REMARK    1  A    between atoms: C8_8  and  C11_11 
ROOT
HETATM    1  C1  UNL     1     -35.284  15.938  -3.219  1.00 20.00     0.131 C 
HETATM    2  C2  UNL     1     -36.525  15.152  -3.543  1.00 20.00     0.079 C 
HETATM    3  C3  UNL     1     -36.349  14.896  -5.032  1.00 20.00     0.018 C 
HETATM    4  C4  UNL     1     -33.387  13.617  -3.648  1.00 20.00     0.002 C 
HETATM    5  C5  UNL     1     -32.973  15.079  -3.727  1.00 20.00     0.013 C 
HETATM    6  C6  UNL     1     -34.255  13.396  -4.883  1.00 20.00     0.011 C 
HETATM    7  C7  UNL     1     -34.206  15.778  -4.276  1.00 20.00     0.064 C 
HETATM    8  C8  UNL     1     -34.835  14.778  -5.268  1.00 20.00    -0.027 C 
HETATM    9  O12 UNL     1     -35.146  16.595  -2.194  1.00 20.00    -0.298 OA
ENDROOT
BRANCH   8  10
HETATM   10  C11 UNL     1     -34.491  15.114  -6.722  1.00 20.00    -0.013 C 
HETATM   11  C9  UNL     1     -35.475  14.436  -7.671  1.00 20.00     0.010 C 
HETATM   12  C10 UNL     1     -34.489  16.624  -6.931  1.00 20.00     0.010 C 
ENDBRANCH   8  10
TORSDOF 1
ENDMDL
MODEL 6
REMARK VINA RESULT:      -4.9      1.625      2.706
REMARK  1 active torsions:
REMARK  status: ('A' for Active; 'I' for Inactive)
REMARK    1  A    between atoms: C8_8  and  C11_11 
ROOT
HETATM    1  C1  UNL     1     -35.002  14.860  -6.144  1.00 20.00     0.131 C 
HETATM    2  C2  UNL     1     -34.049  16.008  -6.323  1.00 20.00     0.079 C 
HETATM    3  C3  UNL     1     -34.271  16.799  -5.042  1.00 20.00     0.018 C 
HETATM    4  C4  UNL     1     -33.456  13.592  -3.869  1.00 20.00     0.002 C 
HETATM    5  C5  UNL     1     -34.938  13.357  -4.125  1.00 20.00     0.013 C 
HETATM    6  C6  UNL     1     -33.374  15.037  -3.385  1.00 20.00     0.011 C 
HETATM    7  C7  UNL     1     -35.423  14.679  -4.696  1.00 20.00     0.064 C 
HETATM    8  C8  UNL     1     -34.613  15.765  -3.958  1.00 20.00    -0.027 C 
HETATM    9  O12 UNL     1     -35.360  14.126  -7.057  1.00 20.00    -0.298 OA
ENDROOT
BRANCH   8  10
HETATM   10  C11 UNL     1     -35.417  16.418  -2.830  1.00 20.00    -0.013 C 
HETATM   11  C9  UNL     1     -34.648  16.339  -1.515  1.00 20.00     0.010 C 
HETATM   12  C10 UNL     1     -35.744  17.865  -3.180  1.00 20.00     0.010 C 
ENDBRANCH   8  10
TORSDOF 1
ENDMDL
MODEL 7
REMARK VINA RESULT:      -4.9      2.015      3.863
REMARK  1 active torsions:
REMARK  status: ('A' for Active; 'I' for Inactive)
REMARK    1  A    between atoms: C8_8  and  C11_11 
ROOT
HETATM    1  C1  UNL     1     -33.509  14.068  -4.000  1.00 20.00     0.131 C 
HETATM    2  C2  UNL     1     -32.807  15.369  -3.724  1.00 20.00     0.079 C 
HETATM    3  C3  UNL     1     -33.294  16.235  -4.877  1.00 20.00     0.018 C 
HETATM    4  C4  UNL     1     -36.278  15.133  -3.392  1.00 20.00     0.002 C 
HETATM    5  C5  UNL     1     -36.008  13.913  -4.262  1.00 20.00     0.013 C 
HETATM    6  C6  UNL     1     -35.789  16.314  -4.224  1.00 20.00     0.011 C 
HETATM    7  C7  UNL     1     -34.688  14.236  -4.942  1.00 20.00     0.064 C 
HETATM    8  C8  UNL     1     -34.720  15.758  -5.195  1.00 20.00    -0.027 C 
HETATM    9  O12 UNL     1     -33.191  13.004  -3.485  1.00 20.00    -0.298 OA
ENDROOT
BRANCH   8  10
HETATM   10  C11 UNL     1     -35.088  16.095  -6.642  1.00 20.00    -0.013 C 
HETATM   11  C9  UNL     1     -34.446  17.414  -7.061  1.00 20.00     0.010 C 
HETATM   12  C10 UNL     1     -34.662  14.966  -7.574  1.00 20.00     0.010 C 
ENDBRANCH   8  10
TORSDOF 1
ENDMDL
MODEL 8
REMARK VINA RESULT:      -4.7      1.643      2.640
REMARK  1 active torsions:
REMARK  status: ('A' for Active; 'I' for Inactive)
REMARK    1  A    between atoms: C8_8  and  C11_11 
ROOT
HETATM    1  C1  UNL     1     -34.668  14.460  -5.840  1.00 20.00     0.131 C 
HETATM    2  C2  UNL     1     -34.591  13.239  -4.964  1.00 20.00     0.079 C 
HETATM    3  C3  UNL     1     -34.159  13.838  -3.634  1.00 20.00     0.018 C 
HETATM    4  C4  UNL     1     -37.063  15.648  -4.417  1.00 20.00     0.002 C 
HETATM    5  C5  UNL     1     -36.075  16.460  -5.242  1.00 20.00     0.013 C 
HETATM    6  C6  UNL     1     -36.278  15.235  -3.175  1.00 20.00     0.011 C 
HETATM    7  C7  UNL     1     -34.751  15.744  -5.035  1.00 20.00     0.064 C 
HETATM    8  C8  UNL     1     -34.784  15.241  -3.576  1.00 20.00    -0.027 C 
HETATM    9  O12 UNL     1     -34.707  14.416  -7.063  1.00 20.00    -0.298 OA
ENDROOT
BRANCH   8  10
HETATM   10  C11 UNL     1     -33.983  16.145  -2.635  1.00 20.00    -0.013 C 
HETATM   11  C9  UNL     1     -33.678  17.478  -3.312  1.00 20.00     0.010 C 
HETATM   12  C10 UNL     1     -34.744  16.361  -1.332  1.00 20.00     0.010 C 
ENDBRANCH   8  10
TORSDOF 1
ENDMDL
MODEL 9
REMARK VINA RESULT:      -4.7      2.546      3.811
REMARK  1 active torsions:
REMARK  status: ('A' for Active; 'I' for Inactive)
REMARK    1  A    between atoms: C8_8  and  C11_11 
ROOT
HETATM    1  C1  UNL     1     -33.637  14.975  -4.180  1.00 20.00     0.131 C 
HETATM    2  C2  UNL     1     -34.106  13.557  -4.007  1.00 20.00     0.079 C 
HETATM    3  C3  UNL     1     -35.606  13.698  -4.223  1.00 20.00     0.018 C 
HETATM    4  C4  UNL     1     -34.245  15.091  -7.145  1.00 20.00     0.002 C 
HETATM    5  C5  UNL     1     -34.136  16.317  -6.251  1.00 20.00     0.013 C 
HETATM    6  C6  UNL     1     -35.536  14.407  -6.703  1.00 20.00     0.011 C 
HETATM    7  C7  UNL     1     -34.655  15.837  -4.906  1.00 20.00     0.064 C 
HETATM    8  C8  UNL     1     -35.785  14.839  -5.237  1.00 20.00    -0.027 C 
HETATM    9  O12 UNL     1     -32.538  15.375  -3.816  1.00 20.00    -0.298 OA
ENDROOT
BRANCH   8  10
HETATM   10  C11 UNL     1     -37.172  15.470  -5.095  1.00 20.00    -0.013 C 
HETATM   11  C9  UNL     1     -37.916  15.423  -6.426  1.00 20.00     0.010 C 
HETATM   12  C10 UNL     1     -37.968  14.762  -4.005  1.00 20.00     0.010 C 
ENDBRANCH   8  10
TORSDOF 1
ENDMDL
