MODEL 1
REMARK VINA RESULT:      -5.3      0.000      0.000
REMARK  2 active torsions:
REMARK  status: ('A' for Active; 'I' for Inactive)
REMARK    1  A    between atoms: C1_1  and  C5_5 
REMARK    2  A    between atoms: C2_2  and  C3_3 
ROOT
HETATM    1  C1  UNL     1     -33.969   6.151   3.100  1.00 20.00     0.134 C 
HETATM    2  C2  UNL     1     -34.775   5.611   4.019  1.00 20.00     0.166 C 
HETATM    3  F7  UNL     1     -36.076   5.374   3.746  1.00 20.00    -0.202 F 
ENDROOT
BRANCH   1   4
HETATM    4  C5  UNL     1     -32.524   6.448   3.308  1.00 20.00     0.410 C 
HETATM    5  F8  UNL     1     -32.267   7.134   4.450  1.00 20.00    -0.167 F 
HETATM    6  F9  UNL     1     -32.022   7.188   2.286  1.00 20.00    -0.167 F 
HETATM    7  F10 UNL     1     -31.789   5.309   3.364  1.00 20.00    -0.167 F 
ENDBRANCH   1   4
BRANCH   2   8
HETATM    8  C3  UNL     1     -34.372   5.217   5.393  1.00 20.00     0.183 C 
HETATM    9  C4  UNL     1     -34.234   6.275   6.457  1.00 20.00     0.099 C 
HETATM   10  O6  UNL     1     -34.156   4.031   5.643  1.00 20.00    -0.290 OA
ENDBRANCH   2   8
TORSDOF 2
ENDMDL
MODEL 2
REMARK VINA RESULT:      -5.2      2.374      3.556
REMARK  2 active torsions:
REMARK  status: ('A' for Active; 'I' for Inactive)
REMARK    1  A    between atoms: C1_1  and  C5_5 
REMARK    2  A    between atoms: C2_2  and  C3_3 
ROOT
HETATM    1  C1  UNL     1     -35.330   4.793   4.651  1.00 20.00     0.134 C 
HETATM    2  C2  UNL     1     -34.642   5.484   3.736  1.00 20.00     0.166 C 
HETATM    3  F7  UNL     1     -35.079   5.575   2.462  1.00 20.00    -0.202 F 
ENDROOT
BRANCH   1   4
HETATM    4  C5  UNL     1     -34.928   4.636   6.076  1.00 20.00     0.410 C 
HETATM    5  F8  UNL     1     -34.896   5.804   6.766  1.00 20.00    -0.167 F 
HETATM    6  F9  UNL     1     -33.692   4.086   6.181  1.00 20.00    -0.167 F 
HETATM    7  F10 UNL     1     -35.780   3.815   6.741  1.00 20.00    -0.167 F 
ENDBRANCH   1   4
BRANCH   2   8
HETATM    8  C3  UNL     1     -33.369   6.207   3.984  1.00 20.00     0.183 C 
HETATM    9  C4  UNL     1     -32.203   5.995   3.054  1.00 20.00     0.099 C 
HETATM   10  O6  UNL     1     -33.286   6.972   4.945  1.00 20.00    -0.290 OA
ENDBRANCH   2   8
TORSDOF 2
ENDMDL
MODEL 3
REMARK VINA RESULT:      -5.2      1.601      2.244
REMARK  2 active torsions:
REMARK  status: ('A' for Active; 'I' for Inactive)
REMARK    1  A    between atoms: C1_1  and  C5_5 
REMARK    2  A    between atoms: C2_2  and  C3_3 
ROOT
HETATM    1  C1  UNL     1     -33.088   6.791   4.491  1.00 20.00     0.134 C 
HETATM    2  C2  UNL     1     -34.042   6.283   5.279  1.00 20.00     0.166 C 
HETATM    3  F7  UNL     1     -34.303   6.823   6.488  1.00 20.00    -0.202 F 
ENDROOT
BRANCH   1   4
HETATM    4  C5  UNL     1     -32.730   6.265   3.145  1.00 20.00     0.410 C 
HETATM    5  F8  UNL     1     -33.761   5.660   2.503  1.00 20.00    -0.167 F 
HETATM    6  F9  UNL     1     -31.729   5.352   3.224  1.00 20.00    -0.167 F 
HETATM    7  F10 UNL     1     -32.291   7.257   2.329  1.00 20.00    -0.167 F 
ENDBRANCH   1   4
BRANCH   2   8
HETATM    8  C3  UNL     1     -34.900   5.117   4.948  1.00 20.00     0.183 C 
HETATM    9  C4  UNL     1     -34.617   3.783   5.587  1.00 20.00     0.099 C 
HETATM   10  O6  UNL     1     -35.832   5.259   4.156  1.00 20.00    -0.290 OA
ENDBRANCH   2   8
TORSDOF 2
ENDMDL
MODEL 4
REMARK VINA RESULT:      -4.8      2.326      4.007
REMARK  2 active torsions:
REMARK  status: ('A' for Active; 'I' for Inactive)
REMARK    1  A    between atoms: C1_1  and  C5_5 
REMARK    2  A    between atoms: C2_2  and  C3_3 
ROOT
HETATM    1  C1  UNL     1     -34.235   5.539   6.381  1.00 20.00     0.134 C 
HETATM    2  C2  UNL     1     -33.556   6.446   5.670  1.00 20.00     0.166 C 
HETATM    3  F7  UNL     1     -32.837   7.410   6.284  1.00 20.00    -0.202 F 
ENDROOT
BRANCH   1   4
HETATM    4  C5  UNL     1     -35.054   4.442   5.796  1.00 20.00     0.410 C 
HETATM    5  F8  UNL     1     -35.856   4.843   4.777  1.00 20.00    -0.167 F 
HETATM    6  F9  UNL     1     -35.861   3.878   6.730  1.00 20.00    -0.167 F 
HETATM    7  F10 UNL     1     -34.270   3.448   5.306  1.00 20.00    -0.167 F 
ENDBRANCH   1   4
BRANCH   2   8
HETATM    8  C3  UNL     1     -33.503   6.512   4.188  1.00 20.00     0.183 C 
HETATM    9  C4  UNL     1     -32.270   6.032   3.469  1.00 20.00     0.099 C 
HETATM   10  O6  UNL     1     -34.469   6.958   3.568  1.00 20.00    -0.290 OA
ENDBRANCH   2   8
TORSDOF 2
ENDMDL
MODEL 5
REMARK VINA RESULT:      -4.8      2.339      3.983
REMARK  2 active torsions:
REMARK  status: ('A' for Active; 'I' for Inactive)
REMARK    1  A    between atoms: C1_1  and  C5_5 
REMARK    2  A    between atoms: C2_2  and  C3_3 
ROOT
HETATM    1  C1  UNL     1     -34.232   5.534   6.388  1.00 20.00     0.134 C 
HETATM    2  C2  UNL     1     -33.566   6.445   5.670  1.00 20.00     0.166 C 
HETATM    3  F7  UNL     1     -32.854   7.419   6.277  1.00 20.00    -0.202 F 
ENDROOT
BRANCH   1   4
HETATM    4  C5  UNL     1     -35.042   4.425   5.810  1.00 20.00     0.410 C 
HETATM    5  F8  UNL     1     -34.296   3.406   5.313  1.00 20.00    -0.167 F 
HETATM    6  F9  UNL     1     -35.826   4.867   4.794  1.00 20.00    -0.167 F 
HETATM    7  F10 UNL     1     -35.871   3.884   6.738  1.00 20.00    -0.167 F 
ENDBRANCH   1   4
BRANCH   2   8
HETATM    8  C3  UNL     1     -33.519   6.506   4.188  1.00 20.00     0.183 C 
HETATM    9  C4  UNL     1     -32.325   5.947   3.460  1.00 20.00     0.099 C 
HETATM   10  O6  UNL     1     -34.459   7.012   3.574  1.00 20.00    -0.290 OA
ENDBRANCH   2   8
TORSDOF 2
ENDMDL
MODEL 6
REMARK VINA RESULT:      -4.6     11.808     12.390
REMARK  2 active torsions:
REMARK  status: ('A' for Active; 'I' for Inactive)
REMARK    1  A    between atoms: C1_1  and  C5_5 
REMARK    2  A    between atoms: C2_2  and  C3_3 
ROOT
HETATM    1  C1  UNL     1     -35.153  15.331  -3.100  1.00 20.00     0.134 C 
HETATM    2  C2  UNL     1     -35.748  14.465  -3.927  1.00 20.00     0.166 C 
HETATM    3  F7  UNL     1     -37.062  14.180  -3.804  1.00 20.00    -0.202 F 
ENDROOT
BRANCH   1   4
HETATM    4  C5  UNL     1     -33.713  15.708  -3.157  1.00 20.00     0.410 C 
HETATM    5  F8  UNL     1     -32.875  14.646  -3.265  1.00 20.00    -0.167 F 
HETATM    6  F9  UNL     1     -33.339  16.390  -2.045  1.00 20.00    -0.167 F 
HETATM    7  F10 UNL     1     -33.457  16.516  -4.217  1.00 20.00    -0.167 F 
ENDBRANCH   1   4
BRANCH   2   8
HETATM    8  C3  UNL     1     -35.080  13.737  -5.035  1.00 20.00     0.183 C 
HETATM    9  C4  UNL     1     -34.932  14.404  -6.377  1.00 20.00     0.099 C 
HETATM   10  O6  UNL     1     -34.655  12.598  -4.840  1.00 20.00    -0.290 OA
ENDBRANCH   2   8
TORSDOF 2
ENDMDL
MODEL 7
REMARK VINA RESULT:      -4.5      2.008      3.595
REMARK  2 active torsions:
REMARK  status: ('A' for Active; 'I' for Inactive)
REMARK    1  A    between atoms: C1_1  and  C5_5 
REMARK    2  A    between atoms: C2_2  and  C3_3 
ROOT
HETATM    1  C1  UNL     1     -34.367   5.974   4.909  1.00 20.00     0.134 C 
HETATM    2  C2  UNL     1     -33.199   6.595   4.713  1.00 20.00     0.166 C 
HETATM    3  F7  UNL     1     -32.624   7.316   5.699  1.00 20.00    -0.202 F 
ENDROOT
BRANCH   1   4
HETATM    4  C5  UNL     1     -35.077   5.158   3.884  1.00 20.00     0.410 C 
HETATM    5  F8  UNL     1     -34.420   5.078   2.700  1.00 20.00    -0.167 F 
HETATM    6  F9  UNL     1     -36.306   5.667   3.616  1.00 20.00    -0.167 F 
HETATM    7  F10 UNL     1     -35.265   3.884   4.312  1.00 20.00    -0.167 F 
ENDBRANCH   1   4
BRANCH   2   8
HETATM    8  C3  UNL     1     -32.416   6.577   3.452  1.00 20.00     0.183 C 
HETATM    9  C4  UNL     1     -32.428   7.786   2.554  1.00 20.00     0.099 C 
HETATM   10  O6  UNL     1     -31.767   5.572   3.158  1.00 20.00    -0.290 OA
ENDBRANCH   2   8
TORSDOF 2
ENDMDL
MODEL 8
REMARK VINA RESULT:      -4.4     11.421     12.342
REMARK  2 active torsions:
REMARK  status: ('A' for Active; 'I' for Inactive)
REMARK    1  A    between atoms: C1_1  and  C5_5 
REMARK    2  A    between atoms: C2_2  and  C3_3 
ROOT
HETATM    1  C1  UNL     1     -34.609  14.913  -3.238  1.00 20.00     0.134 C 
HETATM    2  C2  UNL     1     -35.832  15.453  -3.243  1.00 20.00     0.166 C 
HETATM    3  F7  UNL     1     -36.141  16.475  -2.416  1.00 20.00    -0.202 F 
ENDROOT
BRANCH   1   4
HETATM    4  C5  UNL     1     -34.176  13.787  -4.111  1.00 20.00     0.410 C 
HETATM    5  F8  UNL     1     -35.014  12.720  -4.082  1.00 20.00    -0.167 F 
HETATM    6  F9  UNL     1     -32.949  13.330  -3.752  1.00 20.00    -0.167 F 
HETATM    7  F10 UNL     1     -34.084  14.175  -5.408  1.00 20.00    -0.167 F 
ENDBRANCH   1   4
BRANCH   2   8
HETATM    8  C3  UNL     1     -36.958  15.027  -4.112  1.00 20.00     0.183 C 
HETATM    9  C4  UNL     1     -37.103  15.628  -5.485  1.00 20.00     0.099 C 
HETATM   10  O6  UNL     1     -37.756  14.186  -3.697  1.00 20.00    -0.290 OA
ENDBRANCH   2   8
TORSDOF 2
ENDMDL
MODEL 9
REMARK VINA RESULT:      -4.4     11.491     12.477
REMARK  2 active torsions:
REMARK  status: ('A' for Active; 'I' for Inactive)
REMARK    1  A    between atoms: C1_1  and  C5_5 
REMARK    2  A    between atoms: C2_2  and  C3_3 
ROOT
HETATM    1  C1  UNL     1     -34.099  15.316  -2.901  1.00 20.00     0.134 C 
HETATM    2  C2  UNL     1     -33.693  14.323  -3.699  1.00 20.00     0.166 C 
HETATM    3  F7  UNL     1     -32.442  13.825  -3.604  1.00 20.00    -0.202 F 
ENDROOT
BRANCH   1   4
HETATM    4  C5  UNL     1     -35.456  15.929  -2.931  1.00 20.00     0.410 C 
HETATM    5  F8  UNL     1     -35.708  16.750  -1.881  1.00 20.00    -0.167 F 
HETATM    6  F9  UNL     1     -36.425  14.978  -2.926  1.00 20.00    -0.167 F 
HETATM    7  F10 UNL     1     -35.639  16.667  -4.055  1.00 20.00    -0.167 F 
ENDBRANCH   1   4
BRANCH   2   8
HETATM    8  C3  UNL     1     -34.520  13.666  -4.743  1.00 20.00     0.183 C 
HETATM    9  C4  UNL     1     -34.655  14.313  -6.097  1.00 20.00     0.099 C 
HETATM   10  O6  UNL     1     -35.082  12.601  -4.487  1.00 20.00    -0.290 OA
ENDBRANCH   2   8
TORSDOF 2
ENDMDL
