MODEL 1
REMARK VINA RESULT:      -5.1      0.000      0.000
REMARK  2 active torsions:
REMARK  status: ('A' for Active; 'I' for Inactive)
REMARK    1  A    between atoms: C2_2  and  C5_5 
REMARK    2  A    between atoms: C7_7  and  C10_10 
ROOT
HETATM    1  C1  UNL     1     -34.724  15.539  -2.230  1.00 20.00    -0.006 A 
HETATM    2  C2  UNL     1     -34.064  15.122  -3.313  1.00 20.00     0.005 A 
HETATM    3  C3  UNL     1     -33.469  16.334  -3.907  1.00 20.00     0.159 A 
HETATM    4  C6  UNL     1     -33.837  17.569  -3.132  1.00 20.00     0.092 A 
HETATM    5  C7  UNL     1     -34.656  17.014  -1.963  1.00 20.00     0.019 A 
HETATM    6  O11 UNL     1     -32.775  16.333  -4.912  1.00 20.00    -0.292 OA
ENDROOT
BRANCH   5   7
HETATM    7  C10 UNL     1     -34.010  17.310  -0.613  1.00 20.00    -0.015 C 
HETATM    8  C8  UNL     1     -33.157  18.576  -0.689  1.00 20.00     0.010 C 
HETATM    9  C9  UNL     1     -35.073  17.444   0.475  1.00 20.00     0.010 C 
ENDBRANCH   5   7
BRANCH   2  10
HETATM   10  C5  UNL     1     -33.935  13.801  -3.827  1.00 20.00     0.004 C 
HETATM   11  C4  UNL     1     -34.881  13.295  -4.651  1.00 20.00     0.012 C 
ENDBRANCH   2  10
TORSDOF 2
ENDMDL
MODEL 2
REMARK VINA RESULT:      -5.0      2.064      3.177
REMARK  2 active torsions:
REMARK  status: ('A' for Active; 'I' for Inactive)
REMARK    1  A    between atoms: C2_2  and  C5_5 
REMARK    2  A    between atoms: C7_7  and  C10_10 
ROOT
HETATM    1  C1  UNL     1     -33.924  15.694  -5.162  1.00 20.00    -0.006 A 
HETATM    2  C2  UNL     1     -34.669  14.653  -5.543  1.00 20.00     0.005 A 
HETATM    3  C3  UNL     1     -34.469  13.621  -4.508  1.00 20.00     0.159 A 
HETATM    4  C6  UNL     1     -33.502  14.076  -3.450  1.00 20.00     0.092 A 
HETATM    5  C7  UNL     1     -33.169  15.508  -3.878  1.00 20.00     0.019 A 
HETATM    6  O11 UNL     1     -35.014  12.527  -4.519  1.00 20.00    -0.292 OA
ENDROOT
BRANCH   5   7
HETATM    7  C10 UNL     1     -33.585  16.536  -2.830  1.00 20.00    -0.015 C 
HETATM    8  C8  UNL     1     -33.984  17.853  -3.495  1.00 20.00     0.010 C 
HETATM    9  C9  UNL     1     -34.731  15.999  -1.974  1.00 20.00     0.010 C 
ENDBRANCH   5   7
BRANCH   2  10
HETATM   10  C5  UNL     1     -35.493  14.519  -6.696  1.00 20.00     0.004 C 
HETATM   11  C4  UNL     1     -35.015  14.848  -7.917  1.00 20.00     0.012 C 
ENDBRANCH   2  10
TORSDOF 2
ENDMDL
MODEL 3
REMARK VINA RESULT:      -4.9      1.758      4.504
REMARK  2 active torsions:
REMARK  status: ('A' for Active; 'I' for Inactive)
REMARK    1  A    between atoms: C2_2  and  C5_5 
REMARK    2  A    between atoms: C7_7  and  C10_10 
ROOT
HETATM    1  C1  UNL     1     -35.551  15.203  -3.346  1.00 20.00    -0.006 A 
HETATM    2  C2  UNL     1     -34.325  15.520  -2.921  1.00 20.00     0.005 A 
HETATM    3  C3  UNL     1     -33.409  14.605  -3.629  1.00 20.00     0.159 A 
HETATM    4  C6  UNL     1     -34.157  13.648  -4.516  1.00 20.00     0.092 A 
HETATM    5  C7  UNL     1     -35.614  14.091  -4.353  1.00 20.00     0.019 A 
HETATM    6  O11 UNL     1     -32.195  14.616  -3.498  1.00 20.00    -0.292 OA
ENDROOT
BRANCH   5   7
HETATM    7  C10 UNL     1     -36.225  14.562  -5.669  1.00 20.00    -0.015 C 
HETATM    8  C8  UNL     1     -36.745  15.994  -5.541  1.00 20.00     0.010 C 
HETATM    9  C9  UNL     1     -35.207  14.462  -6.803  1.00 20.00     0.010 C 
ENDBRANCH   5   7
BRANCH   2  10
HETATM   10  C5  UNL     1     -33.935  16.517  -1.983  1.00 20.00     0.004 C 
HETATM   11  C4  UNL     1     -34.603  16.653  -0.816  1.00 20.00     0.012 C 
ENDBRANCH   2  10
TORSDOF 2
ENDMDL
MODEL 4
REMARK VINA RESULT:      -4.7      1.487      4.315
REMARK  2 active torsions:
REMARK  status: ('A' for Active; 'I' for Inactive)
REMARK    1  A    between atoms: C2_2  and  C5_5 
REMARK    2  A    between atoms: C7_7  and  C10_10 
ROOT
HETATM    1  C1  UNL     1     -33.578  15.599  -3.126  1.00 20.00    -0.006 A 
HETATM    2  C2  UNL     1     -33.676  16.827  -2.610  1.00 20.00     0.005 A 
HETATM    3  C3  UNL     1     -33.682  17.744  -3.765  1.00 20.00     0.159 A 
HETATM    4  C6  UNL     1     -33.540  17.001  -5.065  1.00 20.00     0.092 A 
HETATM    5  C7  UNL     1     -33.515  15.534  -4.624  1.00 20.00     0.019 A 
HETATM    6  O11 UNL     1     -33.776  18.959  -3.673  1.00 20.00    -0.292 OA
ENDROOT
BRANCH   5   7
HETATM    7  C10 UNL     1     -34.683  14.739  -5.200  1.00 20.00    -0.015 C 
HETATM    8  C8  UNL     1     -34.604  14.692  -6.726  1.00 20.00     0.010 C 
HETATM    9  C9  UNL     1     -34.709  13.325  -4.622  1.00 20.00     0.010 C 
ENDBRANCH   5   7
BRANCH   2  10
HETATM   10  C5  UNL     1     -33.758  17.217  -1.244  1.00 20.00     0.004 C 
HETATM   11  C4  UNL     1     -34.793  16.804  -0.478  1.00 20.00     0.012 C 
ENDBRANCH   2  10
TORSDOF 2
ENDMDL
MODEL 5
REMARK VINA RESULT:      -4.5      1.578      4.436
REMARK  2 active torsions:
REMARK  status: ('A' for Active; 'I' for Inactive)
REMARK    1  A    between atoms: C2_2  and  C5_5 
REMARK    2  A    between atoms: C7_7  and  C10_10 
ROOT
HETATM    1  C1  UNL     1     -33.801  15.300  -3.174  1.00 20.00    -0.006 A 
HETATM    2  C2  UNL     1     -34.446  16.293  -2.555  1.00 20.00     0.005 A 
HETATM    3  C3  UNL     1     -34.916  17.192  -3.625  1.00 20.00     0.159 A 
HETATM    4  C6  UNL     1     -34.484  16.710  -4.983  1.00 20.00     0.092 A 
HETATM    5  C7  UNL     1     -33.763  15.395  -4.672  1.00 20.00     0.019 A 
HETATM    6  O11 UNL     1     -35.564  18.209  -3.429  1.00 20.00    -0.292 OA
ENDROOT
BRANCH   5   7
HETATM    7  C10 UNL     1     -34.441  14.196  -5.326  1.00 20.00    -0.015 C 
HETATM    8  C8  UNL     1     -35.048  13.275  -4.268  1.00 20.00     0.010 C 
HETATM    9  C9  UNL     1     -35.511  14.654  -6.315  1.00 20.00     0.010 C 
ENDBRANCH   5   7
BRANCH   2  10
HETATM   10  C5  UNL     1     -34.657  16.487  -1.160  1.00 20.00     0.004 C 
HETATM   11  C4  UNL     1     -33.987  17.456  -0.498  1.00 20.00     0.012 C 
ENDBRANCH   2  10
TORSDOF 2
ENDMDL
MODEL 6
REMARK VINA RESULT:      -4.4      2.171      2.716
REMARK  2 active torsions:
REMARK  status: ('A' for Active; 'I' for Inactive)
REMARK    1  A    between atoms: C2_2  and  C5_5 
REMARK    2  A    between atoms: C7_7  and  C10_10 
ROOT
HETATM    1  C1  UNL     1     -35.312  16.208  -3.965  1.00 20.00    -0.006 A 
HETATM    2  C2  UNL     1     -35.862  15.016  -4.209  1.00 20.00     0.005 A 
HETATM    3  C3  UNL     1     -34.790  14.028  -3.981  1.00 20.00     0.159 A 
HETATM    4  C6  UNL     1     -33.495  14.694  -3.604  1.00 20.00     0.092 A 
HETATM    5  C7  UNL     1     -33.870  16.178  -3.551  1.00 20.00     0.019 A 
HETATM    6  O11 UNL     1     -34.936  12.821  -4.096  1.00 20.00    -0.292 OA
ENDROOT
BRANCH   5   7
HETATM    7  C10 UNL     1     -33.673  16.774  -2.161  1.00 20.00    -0.015 C 
HETATM    8  C8  UNL     1     -33.603  18.299  -2.233  1.00 20.00     0.010 C 
HETATM    9  C9  UNL     1     -34.794  16.333  -1.222  1.00 20.00     0.010 C 
ENDBRANCH   5   7
BRANCH   2  10
HETATM   10  C5  UNL     1     -37.193  14.712  -4.612  1.00 20.00     0.004 C 
HETATM   11  C4  UNL     1     -38.218  14.860  -3.743  1.00 20.00     0.012 C 
ENDBRANCH   2  10
TORSDOF 2
ENDMDL
MODEL 7
REMARK VINA RESULT:      -4.4      1.703      4.165
REMARK  2 active torsions:
REMARK  status: ('A' for Active; 'I' for Inactive)
REMARK    1  A    between atoms: C2_2  and  C5_5 
REMARK    2  A    between atoms: C7_7  and  C10_10 
ROOT
HETATM    1  C1  UNL     1     -35.196  15.021  -2.811  1.00 20.00    -0.006 A 
HETATM    2  C2  UNL     1     -34.184  15.887  -2.901  1.00 20.00     0.005 A 
HETATM    3  C3  UNL     1     -33.626  15.710  -4.255  1.00 20.00     0.159 A 
HETATM    4  C6  UNL     1     -34.345  14.628  -5.013  1.00 20.00     0.092 A 
HETATM    5  C7  UNL     1     -35.444  14.193  -4.039  1.00 20.00     0.019 A 
HETATM    6  O11 UNL     1     -32.688  16.354  -4.698  1.00 20.00    -0.292 OA
ENDROOT
BRANCH   5   7
HETATM    7  C10 UNL     1     -36.842  14.430  -4.601  1.00 20.00    -0.015 C 
HETATM    8  C8  UNL     1     -37.708  15.187  -3.594  1.00 20.00     0.010 C 
HETATM    9  C9  UNL     1     -36.769  15.191  -5.924  1.00 20.00     0.010 C 
ENDBRANCH   5   7
BRANCH   2  10
HETATM   10  C5  UNL     1     -33.705  16.804  -1.923  1.00 20.00     0.004 C 
HETATM   11  C4  UNL     1     -34.362  16.955  -0.751  1.00 20.00     0.012 C 
ENDBRANCH   2  10
TORSDOF 2
ENDMDL
MODEL 8
REMARK VINA RESULT:      -4.3      2.818      4.174
REMARK  2 active torsions:
REMARK  status: ('A' for Active; 'I' for Inactive)
REMARK    1  A    between atoms: C2_2  and  C5_5 
REMARK    2  A    between atoms: C7_7  and  C10_10 
ROOT
HETATM    1  C1  UNL     1     -35.120  15.220  -5.902  1.00 20.00    -0.006 A 
HETATM    2  C2  UNL     1     -36.425  15.103  -5.644  1.00 20.00     0.005 A 
HETATM    3  C3  UNL     1     -36.514  14.412  -4.344  1.00 20.00     0.159 A 
HETATM    4  C6  UNL     1     -35.152  14.062  -3.809  1.00 20.00     0.092 A 
HETATM    5  C7  UNL     1     -34.205  14.656  -4.855  1.00 20.00     0.019 A 
HETATM    6  O11 UNL     1     -37.564  14.146  -3.781  1.00 20.00    -0.292 OA
ENDROOT
BRANCH   5   7
HETATM    7  C10 UNL     1     -33.297  15.732  -4.266  1.00 20.00    -0.015 C 
HETATM    8  C8  UNL     1     -33.369  17.013  -5.098  1.00 20.00     0.010 C 
HETATM    9  C9  UNL     1     -33.668  16.015  -2.812  1.00 20.00     0.010 C 
ENDBRANCH   5   7
BRANCH   2  10
HETATM   10  C5  UNL     1     -37.532  15.534  -6.428  1.00 20.00     0.004 C 
HETATM   11  C4  UNL     1     -37.696  15.072  -7.688  1.00 20.00     0.012 C 
ENDBRANCH   2  10
TORSDOF 2
ENDMDL
MODEL 9
REMARK VINA RESULT:      -4.3      2.159      4.838
REMARK  2 active torsions:
REMARK  status: ('A' for Active; 'I' for Inactive)
REMARK    1  A    between atoms: C2_2  and  C5_5 
REMARK    2  A    between atoms: C7_7  and  C10_10 
ROOT
HETATM    1  C1  UNL     1     -35.468  15.631  -4.295  1.00 20.00    -0.006 A 
HETATM    2  C2  UNL     1     -34.465  15.214  -3.517  1.00 20.00     0.005 A 
HETATM    3  C3  UNL     1     -34.031  13.924  -4.085  1.00 20.00     0.159 A 
HETATM    4  C6  UNL     1     -34.867  13.532  -5.273  1.00 20.00     0.092 A 
HETATM    5  C7  UNL     1     -35.816  14.722  -5.437  1.00 20.00     0.019 A 
HETATM    6  O11 UNL     1     -33.114  13.254  -3.637  1.00 20.00    -0.292 OA
ENDROOT
BRANCH   5   7
HETATM    7  C10 UNL     1     -35.638  15.420  -6.782  1.00 20.00    -0.015 C 
HETATM    8  C8  UNL     1     -34.373  16.277  -6.783  1.00 20.00     0.010 C 
HETATM    9  C9  UNL     1     -35.595  14.400  -7.918  1.00 20.00     0.010 C 
ENDBRANCH   5   7
BRANCH   2  10
HETATM   10  C5  UNL     1     -33.903  15.844  -2.371  1.00 20.00     0.004 C 
HETATM   11  C4  UNL     1     -34.707  16.383  -1.427  1.00 20.00     0.012 C 
ENDBRANCH   2  10
TORSDOF 2
ENDMDL
