MODEL 1
REMARK VINA RESULT:      -5.2      0.000      0.000
REMARK  2 active torsions:
REMARK  status: ('A' for Active; 'I' for Inactive)
REMARK    1  A    between atoms: C1_1  and  C2_2 
REMARK    2  A    between atoms: C1_1  and  C3_3 
ROOT
HETATM    1  C1  UNL     1     -33.876   5.922   4.554  1.00 20.00     0.280 C 
HETATM    2  O4  UNL     1     -33.672   6.603   5.559  1.00 20.00    -0.284 OA
ENDROOT
BRANCH   1   3
HETATM    3  C2  UNL     1     -34.930   4.847   4.541  1.00 20.00     0.344 C 
HETATM    4  F5  UNL     1     -36.100   5.316   4.029  1.00 20.00    -0.224 F 
HETATM    5 CL9  UNL     1     -35.206   4.310   6.201  1.00 20.00    -0.081 Cl
ENDBRANCH   1   3
BRANCH   1   6
HETATM    6  C3  UNL     1     -33.101   6.158   3.289  1.00 20.00     0.455 C 
HETATM    7  F6  UNL     1     -33.635   5.493   2.234  1.00 20.00    -0.163 F 
HETATM    8  F7  UNL     1     -31.809   5.756   3.397  1.00 20.00    -0.163 F 
HETATM    9  F8  UNL     1     -33.074   7.473   2.948  1.00 20.00    -0.163 F 
ENDBRANCH   1   6
TORSDOF 2
ENDMDL
MODEL 2
REMARK VINA RESULT:      -5.1      0.003      1.258
REMARK  2 active torsions:
REMARK  status: ('A' for Active; 'I' for Inactive)
REMARK    1  A    between atoms: C1_1  and  C2_2 
REMARK    2  A    between atoms: C1_1  and  C3_3 
ROOT
HETATM    1  C1  UNL     1     -33.874   5.924   4.555  1.00 20.00     0.280 C 
HETATM    2  O4  UNL     1     -33.671   6.603   5.562  1.00 20.00    -0.284 OA
ENDROOT
BRANCH   1   3
HETATM    3  C2  UNL     1     -34.928   4.849   4.540  1.00 20.00     0.344 C 
HETATM    4  F5  UNL     1     -36.098   5.318   4.027  1.00 20.00    -0.224 F 
HETATM    5 CL9  UNL     1     -35.206   4.309   6.199  1.00 20.00    -0.081 Cl
ENDBRANCH   1   3
BRANCH   1   6
HETATM    6  C3  UNL     1     -33.100   6.163   3.290  1.00 20.00     0.455 C 
HETATM    7  F6  UNL     1     -31.810   5.754   3.399  1.00 20.00    -0.163 F 
HETATM    8  F7  UNL     1     -33.072   7.475   2.946  1.00 20.00    -0.163 F 
HETATM    9  F8  UNL     1     -33.633   5.494   2.235  1.00 20.00    -0.163 F 
ENDBRANCH   1   6
TORSDOF 2
ENDMDL
MODEL 3
REMARK VINA RESULT:      -5.1      2.001      2.657
REMARK  2 active torsions:
REMARK  status: ('A' for Active; 'I' for Inactive)
REMARK    1  A    between atoms: C1_1  and  C2_2 
REMARK    2  A    between atoms: C1_1  and  C3_3 
ROOT
HETATM    1  C1  UNL     1     -33.961   5.902   4.705  1.00 20.00     0.280 C 
HETATM    2  O4  UNL     1     -33.141   6.652   4.175  1.00 20.00    -0.284 OA
ENDROOT
BRANCH   1   3
HETATM    3  C2  UNL     1     -34.060   5.788   6.202  1.00 20.00     0.344 C 
HETATM    4  F5  UNL     1     -35.322   5.455   6.585  1.00 20.00    -0.224 F 
HETATM    5 CL9  UNL     1     -33.638   7.348   6.915  1.00 20.00    -0.081 Cl
ENDBRANCH   1   3
BRANCH   1   6
HETATM    6  C3  UNL     1     -34.919   5.093   3.876  1.00 20.00     0.455 C 
HETATM    7  F6  UNL     1     -36.143   5.674   3.802  1.00 20.00    -0.163 F 
HETATM    8  F7  UNL     1     -35.103   3.846   4.378  1.00 20.00    -0.163 F 
HETATM    9  F8  UNL     1     -34.482   4.940   2.600  1.00 20.00    -0.163 F 
ENDBRANCH   1   6
TORSDOF 2
ENDMDL
MODEL 4
REMARK VINA RESULT:      -5.0      2.030      3.285
REMARK  2 active torsions:
REMARK  status: ('A' for Active; 'I' for Inactive)
REMARK    1  A    between atoms: C1_1  and  C2_2 
REMARK    2  A    between atoms: C1_1  and  C3_3 
ROOT
HETATM    1  C1  UNL     1     -34.079   5.919   4.809  1.00 20.00     0.280 C 
HETATM    2  O4  UNL     1     -33.519   6.473   5.756  1.00 20.00    -0.284 OA
ENDROOT
BRANCH   1   3
HETATM    3  C2  UNL     1     -33.701   6.233   3.387  1.00 20.00     0.344 C 
HETATM    4  F5  UNL     1     -34.010   5.200   2.558  1.00 20.00    -0.224 F 
HETATM    5 CL9  UNL     1     -31.958   6.520   3.319  1.00 20.00    -0.081 Cl
ENDBRANCH   1   3
BRANCH   1   6
HETATM    6  C3  UNL     1     -35.143   4.883   5.038  1.00 20.00     0.455 C 
HETATM    7  F6  UNL     1     -35.577   4.874   6.323  1.00 20.00    -0.163 F 
HETATM    8  F7  UNL     1     -34.705   3.629   4.758  1.00 20.00    -0.163 F 
HETATM    9  F8  UNL     1     -36.235   5.098   4.259  1.00 20.00    -0.163 F 
ENDBRANCH   1   6
TORSDOF 2
ENDMDL
MODEL 5
REMARK VINA RESULT:      -5.0      2.032      3.332
REMARK  2 active torsions:
REMARK  status: ('A' for Active; 'I' for Inactive)
REMARK    1  A    between atoms: C1_1  and  C2_2 
REMARK    2  A    between atoms: C1_1  and  C3_3 
ROOT
HETATM    1  C1  UNL     1     -34.061   5.936   4.845  1.00 20.00     0.280 C 
HETATM    2  O4  UNL     1     -33.487   6.497   5.779  1.00 20.00    -0.284 OA
ENDROOT
BRANCH   1   3
HETATM    3  C2  UNL     1     -33.702   6.238   3.415  1.00 20.00     0.344 C 
HETATM    4  F5  UNL     1     -33.975   5.178   2.607  1.00 20.00    -0.224 F 
HETATM    5 CL9  UNL     1     -31.973   6.591   3.331  1.00 20.00    -0.081 Cl
ENDBRANCH   1   3
BRANCH   1   6
HETATM    6  C3  UNL     1     -35.123   4.903   5.097  1.00 20.00     0.455 C 
HETATM    7  F6  UNL     1     -36.200   5.073   4.289  1.00 20.00    -0.163 F 
HETATM    8  F7  UNL     1     -35.578   4.937   6.375  1.00 20.00    -0.163 F 
HETATM    9  F8  UNL     1     -34.666   3.643   4.878  1.00 20.00    -0.163 F 
ENDBRANCH   1   6
TORSDOF 2
ENDMDL
MODEL 6
REMARK VINA RESULT:      -5.0      2.751      3.526
REMARK  2 active torsions:
REMARK  status: ('A' for Active; 'I' for Inactive)
REMARK    1  A    between atoms: C1_1  and  C2_2 
REMARK    2  A    between atoms: C1_1  and  C3_3 
ROOT
HETATM    1  C1  UNL     1     -34.792   4.797   4.868  1.00 20.00     0.280 C 
HETATM    2  O4  UNL     1     -35.156   3.649   4.609  1.00 20.00    -0.284 OA
ENDROOT
BRANCH   1   3
HETATM    3  C2  UNL     1     -34.538   5.800   3.775  1.00 20.00     0.344 C 
HETATM    4  F5  UNL     1     -34.985   5.340   2.576  1.00 20.00    -0.224 F 
HETATM    5 CL9  UNL     1     -32.797   6.084   3.666  1.00 20.00    -0.081 Cl
ENDBRANCH   1   3
BRANCH   1   6
HETATM    6  C3  UNL     1     -34.618   5.251   6.290  1.00 20.00     0.455 C 
HETATM    7  F6  UNL     1     -34.287   6.565   6.367  1.00 20.00    -0.163 F 
HETATM    8  F7  UNL     1     -33.643   4.559   6.933  1.00 20.00    -0.163 F 
HETATM    9  F8  UNL     1     -35.754   5.091   7.017  1.00 20.00    -0.163 F 
ENDBRANCH   1   6
TORSDOF 2
ENDMDL
MODEL 7
REMARK VINA RESULT:      -5.0      2.753      3.537
REMARK  2 active torsions:
REMARK  status: ('A' for Active; 'I' for Inactive)
REMARK    1  A    between atoms: C1_1  and  C2_2 
REMARK    2  A    between atoms: C1_1  and  C3_3 
ROOT
HETATM    1  C1  UNL     1     -34.793   4.795   4.870  1.00 20.00     0.280 C 
HETATM    2  O4  UNL     1     -35.154   3.647   4.610  1.00 20.00    -0.284 OA
ENDROOT
BRANCH   1   3
HETATM    3  C2  UNL     1     -34.541   5.800   3.778  1.00 20.00     0.344 C 
HETATM    4  F5  UNL     1     -34.995   5.344   2.580  1.00 20.00    -0.224 F 
HETATM    5 CL9  UNL     1     -32.800   6.080   3.662  1.00 20.00    -0.081 Cl
ENDBRANCH   1   3
BRANCH   1   6
HETATM    6  C3  UNL     1     -34.620   5.249   6.292  1.00 20.00     0.455 C 
HETATM    7  F6  UNL     1     -33.642   4.559   6.931  1.00 20.00    -0.163 F 
HETATM    8  F7  UNL     1     -35.754   5.095   7.021  1.00 20.00    -0.163 F 
HETATM    9  F8  UNL     1     -34.283   6.563   6.368  1.00 20.00    -0.163 F 
ENDBRANCH   1   6
TORSDOF 2
ENDMDL
MODEL 8
REMARK VINA RESULT:      -4.9      1.787      1.809
REMARK  2 active torsions:
REMARK  status: ('A' for Active; 'I' for Inactive)
REMARK    1  A    between atoms: C1_1  and  C2_2 
REMARK    2  A    between atoms: C1_1  and  C3_3 
ROOT
HETATM    1  C1  UNL     1     -34.750   5.397   4.414  1.00 20.00     0.280 C 
HETATM    2  O4  UNL     1     -35.879   5.129   4.003  1.00 20.00    -0.284 OA
ENDROOT
BRANCH   1   3
HETATM    3  C2  UNL     1     -34.371   5.179   5.854  1.00 20.00     0.344 C 
HETATM    4  F5  UNL     1     -35.403   4.635   6.554  1.00 20.00    -0.224 F 
HETATM    5 CL9  UNL     1     -33.955   6.740   6.569  1.00 20.00    -0.081 Cl
ENDBRANCH   1   3
BRANCH   1   6
HETATM    6  C3  UNL     1     -33.693   5.924   3.484  1.00 20.00     0.455 C 
HETATM    7  F6  UNL     1     -33.809   5.406   2.236  1.00 20.00    -0.163 F 
HETATM    8  F7  UNL     1     -32.440   5.635   3.918  1.00 20.00    -0.163 F 
HETATM    9  F8  UNL     1     -33.759   7.275   3.355  1.00 20.00    -0.163 F 
ENDBRANCH   1   6
TORSDOF 2
ENDMDL
MODEL 9
REMARK VINA RESULT:      -4.9      1.790      2.208
REMARK  2 active torsions:
REMARK  status: ('A' for Active; 'I' for Inactive)
REMARK    1  A    between atoms: C1_1  and  C2_2 
REMARK    2  A    between atoms: C1_1  and  C3_3 
ROOT
HETATM    1  C1  UNL     1     -34.754   5.393   4.418  1.00 20.00     0.280 C 
HETATM    2  O4  UNL     1     -35.882   5.118   4.009  1.00 20.00    -0.284 OA
ENDROOT
BRANCH   1   3
HETATM    3  C2  UNL     1     -34.373   5.178   5.859  1.00 20.00     0.344 C 
HETATM    4  F5  UNL     1     -35.404   4.636   6.562  1.00 20.00    -0.224 F 
HETATM    5 CL9  UNL     1     -33.955   6.741   6.569  1.00 20.00    -0.081 Cl
ENDBRANCH   1   3
BRANCH   1   6
HETATM    6  C3  UNL     1     -33.701   5.925   3.488  1.00 20.00     0.455 C 
HETATM    7  F6  UNL     1     -32.448   5.629   3.916  1.00 20.00    -0.163 F 
HETATM    8  F7  UNL     1     -33.767   7.274   3.358  1.00 20.00    -0.163 F 
HETATM    9  F8  UNL     1     -33.819   5.406   2.238  1.00 20.00    -0.163 F 
ENDBRANCH   1   6
TORSDOF 2
ENDMDL
