MODEL 1
REMARK VINA RESULT:      -5.0      0.000      0.000
REMARK  1 active torsions:
REMARK  status: ('A' for Active; 'I' for Inactive)
REMARK    1  A    between atoms: C1_1  and  C10_10 
ROOT
HETATM    1  C1  UNL     1     -34.593  14.699  -5.471  1.00 20.00     0.025 C 
HETATM    2  C2  UNL     1     -33.952  15.715  -4.908  1.00 20.00    -0.038 C 
HETATM    3  C3  UNL     1     -34.440  13.585  -4.515  1.00 20.00     0.290 C 
HETATM    4  C4  UNL     1     -34.015  17.188  -5.087  1.00 20.00     0.038 C 
HETATM    5  C5  UNL     1     -33.743  17.686  -3.655  1.00 20.00     0.007 C 
HETATM    6  C6  UNL     1     -33.835  16.449  -2.746  1.00 20.00     0.037 C 
HETATM    7  C7  UNL     1     -33.313  15.339  -3.637  1.00 20.00     0.162 C 
HETATM    8  O11 UNL     1     -34.867  12.454  -4.679  1.00 20.00    -0.260 OA
HETATM    9  O12 UNL     1     -33.804  14.035  -3.385  1.00 20.00    -0.308 OA
ENDROOT
BRANCH   1  10
HETATM   10  C10 UNL     1     -35.469  14.644  -6.661  1.00 20.00     0.017 C 
HETATM   11  C8  UNL     1     -36.755  15.447  -6.434  1.00 20.00     0.015 C 
HETATM   12  C9  UNL     1     -34.747  15.147  -7.916  1.00 20.00     0.015 C 
ENDBRANCH   1  10
TORSDOF 1
ENDMDL
MODEL 2
REMARK VINA RESULT:      -4.9      1.650      4.018
REMARK  1 active torsions:
REMARK  status: ('A' for Active; 'I' for Inactive)
REMARK    1  A    between atoms: C1_1  and  C10_10 
ROOT
HETATM    1  C1  UNL     1     -34.273  15.480  -2.942  1.00 20.00     0.025 C 
HETATM    2  C2  UNL     1     -35.472  15.145  -3.401  1.00 20.00    -0.038 C 
HETATM    3  C3  UNL     1     -33.335  14.614  -3.683  1.00 20.00     0.290 C 
HETATM    4  C4  UNL     1     -36.790  15.832  -3.411  1.00 20.00     0.038 C 
HETATM    5  C5  UNL     1     -37.382  15.344  -4.746  1.00 20.00     0.007 C 
HETATM    6  C6  UNL     1     -36.232  14.657  -5.501  1.00 20.00     0.037 C 
HETATM    7  C7  UNL     1     -35.411  14.050  -4.380  1.00 20.00     0.162 C 
HETATM    8  O11 UNL     1     -32.126  14.593  -3.528  1.00 20.00    -0.260 OA
HETATM    9  O12 UNL     1     -34.026  13.886  -4.621  1.00 20.00    -0.308 OA
ENDROOT
BRANCH   1  10
HETATM   10  C10 UNL     1     -33.845  16.588  -2.062  1.00 20.00     0.017 C 
HETATM   11  C8  UNL     1     -33.937  17.935  -2.789  1.00 20.00     0.015 C 
HETATM   12  C9  UNL     1     -34.667  16.629  -0.768  1.00 20.00     0.015 C 
ENDBRANCH   1  10
TORSDOF 1
ENDMDL
MODEL 3
REMARK VINA RESULT:      -4.9      2.381      3.572
REMARK  1 active torsions:
REMARK  status: ('A' for Active; 'I' for Inactive)
REMARK    1  A    between atoms: C1_1  and  C10_10 
ROOT
HETATM    1  C1  UNL     1     -34.295  15.917  -3.178  1.00 20.00     0.025 C 
HETATM    2  C2  UNL     1     -34.503  16.762  -2.176  1.00 20.00    -0.038 C 
HETATM    3  C3  UNL     1     -33.696  16.743  -4.245  1.00 20.00     0.290 C 
HETATM    4  C4  UNL     1     -34.697  16.585  -0.714  1.00 20.00     0.038 C 
HETATM    5  C5  UNL     1     -34.019  17.851  -0.157  1.00 20.00     0.007 C 
HETATM    6  C6  UNL     1     -33.256  18.482  -1.333  1.00 20.00     0.037 C 
HETATM    7  C7  UNL     1     -34.132  18.143  -2.522  1.00 20.00     0.162 C 
HETATM    8  O11 UNL     1     -33.383  16.341  -5.353  1.00 20.00    -0.260 OA
HETATM    9  O12 UNL     1     -33.486  18.016  -3.775  1.00 20.00    -0.308 OA
ENDROOT
BRANCH   1  10
HETATM   10  C10 UNL     1     -34.395  14.443  -3.241  1.00 20.00     0.017 C 
HETATM   11  C8  UNL     1     -35.499  14.008  -4.210  1.00 20.00     0.015 C 
HETATM   12  C9  UNL     1     -33.058  13.806  -3.643  1.00 20.00     0.015 C 
ENDBRANCH   1  10
TORSDOF 1
ENDMDL
MODEL 4
REMARK VINA RESULT:      -4.7      1.245      3.426
REMARK  1 active torsions:
REMARK  status: ('A' for Active; 'I' for Inactive)
REMARK    1  A    between atoms: C1_1  and  C10_10 
ROOT
HETATM    1  C1  UNL     1     -34.681  14.877  -4.592  1.00 20.00     0.025 C 
HETATM    2  C2  UNL     1     -35.002  15.866  -5.417  1.00 20.00    -0.038 C 
HETATM    3  C3  UNL     1     -34.997  13.646  -5.343  1.00 20.00     0.290 C 
HETATM    4  C4  UNL     1     -34.609  17.296  -5.498  1.00 20.00     0.038 C 
HETATM    5  C5  UNL     1     -34.609  17.530  -7.020  1.00 20.00     0.007 C 
HETATM    6  C6  UNL     1     -34.722  16.140  -7.668  1.00 20.00     0.037 C 
HETATM    7  C7  UNL     1     -35.580  15.377  -6.677  1.00 20.00     0.162 C 
HETATM    8  O11 UNL     1     -34.870  12.511  -4.918  1.00 20.00    -0.260 OA
HETATM    9  O12 UNL     1     -35.391  13.976  -6.617  1.00 20.00    -0.308 OA
ENDROOT
BRANCH   1  10
HETATM   10  C10 UNL     1     -33.966  14.886  -3.297  1.00 20.00     0.017 C 
HETATM   11  C8  UNL     1     -32.469  15.141  -3.497  1.00 20.00     0.015 C 
HETATM   12  C9  UNL     1     -34.556  15.926  -2.336  1.00 20.00     0.015 C 
ENDBRANCH   1  10
TORSDOF 1
ENDMDL
MODEL 5
REMARK VINA RESULT:      -4.7      2.005      3.992
REMARK  1 active torsions:
REMARK  status: ('A' for Active; 'I' for Inactive)
REMARK    1  A    between atoms: C1_1  and  C10_10 
ROOT
HETATM    1  C1  UNL     1     -35.760  15.009  -4.448  1.00 20.00     0.025 C 
HETATM    2  C2  UNL     1     -35.508  15.437  -5.679  1.00 20.00    -0.038 C 
HETATM    3  C3  UNL     1     -37.214  14.755  -4.432  1.00 20.00     0.290 C 
HETATM    4  C4  UNL     1     -34.274  15.502  -6.505  1.00 20.00     0.038 C 
HETATM    5  C5  UNL     1     -34.834  15.247  -7.917  1.00 20.00     0.007 C 
HETATM    6  C6  UNL     1     -36.286  14.778  -7.724  1.00 20.00     0.037 C 
HETATM    7  C7  UNL     1     -36.727  15.547  -6.494  1.00 20.00     0.162 C 
HETATM    8  O11 UNL     1     -37.850  14.375  -3.464  1.00 20.00    -0.260 OA
HETATM    9  O12 UNL     1     -37.727  14.947  -5.691  1.00 20.00    -0.308 OA
ENDROOT
BRANCH   1  10
HETATM   10  C10 UNL     1     -34.849  14.631  -3.346  1.00 20.00     0.017 C 
HETATM   11  C8  UNL     1     -33.873  13.536  -3.790  1.00 20.00     0.015 C 
HETATM   12  C9  UNL     1     -34.076  15.844  -2.814  1.00 20.00     0.015 C 
ENDBRANCH   1  10
TORSDOF 1
ENDMDL
MODEL 6
REMARK VINA RESULT:      -4.6      1.818      3.080
REMARK  1 active torsions:
REMARK  status: ('A' for Active; 'I' for Inactive)
REMARK    1  A    between atoms: C1_1  and  C10_10 
ROOT
HETATM    1  C1  UNL     1     -35.281  15.043  -4.859  1.00 20.00     0.025 C 
HETATM    2  C2  UNL     1     -36.308  15.851  -4.630  1.00 20.00    -0.038 C 
HETATM    3  C3  UNL     1     -35.690  13.747  -4.284  1.00 20.00     0.290 C 
HETATM    4  C4  UNL     1     -36.757  17.129  -5.240  1.00 20.00     0.038 C 
HETATM    5  C5  UNL     1     -38.289  16.995  -5.143  1.00 20.00     0.007 C 
HETATM    6  C6  UNL     1     -38.568  15.535  -4.751  1.00 20.00     0.037 C 
HETATM    7  C7  UNL     1     -37.381  15.191  -3.872  1.00 20.00     0.162 C 
HETATM    8  O11 UNL     1     -35.004  12.739  -4.264  1.00 20.00    -0.260 OA
HETATM    9  O12 UNL     1     -36.986  13.832  -3.838  1.00 20.00    -0.308 OA
ENDROOT
BRANCH   1  10
HETATM   10  C10 UNL     1     -34.063  15.229  -5.677  1.00 20.00     0.017 C 
HETATM   11  C8  UNL     1     -34.399  15.232  -7.172  1.00 20.00     0.015 C 
HETATM   12  C9  UNL     1     -33.322  16.518  -5.299  1.00 20.00     0.015 C 
ENDBRANCH   1  10
TORSDOF 1
ENDMDL
MODEL 7
REMARK VINA RESULT:      -4.6      2.300      4.642
REMARK  1 active torsions:
REMARK  status: ('A' for Active; 'I' for Inactive)
REMARK    1  A    between atoms: C1_1  and  C10_10 
ROOT
HETATM    1  C1  UNL     1     -34.619  16.488  -2.680  1.00 20.00     0.025 C 
HETATM    2  C2  UNL     1     -34.275  15.532  -3.533  1.00 20.00    -0.038 C 
HETATM    3  C3  UNL     1     -36.048  16.738  -2.956  1.00 20.00     0.290 C 
HETATM    4  C4  UNL     1     -33.164  14.546  -3.568  1.00 20.00     0.038 C 
HETATM    5  C5  UNL     1     -33.847  13.334  -4.229  1.00 20.00     0.007 C 
HETATM    6  C6  UNL     1     -35.353  13.647  -4.247  1.00 20.00     0.037 C 
HETATM    7  C7  UNL     1     -35.380  15.153  -4.426  1.00 20.00     0.162 C 
HETATM    8  O11 UNL     1     -36.736  17.575  -2.397  1.00 20.00    -0.260 OA
HETATM    9  O12 UNL     1     -36.498  15.838  -3.891  1.00 20.00    -0.308 OA
ENDROOT
BRANCH   1  10
HETATM   10  C10 UNL     1     -33.891  17.078  -1.536  1.00 20.00     0.017 C 
HETATM   11  C8  UNL     1     -33.551  18.549  -1.800  1.00 20.00     0.015 C 
HETATM   12  C9  UNL     1     -34.688  16.945  -0.233  1.00 20.00     0.015 C 
ENDBRANCH   1  10
TORSDOF 1
ENDMDL
MODEL 8
REMARK VINA RESULT:      -4.6      2.563      3.427
REMARK  1 active torsions:
REMARK  status: ('A' for Active; 'I' for Inactive)
REMARK    1  A    between atoms: C1_1  and  C10_10 
ROOT
HETATM    1  C1  UNL     1     -34.065  15.928  -3.047  1.00 20.00     0.025 C 
HETATM    2  C2  UNL     1     -33.618  16.786  -3.955  1.00 20.00    -0.038 C 
HETATM    3  C3  UNL     1     -34.345  16.756  -1.857  1.00 20.00     0.290 C 
HETATM    4  C4  UNL     1     -33.521  16.746  -5.437  1.00 20.00     0.038 C 
HETATM    5  C5  UNL     1     -33.768  18.221  -5.802  1.00 20.00     0.007 C 
HETATM    6  C6  UNL     1     -34.264  18.905  -4.517  1.00 20.00     0.037 C 
HETATM    7  C7  UNL     1     -33.518  18.156  -3.430  1.00 20.00     0.162 C 
HETATM    8  O11 UNL     1     -34.748  16.335  -0.786  1.00 20.00    -0.260 OA
HETATM    9  O12 UNL     1     -34.145  18.080  -2.163  1.00 20.00    -0.308 OA
ENDROOT
BRANCH   1  10
HETATM   10  C10 UNL     1     -34.442  14.503  -3.159  1.00 20.00     0.017 C 
HETATM   11  C8  UNL     1     -35.740  14.338  -3.957  1.00 20.00     0.015 C 
HETATM   12  C9  UNL     1     -33.321  13.674  -3.798  1.00 20.00     0.015 C 
ENDBRANCH   1  10
TORSDOF 1
ENDMDL
MODEL 9
REMARK VINA RESULT:      -4.5      2.136      4.636
REMARK  1 active torsions:
REMARK  status: ('A' for Active; 'I' for Inactive)
REMARK    1  A    between atoms: C1_1  and  C10_10 
ROOT
HETATM    1  C1  UNL     1     -34.009  16.622  -2.868  1.00 20.00     0.025 C 
HETATM    2  C2  UNL     1     -33.831  15.510  -3.569  1.00 20.00    -0.038 C 
HETATM    3  C3  UNL     1     -33.658  17.711  -3.800  1.00 20.00     0.290 C 
HETATM    4  C4  UNL     1     -34.340  14.121  -3.427  1.00 20.00     0.038 C 
HETATM    5  C5  UNL     1     -34.476  13.690  -4.900  1.00 20.00     0.007 C 
HETATM    6  C6  UNL     1     -34.305  14.968  -5.738  1.00 20.00     0.037 C 
HETATM    7  C7  UNL     1     -33.316  15.776  -4.921  1.00 20.00     0.162 C 
HETATM    8  O11 UNL     1     -33.662  18.900  -3.528  1.00 20.00    -0.260 OA
HETATM    9  O12 UNL     1     -33.390  17.184  -5.041  1.00 20.00    -0.308 OA
ENDROOT
BRANCH   1  10
HETATM   10  C10 UNL     1     -34.620  16.846  -1.540  1.00 20.00     0.017 C 
HETATM   11  C8  UNL     1     -33.673  17.630  -0.625  1.00 20.00     0.015 C 
HETATM   12  C9  UNL     1     -35.966  17.573  -1.655  1.00 20.00     0.015 C 
ENDBRANCH   1  10
TORSDOF 1
ENDMDL
