MODEL 1
REMARK VINA RESULT:      -4.6      0.000      0.000
REMARK  1 active torsions:
REMARK  status: ('A' for Active; 'I' for Inactive)
REMARK    1  A    between atoms: C7_7  and  C10_10 
ROOT
HETATM    1  C1  UNL     1     -35.682  15.648  -5.238  1.00 20.00    -0.017 C 
HETATM    2  C2  UNL     1     -34.710  16.544  -4.980  1.00 20.00    -0.019 C 
HETATM    3  C3  UNL     1     -34.752  13.654  -3.959  1.00 20.00     0.135 C 
HETATM    4  C4  UNL     1     -33.285  13.980  -3.793  1.00 20.00     0.080 C 
HETATM    5  C5  UNL     1     -33.278  15.366  -3.128  1.00 20.00     0.022 C 
HETATM    6  C6  UNL     1     -35.565  14.984  -3.880  1.00 20.00     0.090 C 
HETATM    7  C7  UNL     1     -34.566  16.117  -3.524  1.00 20.00    -0.006 C 
HETATM    8  O11 UNL     1     -35.169  12.521  -4.169  1.00 20.00    -0.297 OA
ENDROOT
BRANCH   7   9
HETATM    9  C10 UNL     1     -35.002  17.154  -2.502  1.00 20.00    -0.009 C 
HETATM   10  C8  UNL     1     -34.791  16.638  -1.078  1.00 20.00     0.011 C 
HETATM   11  C9  UNL     1     -34.249  18.470  -2.707  1.00 20.00     0.011 C 
ENDBRANCH   7   9
TORSDOF 1
ENDMDL
MODEL 2
REMARK VINA RESULT:      -4.6      1.489      2.130
REMARK  1 active torsions:
REMARK  status: ('A' for Active; 'I' for Inactive)
REMARK    1  A    between atoms: C7_7  and  C10_10 
ROOT
HETATM    1  C1  UNL     1     -33.443  16.300  -5.612  1.00 20.00    -0.017 C 
HETATM    2  C2  UNL     1     -33.072  16.038  -4.344  1.00 20.00    -0.019 C 
HETATM    3  C3  UNL     1     -35.038  14.352  -5.983  1.00 20.00     0.135 C 
HETATM    4  C4  UNL     1     -34.652  13.357  -4.913  1.00 20.00     0.080 C 
HETATM    5  C5  UNL     1     -34.738  14.157  -3.603  1.00 20.00     0.022 C 
HETATM    6  C6  UNL     1     -34.856  15.791  -5.407  1.00 20.00     0.090 C 
HETATM    7  C7  UNL     1     -34.479  15.646  -3.909  1.00 20.00    -0.006 C 
HETATM    8  O11 UNL     1     -35.381  14.025  -7.114  1.00 20.00    -0.297 OA
ENDROOT
BRANCH   7   9
HETATM    9  C10 UNL     1     -35.133  16.593  -2.916  1.00 20.00    -0.009 C 
HETATM   10  C8  UNL     1     -36.658  16.512  -3.010  1.00 20.00     0.011 C 
HETATM   11  C9  UNL     1     -34.672  16.288  -1.489  1.00 20.00     0.011 C 
ENDBRANCH   7   9
TORSDOF 1
ENDMDL
MODEL 3
REMARK VINA RESULT:      -4.5      1.419      2.943
REMARK  1 active torsions:
REMARK  status: ('A' for Active; 'I' for Inactive)
REMARK    1  A    between atoms: C7_7  and  C10_10 
ROOT
HETATM    1  C1  UNL     1     -34.031  15.876  -2.572  1.00 20.00    -0.017 C 
HETATM    2  C2  UNL     1     -35.277  16.189  -2.976  1.00 20.00    -0.019 C 
HETATM    3  C3  UNL     1     -33.682  13.750  -3.925  1.00 20.00     0.135 C 
HETATM    4  C4  UNL     1     -35.083  13.320  -4.295  1.00 20.00     0.080 C 
HETATM    5  C5  UNL     1     -35.689  14.555  -4.982  1.00 20.00     0.022 C 
HETATM    6  C6  UNL     1     -33.630  15.309  -3.919  1.00 20.00     0.090 C 
HETATM    7  C7  UNL     1     -35.003  15.821  -4.430  1.00 20.00    -0.006 C 
HETATM    8  O11 UNL     1     -32.790  12.959  -3.639  1.00 20.00    -0.297 OA
ENDROOT
BRANCH   7   9
HETATM    9  C10 UNL     1     -35.010  16.988  -5.403  1.00 20.00    -0.009 C 
HETATM   10  C8  UNL     1     -34.373  16.590  -6.736  1.00 20.00     0.011 C 
HETATM   11  C9  UNL     1     -36.434  17.501  -5.627  1.00 20.00     0.011 C 
ENDBRANCH   7   9
TORSDOF 1
ENDMDL
MODEL 4
REMARK VINA RESULT:      -4.5      1.411      2.880
REMARK  1 active torsions:
REMARK  status: ('A' for Active; 'I' for Inactive)
REMARK    1  A    between atoms: C7_7  and  C10_10 
ROOT
HETATM    1  C1  UNL     1     -32.993  14.879  -3.444  1.00 20.00    -0.017 C 
HETATM    2  C2  UNL     1     -33.469  16.128  -3.279  1.00 20.00    -0.019 C 
HETATM    3  C3  UNL     1     -35.083  13.761  -4.368  1.00 20.00     0.135 C 
HETATM    4  C4  UNL     1     -36.204  14.690  -3.959  1.00 20.00     0.080 C 
HETATM    5  C5  UNL     1     -35.780  16.061  -4.511  1.00 20.00     0.022 C 
HETATM    6  C6  UNL     1     -33.821  14.622  -4.687  1.00 20.00     0.090 C 
HETATM    7  C7  UNL     1     -34.241  16.113  -4.593  1.00 20.00    -0.006 C 
HETATM    8  O11 UNL     1     -35.193  12.540  -4.379  1.00 20.00    -0.297 OA
ENDROOT
BRANCH   7   9
HETATM    9  C10 UNL     1     -33.722  17.066  -5.657  1.00 20.00    -0.009 C 
HETATM   10  C8  UNL     1     -34.530  16.933  -6.949  1.00 20.00     0.011 C 
HETATM   11  C9  UNL     1     -33.755  18.511  -5.156  1.00 20.00     0.011 C 
ENDBRANCH   7   9
TORSDOF 1
ENDMDL
MODEL 5
REMARK VINA RESULT:      -4.5      1.729      3.228
REMARK  1 active torsions:
REMARK  status: ('A' for Active; 'I' for Inactive)
REMARK    1  A    between atoms: C7_7  and  C10_10 
ROOT
HETATM    1  C1  UNL     1     -34.487  13.713  -3.727  1.00 20.00    -0.017 C 
HETATM    2  C2  UNL     1     -33.753  14.820  -3.508  1.00 20.00    -0.019 C 
HETATM    3  C3  UNL     1     -36.795  14.774  -3.880  1.00 20.00     0.135 C 
HETATM    4  C4  UNL     1     -36.623  16.117  -3.207  1.00 20.00     0.080 C 
HETATM    5  C5  UNL     1     -35.448  16.768  -3.955  1.00 20.00     0.022 C 
HETATM    6  C6  UNL     1     -35.473  14.426  -4.632  1.00 20.00     0.090 C 
HETATM    7  C7  UNL     1     -34.534  15.657  -4.514  1.00 20.00    -0.006 C 
HETATM    8  O11 UNL     1     -37.810  14.094  -3.775  1.00 20.00    -0.297 OA
ENDROOT
BRANCH   7   9
HETATM    9  C10 UNL     1     -33.754  16.077  -5.748  1.00 20.00    -0.009 C 
HETATM   10  C8  UNL     1     -34.432  15.568  -7.021  1.00 20.00     0.011 C 
HETATM   11  C9  UNL     1     -33.597  17.598  -5.801  1.00 20.00     0.011 C 
ENDBRANCH   7   9
TORSDOF 1
ENDMDL
MODEL 6
REMARK VINA RESULT:      -4.4      1.691      2.996
REMARK  1 active torsions:
REMARK  status: ('A' for Active; 'I' for Inactive)
REMARK    1  A    between atoms: C7_7  and  C10_10 
ROOT
HETATM    1  C1  UNL     1     -34.406  13.151  -4.916  1.00 20.00    -0.017 C 
HETATM    2  C2  UNL     1     -34.935  13.639  -3.777  1.00 20.00    -0.019 C 
HETATM    3  C3  UNL     1     -35.601  14.642  -6.596  1.00 20.00     0.135 C 
HETATM    4  C4  UNL     1     -36.791  15.172  -5.830  1.00 20.00     0.080 C 
HETATM    5  C5  UNL     1     -36.179  15.805  -4.569  1.00 20.00     0.022 C 
HETATM    6  C6  UNL     1     -34.402  14.500  -5.608  1.00 20.00     0.090 C 
HETATM    7  C7  UNL     1     -34.853  15.087  -4.244  1.00 20.00    -0.006 C 
HETATM    8  O11 UNL     1     -35.644  14.344  -7.784  1.00 20.00    -0.297 OA
ENDROOT
BRANCH   7   9
HETATM    9  C10 UNL     1     -33.865  15.955  -3.481  1.00 20.00    -0.009 C 
HETATM   10  C8  UNL     1     -33.603  17.266  -4.226  1.00 20.00     0.011 C 
HETATM   11  C9  UNL     1     -34.371  16.240  -2.066  1.00 20.00     0.011 C 
ENDBRANCH   7   9
TORSDOF 1
ENDMDL
MODEL 7
REMARK VINA RESULT:      -4.4      1.163      1.630
REMARK  1 active torsions:
REMARK  status: ('A' for Active; 'I' for Inactive)
REMARK    1  A    between atoms: C7_7  and  C10_10 
ROOT
HETATM    1  C1  UNL     1     -36.931  14.863  -3.773  1.00 20.00    -0.017 C 
HETATM    2  C2  UNL     1     -36.788  16.072  -4.350  1.00 20.00    -0.019 C 
HETATM    3  C3  UNL     1     -34.916  13.683  -4.784  1.00 20.00     0.135 C 
HETATM    4  C4  UNL     1     -34.573  14.522  -5.994  1.00 20.00     0.080 C 
HETATM    5  C5  UNL     1     -34.406  15.944  -5.435  1.00 20.00     0.022 C 
HETATM    6  C6  UNL     1     -35.438  14.631  -3.660  1.00 20.00     0.090 C 
HETATM    7  C7  UNL     1     -35.275  16.088  -4.168  1.00 20.00    -0.006 C 
HETATM    8  O11 UNL     1     -34.827  12.461  -4.766  1.00 20.00    -0.297 OA
ENDROOT
BRANCH   7   9
HETATM    9  C10 UNL     1     -34.754  17.129  -3.191  1.00 20.00    -0.009 C 
HETATM   10  C8  UNL     1     -33.944  16.469  -2.073  1.00 20.00     0.011 C 
HETATM   11  C9  UNL     1     -33.908  18.178  -3.913  1.00 20.00     0.011 C 
ENDBRANCH   7   9
TORSDOF 1
ENDMDL
MODEL 8
REMARK VINA RESULT:      -4.3      2.038      3.204
REMARK  1 active torsions:
REMARK  status: ('A' for Active; 'I' for Inactive)
REMARK    1  A    between atoms: C7_7  and  C10_10 
ROOT
HETATM    1  C1  UNL     1     -34.644  15.162  -2.896  1.00 20.00    -0.017 C 
HETATM    2  C2  UNL     1     -35.496  15.954  -2.218  1.00 20.00    -0.019 C 
HETATM    3  C3  UNL     1     -33.483  16.926  -4.315  1.00 20.00     0.135 C 
HETATM    4  C4  UNL     1     -34.435  18.100  -4.287  1.00 20.00     0.080 C 
HETATM    5  C5  UNL     1     -34.659  18.371  -2.790  1.00 20.00     0.022 C 
HETATM    6  C6  UNL     1     -33.546  16.207  -2.932  1.00 20.00     0.090 C 
HETATM    7  C7  UNL     1     -34.462  17.054  -2.010  1.00 20.00    -0.006 C 
HETATM    8  O11 UNL     1     -32.833  16.612  -5.306  1.00 20.00    -0.297 OA
ENDROOT
BRANCH   7   9
HETATM    9  C10 UNL     1     -34.024  17.262  -0.569  1.00 20.00    -0.009 C 
HETATM   10  C8  UNL     1     -32.986  18.383  -0.472  1.00 20.00     0.011 C 
HETATM   11  C9  UNL     1     -35.225  17.572   0.326  1.00 20.00     0.011 C 
ENDBRANCH   7   9
TORSDOF 1
ENDMDL
MODEL 9
REMARK VINA RESULT:      -4.3      1.988      3.815
REMARK  1 active torsions:
REMARK  status: ('A' for Active; 'I' for Inactive)
REMARK    1  A    between atoms: C7_7  and  C10_10 
ROOT
HETATM    1  C1  UNL     1     -34.848  13.478  -3.864  1.00 20.00    -0.017 C 
HETATM    2  C2  UNL     1     -34.461  13.380  -5.150  1.00 20.00    -0.019 C 
HETATM    3  C3  UNL     1     -34.129  15.874  -3.400  1.00 20.00     0.135 C 
HETATM    4  C4  UNL     1     -33.123  16.170  -4.488  1.00 20.00     0.080 C 
HETATM    5  C5  UNL     1     -33.871  15.851  -5.793  1.00 20.00     0.022 C 
HETATM    6  C6  UNL     1     -35.231  14.940  -3.988  1.00 20.00     0.090 C 
HETATM    7  C7  UNL     1     -34.945  14.782  -5.505  1.00 20.00    -0.006 C 
HETATM    8  O11 UNL     1     -34.018  16.288  -2.251  1.00 20.00    -0.297 OA
ENDROOT
BRANCH   7   9
HETATM    9  C10 UNL     1     -36.125  14.834  -6.461  1.00 20.00    -0.009 C 
HETATM   10  C8  UNL     1     -36.841  16.183  -6.370  1.00 20.00     0.011 C 
HETATM   11  C9  UNL     1     -35.673  14.568  -7.898  1.00 20.00     0.011 C 
ENDBRANCH   7   9
TORSDOF 1
ENDMDL
