MODEL 1
REMARK VINA RESULT:      -5.1      0.000      0.000
REMARK  2 active torsions:
REMARK  status: ('A' for Active; 'I' for Inactive)
REMARK    1  A    between atoms: C7_7  and  C10_10 
REMARK    2  A    between atoms: C9_9  and  C10_10 
ROOT
HETATM    1  C1  UNL     1     -32.259   9.523   1.464  1.00 20.00     0.012 C 
HETATM    2  C2  UNL     1     -32.267   8.379   1.831  1.00 20.00    -0.117 C 
HETATM    3  C9  UNL     1     -32.276   6.979   2.276  1.00 20.00     0.093 C 
ENDROOT
BRANCH   3   4
HETATM    4  C10 UNL     1     -32.400   6.910   3.787  1.00 20.00     0.020 C 
BRANCH   4   5
HETATM    5  C7  UNL     1     -33.827   6.584   4.198  1.00 20.00     0.023 C 
HETATM    6  C4  UNL     1     -34.361   5.353   3.439  1.00 20.00     0.008 C 
HETATM    7  C3  UNL     1     -35.420   4.780   4.375  1.00 20.00     0.004 C 
HETATM    8  C5  UNL     1     -34.784   4.919   5.757  1.00 20.00     0.041 C 
HETATM    9  C8  UNL     1     -33.982   6.182   5.646  1.00 20.00     0.086 A 
HETATM   10  C6  UNL     1     -33.164   6.723   6.797  1.00 20.00     0.207 A 
HETATM   11  O11 UNL     1     -34.457   7.248   6.487  1.00 20.00    -0.375 OA
ENDBRANCH   4   5
ENDBRANCH   3   4
TORSDOF 2
ENDMDL
MODEL 2
REMARK VINA RESULT:      -5.0     11.276     12.592
REMARK  2 active torsions:
REMARK  status: ('A' for Active; 'I' for Inactive)
REMARK    1  A    between atoms: C7_7  and  C10_10 
REMARK    2  A    between atoms: C9_9  and  C10_10 
ROOT
HETATM    1  C1  UNL     1     -34.743  17.415   0.257  1.00 20.00     0.012 C 
HETATM    2  C2  UNL     1     -34.778  16.742  -0.736  1.00 20.00    -0.117 C 
HETATM    3  C9  UNL     1     -34.825  15.916  -1.950  1.00 20.00     0.093 C 
ENDROOT
BRANCH   3   4
HETATM    4  C10 UNL     1     -33.642  16.234  -2.847  1.00 20.00     0.020 C 
BRANCH   4   5
HETATM    5  C7  UNL     1     -33.557  15.247  -4.000  1.00 20.00     0.023 C 
HETATM    6  C4  UNL     1     -34.078  13.857  -3.587  1.00 20.00     0.008 C 
HETATM    7  C3  UNL     1     -34.550  13.239  -4.900  1.00 20.00     0.004 C 
HETATM    8  C5  UNL     1     -35.232  14.405  -5.614  1.00 20.00     0.041 C 
HETATM    9  C8  UNL     1     -34.428  15.597  -5.185  1.00 20.00     0.086 A 
HETATM   10  C6  UNL     1     -34.747  16.998  -5.653  1.00 20.00     0.207 A 
HETATM   11  O11 UNL     1     -33.706  16.227  -6.258  1.00 20.00    -0.375 OA
ENDBRANCH   4   5
ENDBRANCH   3   4
TORSDOF 2
ENDMDL
MODEL 3
REMARK VINA RESULT:      -4.7     11.299     12.808
REMARK  2 active torsions:
REMARK  status: ('A' for Active; 'I' for Inactive)
REMARK    1  A    between atoms: C7_7  and  C10_10 
REMARK    2  A    between atoms: C9_9  and  C10_10 
ROOT
HETATM    1  C1  UNL     1     -33.426  18.146  -0.366  1.00 20.00     0.012 C 
HETATM    2  C2  UNL     1     -33.949  17.261  -0.986  1.00 20.00    -0.117 C 
HETATM    3  C9  UNL     1     -34.592  16.178  -1.743  1.00 20.00     0.093 C 
ENDROOT
BRANCH   3   4
HETATM    4  C10 UNL     1     -33.730  15.782  -2.927  1.00 20.00     0.020 C 
BRANCH   4   5
HETATM    5  C7  UNL     1     -34.474  15.998  -4.235  1.00 20.00     0.023 C 
HETATM    6  C4  UNL     1     -33.593  16.731  -5.265  1.00 20.00     0.008 C 
HETATM    7  C3  UNL     1     -34.158  16.285  -6.611  1.00 20.00     0.004 C 
HETATM    8  C5  UNL     1     -34.446  14.799  -6.399  1.00 20.00     0.041 C 
HETATM    9  C8  UNL     1     -34.850  14.725  -4.956  1.00 20.00     0.086 A 
HETATM   10  C6  UNL     1     -35.230  13.422  -4.290  1.00 20.00     0.207 A 
HETATM   11  O11 UNL     1     -36.222  14.340  -4.757  1.00 20.00    -0.375 OA
ENDBRANCH   4   5
ENDBRANCH   3   4
TORSDOF 2
ENDMDL
MODEL 4
REMARK VINA RESULT:      -4.7     10.956     12.561
REMARK  2 active torsions:
REMARK  status: ('A' for Active; 'I' for Inactive)
REMARK    1  A    between atoms: C7_7  and  C10_10 
REMARK    2  A    between atoms: C9_9  and  C10_10 
ROOT
HETATM    1  C1  UNL     1     -34.439  16.624  -1.102  1.00 20.00     0.012 C 
HETATM    2  C2  UNL     1     -35.147  16.556  -2.070  1.00 20.00    -0.117 C 
HETATM    3  C9  UNL     1     -36.011  16.477  -3.255  1.00 20.00     0.093 C 
ENDROOT
BRANCH   3   4
HETATM    4  C10 UNL     1     -36.647  15.102  -3.349  1.00 20.00     0.020 C 
BRANCH   4   5
HETATM    5  C7  UNL     1     -36.411  14.489  -4.720  1.00 20.00     0.023 C 
HETATM    6  C4  UNL     1     -36.684  15.508  -5.843  1.00 20.00     0.008 C 
HETATM    7  C3  UNL     1     -35.810  15.023  -6.996  1.00 20.00     0.004 C 
HETATM    8  C5  UNL     1     -34.514  14.602  -6.304  1.00 20.00     0.041 C 
HETATM    9  C8  UNL     1     -34.982  14.074  -4.979  1.00 20.00     0.086 A 
HETATM   10  C6  UNL     1     -34.023  13.538  -3.940  1.00 20.00     0.207 A 
HETATM   11  O11 UNL     1     -34.755  12.665  -4.804  1.00 20.00    -0.375 OA
ENDBRANCH   4   5
ENDBRANCH   3   4
TORSDOF 2
ENDMDL
MODEL 5
REMARK VINA RESULT:      -4.4     11.248     12.239
REMARK  2 active torsions:
REMARK  status: ('A' for Active; 'I' for Inactive)
REMARK    1  A    between atoms: C7_7  and  C10_10 
REMARK    2  A    between atoms: C9_9  and  C10_10 
ROOT
HETATM    1  C1  UNL     1     -34.963  13.178  -4.543  1.00 20.00     0.012 C 
HETATM    2  C2  UNL     1     -34.051  13.839  -4.128  1.00 20.00    -0.117 C 
HETATM    3  C9  UNL     1     -32.931  14.644  -3.621  1.00 20.00     0.093 C 
ENDROOT
BRANCH   3   4
HETATM    4  C10 UNL     1     -33.377  16.077  -3.393  1.00 20.00     0.020 C 
BRANCH   4   5
HETATM    5  C7  UNL     1     -34.440  16.147  -2.309  1.00 20.00     0.023 C 
HETATM    6  C4  UNL     1     -33.957  16.978  -1.104  1.00 20.00     0.008 C 
HETATM    7  C3  UNL     1     -35.247  17.502  -0.482  1.00 20.00     0.004 C 
HETATM    8  C5  UNL     1     -36.098  17.877  -1.695  1.00 20.00     0.041 C 
HETATM    9  C8  UNL     1     -35.707  16.857  -2.724  1.00 20.00     0.086 A 
HETATM   10  C6  UNL     1     -36.306  16.839  -4.112  1.00 20.00     0.207 A 
HETATM   11  O11 UNL     1     -36.772  15.960  -3.085  1.00 20.00    -0.375 OA
ENDBRANCH   4   5
ENDBRANCH   3   4
TORSDOF 2
ENDMDL
MODEL 6
REMARK VINA RESULT:      -4.4     11.095     12.532
REMARK  2 active torsions:
REMARK  status: ('A' for Active; 'I' for Inactive)
REMARK    1  A    between atoms: C7_7  and  C10_10 
REMARK    2  A    between atoms: C9_9  and  C10_10 
ROOT
HETATM    1  C1  UNL     1     -37.289  14.581  -3.945  1.00 20.00     0.012 C 
HETATM    2  C2  UNL     1     -36.173  14.274  -4.266  1.00 20.00    -0.117 C 
HETATM    3  C9  UNL     1     -34.810  13.898  -4.662  1.00 20.00     0.093 C 
ENDROOT
BRANCH   3   4
HETATM    4  C10 UNL     1     -33.836  14.189  -3.535  1.00 20.00     0.020 C 
BRANCH   4   5
HETATM    5  C7  UNL     1     -33.300  15.607  -3.635  1.00 20.00     0.023 C 
HETATM    6  C4  UNL     1     -33.415  16.148  -5.074  1.00 20.00     0.008 C 
HETATM    7  C3  UNL     1     -33.496  17.661  -4.889  1.00 20.00     0.004 C 
HETATM    8  C5  UNL     1     -34.405  17.820  -3.671  1.00 20.00     0.041 C 
HETATM    9  C8  UNL     1     -34.072  16.624  -2.828  1.00 20.00     0.086 A 
HETATM   10  C6  UNL     1     -34.745  16.360  -1.500  1.00 20.00     0.207 A 
HETATM   11  O11 UNL     1     -33.446  16.954  -1.576  1.00 20.00    -0.375 OA
ENDBRANCH   4   5
ENDBRANCH   3   4
TORSDOF 2
ENDMDL
MODEL 7
REMARK VINA RESULT:      -4.4     11.399     12.837
REMARK  2 active torsions:
REMARK  status: ('A' for Active; 'I' for Inactive)
REMARK    1  A    between atoms: C7_7  and  C10_10 
REMARK    2  A    between atoms: C9_9  and  C10_10 
ROOT
HETATM    1  C1  UNL     1     -35.252  14.234  -6.636  1.00 20.00     0.012 C 
HETATM    2  C2  UNL     1     -35.041  13.915  -5.497  1.00 20.00    -0.117 C 
HETATM    3  C9  UNL     1     -34.784  13.522  -4.105  1.00 20.00     0.093 C 
ENDROOT
BRANCH   3   4
HETATM    4  C10 UNL     1     -33.875  14.534  -3.433  1.00 20.00     0.020 C 
BRANCH   4   5
HETATM    5  C7  UNL     1     -34.631  15.815  -3.117  1.00 20.00     0.023 C 
HETATM    6  C4  UNL     1     -34.580  16.138  -1.611  1.00 20.00     0.008 C 
HETATM    7  C3  UNL     1     -34.747  17.654  -1.558  1.00 20.00     0.004 C 
HETATM    8  C5  UNL     1     -33.896  18.145  -2.729  1.00 20.00     0.041 C 
HETATM    9  C8  UNL     1     -34.047  17.056  -3.750  1.00 20.00     0.086 A 
HETATM   10  C6  UNL     1     -33.364  17.113  -5.098  1.00 20.00     0.207 A 
HETATM   11  O11 UNL     1     -34.740  17.470  -4.941  1.00 20.00    -0.375 OA
ENDBRANCH   4   5
ENDBRANCH   3   4
TORSDOF 2
ENDMDL
MODEL 8
REMARK VINA RESULT:      -4.4      9.932     10.962
REMARK  2 active torsions:
REMARK  status: ('A' for Active; 'I' for Inactive)
REMARK    1  A    between atoms: C7_7  and  C10_10 
REMARK    2  A    between atoms: C9_9  and  C10_10 
ROOT
HETATM    1  C1  UNL     1     -41.917   9.025  -5.288  1.00 20.00     0.012 C 
HETATM    2  C2  UNL     1     -42.419   8.580  -4.292  1.00 20.00    -0.117 C 
HETATM    3  C9  UNL     1     -43.034   8.039  -3.072  1.00 20.00     0.093 C 
ENDROOT
BRANCH   3   4
HETATM    4  C10 UNL     1     -42.926   6.526  -3.056  1.00 20.00     0.020 C 
BRANCH   4   5
HETATM    5  C7  UNL     1     -41.722   6.078  -2.243  1.00 20.00     0.023 C 
HETATM    6  C4  UNL     1     -41.452   7.038  -1.069  1.00 20.00     0.008 C 
HETATM    7  C3  UNL     1     -40.741   6.165  -0.040  1.00 20.00     0.004 C 
HETATM    8  C5  UNL     1     -41.504   4.843  -0.110  1.00 20.00     0.041 C 
HETATM    9  C8  UNL     1     -41.896   4.744  -1.556  1.00 20.00     0.086 A 
HETATM   10  C6  UNL     1     -42.685   3.574  -2.100  1.00 20.00     0.207 A 
HETATM   11  O11 UNL     1     -41.266   3.655  -2.254  1.00 20.00    -0.375 OA
ENDBRANCH   4   5
ENDBRANCH   3   4
TORSDOF 2
ENDMDL
MODEL 9
REMARK VINA RESULT:      -4.4      9.772     11.364
REMARK  2 active torsions:
REMARK  status: ('A' for Active; 'I' for Inactive)
REMARK    1  A    between atoms: C7_7  and  C10_10 
REMARK    2  A    between atoms: C9_9  and  C10_10 
ROOT
HETATM    1  C1  UNL     1     -41.924   0.884  -4.131  1.00 20.00     0.012 C 
HETATM    2  C2  UNL     1     -41.652   1.881  -3.519  1.00 20.00    -0.117 C 
HETATM    3  C9  UNL     1     -41.314   3.099  -2.771  1.00 20.00     0.093 C 
ENDROOT
BRANCH   3   4
HETATM    4  C10 UNL     1     -42.481   4.069  -2.794  1.00 20.00     0.020 C 
BRANCH   4   5
HETATM    5  C7  UNL     1     -42.402   5.039  -1.626  1.00 20.00     0.023 C 
HETATM    6  C4  UNL     1     -41.200   4.721  -0.716  1.00 20.00     0.008 C 
HETATM    7  C3  UNL     1     -40.869   6.062  -0.068  1.00 20.00     0.004 C 
HETATM    8  C5  UNL     1     -41.034   7.059  -1.214  1.00 20.00     0.041 C 
HETATM    9  C8  UNL     1     -42.154   6.475  -2.025  1.00 20.00     0.086 A 
HETATM   10  C6  UNL     1     -42.670   7.136  -3.283  1.00 20.00     0.207 A 
HETATM   11  O11 UNL     1     -43.346   7.280  -2.032  1.00 20.00    -0.375 OA
ENDBRANCH   4   5
ENDBRANCH   3   4
TORSDOF 2
ENDMDL
