MODEL 1
REMARK VINA RESULT:      -5.2      0.000      0.000
REMARK  1 active torsions:
REMARK  status: ('A' for Active; 'I' for Inactive)
REMARK    1  A    between atoms: C6_6  and  C10_10 
ROOT
HETATM    1  C1  UNL     1     -33.419  14.015  -3.751  1.00 20.00     0.054 A 
HETATM    2  C2  UNL     1     -35.381  14.756  -5.169  1.00 20.00     0.060 A 
HETATM    3  C3  UNL     1     -33.157  15.297  -3.479  1.00 20.00     0.025 A 
HETATM    4  C4  UNL     1     -35.111  16.041  -4.890  1.00 20.00    -0.037 A 
HETATM    5  C5  UNL     1     -34.578  13.655  -4.590  1.00 20.00     0.172 A 
HETATM    6  C6  UNL     1     -33.985  16.461  -3.962  1.00 20.00     0.147 A 
HETATM    7  C7  UNL     1     -35.911  17.140  -5.537  1.00 20.00     0.047 C 
HETATM    8  O11 UNL     1     -34.859  12.483  -4.813  1.00 20.00    -0.289 OA
HETATM    9  F12 UNL     1     -33.158  17.321  -4.630  1.00 20.00    -0.233 F 
ENDROOT
BRANCH   6  10
HETATM   10  C10 UNL     1     -34.521  17.218  -2.742  1.00 20.00     0.026 C 
HETATM   11  C8  UNL     1     -34.579  16.298  -1.527  1.00 20.00     0.014 C 
HETATM   12  C9  UNL     1     -33.656  18.441  -2.454  1.00 20.00     0.014 C 
ENDBRANCH   6  10
TORSDOF 1
ENDMDL
MODEL 2
REMARK VINA RESULT:      -5.0      1.934      3.118
REMARK  1 active torsions:
REMARK  status: ('A' for Active; 'I' for Inactive)
REMARK    1  A    between atoms: C6_6  and  C10_10 
ROOT
HETATM    1  C1  UNL     1     -36.745  16.206  -3.765  1.00 20.00     0.054 A 
HETATM    2  C2  UNL     1     -35.618  13.939  -3.821  1.00 20.00     0.060 A 
HETATM    3  C3  UNL     1     -35.540  16.783  -3.772  1.00 20.00     0.025 A 
HETATM    4  C4  UNL     1     -34.412  14.528  -3.829  1.00 20.00    -0.037 A 
HETATM    5  C5  UNL     1     -36.866  14.736  -3.827  1.00 20.00     0.172 A 
HETATM    6  C6  UNL     1     -34.234  16.035  -3.855  1.00 20.00     0.147 A 
HETATM    7  C7  UNL     1     -33.162  13.691  -3.769  1.00 20.00     0.047 C 
HETATM    8  O11 UNL     1     -37.964  14.192  -3.866  1.00 20.00    -0.289 OA
HETATM    9  F12 UNL     1     -33.462  16.409  -2.789  1.00 20.00    -0.233 F 
ENDROOT
BRANCH   6  10
HETATM   10  C10 UNL     1     -33.493  16.487  -5.119  1.00 20.00     0.026 C 
HETATM   11  C8  UNL     1     -34.138  15.881  -6.360  1.00 20.00     0.014 C 
HETATM   12  C9  UNL     1     -33.474  18.010  -5.207  1.00 20.00     0.014 C 
ENDBRANCH   6  10
TORSDOF 1
ENDMDL
MODEL 3
REMARK VINA RESULT:      -5.0     11.993     13.339
REMARK  1 active torsions:
REMARK  status: ('A' for Active; 'I' for Inactive)
REMARK    1  A    between atoms: C6_6  and  C10_10 
ROOT
HETATM    1  C1  UNL     1     -35.226   4.561   4.115  1.00 20.00     0.054 A 
HETATM    2  C2  UNL     1     -34.387   5.438   6.337  1.00 20.00     0.060 A 
HETATM    3  C3  UNL     1     -34.642   5.598   3.508  1.00 20.00     0.025 A 
HETATM    4  C4  UNL     1     -33.802   6.476   5.718  1.00 20.00    -0.037 A 
HETATM    5  C5  UNL     1     -35.105   4.391   5.576  1.00 20.00     0.172 A 
HETATM    6  C6  UNL     1     -33.821   6.650   4.210  1.00 20.00     0.147 A 
HETATM    7  C7  UNL     1     -33.125   7.552   6.523  1.00 20.00     0.047 C 
HETATM    8  O11 UNL     1     -35.598   3.422   6.143  1.00 20.00    -0.289 OA
HETATM    9  F12 UNL     1     -34.355   7.873   3.912  1.00 20.00    -0.233 F 
ENDROOT
BRANCH   6  10
HETATM   10  C10 UNL     1     -32.403   6.631   3.628  1.00 20.00     0.026 C 
HETATM   11  C8  UNL     1     -32.127   5.299   2.941  1.00 20.00     0.014 C 
HETATM   12  C9  UNL     1     -32.212   7.792   2.658  1.00 20.00     0.014 C 
ENDBRANCH   6  10
TORSDOF 1
ENDMDL
MODEL 4
REMARK VINA RESULT:      -4.8      1.898      3.441
REMARK  1 active torsions:
REMARK  status: ('A' for Active; 'I' for Inactive)
REMARK    1  A    between atoms: C6_6  and  C10_10 
ROOT
HETATM    1  C1  UNL     1     -34.898  13.351  -4.266  1.00 20.00     0.054 A 
HETATM    2  C2  UNL     1     -33.140  15.166  -4.101  1.00 20.00     0.060 A 
HETATM    3  C3  UNL     1     -35.740  14.243  -4.797  1.00 20.00     0.025 A 
HETATM    4  C4  UNL     1     -33.992  16.054  -4.636  1.00 20.00    -0.037 A 
HETATM    5  C5  UNL     1     -33.521  13.748  -3.914  1.00 20.00     0.172 A 
HETATM    6  C6  UNL     1     -35.389  15.678  -5.096  1.00 20.00     0.147 A 
HETATM    7  C7  UNL     1     -33.595  17.500  -4.763  1.00 20.00     0.047 C 
HETATM    8  O11 UNL     1     -32.721  12.932  -3.467  1.00 20.00    -0.289 OA
HETATM    9  F12 UNL     1     -36.296  16.478  -4.458  1.00 20.00    -0.233 F 
ENDROOT
BRANCH   6  10
HETATM   10  C10 UNL     1     -35.565  15.920  -6.600  1.00 20.00     0.026 C 
HETATM   11  C8  UNL     1     -34.637  15.011  -7.398  1.00 20.00     0.014 C 
HETATM   12  C9  UNL     1     -37.019  15.701  -7.006  1.00 20.00     0.014 C 
ENDBRANCH   6  10
TORSDOF 1
ENDMDL
MODEL 5
REMARK VINA RESULT:      -4.8      1.616      2.768
REMARK  1 active torsions:
REMARK  status: ('A' for Active; 'I' for Inactive)
REMARK    1  A    between atoms: C6_6  and  C10_10 
ROOT
HETATM    1  C1  UNL     1     -35.733  14.555  -5.540  1.00 20.00     0.054 A 
HETATM    2  C2  UNL     1     -34.621  14.344  -3.275  1.00 20.00     0.060 A 
HETATM    3  C3  UNL     1     -35.976  15.843  -5.278  1.00 20.00     0.025 A 
HETATM    4  C4  UNL     1     -34.869  15.638  -3.021  1.00 20.00    -0.037 A 
HETATM    5  C5  UNL     1     -35.002  13.724  -4.565  1.00 20.00     0.172 A 
HETATM    6  C6  UNL     1     -35.539  16.559  -4.026  1.00 20.00     0.147 A 
HETATM    7  C7  UNL     1     -34.519  16.226  -1.681  1.00 20.00     0.047 C 
HETATM    8  O11 UNL     1     -34.731  12.552  -4.808  1.00 20.00    -0.289 OA
HETATM    9  F12 UNL     1     -36.646  17.115  -3.446  1.00 20.00    -0.233 F 
ENDROOT
BRANCH   6  10
HETATM   10  C10 UNL     1     -34.616  17.717  -4.422  1.00 20.00     0.026 C 
HETATM   11  C8  UNL     1     -33.435  17.201  -5.238  1.00 20.00     0.014 C 
HETATM   12  C9  UNL     1     -35.394  18.772  -5.203  1.00 20.00     0.014 C 
ENDBRANCH   6  10
TORSDOF 1
ENDMDL
MODEL 6
REMARK VINA RESULT:      -4.8      1.199      1.499
REMARK  1 active torsions:
REMARK  status: ('A' for Active; 'I' for Inactive)
REMARK    1  A    between atoms: C6_6  and  C10_10 
ROOT
HETATM    1  C1  UNL     1     -34.051  14.386  -3.544  1.00 20.00     0.054 A 
HETATM    2  C2  UNL     1     -34.810  14.361  -5.960  1.00 20.00     0.060 A 
HETATM    3  C3  UNL     1     -33.770  15.686  -3.667  1.00 20.00     0.025 A 
HETATM    4  C4  UNL     1     -34.524  15.668  -6.073  1.00 20.00    -0.037 A 
HETATM    5  C5  UNL     1     -34.628  13.641  -4.679  1.00 20.00     0.172 A 
HETATM    6  C6  UNL     1     -34.013  16.501  -4.912  1.00 20.00     0.147 A 
HETATM    7  C7  UNL     1     -34.668  16.361  -7.402  1.00 20.00     0.047 C 
HETATM    8  O11 UNL     1     -34.934  12.458  -4.571  1.00 20.00    -0.289 OA
HETATM    9  F12 UNL     1     -32.830  17.086  -5.273  1.00 20.00    -0.233 F 
ENDROOT
BRANCH   6  10
HETATM   10  C10 UNL     1     -34.983  17.638  -4.570  1.00 20.00     0.026 C 
HETATM   11  C8  UNL     1     -36.320  17.073  -4.101  1.00 20.00     0.014 C 
HETATM   12  C9  UNL     1     -34.379  18.551  -3.508  1.00 20.00     0.014 C 
ENDBRANCH   6  10
TORSDOF 1
ENDMDL
MODEL 7
REMARK VINA RESULT:      -4.7      1.673      2.129
REMARK  1 active torsions:
REMARK  status: ('A' for Active; 'I' for Inactive)
REMARK    1  A    between atoms: C6_6  and  C10_10 
ROOT
HETATM    1  C1  UNL     1     -34.943  13.700  -5.282  1.00 20.00     0.054 A 
HETATM    2  C2  UNL     1     -34.385  15.897  -6.410  1.00 20.00     0.060 A 
HETATM    3  C3  UNL     1     -34.586  14.233  -4.110  1.00 20.00     0.025 A 
HETATM    4  C4  UNL     1     -34.030  16.424  -5.227  1.00 20.00    -0.037 A 
HETATM    5  C5  UNL     1     -34.901  14.513  -6.513  1.00 20.00     0.172 A 
HETATM    6  C6  UNL     1     -34.138  15.660  -3.920  1.00 20.00     0.147 A 
HETATM    7  C7  UNL     1     -33.458  17.815  -5.162  1.00 20.00     0.047 C 
HETATM    8  O11 UNL     1     -35.267  14.053  -7.589  1.00 20.00    -0.289 OA
HETATM    9  F12 UNL     1     -32.911  15.642  -3.315  1.00 20.00    -0.233 F 
ENDROOT
BRANCH   6  10
HETATM   10  C10 UNL     1     -35.102  16.349  -2.948  1.00 20.00     0.026 C 
HETATM   11  C8  UNL     1     -36.497  15.744  -3.064  1.00 20.00     0.014 C 
HETATM   12  C9  UNL     1     -34.581  16.242  -1.519  1.00 20.00     0.014 C 
ENDBRANCH   6  10
TORSDOF 1
ENDMDL
MODEL 8
REMARK VINA RESULT:      -4.7      2.513      3.901
REMARK  1 active torsions:
REMARK  status: ('A' for Active; 'I' for Inactive)
REMARK    1  A    between atoms: C6_6  and  C10_10 
ROOT
HETATM    1  C1  UNL     1     -34.656  16.433  -1.397  1.00 20.00     0.054 A 
HETATM    2  C2  UNL     1     -33.579  17.947  -3.118  1.00 20.00     0.060 A 
HETATM    3  C3  UNL     1     -35.069  15.636  -2.387  1.00 20.00     0.025 A 
HETATM    4  C4  UNL     1     -33.998  17.139  -4.105  1.00 20.00    -0.037 A 
HETATM    5  C5  UNL     1     -33.847  17.630  -1.696  1.00 20.00     0.172 A 
HETATM    6  C6  UNL     1     -34.757  15.850  -3.846  1.00 20.00     0.147 A 
HETATM    7  C7  UNL     1     -33.758  17.516  -5.542  1.00 20.00     0.047 C 
HETATM    8  O11 UNL     1     -33.422  18.349  -0.798  1.00 20.00    -0.289 OA
HETATM    9  F12 UNL     1     -35.940  15.888  -4.532  1.00 20.00    -0.233 F 
ENDROOT
BRANCH   6  10
HETATM   10  C10 UNL     1     -33.982  14.633  -4.364  1.00 20.00     0.026 C 
HETATM   11  C8  UNL     1     -32.692  14.447  -3.572  1.00 20.00     0.014 C 
HETATM   12  C9  UNL     1     -34.849  13.381  -4.289  1.00 20.00     0.014 C 
ENDBRANCH   6  10
TORSDOF 1
ENDMDL
MODEL 9
REMARK VINA RESULT:      -4.7      2.422      3.900
REMARK  1 active torsions:
REMARK  status: ('A' for Active; 'I' for Inactive)
REMARK    1  A    between atoms: C6_6  and  C10_10 
ROOT
HETATM    1  C1  UNL     1     -33.686  17.012  -5.662  1.00 20.00     0.054 A 
HETATM    2  C2  UNL     1     -34.237  17.986  -3.390  1.00 20.00     0.060 A 
HETATM    3  C3  UNL     1     -33.498  15.822  -5.084  1.00 20.00     0.025 A 
HETATM    4  C4  UNL     1     -34.048  16.786  -2.819  1.00 20.00    -0.037 A 
HETATM    5  C5  UNL     1     -34.106  18.173  -4.853  1.00 20.00     0.172 A 
HETATM    6  C6  UNL     1     -33.701  15.541  -3.617  1.00 20.00     0.147 A 
HETATM    7  C7  UNL     1     -34.135  16.638  -1.324  1.00 20.00     0.047 C 
HETATM    8  O11 UNL     1     -34.325  19.262  -5.373  1.00 20.00    -0.289 OA
HETATM    9  F12 UNL     1     -32.543  15.007  -3.123  1.00 20.00    -0.233 F 
ENDROOT
BRANCH   6  10
HETATM   10  C10 UNL     1     -34.784  14.466  -3.471  1.00 20.00     0.026 C 
HETATM   11  C8  UNL     1     -36.154  15.039  -3.815  1.00 20.00     0.014 C 
HETATM   12  C9  UNL     1     -34.461  13.265  -4.354  1.00 20.00     0.014 C 
ENDBRANCH   6  10
TORSDOF 1
ENDMDL
