MODEL 1
REMARK VINA RESULT:      -4.7      0.000      0.000
REMARK  4 active torsions:
REMARK  status: ('A' for Active; 'I' for Inactive)
REMARK    1  A    between atoms: C1_1  and  C3_3 
REMARK    2  A    between atoms: C2_2  and  C7_7 
REMARK    3  A    between atoms: C2_2  and  C8_8 
REMARK    4  A    between atoms: C3_3  and  C9_9 
ROOT
HETATM    1  C1  UNL     1     -33.996  14.687  -3.792  1.00 20.00     0.164 C 
HETATM    2  C2  UNL     1     -34.597  15.583  -2.988  1.00 20.00    -0.038 C 
HETATM    3  F11 UNL     1     -32.647  14.576  -3.774  1.00 20.00    -0.202 F 
ENDROOT
BRANCH   1   4
HETATM    4  C3  UNL     1     -34.645  13.735  -4.740  1.00 20.00     0.187 C 
HETATM    5  O10 UNL     1     -34.943  12.590  -4.410  1.00 20.00    -0.290 OA
BRANCH   4   6
HETATM    6  C9  UNL     1     -34.943  14.282  -6.125  1.00 20.00     0.082 C 
HETATM    7  C6  UNL     1     -34.111  15.509  -6.458  1.00 20.00     0.013 C 
ENDBRANCH   4   6
ENDBRANCH   1   4
BRANCH   2   8
HETATM    8  C7  UNL     1     -33.882  16.525  -2.045  1.00 20.00     0.033 C 
HETATM    9  C4  UNL     1     -34.617  16.685  -0.722  1.00 20.00     0.010 C 
ENDBRANCH   2   8
BRANCH   2  10
HETATM   10  C8  UNL     1     -36.110  15.703  -2.999  1.00 20.00     0.033 C 
HETATM   11  C5  UNL     1     -36.598  16.834  -3.894  1.00 20.00     0.010 C 
ENDBRANCH   2  10
TORSDOF 4
ENDMDL
MODEL 2
REMARK VINA RESULT:      -4.4      1.738      2.097
REMARK  4 active torsions:
REMARK  status: ('A' for Active; 'I' for Inactive)
REMARK    1  A    between atoms: C1_1  and  C3_3 
REMARK    2  A    between atoms: C2_2  and  C7_7 
REMARK    3  A    between atoms: C2_2  and  C8_8 
REMARK    4  A    between atoms: C3_3  and  C9_9 
ROOT
HETATM    1  C1  UNL     1     -35.618  14.644  -3.845  1.00 20.00     0.164 C 
HETATM    2  C2  UNL     1     -34.909  15.633  -3.269  1.00 20.00    -0.038 C 
HETATM    3  F11 UNL     1     -36.908  14.454  -3.486  1.00 20.00    -0.202 F 
ENDROOT
BRANCH   1   4
HETATM    4  C3  UNL     1     -35.158  13.689  -4.894  1.00 20.00     0.187 C 
HETATM    5  O10 UNL     1     -34.805  12.545  -4.624  1.00 20.00    -0.290 OA
BRANCH   4   6
HETATM    6  C9  UNL     1     -35.186  14.211  -6.320  1.00 20.00     0.082 C 
HETATM    7  C6  UNL     1     -36.397  15.086  -6.596  1.00 20.00     0.013 C 
ENDBRANCH   4   6
ENDBRANCH   1   4
BRANCH   2   8
HETATM    8  C7  UNL     1     -35.433  16.573  -2.205  1.00 20.00     0.033 C 
HETATM    9  C4  UNL     1     -34.556  16.580  -0.961  1.00 20.00     0.010 C 
ENDBRANCH   2   8
BRANCH   2  10
HETATM   10  C8  UNL     1     -33.465  15.856  -3.676  1.00 20.00     0.033 C 
HETATM   11  C5  UNL     1     -33.318  16.951  -4.725  1.00 20.00     0.010 C 
ENDBRANCH   2  10
TORSDOF 4
ENDMDL
MODEL 3
REMARK VINA RESULT:      -4.3     11.204     11.947
REMARK  4 active torsions:
REMARK  status: ('A' for Active; 'I' for Inactive)
REMARK    1  A    between atoms: C1_1  and  C3_3 
REMARK    2  A    between atoms: C2_2  and  C7_7 
REMARK    3  A    between atoms: C2_2  and  C8_8 
REMARK    4  A    between atoms: C3_3  and  C9_9 
ROOT
HETATM    1  C1  UNL     1     -33.182   6.153   3.261  1.00 20.00     0.164 C 
HETATM    2  C2  UNL     1     -34.154   6.077   4.189  1.00 20.00    -0.038 C 
HETATM    3  F11 UNL     1     -33.091   5.193   2.312  1.00 20.00    -0.202 F 
ENDROOT
BRANCH   1   4
HETATM    4  C3  UNL     1     -32.146   7.217   3.114  1.00 20.00     0.187 C 
HETATM    5  O10 UNL     1     -31.357   7.486   4.015  1.00 20.00    -0.290 OA
BRANCH   4   6
HETATM    6  C9  UNL     1     -32.111   7.923   1.769  1.00 20.00     0.082 C 
HETATM    7  C6  UNL     1     -32.480   9.393   1.874  1.00 20.00     0.013 C 
ENDBRANCH   4   6
ENDBRANCH   1   4
BRANCH   2   8
HETATM    8  C7  UNL     1     -35.180   4.969   4.287  1.00 20.00     0.033 C 
HETATM    9  C4  UNL     1     -34.839   3.964   5.378  1.00 20.00     0.010 C 
ENDBRANCH   2   8
BRANCH   2  10
HETATM   10  C8  UNL     1     -34.265   7.158   5.248  1.00 20.00     0.033 C 
HETATM   11  C5  UNL     1     -33.631   6.745   6.570  1.00 20.00     0.010 C 
ENDBRANCH   2  10
TORSDOF 4
ENDMDL
MODEL 4
REMARK VINA RESULT:      -4.1     11.296     11.944
REMARK  4 active torsions:
REMARK  status: ('A' for Active; 'I' for Inactive)
REMARK    1  A    between atoms: C1_1  and  C3_3 
REMARK    2  A    between atoms: C2_2  and  C7_7 
REMARK    3  A    between atoms: C2_2  and  C8_8 
REMARK    4  A    between atoms: C3_3  and  C9_9 
ROOT
HETATM    1  C1  UNL     1     -32.921   6.750   4.403  1.00 20.00     0.164 C 
HETATM    2  C2  UNL     1     -33.955   5.984   4.794  1.00 20.00    -0.038 C 
HETATM    3  F11 UNL     1     -32.221   7.446   5.329  1.00 20.00    -0.202 F 
ENDROOT
BRANCH   1   4
HETATM    4  C3  UNL     1     -32.397   6.934   3.018  1.00 20.00     0.187 C 
HETATM    5  O10 UNL     1     -32.068   5.983   2.315  1.00 20.00    -0.290 OA
BRANCH   4   6
HETATM    6  C9  UNL     1     -32.329   8.368   2.524  1.00 20.00     0.082 C 
HETATM    7  C6  UNL     1     -31.821   8.468   1.095  1.00 20.00     0.013 C 
ENDBRANCH   4   6
ENDBRANCH   1   4
BRANCH   2   8
HETATM    8  C7  UNL     1     -34.440   5.837   6.220  1.00 20.00     0.033 C 
HETATM    9  C4  UNL     1     -35.048   4.466   6.483  1.00 20.00     0.010 C 
ENDBRANCH   2   8
BRANCH   2  10
HETATM   10  C8  UNL     1     -34.736   5.193   3.760  1.00 20.00     0.033 C 
HETATM   11  C5  UNL     1     -36.002   5.912   3.312  1.00 20.00     0.010 C 
ENDBRANCH   2  10
TORSDOF 4
ENDMDL
MODEL 5
REMARK VINA RESULT:      -4.0      1.746      4.015
REMARK  4 active torsions:
REMARK  status: ('A' for Active; 'I' for Inactive)
REMARK    1  A    between atoms: C1_1  and  C3_3 
REMARK    2  A    between atoms: C2_2  and  C7_7 
REMARK    3  A    between atoms: C2_2  and  C8_8 
REMARK    4  A    between atoms: C3_3  and  C9_9 
ROOT
HETATM    1  C1  UNL     1     -34.414  14.157  -5.260  1.00 20.00     0.164 C 
HETATM    2  C2  UNL     1     -34.413  15.020  -6.293  1.00 20.00    -0.038 C 
HETATM    3  F11 UNL     1     -34.962  12.930  -5.418  1.00 20.00    -0.202 F 
ENDROOT
BRANCH   1   4
HETATM    4  C3  UNL     1     -33.847  14.371  -3.896  1.00 20.00     0.187 C 
HETATM    5  O10 UNL     1     -32.700  14.039  -3.609  1.00 20.00    -0.290 OA
BRANCH   4   6
HETATM    6  C9  UNL     1     -34.767  15.051  -2.898  1.00 20.00     0.082 C 
HETATM    7  C6  UNL     1     -34.117  16.252  -2.233  1.00 20.00     0.013 C 
ENDBRANCH   4   6
ENDBRANCH   1   4
BRANCH   2   8
HETATM    8  C7  UNL     1     -35.006  14.745  -7.657  1.00 20.00     0.033 C 
HETATM    9  C4  UNL     1     -36.524  14.847  -7.657  1.00 20.00     0.010 C 
ENDBRANCH   2   8
BRANCH   2  10
HETATM   10  C8  UNL     1     -33.790  16.393  -6.122  1.00 20.00     0.033 C 
HETATM   11  C5  UNL     1     -34.820  17.461  -5.779  1.00 20.00     0.010 C 
ENDBRANCH   2  10
TORSDOF 4
ENDMDL
MODEL 6
REMARK VINA RESULT:      -4.0      2.257      4.410
REMARK  4 active torsions:
REMARK  status: ('A' for Active; 'I' for Inactive)
REMARK    1  A    between atoms: C1_1  and  C3_3 
REMARK    2  A    between atoms: C2_2  and  C7_7 
REMARK    3  A    between atoms: C2_2  and  C8_8 
REMARK    4  A    between atoms: C3_3  and  C9_9 
ROOT
HETATM    1  C1  UNL     1     -34.172  16.521  -4.914  1.00 20.00     0.164 C 
HETATM    2  C2  UNL     1     -34.669  15.471  -5.593  1.00 20.00    -0.038 C 
HETATM    3  F11 UNL     1     -33.203  17.280  -5.476  1.00 20.00    -0.202 F 
ENDROOT
BRANCH   1   4
HETATM    4  C3  UNL     1     -34.576  17.002  -3.560  1.00 20.00     0.187 C 
HETATM    5  O10 UNL     1     -35.482  17.817  -3.403  1.00 20.00    -0.290 OA
BRANCH   4   6
HETATM    6  C9  UNL     1     -33.819  16.397  -2.391  1.00 20.00     0.082 C 
HETATM    7  C6  UNL     1     -34.580  16.515  -1.082  1.00 20.00     0.013 C 
ENDBRANCH   4   6
ENDBRANCH   1   4
BRANCH   2   8
HETATM    8  C7  UNL     1     -34.216  15.031  -6.968  1.00 20.00     0.033 C 
HETATM    9  C4  UNL     1     -35.385  14.635  -7.860  1.00 20.00     0.010 C 
ENDBRANCH   2   8
BRANCH   2  10
HETATM   10  C8  UNL     1     -35.763  14.625  -4.970  1.00 20.00     0.033 C 
HETATM   11  C5  UNL     1     -35.216  13.380  -4.283  1.00 20.00     0.010 C 
ENDBRANCH   2  10
TORSDOF 4
ENDMDL
MODEL 7
REMARK VINA RESULT:      -3.9      2.130      2.715
REMARK  4 active torsions:
REMARK  status: ('A' for Active; 'I' for Inactive)
REMARK    1  A    between atoms: C1_1  and  C3_3 
REMARK    2  A    between atoms: C2_2  and  C7_7 
REMARK    3  A    between atoms: C2_2  and  C8_8 
REMARK    4  A    between atoms: C3_3  and  C9_9 
ROOT
HETATM    1  C1  UNL     1     -34.795  16.937  -4.330  1.00 20.00     0.164 C 
HETATM    2  C2  UNL     1     -34.427  16.136  -3.313  1.00 20.00    -0.038 C 
HETATM    3  F11 UNL     1     -34.564  18.268  -4.246  1.00 20.00    -0.202 F 
ENDROOT
BRANCH   1   4
HETATM    4  C3  UNL     1     -35.440  16.539  -5.614  1.00 20.00     0.187 C 
HETATM    5  O10 UNL     1     -36.660  16.458  -5.733  1.00 20.00    -0.290 OA
BRANCH   4   6
HETATM    6  C9  UNL     1     -34.496  16.270  -6.773  1.00 20.00     0.082 C 
HETATM    7  C6  UNL     1     -34.581  14.838  -7.274  1.00 20.00     0.013 C 
ENDBRANCH   4   6
ENDBRANCH   1   4
BRANCH   2   8
HETATM    8  C7  UNL     1     -33.773  16.601  -2.031  1.00 20.00     0.033 C 
HETATM    9  C4  UNL     1     -34.733  16.567  -0.850  1.00 20.00     0.010 C 
ENDBRANCH   2   8
BRANCH   2  10
HETATM   10  C8  UNL     1     -34.675  14.642  -3.408  1.00 20.00     0.033 C 
HETATM   11  C5  UNL     1     -33.419  13.866  -3.785  1.00 20.00     0.010 C 
ENDBRANCH   2  10
TORSDOF 4
ENDMDL
MODEL 8
REMARK VINA RESULT:      -3.9      1.599      1.925
REMARK  4 active torsions:
REMARK  status: ('A' for Active; 'I' for Inactive)
REMARK    1  A    between atoms: C1_1  and  C3_3 
REMARK    2  A    between atoms: C2_2  and  C7_7 
REMARK    3  A    between atoms: C2_2  and  C8_8 
REMARK    4  A    between atoms: C3_3  and  C9_9 
ROOT
HETATM    1  C1  UNL     1     -33.869  15.740  -3.677  1.00 20.00     0.164 C 
HETATM    2  C2  UNL     1     -34.797  16.241  -2.841  1.00 20.00    -0.038 C 
HETATM    3  F11 UNL     1     -32.721  15.232  -3.171  1.00 20.00    -0.202 F 
ENDROOT
BRANCH   1   4
HETATM    4  C3  UNL     1     -33.942  15.646  -5.164  1.00 20.00     0.187 C 
HETATM    5  O10 UNL     1     -33.485  16.520  -5.895  1.00 20.00    -0.290 OA
BRANCH   4   6
HETATM    6  C9  UNL     1     -34.587  14.386  -5.715  1.00 20.00     0.082 C 
HETATM    7  C6  UNL     1     -34.549  13.233  -4.727  1.00 20.00     0.013 C 
ENDBRANCH   4   6
ENDBRANCH   1   4
BRANCH   2   8
HETATM    8  C7  UNL     1     -34.665  16.310  -1.335  1.00 20.00     0.033 C 
HETATM    9  C4  UNL     1     -33.803  17.480  -0.885  1.00 20.00     0.010 C 
ENDBRANCH   2   8
BRANCH   2  10
HETATM   10  C8  UNL     1     -36.089  16.802  -3.403  1.00 20.00     0.033 C 
HETATM   11  C5  UNL     1     -37.205  15.767  -3.441  1.00 20.00     0.010 C 
ENDBRANCH   2  10
TORSDOF 4
ENDMDL
MODEL 9
REMARK VINA RESULT:      -3.9      2.173      4.108
REMARK  4 active torsions:
REMARK  status: ('A' for Active; 'I' for Inactive)
REMARK    1  A    between atoms: C1_1  and  C3_3 
REMARK    2  A    between atoms: C2_2  and  C7_7 
REMARK    3  A    between atoms: C2_2  and  C8_8 
REMARK    4  A    between atoms: C3_3  and  C9_9 
ROOT
HETATM    1  C1  UNL     1     -36.252  14.527  -4.624  1.00 20.00     0.164 C 
HETATM    2  C2  UNL     1     -36.383  15.118  -5.826  1.00 20.00    -0.038 C 
HETATM    3  F11 UNL     1     -37.270  14.593  -3.735  1.00 20.00    -0.202 F 
ENDROOT
BRANCH   1   4
HETATM    4  C3  UNL     1     -35.083  13.753  -4.114  1.00 20.00     0.187 C 
HETATM    5  O10 UNL     1     -34.968  12.546  -4.308  1.00 20.00    -0.290 OA
BRANCH   4   6
HETATM    6  C9  UNL     1     -34.032  14.557  -3.370  1.00 20.00     0.082 C 
HETATM    7  C6  UNL     1     -34.634  15.689  -2.556  1.00 20.00     0.013 C 
ENDBRANCH   4   6
ENDBRANCH   1   4
BRANCH   2   8
HETATM    8  C7  UNL     1     -37.598  15.893  -6.287  1.00 20.00     0.033 C 
HETATM    9  C4  UNL     1     -38.376  15.156  -7.367  1.00 20.00     0.010 C 
ENDBRANCH   2   8
BRANCH   2  10
HETATM   10  C8  UNL     1     -35.248  15.038  -6.829  1.00 20.00     0.033 C 
HETATM   11  C5  UNL     1     -34.312  16.237  -6.746  1.00 20.00     0.010 C 
ENDBRANCH   2  10
TORSDOF 4
ENDMDL
