MODEL 1
REMARK VINA RESULT:      -4.0      0.000      0.000
REMARK  1 active torsions:
REMARK  status: ('A' for Active; 'I' for Inactive)
REMARK    1  A    between atoms: C4_4  and  C8_8 
ROOT
HETATM    1  C1  UNL     1     -33.194  16.276  -4.885  1.00 20.00     0.302 C 
HETATM    2  C2  UNL     1     -33.157  15.206  -3.789  1.00 20.00     0.302 C 
HETATM    3  C3  UNL     1     -34.867  17.492  -3.649  1.00 20.00     0.307 C 
HETATM    4  C4  UNL     1     -34.857  16.427  -2.533  1.00 20.00     0.250 C 
HETATM    5  C6  UNL     1     -33.600  18.601  -5.376  1.00 20.00     0.310 C 
HETATM    6  C7  UNL     1     -35.441  14.398  -3.741  1.00 20.00     0.310 C 
HETATM    7  N9  UNL     1     -33.569  17.581  -4.330  1.00 20.00     0.088 N 
HETATM    8  N10 UNL     1     -34.395  15.107  -3.003  1.00 20.00     0.092 N 
ENDROOT
BRANCH   4   9
HETATM    9  C8  UNL     1     -34.008  16.880  -1.336  1.00 20.00     0.033 C 
HETATM   10  C5  UNL     1     -34.848  17.087  -0.121  1.00 20.00     0.007 C 
ENDBRANCH   4   9
TORSDOF 1
ENDMDL
MODEL 2
REMARK VINA RESULT:      -4.0      1.447      1.778
REMARK  1 active torsions:
REMARK  status: ('A' for Active; 'I' for Inactive)
REMARK    1  A    between atoms: C4_4  and  C8_8 
ROOT
HETATM    1  C1  UNL     1     -34.667  16.396  -5.295  1.00 20.00     0.302 C 
HETATM    2  C2  UNL     1     -33.316  16.103  -4.634  1.00 20.00     0.302 C 
HETATM    3  C3  UNL     1     -35.792  15.927  -3.216  1.00 20.00     0.307 C 
HETATM    4  C4  UNL     1     -34.447  15.619  -2.525  1.00 20.00     0.250 C 
HETATM    5  C6  UNL     1     -36.921  17.175  -4.944  1.00 20.00     0.310 C 
HETATM    6  C7  UNL     1     -33.561  13.810  -3.889  1.00 20.00     0.310 C 
HETATM    7  N9  UNL     1     -35.635  16.893  -4.311  1.00 20.00     0.088 N 
HETATM    8  N10 UNL     1     -33.396  15.204  -3.474  1.00 20.00     0.092 N 
ENDROOT
BRANCH   4   9
HETATM    9  C8  UNL     1     -33.957  16.816  -1.697  1.00 20.00     0.033 C 
HETATM   10  C5  UNL     1     -34.700  16.925  -0.408  1.00 20.00     0.007 C 
ENDBRANCH   4   9
TORSDOF 1
ENDMDL
MODEL 3
REMARK VINA RESULT:      -3.9      1.204      3.000
REMARK  1 active torsions:
REMARK  status: ('A' for Active; 'I' for Inactive)
REMARK    1  A    between atoms: C4_4  and  C8_8 
ROOT
HETATM    1  C1  UNL     1     -35.492  15.485  -5.036  1.00 20.00     0.302 C 
HETATM    2  C2  UNL     1     -35.724  16.840  -4.359  1.00 20.00     0.302 C 
HETATM    3  C3  UNL     1     -33.662  15.040  -3.533  1.00 20.00     0.307 C 
HETATM    4  C4  UNL     1     -33.867  16.401  -2.837  1.00 20.00     0.250 C 
HETATM    5  C6  UNL     1     -34.700  13.227  -4.740  1.00 20.00     0.310 C 
HETATM    6  C7  UNL     1     -33.606  17.973  -4.675  1.00 20.00     0.310 C 
HETATM    7  N9  UNL     1     -34.917  14.520  -4.093  1.00 20.00     0.088 N 
HETATM    8  N10 UNL     1     -34.533  17.395  -3.701  1.00 20.00     0.092 N 
ENDROOT
BRANCH   4   9
HETATM    9  C8  UNL     1     -34.649  16.246  -1.524  1.00 20.00     0.033 C 
HETATM   10  C5  UNL     1     -34.264  17.294  -0.535  1.00 20.00     0.007 C 
ENDBRANCH   4   9
TORSDOF 1
ENDMDL
MODEL 4
REMARK VINA RESULT:      -3.8      1.778      2.236
REMARK  1 active torsions:
REMARK  status: ('A' for Active; 'I' for Inactive)
REMARK    1  A    between atoms: C4_4  and  C8_8 
ROOT
HETATM    1  C1  UNL     1     -35.244  14.293  -5.697  1.00 20.00     0.302 C 
HETATM    2  C2  UNL     1     -35.621  13.726  -4.324  1.00 20.00     0.302 C 
HETATM    3  C3  UNL     1     -35.236  16.522  -4.782  1.00 20.00     0.307 C 
HETATM    4  C4  UNL     1     -35.622  15.982  -3.389  1.00 20.00     0.250 C 
HETATM    5  C6  UNL     1     -34.114  16.070  -6.869  1.00 20.00     0.310 C 
HETATM    6  C7  UNL     1     -37.720  14.835  -3.836  1.00 20.00     0.310 C 
HETATM    7  N9  UNL     1     -34.475  15.534  -5.558  1.00 20.00     0.088 N 
HETATM    8  N10 UNL     1     -36.317  14.681  -3.450  1.00 20.00     0.092 N 
ENDROOT
BRANCH   4   9
HETATM    9  C8  UNL     1     -34.395  15.874  -2.471  1.00 20.00     0.033 C 
HETATM   10  C5  UNL     1     -34.650  16.508  -1.146  1.00 20.00     0.007 C 
ENDBRANCH   4   9
TORSDOF 1
ENDMDL
MODEL 5
REMARK VINA RESULT:      -3.7      1.459      3.272
REMARK  1 active torsions:
REMARK  status: ('A' for Active; 'I' for Inactive)
REMARK    1  A    between atoms: C4_4  and  C8_8 
ROOT
HETATM    1  C1  UNL     1     -33.712  17.676  -3.182  1.00 20.00     0.302 C 
HETATM    2  C2  UNL     1     -33.752  16.935  -4.523  1.00 20.00     0.302 C 
HETATM    3  C3  UNL     1     -35.148  16.003  -2.209  1.00 20.00     0.307 C 
HETATM    4  C4  UNL     1     -35.214  15.240  -3.548  1.00 20.00     0.250 C 
HETATM    5  C6  UNL     1     -33.846  17.451  -0.786  1.00 20.00     0.310 C 
HETATM    6  C7  UNL     1     -36.115  16.917  -5.063  1.00 20.00     0.310 C 
HETATM    7  N9  UNL     1     -33.888  16.743  -2.064  1.00 20.00     0.088 N 
HETATM    8  N10 UNL     1     -34.949  16.103  -4.715  1.00 20.00     0.092 N 
ENDROOT
BRANCH   4   9
HETATM    9  C8  UNL     1     -34.251  14.043  -3.557  1.00 20.00     0.033 C 
HETATM   10  C5  UNL     1     -34.455  13.191  -4.764  1.00 20.00     0.007 C 
ENDBRANCH   4   9
TORSDOF 1
ENDMDL
MODEL 6
REMARK VINA RESULT:      -3.7      1.149      3.050
REMARK  1 active torsions:
REMARK  status: ('A' for Active; 'I' for Inactive)
REMARK    1  A    between atoms: C4_4  and  C8_8 
ROOT
HETATM    1  C1  UNL     1     -35.220  17.829  -3.857  1.00 20.00     0.302 C 
HETATM    2  C2  UNL     1     -36.049  16.959  -2.906  1.00 20.00     0.302 C 
HETATM    3  C3  UNL     1     -33.558  16.091  -4.007  1.00 20.00     0.307 C 
HETATM    4  C4  UNL     1     -34.366  15.196  -3.046  1.00 20.00     0.250 C 
HETATM    5  C6  UNL     1     -33.640  17.830  -5.677  1.00 20.00     0.310 C 
HETATM    6  C7  UNL     1     -34.532  16.582  -1.054  1.00 20.00     0.310 C 
HETATM    7  N9  UNL     1     -34.427  16.998  -4.769  1.00 20.00     0.088 N 
HETATM    8  N10 UNL     1     -35.263  15.965  -2.161  1.00 20.00     0.092 N 
ENDROOT
BRANCH   4   9
HETATM    9  C8  UNL     1     -35.174  14.138  -3.813  1.00 20.00     0.033 C 
HETATM   10  C5  UNL     1     -34.296  13.320  -4.698  1.00 20.00     0.007 C 
ENDBRANCH   4   9
TORSDOF 1
ENDMDL
MODEL 7
REMARK VINA RESULT:      -3.5      1.502      3.638
REMARK  1 active torsions:
REMARK  status: ('A' for Active; 'I' for Inactive)
REMARK    1  A    between atoms: C4_4  and  C8_8 
ROOT
HETATM    1  C1  UNL     1     -35.597  15.921  -2.641  1.00 20.00     0.302 C 
HETATM    2  C2  UNL     1     -36.161  15.466  -3.991  1.00 20.00     0.302 C 
HETATM    3  C3  UNL     1     -33.359  15.786  -3.522  1.00 20.00     0.307 C 
HETATM    4  C4  UNL     1     -33.896  15.320  -4.891  1.00 20.00     0.250 C 
HETATM    5  C6  UNL     1     -33.794  17.070  -1.527  1.00 20.00     0.310 C 
HETATM    6  C7  UNL     1     -35.122  13.300  -4.312  1.00 20.00     0.310 C 
HETATM    7  N9  UNL     1     -34.328  16.634  -2.816  1.00 20.00     0.088 N 
HETATM    8  N10 UNL     1     -35.221  14.677  -4.800  1.00 20.00     0.092 N 
ENDROOT
BRANCH   4   9
HETATM    9  C8  UNL     1     -33.950  16.481  -5.896  1.00 20.00     0.033 C 
HETATM   10  C5  UNL     1     -34.455  16.027  -7.223  1.00 20.00     0.007 C 
ENDBRANCH   4   9
TORSDOF 1
ENDMDL
MODEL 8
REMARK VINA RESULT:      -3.5      2.254      4.449
REMARK  1 active torsions:
REMARK  status: ('A' for Active; 'I' for Inactive)
REMARK    1  A    between atoms: C4_4  and  C8_8 
ROOT
HETATM    1  C1  UNL     1     -35.258  15.108  -3.351  1.00 20.00     0.302 C 
HETATM    2  C2  UNL     1     -33.845  15.193  -3.939  1.00 20.00     0.302 C 
HETATM    3  C3  UNL     1     -36.174  15.950  -5.414  1.00 20.00     0.307 C 
HETATM    4  C4  UNL     1     -34.764  16.054  -6.031  1.00 20.00     0.250 C 
HETATM    5  C6  UNL     1     -37.598  14.800  -3.842  1.00 20.00     0.310 C 
HETATM    6  C7  UNL     1     -33.624  17.544  -4.483  1.00 20.00     0.310 C 
HETATM    7  N9  UNL     1     -36.252  14.885  -4.406  1.00 20.00     0.088 N 
HETATM    8  N10 UNL     1     -33.701  16.183  -5.016  1.00 20.00     0.092 N 
ENDROOT
BRANCH   4   9
HETATM    9  C8  UNL     1     -34.465  14.857  -6.947  1.00 20.00     0.033 C 
HETATM   10  C5  UNL     1     -35.574  14.625  -7.917  1.00 20.00     0.007 C 
ENDBRANCH   4   9
TORSDOF 1
ENDMDL
MODEL 9
REMARK VINA RESULT:      -3.4     12.566     13.965
REMARK  1 active torsions:
REMARK  status: ('A' for Active; 'I' for Inactive)
REMARK    1  A    between atoms: C4_4  and  C8_8 
ROOT
HETATM    1  C1  UNL     1     -40.926   4.276  -1.046  1.00 20.00     0.302 C 
HETATM    2  C2  UNL     1     -40.849   5.696  -0.473  1.00 20.00     0.302 C 
HETATM    3  C3  UNL     1     -42.860   4.897  -2.342  1.00 20.00     0.307 C 
HETATM    4  C4  UNL     1     -42.813   6.332  -1.778  1.00 20.00     0.250 C 
HETATM    5  C6  UNL     1     -41.594   2.929  -2.929  1.00 20.00     0.310 C 
HETATM    6  C7  UNL     1     -42.997   5.957   0.619  1.00 20.00     0.310 C 
HETATM    7  N9  UNL     1     -41.526   4.283  -2.384  1.00 20.00     0.088 N 
HETATM    8  N10 UNL     1     -42.133   6.413  -0.471  1.00 20.00     0.092 N 
ENDROOT
BRANCH   4   9
HETATM    9  C8  UNL     1     -42.152   7.301  -2.769  1.00 20.00     0.033 C 
HETATM   10  C5  UNL     1     -43.036   7.566  -3.941  1.00 20.00     0.007 C 
ENDBRANCH   4   9
TORSDOF 1
ENDMDL
