MODEL 1
REMARK VINA RESULT:      -5.1      0.000      0.000
REMARK  1 active torsions:
REMARK  status: ('A' for Active; 'I' for Inactive)
REMARK    1  A    between atoms: C7_7  and  C10_10 
ROOT
HETATM    1  C1  UNL     1     -32.777  14.770  -3.644  1.00 20.00    -0.018 C 
HETATM    2  C2  UNL     1     -33.073  15.921  -4.270  1.00 20.00    -0.024 C 
HETATM    3  C3  UNL     1     -34.683  13.709  -4.603  1.00 20.00     0.139 C 
HETATM    4  C4  UNL     1     -34.920  15.364  -2.995  1.00 20.00     0.025 C 
HETATM    5  C5  UNL     1     -34.076  14.114  -3.265  1.00 20.00     0.078 C 
HETATM    6  C6  UNL     1     -34.585  16.027  -4.341  1.00 20.00     0.020 C 
HETATM    7  C7  UNL     1     -35.156  14.974  -5.336  1.00 20.00     0.067 C 
HETATM    8  O11 UNL     1     -34.734  12.571  -5.042  1.00 20.00    -0.297 OA
ENDROOT
BRANCH   7   9
HETATM    9  C10 UNL     1     -34.634  15.075  -6.755  1.00 20.00    -0.011 C 
HETATM   10  C8  UNL     1     -35.556  14.340  -7.732  1.00 20.00     0.010 C 
HETATM   11  C9  UNL     1     -34.478  16.539  -7.179  1.00 20.00     0.010 C 
ENDBRANCH   7   9
TORSDOF 1
ENDMDL
MODEL 2
REMARK VINA RESULT:      -4.7      1.657      2.503
REMARK  1 active torsions:
REMARK  status: ('A' for Active; 'I' for Inactive)
REMARK    1  A    between atoms: C7_7  and  C10_10 
ROOT
HETATM    1  C1  UNL     1     -34.844  15.432  -2.887  1.00 20.00    -0.018 C 
HETATM    2  C2  UNL     1     -35.659  14.684  -3.651  1.00 20.00    -0.024 C 
HETATM    3  C3  UNL     1     -33.461  15.918  -4.765  1.00 20.00     0.139 C 
HETATM    4  C4  UNL     1     -33.540  13.783  -3.860  1.00 20.00     0.025 C 
HETATM    5  C5  UNL     1     -33.444  15.241  -3.400  1.00 20.00     0.078 C 
HETATM    6  C6  UNL     1     -34.804  14.009  -4.706  1.00 20.00     0.020 C 
HETATM    7  C7  UNL     1     -34.284  15.057  -5.734  1.00 20.00     0.067 C 
HETATM    8  O11 UNL     1     -32.949  16.995  -5.028  1.00 20.00    -0.297 OA
ENDROOT
BRANCH   7   9
HETATM    9  C10 UNL     1     -35.361  15.836  -6.464  1.00 20.00    -0.011 C 
HETATM   10  C8  UNL     1     -34.759  16.675  -7.594  1.00 20.00     0.010 C 
HETATM   11  C9  UNL     1     -36.436  14.897  -7.019  1.00 20.00     0.010 C 
ENDBRANCH   7   9
TORSDOF 1
ENDMDL
MODEL 3
REMARK VINA RESULT:      -4.5      2.156      4.013
REMARK  1 active torsions:
REMARK  status: ('A' for Active; 'I' for Inactive)
REMARK    1  A    between atoms: C7_7  and  C10_10 
ROOT
HETATM    1  C1  UNL     1     -33.639  14.066  -4.345  1.00 20.00    -0.018 C 
HETATM    2  C2  UNL     1     -34.356  14.097  -3.209  1.00 20.00    -0.024 C 
HETATM    3  C3  UNL     1     -33.861  16.424  -4.600  1.00 20.00     0.139 C 
HETATM    4  C4  UNL     1     -35.687  15.017  -4.861  1.00 20.00     0.025 C 
HETATM    5  C5  UNL     1     -34.214  15.102  -5.271  1.00 20.00     0.078 C 
HETATM    6  C6  UNL     1     -35.402  15.185  -3.359  1.00 20.00     0.020 C 
HETATM    7  C7  UNL     1     -34.730  16.589  -3.344  1.00 20.00     0.067 C 
HETATM    8  O11 UNL     1     -32.992  17.197  -4.972  1.00 20.00    -0.297 OA
ENDROOT
BRANCH   7   9
HETATM    9  C10 UNL     1     -33.929  16.910  -2.098  1.00 20.00    -0.011 C 
HETATM   10  C8  UNL     1     -33.537  18.389  -2.063  1.00 20.00     0.010 C 
HETATM   11  C9  UNL     1     -34.710  16.541  -0.834  1.00 20.00     0.010 C 
ENDBRANCH   7   9
TORSDOF 1
ENDMDL
MODEL 4
REMARK VINA RESULT:      -4.4      1.828      3.046
REMARK  1 active torsions:
REMARK  status: ('A' for Active; 'I' for Inactive)
REMARK    1  A    between atoms: C7_7  and  C10_10 
ROOT
HETATM    1  C1  UNL     1     -34.877  14.101  -5.800  1.00 20.00    -0.018 C 
HETATM    2  C2  UNL     1     -34.201  15.220  -5.487  1.00 20.00    -0.024 C 
HETATM    3  C3  UNL     1     -36.249  14.338  -3.866  1.00 20.00     0.139 C 
HETATM    4  C4  UNL     1     -34.002  13.794  -3.678  1.00 20.00     0.025 C 
HETATM    5  C5  UNL     1     -35.227  13.410  -4.512  1.00 20.00     0.078 C 
HETATM    6  C6  UNL     1     -34.123  15.298  -3.974  1.00 20.00     0.020 C 
HETATM    7  C7  UNL     1     -35.528  15.601  -3.373  1.00 20.00     0.067 C 
HETATM    8  O11 UNL     1     -37.451  14.133  -3.802  1.00 20.00    -0.297 OA
ENDROOT
BRANCH   7   9
HETATM    9  C10 UNL     1     -36.172  16.887  -3.853  1.00 20.00    -0.011 C 
HETATM   10  C8  UNL     1     -37.401  17.232  -3.009  1.00 20.00     0.010 C 
HETATM   11  C9  UNL     1     -35.171  18.045  -3.827  1.00 20.00     0.010 C 
ENDBRANCH   7   9
TORSDOF 1
ENDMDL
MODEL 5
REMARK VINA RESULT:      -4.4      1.229      1.688
REMARK  1 active torsions:
REMARK  status: ('A' for Active; 'I' for Inactive)
REMARK    1  A    between atoms: C7_7  and  C10_10 
ROOT
HETATM    1  C1  UNL     1     -33.606  13.827  -3.917  1.00 20.00    -0.018 C 
HETATM    2  C2  UNL     1     -33.401  15.115  -3.595  1.00 20.00    -0.024 C 
HETATM    3  C3  UNL     1     -35.166  14.453  -5.606  1.00 20.00     0.139 C 
HETATM    4  C4  UNL     1     -35.667  14.723  -3.356  1.00 20.00     0.025 C 
HETATM    5  C5  UNL     1     -35.053  13.681  -4.297  1.00 20.00     0.078 C 
HETATM    6  C6  UNL     1     -34.714  15.849  -3.789  1.00 20.00     0.020 C 
HETATM    7  C7  UNL     1     -35.056  15.955  -5.305  1.00 20.00     0.067 C 
HETATM    8  O11 UNL     1     -35.270  13.954  -6.715  1.00 20.00    -0.297 OA
ENDROOT
BRANCH   7   9
HETATM    9  C10 UNL     1     -34.020  16.664  -6.154  1.00 20.00    -0.011 C 
HETATM   10  C8  UNL     1     -34.576  16.986  -7.543  1.00 20.00     0.010 C 
HETATM   11  C9  UNL     1     -33.533  17.945  -5.470  1.00 20.00     0.010 C 
ENDBRANCH   7   9
TORSDOF 1
ENDMDL
MODEL 6
REMARK VINA RESULT:      -4.3      2.181      3.212
REMARK  1 active torsions:
REMARK  status: ('A' for Active; 'I' for Inactive)
REMARK    1  A    between atoms: C7_7  and  C10_10 
ROOT
HETATM    1  C1  UNL     1     -34.833  18.033  -3.212  1.00 20.00    -0.018 C 
HETATM    2  C2  UNL     1     -35.893  17.263  -2.912  1.00 20.00    -0.024 C 
HETATM    3  C3  UNL     1     -33.470  16.106  -3.535  1.00 20.00     0.139 C 
HETATM    4  C4  UNL     1     -34.218  16.701  -1.420  1.00 20.00     0.025 C 
HETATM    5  C5  UNL     1     -33.610  17.351  -2.667  1.00 20.00     0.078 C 
HETATM    6  C6  UNL     1     -35.375  16.037  -2.185  1.00 20.00     0.020 C 
HETATM    7  C7  UNL     1     -34.588  15.118  -3.166  1.00 20.00     0.067 C 
HETATM    8  O11 UNL     1     -32.640  15.945  -4.415  1.00 20.00    -0.297 OA
ENDROOT
BRANCH   7   9
HETATM    9  C10 UNL     1     -35.375  14.627  -4.365  1.00 20.00    -0.011 C 
HETATM   10  C8  UNL     1     -34.784  13.326  -4.913  1.00 20.00     0.010 C 
HETATM   11  C9  UNL     1     -36.851  14.427  -4.007  1.00 20.00     0.010 C 
ENDBRANCH   7   9
TORSDOF 1
ENDMDL
MODEL 7
REMARK VINA RESULT:      -4.3      1.681      3.560
REMARK  1 active torsions:
REMARK  status: ('A' for Active; 'I' for Inactive)
REMARK    1  A    between atoms: C7_7  and  C10_10 
ROOT
HETATM    1  C1  UNL     1     -34.472  15.277  -5.591  1.00 20.00    -0.018 C 
HETATM    2  C2  UNL     1     -33.488  15.833  -4.865  1.00 20.00    -0.024 C 
HETATM    3  C3  UNL     1     -35.659  14.688  -3.612  1.00 20.00     0.139 C 
HETATM    4  C4  UNL     1     -33.668  13.636  -4.168  1.00 20.00     0.025 C 
HETATM    5  C5  UNL     1     -34.975  14.082  -4.831  1.00 20.00     0.078 C 
HETATM    6  C6  UNL     1     -33.348  15.025  -3.590  1.00 20.00     0.020 C 
HETATM    7  C7  UNL     1     -34.584  15.248  -2.668  1.00 20.00     0.067 C 
HETATM    8  O11 UNL     1     -36.866  14.764  -3.441  1.00 20.00    -0.297 OA
ENDROOT
BRANCH   7   9
HETATM    9  C10 UNL     1     -34.833  16.686  -2.259  1.00 20.00    -0.011 C 
HETATM   10  C8  UNL     1     -36.174  17.186  -2.803  1.00 20.00     0.010 C 
HETATM   11  C9  UNL     1     -34.793  16.838  -0.736  1.00 20.00     0.010 C 
ENDBRANCH   7   9
TORSDOF 1
ENDMDL
MODEL 8
REMARK VINA RESULT:      -4.3      2.323      3.382
REMARK  1 active torsions:
REMARK  status: ('A' for Active; 'I' for Inactive)
REMARK    1  A    between atoms: C7_7  and  C10_10 
ROOT
HETATM    1  C1  UNL     1     -35.120  17.014  -1.190  1.00 20.00    -0.018 C 
HETATM    2  C2  UNL     1     -33.889  16.673  -1.608  1.00 20.00    -0.024 C 
HETATM    3  C3  UNL     1     -36.089  16.106  -3.169  1.00 20.00     0.139 C 
HETATM    4  C4  UNL     1     -34.795  18.031  -3.246  1.00 20.00     0.025 C 
HETATM    5  C5  UNL     1     -35.914  17.412  -2.403  1.00 20.00     0.078 C 
HETATM    6  C6  UNL     1     -33.864  16.813  -3.118  1.00 20.00     0.020 C 
HETATM    7  C7  UNL     1     -34.737  15.707  -3.780  1.00 20.00     0.067 C 
HETATM    8  O11 UNL     1     -37.121  15.458  -3.238  1.00 20.00    -0.297 OA
ENDROOT
BRANCH   7   9
HETATM    9  C10 UNL     1     -34.329  14.283  -3.457  1.00 20.00    -0.011 C 
HETATM   10  C8  UNL     1     -35.051  13.286  -4.368  1.00 20.00     0.010 C 
HETATM   11  C9  UNL     1     -32.813  14.105  -3.578  1.00 20.00     0.010 C 
ENDBRANCH   7   9
TORSDOF 1
ENDMDL
MODEL 9
REMARK VINA RESULT:      -4.1      1.927      3.949
REMARK  1 active torsions:
REMARK  status: ('A' for Active; 'I' for Inactive)
REMARK    1  A    between atoms: C7_7  and  C10_10 
ROOT
HETATM    1  C1  UNL     1     -34.751  16.167  -7.429  1.00 20.00    -0.018 C 
HETATM    2  C2  UNL     1     -34.402  14.940  -7.006  1.00 20.00    -0.024 C 
HETATM    3  C3  UNL     1     -35.618  16.709  -5.277  1.00 20.00     0.139 C 
HETATM    4  C4  UNL     1     -36.674  15.151  -6.634  1.00 20.00     0.025 C 
HETATM    5  C5  UNL     1     -36.031  16.537  -6.734  1.00 20.00     0.078 C 
HETATM    6  C6  UNL     1     -35.439  14.493  -5.995  1.00 20.00     0.020 C 
HETATM    7  C7  UNL     1     -35.312  15.325  -4.684  1.00 20.00     0.067 C 
HETATM    8  O11 UNL     1     -35.498  17.775  -4.695  1.00 20.00    -0.297 OA
ENDROOT
BRANCH   7   9
HETATM    9  C10 UNL     1     -33.961  15.250  -4.000  1.00 20.00    -0.011 C 
HETATM   10  C8  UNL     1     -34.002  15.932  -2.630  1.00 20.00     0.010 C 
HETATM   11  C9  UNL     1     -33.501  13.797  -3.852  1.00 20.00     0.010 C 
ENDBRANCH   7   9
TORSDOF 1
ENDMDL
