MODEL 1
REMARK VINA RESULT:      -4.5      0.000      0.000
REMARK  1 active torsions:
REMARK  status: ('A' for Active; 'I' for Inactive)
REMARK    1  A    between atoms: C5_5  and  C8_8 
ROOT
HETATM    1  C1  UNL     1     -34.903  15.987  -4.736  1.00 20.00     0.006 A 
HETATM    2  C2  UNL     1     -34.612  14.935  -5.498  1.00 20.00     0.076 A 
HETATM    3  C3  UNL     1     -34.551  13.768  -4.612  1.00 20.00     0.171 A 
HETATM    4  C4  UNL     1     -34.858  14.152  -3.190  1.00 20.00     0.093 A 
HETATM    5  C5  UNL     1     -35.059  15.672  -3.275  1.00 20.00     0.020 A 
HETATM    6  O9  UNL     1     -34.295  12.634  -4.985  1.00 20.00    -0.291 OA
HETATM    7 CL10 UNL     1     -34.358  14.873  -7.162  1.00 20.00    -0.081 Cl
ENDROOT
BRANCH   5   8
HETATM    8  C8  UNL     1     -34.048  16.436  -2.427  1.00 20.00    -0.015 C 
HETATM    9  C6  UNL     1     -33.757  17.805  -3.038  1.00 20.00     0.010 C 
HETATM   10  C7  UNL     1     -34.551  16.585  -0.992  1.00 20.00     0.010 C 
ENDBRANCH   5   8
TORSDOF 1
ENDMDL
MODEL 2
REMARK VINA RESULT:      -4.3      1.995      2.466
REMARK  1 active torsions:
REMARK  status: ('A' for Active; 'I' for Inactive)
REMARK    1  A    between atoms: C5_5  and  C8_8 
ROOT
HETATM    1  C1  UNL     1     -33.658  15.759  -3.121  1.00 20.00     0.006 A 
HETATM    2  C2  UNL     1     -34.550  14.829  -3.453  1.00 20.00     0.076 A 
HETATM    3  C3  UNL     1     -35.874  15.370  -3.126  1.00 20.00     0.171 A 
HETATM    4  C4  UNL     1     -35.766  16.763  -2.570  1.00 20.00     0.093 A 
HETATM    5  C5  UNL     1     -34.251  17.008  -2.533  1.00 20.00     0.020 A 
HETATM    6  O9  UNL     1     -36.923  14.769  -3.296  1.00 20.00    -0.291 OA
HETATM    7 CL10 UNL     1     -34.290  13.308  -4.128  1.00 20.00    -0.081 Cl
ENDROOT
BRANCH   5   8
HETATM    8  C8  UNL     1     -33.741  17.257  -1.118  1.00 20.00    -0.015 C 
HETATM    9  C6  UNL     1     -33.119  18.647  -1.006  1.00 20.00     0.010 C 
HETATM   10  C7  UNL     1     -34.870  17.091  -0.102  1.00 20.00     0.010 C 
ENDBRANCH   5   8
TORSDOF 1
ENDMDL
MODEL 3
REMARK VINA RESULT:      -4.3      1.951      2.319
REMARK  1 active torsions:
REMARK  status: ('A' for Active; 'I' for Inactive)
REMARK    1  A    between atoms: C5_5  and  C8_8 
ROOT
HETATM    1  C1  UNL     1     -35.587  15.818  -3.129  1.00 20.00     0.006 A 
HETATM    2  C2  UNL     1     -36.146  14.737  -3.670  1.00 20.00     0.076 A 
HETATM    3  C3  UNL     1     -35.060  13.793  -3.957  1.00 20.00     0.171 A 
HETATM    4  C4  UNL     1     -33.732  14.349  -3.523  1.00 20.00     0.093 A 
HETATM    5  C5  UNL     1     -34.093  15.745  -2.995  1.00 20.00     0.020 A 
HETATM    6  O9  UNL     1     -35.221  12.696  -4.468  1.00 20.00    -0.291 OA
HETATM    7 CL10 UNL     1     -37.771  14.435  -3.990  1.00 20.00    -0.081 Cl
ENDROOT
BRANCH   5   8
HETATM    8  C8  UNL     1     -33.406  16.855  -3.783  1.00 20.00    -0.015 C 
HETATM    9  C6  UNL     1     -33.321  16.491  -5.264  1.00 20.00     0.010 C 
HETATM   10  C7  UNL     1     -34.141  18.181  -3.599  1.00 20.00     0.010 C 
ENDBRANCH   5   8
TORSDOF 1
ENDMDL
MODEL 4
REMARK VINA RESULT:      -4.2      1.690      2.379
REMARK  1 active torsions:
REMARK  status: ('A' for Active; 'I' for Inactive)
REMARK    1  A    between atoms: C5_5  and  C8_8 
ROOT
HETATM    1  C1  UNL     1     -34.336  14.694  -3.102  1.00 20.00     0.006 A 
HETATM    2  C2  UNL     1     -34.332  14.527  -4.423  1.00 20.00     0.076 A 
HETATM    3  C3  UNL     1     -33.904  15.800  -5.013  1.00 20.00     0.171 A 
HETATM    4  C4  UNL     1     -33.598  16.815  -3.945  1.00 20.00     0.093 A 
HETATM    5  C5  UNL     1     -33.932  16.067  -2.646  1.00 20.00     0.020 A 
HETATM    6  O9  UNL     1     -33.799  16.001  -6.213  1.00 20.00    -0.291 OA
HETATM    7 CL10 UNL     1     -34.723  13.155  -5.316  1.00 20.00    -0.081 Cl
ENDROOT
BRANCH   5   8
HETATM    8  C8  UNL     1     -35.047  16.747  -1.860  1.00 20.00    -0.015 C 
HETATM    9  C6  UNL     1     -34.639  16.935  -0.400  1.00 20.00     0.010 C 
HETATM   10  C7  UNL     1     -35.411  18.089  -2.492  1.00 20.00     0.010 C 
ENDBRANCH   5   8
TORSDOF 1
ENDMDL
MODEL 5
REMARK VINA RESULT:      -4.2      3.671      4.845
REMARK  1 active torsions:
REMARK  status: ('A' for Active; 'I' for Inactive)
REMARK    1  A    between atoms: C5_5  and  C8_8 
ROOT
HETATM    1  C1  UNL     1     -34.635  16.407  -1.179  1.00 20.00     0.006 A 
HETATM    2  C2  UNL     1     -34.016  17.558  -0.929  1.00 20.00     0.076 A 
HETATM    3  C3  UNL     1     -33.750  18.191  -2.226  1.00 20.00     0.171 A 
HETATM    4  C4  UNL     1     -34.283  17.353  -3.355  1.00 20.00     0.093 A 
HETATM    5  C5  UNL     1     -34.851  16.120  -2.638  1.00 20.00     0.020 A 
HETATM    6  O9  UNL     1     -33.182  19.263  -2.364  1.00 20.00    -0.291 OA
HETATM    7 CL10 UNL     1     -33.590  18.229   0.555  1.00 20.00    -0.081 Cl
ENDROOT
BRANCH   5   8
HETATM    8  C8  UNL     1     -34.154  14.833  -3.064  1.00 20.00    -0.015 C 
HETATM    9  C6  UNL     1     -35.085  13.971  -3.914  1.00 20.00     0.010 C 
HETATM   10  C7  UNL     1     -32.867  15.144  -3.828  1.00 20.00     0.010 C 
ENDBRANCH   5   8
TORSDOF 1
ENDMDL
MODEL 6
REMARK VINA RESULT:      -4.2      2.590      3.711
REMARK  1 active torsions:
REMARK  status: ('A' for Active; 'I' for Inactive)
REMARK    1  A    between atoms: C5_5  and  C8_8 
ROOT
HETATM    1  C1  UNL     1     -33.362  15.980  -4.778  1.00 20.00     0.006 A 
HETATM    2  C2  UNL     1     -33.563  17.292  -4.684  1.00 20.00     0.076 A 
HETATM    3  C3  UNL     1     -33.841  17.582  -3.273  1.00 20.00     0.171 A 
HETATM    4  C4  UNL     1     -33.775  16.331  -2.442  1.00 20.00     0.093 A 
HETATM    5  C5  UNL     1     -33.486  15.236  -3.479  1.00 20.00     0.020 A 
HETATM    6  O9  UNL     1     -34.081  18.696  -2.835  1.00 20.00    -0.291 OA
HETATM    7 CL10 UNL     1     -33.518  18.458  -5.898  1.00 20.00    -0.081 Cl
ENDROOT
BRANCH   5   8
HETATM    8  C8  UNL     1     -34.594  14.190  -3.537  1.00 20.00    -0.015 C 
HETATM    9  C6  UNL     1     -35.967  14.858  -3.520  1.00 20.00     0.010 C 
HETATM   10  C7  UNL     1     -34.441  13.311  -4.777  1.00 20.00     0.010 C 
ENDBRANCH   5   8
TORSDOF 1
ENDMDL
MODEL 7
REMARK VINA RESULT:      -4.1      2.644      3.833
REMARK  1 active torsions:
REMARK  status: ('A' for Active; 'I' for Inactive)
REMARK    1  A    between atoms: C5_5  and  C8_8 
ROOT
HETATM    1  C1  UNL     1     -33.835  15.118  -3.979  1.00 20.00     0.006 A 
HETATM    2  C2  UNL     1     -34.812  15.346  -3.105  1.00 20.00     0.076 A 
HETATM    3  C3  UNL     1     -36.046  14.811  -3.692  1.00 20.00     0.171 A 
HETATM    4  C4  UNL     1     -35.777  14.183  -5.032  1.00 20.00     0.093 A 
HETATM    5  C5  UNL     1     -34.276  14.429  -5.240  1.00 20.00     0.020 A 
HETATM    6  O9  UNL     1     -37.141  14.862  -3.155  1.00 20.00    -0.291 OA
HETATM    7 CL10 UNL     1     -34.729  16.089  -1.596  1.00 20.00    -0.081 Cl
ENDROOT
BRANCH   5   8
HETATM    8  C8  UNL     1     -33.997  15.283  -6.471  1.00 20.00    -0.015 C 
HETATM    9  C6  UNL     1     -34.942  14.911  -7.611  1.00 20.00     0.010 C 
HETATM   10  C7  UNL     1     -34.120  16.769  -6.136  1.00 20.00     0.010 C 
ENDBRANCH   5   8
TORSDOF 1
ENDMDL
MODEL 8
REMARK VINA RESULT:      -4.0      5.755      7.288
REMARK  1 active torsions:
REMARK  status: ('A' for Active; 'I' for Inactive)
REMARK    1  A    between atoms: C5_5  and  C8_8 
ROOT
HETATM    1  C1  UNL     1     -34.126  18.480   1.347  1.00 20.00     0.006 A 
HETATM    2  C2  UNL     1     -33.329  18.511   2.413  1.00 20.00     0.076 A 
HETATM    3  C3  UNL     1     -32.001  18.918   1.941  1.00 20.00     0.171 A 
HETATM    4  C4  UNL     1     -32.010  19.179   0.460  1.00 20.00     0.093 A 
HETATM    5  C5  UNL     1     -33.452  18.841   0.054  1.00 20.00     0.020 A 
HETATM    6  O9  UNL     1     -31.023  19.040   2.662  1.00 20.00    -0.291 OA
HETATM    7 CL10 UNL     1     -33.699  18.172   4.020  1.00 20.00    -0.081 Cl
ENDROOT
BRANCH   5   8
HETATM    8  C8  UNL     1     -33.515  17.695  -0.949  1.00 20.00    -0.015 C 
HETATM    9  C6  UNL     1     -34.650  16.734  -0.599  1.00 20.00     0.010 C 
HETATM   10  C7  UNL     1     -33.687  18.231  -2.370  1.00 20.00     0.010 C 
ENDBRANCH   5   8
TORSDOF 1
ENDMDL
MODEL 9
REMARK VINA RESULT:      -4.0      2.389      3.220
REMARK  1 active torsions:
REMARK  status: ('A' for Active; 'I' for Inactive)
REMARK    1  A    between atoms: C5_5  and  C8_8 
ROOT
HETATM    1  C1  UNL     1     -34.874  15.823  -2.012  1.00 20.00     0.006 A 
HETATM    2  C2  UNL     1     -35.516  15.736  -3.175  1.00 20.00     0.076 A 
HETATM    3  C3  UNL     1     -34.958  16.773  -4.049  1.00 20.00     0.171 A 
HETATM    4  C4  UNL     1     -33.864  17.535  -3.353  1.00 20.00     0.093 A 
HETATM    5  C5  UNL     1     -33.837  16.908  -1.952  1.00 20.00     0.020 A 
HETATM    6  O9  UNL     1     -35.329  16.979  -5.194  1.00 20.00    -0.291 OA
HETATM    7 CL10 UNL     1     -36.734  14.668  -3.632  1.00 20.00    -0.081 Cl
ENDROOT
BRANCH   5   8
HETATM    8  C8  UNL     1     -34.153  17.924  -0.860  1.00 20.00    -0.015 C 
HETATM    9  C6  UNL     1     -34.939  17.270   0.274  1.00 20.00     0.010 C 
HETATM   10  C7  UNL     1     -32.870  18.559  -0.327  1.00 20.00     0.010 C 
ENDBRANCH   5   8
TORSDOF 1
ENDMDL
