MODEL 1
REMARK VINA RESULT:      -4.6      0.000      0.000
REMARK  1 active torsions:
REMARK  status: ('A' for Active; 'I' for Inactive)
REMARK    1  A    between atoms: C6_6  and  C10_10 
ROOT
HETATM    1  C1  UNL     1     -36.522  14.738  -4.645  1.00 20.00     0.014 C 
HETATM    2  C2  UNL     1     -36.112  15.359  -3.300  1.00 20.00     0.039 C 
HETATM    3  C3  UNL     1     -34.370  15.724  -4.908  1.00 20.00     0.049 C 
HETATM    4  C4  UNL     1     -34.413  13.415  -4.550  1.00 20.00     0.177 C 
HETATM    5  C5  UNL     1     -35.163  14.496  -5.335  1.00 20.00    -0.020 C 
HETATM    6  C6  UNL     1     -34.582  15.420  -3.431  1.00 20.00     0.064 C 
HETATM    7  C7  UNL     1     -35.259  14.242  -6.822  1.00 20.00     0.017 C 
HETATM    8  O11 UNL     1     -34.098  14.062  -3.295  1.00 20.00    -0.379 OA
ENDROOT
BRANCH   6   9
HETATM    9  C10 UNL     1     -33.895  16.340  -2.453  1.00 20.00     0.012 C 
HETATM   10  C8  UNL     1     -33.732  17.749  -3.036  1.00 20.00     0.012 C 
HETATM   11  C9  UNL     1     -34.662  16.411  -1.126  1.00 20.00     0.012 C 
ENDBRANCH   6   9
TORSDOF 1
ENDMDL
MODEL 2
REMARK VINA RESULT:      -4.6      1.406      3.907
REMARK  1 active torsions:
REMARK  status: ('A' for Active; 'I' for Inactive)
REMARK    1  A    between atoms: C6_6  and  C10_10 
ROOT
HETATM    1  C1  UNL     1     -34.369  13.832  -3.458  1.00 20.00     0.014 C 
HETATM    2  C2  UNL     1     -34.396  13.580  -4.973  1.00 20.00     0.039 C 
HETATM    3  C3  UNL     1     -34.116  15.926  -4.565  1.00 20.00     0.049 C 
HETATM    4  C4  UNL     1     -36.265  15.413  -3.801  1.00 20.00     0.177 C 
HETATM    5  C5  UNL     1     -34.803  15.310  -3.353  1.00 20.00    -0.020 C 
HETATM    6  C6  UNL     1     -34.801  14.957  -5.519  1.00 20.00     0.064 C 
HETATM    7  C7  UNL     1     -34.507  15.951  -2.017  1.00 20.00     0.017 C 
HETATM    8  O11 UNL     1     -36.208  15.127  -5.218  1.00 20.00    -0.379 OA
ENDROOT
BRANCH   6   9
HETATM    9  C10 UNL     1     -34.534  15.164  -6.990  1.00 20.00     0.012 C 
HETATM   10  C8  UNL     1     -35.568  14.429  -7.851  1.00 20.00     0.012 C 
HETATM   11  C9  UNL     1     -34.523  16.655  -7.347  1.00 20.00     0.012 C 
ENDBRANCH   6   9
TORSDOF 1
ENDMDL
MODEL 3
REMARK VINA RESULT:      -4.5      1.321      1.995
REMARK  1 active torsions:
REMARK  status: ('A' for Active; 'I' for Inactive)
REMARK    1  A    between atoms: C6_6  and  C10_10 
ROOT
HETATM    1  C1  UNL     1     -34.180  15.730  -5.213  1.00 20.00     0.014 C 
HETATM    2  C2  UNL     1     -33.914  16.888  -4.239  1.00 20.00     0.039 C 
HETATM    3  C3  UNL     1     -33.871  14.813  -3.037  1.00 20.00     0.049 C 
HETATM    4  C4  UNL     1     -36.083  15.078  -3.743  1.00 20.00     0.177 C 
HETATM    5  C5  UNL     1     -34.724  14.623  -4.284  1.00 20.00    -0.020 C 
HETATM    6  C6  UNL     1     -34.305  16.265  -2.890  1.00 20.00     0.064 C 
HETATM    7  C7  UNL     1     -34.719  13.242  -4.896  1.00 20.00     0.017 C 
HETATM    8  O11 UNL     1     -35.751  16.184  -2.872  1.00 20.00    -0.379 OA
ENDROOT
BRANCH   6   9
HETATM    9  C10 UNL     1     -33.789  16.999  -1.676  1.00 20.00     0.012 C 
HETATM   10  C8  UNL     1     -33.594  18.491  -1.971  1.00 20.00     0.012 C 
HETATM   11  C9  UNL     1     -34.731  16.823  -0.479  1.00 20.00     0.012 C 
ENDBRANCH   6   9
TORSDOF 1
ENDMDL
MODEL 4
REMARK VINA RESULT:      -4.4      1.265      1.776
REMARK  1 active torsions:
REMARK  status: ('A' for Active; 'I' for Inactive)
REMARK    1  A    between atoms: C6_6  and  C10_10 
ROOT
HETATM    1  C1  UNL     1     -34.380  13.821  -4.898  1.00 20.00     0.014 C 
HETATM    2  C2  UNL     1     -33.639  14.379  -3.673  1.00 20.00     0.039 C 
HETATM    3  C3  UNL     1     -35.380  15.901  -4.309  1.00 20.00     0.049 C 
HETATM    4  C4  UNL     1     -33.834  15.955  -6.062  1.00 20.00     0.177 C 
HETATM    5  C5  UNL     1     -34.984  15.090  -5.536  1.00 20.00    -0.020 C 
HETATM    6  C6  UNL     1     -33.958  15.879  -3.764  1.00 20.00     0.064 C 
HETATM    7  C7  UNL     1     -36.078  14.818  -6.542  1.00 20.00     0.017 C 
HETATM    8  O11 UNL     1     -33.170  16.408  -4.858  1.00 20.00    -0.379 OA
ENDROOT
BRANCH   6   9
HETATM    9  C10 UNL     1     -33.715  16.660  -2.496  1.00 20.00     0.012 C 
HETATM   10  C8  UNL     1     -33.769  18.170  -2.755  1.00 20.00     0.012 C 
HETATM   11  C9  UNL     1     -34.728  16.281  -1.408  1.00 20.00     0.012 C 
ENDBRANCH   6   9
TORSDOF 1
ENDMDL
MODEL 5
REMARK VINA RESULT:      -4.4      1.247      3.911
REMARK  1 active torsions:
REMARK  status: ('A' for Active; 'I' for Inactive)
REMARK    1  A    between atoms: C6_6  and  C10_10 
ROOT
HETATM    1  C1  UNL     1     -36.146  16.774  -2.877  1.00 20.00     0.014 C 
HETATM    2  C2  UNL     1     -35.999  16.141  -4.270  1.00 20.00     0.039 C 
HETATM    3  C3  UNL     1     -34.355  15.205  -2.796  1.00 20.00     0.049 C 
HETATM    4  C4  UNL     1     -33.754  17.449  -3.056  1.00 20.00     0.177 C 
HETATM    5  C5  UNL     1     -34.741  16.581  -2.268  1.00 20.00    -0.020 C 
HETATM    6  C6  UNL     1     -34.547  15.642  -4.243  1.00 20.00     0.064 C 
HETATM    7  C7  UNL     1     -34.683  16.764  -0.769  1.00 20.00     0.017 C 
HETATM    8  O11 UNL     1     -33.702  16.814  -4.355  1.00 20.00    -0.379 OA
ENDROOT
BRANCH   6   9
HETATM    9  C10 UNL     1     -34.203  14.624  -5.301  1.00 20.00     0.012 C 
HETATM   10  C8  UNL     1     -34.745  13.237  -4.935  1.00 20.00     0.012 C 
HETATM   11  C9  UNL     1     -34.740  15.048  -6.674  1.00 20.00     0.012 C 
ENDBRANCH   6   9
TORSDOF 1
ENDMDL
MODEL 6
REMARK VINA RESULT:      -4.4      1.197      3.929
REMARK  1 active torsions:
REMARK  status: ('A' for Active; 'I' for Inactive)
REMARK    1  A    between atoms: C6_6  and  C10_10 
ROOT
HETATM    1  C1  UNL     1     -33.402  16.365  -4.233  1.00 20.00     0.014 C 
HETATM    2  C2  UNL     1     -33.746  15.910  -5.660  1.00 20.00     0.039 C 
HETATM    3  C3  UNL     1     -35.620  15.497  -4.222  1.00 20.00     0.049 C 
HETATM    4  C4  UNL     1     -33.939  14.050  -3.485  1.00 20.00     0.177 C 
HETATM    5  C5  UNL     1     -34.360  15.519  -3.368  1.00 20.00    -0.020 C 
HETATM    6  C6  UNL     1     -34.876  14.899  -5.409  1.00 20.00     0.064 C 
HETATM    7  C7  UNL     1     -34.519  16.017  -1.950  1.00 20.00     0.017 C 
HETATM    8  O11 UNL     1     -34.258  13.712  -4.855  1.00 20.00    -0.379 OA
ENDROOT
BRANCH   6   9
HETATM    9  C10 UNL     1     -35.708  14.561  -6.621  1.00 20.00     0.012 C 
HETATM   10  C8  UNL     1     -37.055  15.294  -6.591  1.00 20.00     0.012 C 
HETATM   11  C9  UNL     1     -34.961  14.895  -7.918  1.00 20.00     0.012 C 
ENDBRANCH   6   9
TORSDOF 1
ENDMDL
MODEL 7
REMARK VINA RESULT:      -4.3      1.573      2.634
REMARK  1 active torsions:
REMARK  status: ('A' for Active; 'I' for Inactive)
REMARK    1  A    between atoms: C6_6  and  C10_10 
ROOT
HETATM    1  C1  UNL     1     -34.442  16.413  -7.099  1.00 20.00     0.014 C 
HETATM    2  C2  UNL     1     -33.699  16.679  -5.780  1.00 20.00     0.039 C 
HETATM    3  C3  UNL     1     -34.508  14.421  -5.795  1.00 20.00     0.049 C 
HETATM    4  C4  UNL     1     -36.418  15.767  -5.725  1.00 20.00     0.177 C 
HETATM    5  C5  UNL     1     -35.383  15.247  -6.729  1.00 20.00    -0.020 C 
HETATM    6  C6  UNL     1     -34.291  15.602  -4.858  1.00 20.00     0.064 C 
HETATM    7  C7  UNL     1     -35.968  14.520  -7.917  1.00 20.00     0.017 C 
HETATM    8  O11 UNL     1     -35.638  16.026  -4.534  1.00 20.00    -0.379 OA
ENDROOT
BRANCH   6   9
HETATM    9  C10 UNL     1     -33.495  15.327  -3.607  1.00 20.00     0.012 C 
HETATM   10  C8  UNL     1     -34.260  15.769  -2.353  1.00 20.00     0.012 C 
HETATM   11  C9  UNL     1     -33.129  13.842  -3.497  1.00 20.00     0.012 C 
ENDBRANCH   6   9
TORSDOF 1
ENDMDL
MODEL 8
REMARK VINA RESULT:      -4.2     12.700     14.185
REMARK  1 active torsions:
REMARK  status: ('A' for Active; 'I' for Inactive)
REMARK    1  A    between atoms: C6_6  and  C10_10 
ROOT
HETATM    1  C1  UNL     1     -42.757   4.567  -0.292  1.00 20.00     0.014 C 
HETATM    2  C2  UNL     1     -43.354   3.465  -1.181  1.00 20.00     0.039 C 
HETATM    3  C3  UNL     1     -41.103   3.912  -1.876  1.00 20.00     0.049 C 
HETATM    4  C4  UNL     1     -42.307   5.851  -2.379  1.00 20.00     0.177 C 
HETATM    5  C5  UNL     1     -41.644   5.156  -1.185  1.00 20.00    -0.020 C 
HETATM    6  C6  UNL     1     -42.473   3.556  -2.437  1.00 20.00     0.064 C 
HETATM    7  C7  UNL     1     -40.637   6.003  -0.443  1.00 20.00     0.017 C 
HETATM    8  O11 UNL     1     -42.872   4.758  -3.139  1.00 20.00    -0.379 OA
ENDROOT
BRANCH   6   9
HETATM    9  C10 UNL     1     -42.533   2.353  -3.345  1.00 20.00     0.012 C 
HETATM   10  C8  UNL     1     -41.133   1.947  -3.822  1.00 20.00     0.012 C 
HETATM   11  C9  UNL     1     -43.212   1.166  -2.650  1.00 20.00     0.012 C 
ENDBRANCH   6   9
TORSDOF 1
ENDMDL
MODEL 9
REMARK VINA RESULT:      -4.2      1.383      3.970
REMARK  1 active torsions:
REMARK  status: ('A' for Active; 'I' for Inactive)
REMARK    1  A    between atoms: C6_6  and  C10_10 
ROOT
HETATM    1  C1  UNL     1     -34.447  16.325  -2.018  1.00 20.00     0.014 C 
HETATM    2  C2  UNL     1     -34.670  15.063  -2.866  1.00 20.00     0.039 C 
HETATM    3  C3  UNL     1     -33.435  16.671  -4.146  1.00 20.00     0.049 C 
HETATM    4  C4  UNL     1     -35.554  17.610  -3.843  1.00 20.00     0.177 C 
HETATM    5  C5  UNL     1     -34.235  17.418  -3.087  1.00 20.00    -0.020 C 
HETATM    6  C6  UNL     1     -34.514  15.606  -4.294  1.00 20.00     0.064 C 
HETATM    7  C7  UNL     1     -33.621  18.693  -2.558  1.00 20.00     0.017 C 
HETATM    8  O11 UNL     1     -35.708  16.375  -4.580  1.00 20.00    -0.379 OA
ENDROOT
BRANCH   6   9
HETATM    9  C10 UNL     1     -34.279  14.557  -5.353  1.00 20.00     0.012 C 
HETATM   10  C8  UNL     1     -34.731  13.173  -4.872  1.00 20.00     0.012 C 
HETATM   11  C9  UNL     1     -35.000  14.916  -6.659  1.00 20.00     0.012 C 
ENDBRANCH   6   9
TORSDOF 1
ENDMDL
