MODEL 1
REMARK VINA RESULT:      -3.9      0.000      0.000
REMARK  1 active torsions:
REMARK  status: ('A' for Active; 'I' for Inactive)
REMARK    1  A    between atoms: C3_3  and  C6_6 
ROOT
HETATM    1  C1  UNL     1     -34.897  16.317  -1.957  1.00 20.00     0.134 C 
HETATM    2  C2  UNL     1     -36.112  15.189  -3.689  1.00 20.00     0.137 C 
HETATM    3  C3  UNL     1     -34.862  15.593  -4.455  1.00 20.00     0.075 C 
HETATM    4  N7  UNL     1     -36.117  15.907  -2.437  1.00 20.00    -0.374 N 
HETATM    5  S8  UNL     1     -34.657  17.053  -0.488  1.00 20.00    -0.053 SA
HETATM    6  S9  UNL     1     -33.650  15.944  -3.135  1.00 20.00    -0.094 SA
HETATM    7  H20 UNL     1     -36.967  16.016  -1.891  1.00 20.00     0.161 HD
ENDROOT
BRANCH   3   8
HETATM    8  C6  UNL     1     -34.365  14.515  -5.401  1.00 20.00    -0.007 C 
HETATM    9  C4  UNL     1     -34.707  13.121  -4.870  1.00 20.00     0.011 C 
HETATM   10  C5  UNL     1     -34.950  14.706  -6.802  1.00 20.00     0.011 C 
ENDBRANCH   3   8
TORSDOF 1
ENDMDL
MODEL 2
REMARK VINA RESULT:      -3.7     12.287     13.211
REMARK  1 active torsions:
REMARK  status: ('A' for Active; 'I' for Inactive)
REMARK    1  A    between atoms: C3_3  and  C6_6 
ROOT
HETATM    1  C1  UNL     1     -41.691   3.577  -2.492  1.00 20.00     0.134 C 
HETATM    2  C2  UNL     1     -40.868   5.076  -0.812  1.00 20.00     0.137 C 
HETATM    3  C3  UNL     1     -41.620   6.054  -1.702  1.00 20.00     0.075 C 
HETATM    4  N7  UNL     1     -40.746   3.828  -1.526  1.00 20.00    -0.374 N 
HETATM    5  S8  UNL     1     -41.811   2.161  -3.353  1.00 20.00    -0.053 SA
HETATM    6  S9  UNL     1     -42.734   4.977  -2.669  1.00 20.00    -0.094 SA
HETATM    7  H20 UNL     1     -40.059   3.129  -1.261  1.00 20.00     0.161 HD
ENDROOT
BRANCH   3   8
HETATM    8  C6  UNL     1     -42.391   7.103  -0.922  1.00 20.00    -0.007 C 
HETATM    9  C4  UNL     1     -43.181   8.014  -1.864  1.00 20.00     0.011 C 
HETATM   10  C5  UNL     1     -43.331   6.448   0.093  1.00 20.00     0.011 C 
ENDBRANCH   3   8
TORSDOF 1
ENDMDL
MODEL 3
REMARK VINA RESULT:      -3.6      2.322      4.300
REMARK  1 active torsions:
REMARK  status: ('A' for Active; 'I' for Inactive)
REMARK    1  A    between atoms: C3_3  and  C6_6 
ROOT
HETATM    1  C1  UNL     1     -34.453  15.053  -5.764  1.00 20.00     0.134 C 
HETATM    2  C2  UNL     1     -34.447  14.567  -3.416  1.00 20.00     0.137 C 
HETATM    3  C3  UNL     1     -33.461  15.725  -3.455  1.00 20.00     0.075 C 
HETATM    4  N7  UNL     1     -34.668  14.126  -4.772  1.00 20.00    -0.374 N 
HETATM    5  S8  UNL     1     -34.755  14.800  -7.378  1.00 20.00    -0.053 SA
HETATM    6  S9  UNL     1     -33.812  16.526  -5.058  1.00 20.00    -0.094 SA
HETATM    7  H20 UNL     1     -35.058  13.211  -4.977  1.00 20.00     0.161 HD
ENDROOT
BRANCH   3   8
HETATM    8  C6  UNL     1     -33.627  16.691  -2.296  1.00 20.00    -0.007 C 
HETATM    9  C4  UNL     1     -33.808  18.125  -2.801  1.00 20.00     0.011 C 
HETATM   10  C5  UNL     1     -34.809  16.287  -1.413  1.00 20.00     0.011 C 
ENDBRANCH   3   8
TORSDOF 1
ENDMDL
MODEL 4
REMARK VINA RESULT:      -3.4      1.905      2.377
REMARK  1 active torsions:
REMARK  status: ('A' for Active; 'I' for Inactive)
REMARK    1  A    between atoms: C3_3  and  C6_6 
ROOT
HETATM    1  C1  UNL     1     -33.809  17.793  -2.728  1.00 20.00     0.134 C 
HETATM    2  C2  UNL     1     -33.897  16.265  -4.575  1.00 20.00     0.137 C 
HETATM    3  C3  UNL     1     -33.914  15.285  -3.412  1.00 20.00     0.075 C 
HETATM    4  N7  UNL     1     -33.538  17.564  -4.056  1.00 20.00    -0.374 N 
HETATM    5  S8  UNL     1     -33.587  19.245  -1.955  1.00 20.00    -0.053 SA
HETATM    6  S9  UNL     1     -34.415  16.319  -1.993  1.00 20.00    -0.094 SA
HETATM    7  H20 UNL     1     -33.197  18.302  -4.664  1.00 20.00     0.161 HD
ENDROOT
BRANCH   3   8
HETATM    8  C6  UNL     1     -34.866  14.123  -3.623  1.00 20.00    -0.007 C 
HETATM    9  C4  UNL     1     -36.295  14.621  -3.852  1.00 20.00     0.011 C 
HETATM   10  C5  UNL     1     -34.415  13.252  -4.798  1.00 20.00     0.011 C 
ENDBRANCH   3   8
TORSDOF 1
ENDMDL
MODEL 5
REMARK VINA RESULT:      -3.4      1.648      1.997
REMARK  1 active torsions:
REMARK  status: ('A' for Active; 'I' for Inactive)
REMARK    1  A    between atoms: C3_3  and  C6_6 
ROOT
HETATM    1  C1  UNL     1     -34.387  16.139  -2.736  1.00 20.00     0.134 C 
HETATM    2  C2  UNL     1     -33.542  16.037  -4.978  1.00 20.00     0.137 C 
HETATM    3  C3  UNL     1     -34.346  14.746  -4.932  1.00 20.00     0.075 C 
HETATM    4  N7  UNL     1     -33.416  16.529  -3.627  1.00 20.00    -0.374 N 
HETATM    5  S8  UNL     1     -34.503  16.676  -1.168  1.00 20.00    -0.053 SA
HETATM    6  S9  UNL     1     -35.467  14.995  -3.512  1.00 20.00    -0.094 SA
HETATM    7  H20 UNL     1     -32.704  17.208  -3.373  1.00 20.00     0.161 HD
ENDROOT
BRANCH   3   8
HETATM    8  C6  UNL     1     -35.114  14.474  -6.213  1.00 20.00    -0.007 C 
HETATM    9  C4  UNL     1     -36.526  15.059  -6.138  1.00 20.00     0.011 C 
HETATM   10  C5  UNL     1     -34.371  15.038  -7.426  1.00 20.00     0.011 C 
ENDBRANCH   3   8
TORSDOF 1
ENDMDL
MODEL 6
REMARK VINA RESULT:      -3.4      2.226      2.587
REMARK  1 active torsions:
REMARK  status: ('A' for Active; 'I' for Inactive)
REMARK    1  A    between atoms: C3_3  and  C6_6 
ROOT
HETATM    1  C1  UNL     1     -36.596  17.411  -2.480  1.00 20.00     0.134 C 
HETATM    2  C2  UNL     1     -34.695  16.364  -1.459  1.00 20.00     0.137 C 
HETATM    3  C3  UNL     1     -34.826  15.520  -2.718  1.00 20.00     0.075 C 
HETATM    4  N7  UNL     1     -35.899  17.150  -1.325  1.00 20.00    -0.374 N 
HETATM    5  S8  UNL     1     -37.937  18.386  -2.576  1.00 20.00    -0.053 SA
HETATM    6  S9  UNL     1     -35.850  16.555  -3.819  1.00 20.00    -0.094 SA
HETATM    7  H20 UNL     1     -36.162  17.572  -0.439  1.00 20.00     0.161 HD
ENDROOT
BRANCH   3   8
HETATM    8  C6  UNL     1     -33.489  15.180  -3.351  1.00 20.00    -0.007 C 
HETATM    9  C4  UNL     1     -33.490  13.748  -3.893  1.00 20.00     0.011 C 
HETATM   10  C5  UNL     1     -33.146  16.168  -4.467  1.00 20.00     0.011 C 
ENDBRANCH   3   8
TORSDOF 1
ENDMDL
MODEL 7
REMARK VINA RESULT:      -3.3     11.390     12.263
REMARK  1 active torsions:
REMARK  status: ('A' for Active; 'I' for Inactive)
REMARK    1  A    between atoms: C3_3  and  C6_6 
ROOT
HETATM    1  C1  UNL     1     -42.392   7.633  -3.320  1.00 20.00     0.134 C 
HETATM    2  C2  UNL     1     -41.423   6.976  -1.227  1.00 20.00     0.137 C 
HETATM    3  C3  UNL     1     -42.556   5.967  -1.330  1.00 20.00     0.075 C 
HETATM    4  N7  UNL     1     -41.645   7.995  -2.225  1.00 20.00    -0.374 N 
HETATM    5  S8  UNL     1     -42.673   8.605  -4.637  1.00 20.00    -0.053 SA
HETATM    6  S9  UNL     1     -42.995   6.000  -3.102  1.00 20.00    -0.094 SA
HETATM    7  H20 UNL     1     -41.189   8.901  -2.169  1.00 20.00     0.161 HD
ENDROOT
BRANCH   3   8
HETATM    8  C6  UNL     1     -42.161   4.574  -0.875  1.00 20.00    -0.007 C 
HETATM    9  C4  UNL     1     -40.693   4.288  -1.203  1.00 20.00     0.011 C 
HETATM   10  C5  UNL     1     -42.412   4.396   0.624  1.00 20.00     0.011 C 
ENDBRANCH   3   8
TORSDOF 1
ENDMDL
MODEL 8
REMARK VINA RESULT:      -3.3      2.686      4.003
REMARK  1 active torsions:
REMARK  status: ('A' for Active; 'I' for Inactive)
REMARK    1  A    between atoms: C3_3  and  C6_6 
ROOT
HETATM    1  C1  UNL     1     -36.529  15.064  -6.246  1.00 20.00     0.134 C 
HETATM    2  C2  UNL     1     -36.663  15.113  -3.852  1.00 20.00     0.137 C 
HETATM    3  C3  UNL     1     -35.343  14.378  -4.035  1.00 20.00     0.075 C 
HETATM    4  N7  UNL     1     -37.329  15.153  -5.132  1.00 20.00    -0.374 N 
HETATM    5  S8  UNL     1     -37.067  15.204  -7.811  1.00 20.00    -0.053 SA
HETATM    6  S9  UNL     1     -34.869  14.777  -5.752  1.00 20.00    -0.094 SA
HETATM    7  H20 UNL     1     -38.325  15.339  -5.207  1.00 20.00     0.161 HD
ENDROOT
BRANCH   3   8
HETATM    8  C6  UNL     1     -34.277  14.808  -3.044  1.00 20.00    -0.007 C 
HETATM    9  C4  UNL     1     -33.000  15.242  -3.768  1.00 20.00     0.011 C 
HETATM   10  C5  UNL     1     -34.787  15.940  -2.149  1.00 20.00     0.011 C 
ENDBRANCH   3   8
TORSDOF 1
ENDMDL
MODEL 9
REMARK VINA RESULT:      -3.3      2.499      4.066
REMARK  1 active torsions:
REMARK  status: ('A' for Active; 'I' for Inactive)
REMARK    1  A    between atoms: C3_3  and  C6_6 
ROOT
HETATM    1  C1  UNL     1     -37.250  15.125  -3.796  1.00 20.00     0.134 C 
HETATM    2  C2  UNL     1     -34.925  14.667  -3.429  1.00 20.00     0.137 C 
HETATM    3  C3  UNL     1     -34.905  16.188  -3.425  1.00 20.00     0.075 C 
HETATM    4  N7  UNL     1     -36.208  14.241  -3.936  1.00 20.00    -0.374 N 
HETATM    5  S8  UNL     1     -38.828  14.800  -4.201  1.00 20.00    -0.053 SA
HETATM    6  S9  UNL     1     -36.651  16.635  -3.131  1.00 20.00    -0.094 SA
HETATM    7  H20 UNL     1     -36.354  13.299  -4.288  1.00 20.00     0.161 HD
ENDROOT
BRANCH   3   8
HETATM    8  C6  UNL     1     -33.990  16.772  -2.365  1.00 20.00    -0.007 C 
HETATM    9  C4  UNL     1     -33.716  18.253  -2.634  1.00 20.00     0.011 C 
HETATM   10  C5  UNL     1     -34.586  16.590  -0.967  1.00 20.00     0.011 C 
ENDBRANCH   3   8
TORSDOF 1
ENDMDL
