MODEL 1
REMARK VINA RESULT:      -4.1      0.000      0.000
REMARK  0 active torsions:
REMARK  status: ('A' for Active; 'I' for Inactive)
ROOT
HETATM    1  C1  UNL     1     -34.247   5.452   3.228  1.00 20.00     0.098 A 
HETATM    2  C2  UNL     1     -33.354   6.359   3.757  1.00 20.00     0.136 A 
HETATM    3  C3  UNL     1     -34.406   5.815   5.604  1.00 20.00     0.253 A 
HETATM    4  N4  UNL     1     -33.444   6.570   5.120  1.00 20.00    -0.201 NA
HETATM    5  F5  UNL     1     -34.716   5.816   6.908  1.00 20.00    -0.176 F 
HETATM    6  S6  UNL     1     -35.243   4.829   4.477  1.00 20.00    -0.048 SA
HETATM    7 CL7  UNL     1     -32.186   7.205   2.830  1.00 20.00    -0.062 Cl
ENDROOT
TORSDOF 0
ENDMDL
MODEL 2
REMARK VINA RESULT:      -4.0      2.428      2.824
REMARK  0 active torsions:
REMARK  status: ('A' for Active; 'I' for Inactive)
ROOT
HETATM    1  C1  UNL     1     -34.713   5.235   6.288  1.00 20.00     0.098 A 
HETATM    2  C2  UNL     1     -33.964   6.315   5.875  1.00 20.00     0.136 A 
HETATM    3  C3  UNL     1     -34.373   5.427   3.911  1.00 20.00     0.253 A 
HETATM    4  N4  UNL     1     -33.766   6.428   4.512  1.00 20.00    -0.201 NA
HETATM    5  F5  UNL     1     -34.347   5.283   2.579  1.00 20.00    -0.176 F 
HETATM    6  S6  UNL     1     -35.198   4.315   4.924  1.00 20.00    -0.048 SA
HETATM    7 CL7  UNL     1     -33.292   7.478   6.941  1.00 20.00    -0.062 Cl
ENDROOT
TORSDOF 0
ENDMDL
MODEL 3
REMARK VINA RESULT:      -3.6      2.344      2.491
REMARK  0 active torsions:
REMARK  status: ('A' for Active; 'I' for Inactive)
ROOT
HETATM    1  C1  UNL     1     -33.803   6.664   4.443  1.00 20.00     0.098 A 
HETATM    2  C2  UNL     1     -33.888   6.419   5.797  1.00 20.00     0.136 A 
HETATM    3  C3  UNL     1     -34.871   4.598   5.070  1.00 20.00     0.253 A 
HETATM    4  N4  UNL     1     -34.502   5.236   6.160  1.00 20.00    -0.201 NA
HETATM    5  F5  UNL     1     -35.495   3.413   5.123  1.00 20.00    -0.176 F 
HETATM    6  S6  UNL     1     -34.513   5.365   3.578  1.00 20.00    -0.048 SA
HETATM    7 CL7  UNL     1     -33.290   7.484   7.001  1.00 20.00    -0.062 Cl
ENDROOT
TORSDOF 0
ENDMDL
MODEL 4
REMARK VINA RESULT:      -3.5      1.800      1.978
REMARK  0 active torsions:
REMARK  status: ('A' for Active; 'I' for Inactive)
ROOT
HETATM    1  C1  UNL     1     -33.429   6.711   5.379  1.00 20.00     0.098 A 
HETATM    2  C2  UNL     1     -33.435   6.398   4.036  1.00 20.00     0.136 A 
HETATM    3  C3  UNL     1     -34.833   4.861   4.738  1.00 20.00     0.253 A 
HETATM    4  N4  UNL     1     -34.238   5.337   3.666  1.00 20.00    -0.201 NA
HETATM    5  F5  UNL     1     -35.678   3.822   4.675  1.00 20.00    -0.176 F 
HETATM    6  S6  UNL     1     -34.471   5.642   6.223  1.00 20.00    -0.048 SA
HETATM    7 CL7  UNL     1     -32.518   7.237   2.854  1.00 20.00    -0.062 Cl
ENDROOT
TORSDOF 0
ENDMDL
MODEL 5
REMARK VINA RESULT:      -3.5      9.408      9.730
REMARK  0 active torsions:
REMARK  status: ('A' for Active; 'I' for Inactive)
ROOT
HETATM    1  C1  UNL     1     -42.218   5.718  -2.434  1.00 20.00     0.098 A 
HETATM    2  C2  UNL     1     -41.562   4.578  -2.020  1.00 20.00     0.136 A 
HETATM    3  C3  UNL     1     -40.824   5.960  -0.485  1.00 20.00     0.253 A 
HETATM    4  N4  UNL     1     -40.761   4.714  -0.903  1.00 20.00    -0.201 NA
HETATM    5  F5  UNL     1     -40.142   6.379   0.590  1.00 20.00    -0.176 F 
HETATM    6  S6  UNL     1     -41.826   7.019  -1.389  1.00 20.00    -0.048 SA
HETATM    7 CL7  UNL     1     -41.693   3.060  -2.807  1.00 20.00    -0.062 Cl
ENDROOT
TORSDOF 0
ENDMDL
MODEL 6
REMARK VINA RESULT:      -3.4      3.239      3.531
REMARK  0 active torsions:
REMARK  status: ('A' for Active; 'I' for Inactive)
ROOT
HETATM    1  C1  UNL     1     -33.373   6.366   5.020  1.00 20.00     0.098 A 
HETATM    2  C2  UNL     1     -34.419   5.475   5.130  1.00 20.00     0.136 A 
HETATM    3  C3  UNL     1     -34.173   5.427   2.951  1.00 20.00     0.253 A 
HETATM    4  N4  UNL     1     -34.881   4.936   3.945  1.00 20.00    -0.201 NA
HETATM    5  F5  UNL     1     -34.404   5.076   1.678  1.00 20.00    -0.176 F 
HETATM    6  S6  UNL     1     -32.938   6.542   3.370  1.00 20.00    -0.048 SA
HETATM    7 CL7  UNL     1     -35.144   5.030   6.619  1.00 20.00    -0.062 Cl
ENDROOT
TORSDOF 0
ENDMDL
MODEL 7
REMARK VINA RESULT:      -3.4      2.871      3.101
REMARK  0 active torsions:
REMARK  status: ('A' for Active; 'I' for Inactive)
ROOT
HETATM    1  C1  UNL     1     -34.927   5.138   4.082  1.00 20.00     0.098 A 
HETATM    2  C2  UNL     1     -34.187   5.827   5.020  1.00 20.00     0.136 A 
HETATM    3  C3  UNL     1     -33.016   6.337   3.237  1.00 20.00     0.253 A 
HETATM    4  N4  UNL     1     -33.090   6.515   4.538  1.00 20.00    -0.201 NA
HETATM    5  F5  UNL     1     -32.043   6.894   2.502  1.00 20.00    -0.176 F 
HETATM    6  S6  UNL     1     -34.232   5.355   2.530  1.00 20.00    -0.048 SA
HETATM    7 CL7  UNL     1     -34.557   5.860   6.694  1.00 20.00    -0.062 Cl
ENDROOT
TORSDOF 0
ENDMDL
MODEL 8
REMARK VINA RESULT:      -3.2      9.468      9.767
REMARK  0 active torsions:
REMARK  status: ('A' for Active; 'I' for Inactive)
ROOT
HETATM    1  C1  UNL     1     -42.051   5.276  -2.380  1.00 20.00     0.098 A 
HETATM    2  C2  UNL     1     -41.897   6.646  -2.371  1.00 20.00     0.136 A 
HETATM    3  C3  UNL     1     -40.850   6.185  -0.500  1.00 20.00     0.253 A 
HETATM    4  N4  UNL     1     -41.209   7.170  -1.293  1.00 20.00    -0.201 NA
HETATM    5  F5  UNL     1     -40.162   6.403   0.630  1.00 20.00    -0.176 F 
HETATM    6  S6  UNL     1     -41.306   4.605  -0.989  1.00 20.00    -0.048 SA
HETATM    7 CL7  UNL     1     -42.505   7.686  -3.593  1.00 20.00    -0.062 Cl
ENDROOT
TORSDOF 0
ENDMDL
MODEL 9
REMARK VINA RESULT:      -3.2     11.988     12.155
REMARK  0 active torsions:
REMARK  status: ('A' for Active; 'I' for Inactive)
ROOT
HETATM    1  C1  UNL     1     -36.032  15.553  -3.145  1.00 20.00     0.098 A 
HETATM    2  C2  UNL     1     -34.722  15.510  -2.717  1.00 20.00     0.136 A 
HETATM    3  C3  UNL     1     -34.658  13.847  -4.145  1.00 20.00     0.253 A 
HETATM    4  N4  UNL     1     -33.932  14.531  -3.289  1.00 20.00    -0.201 NA
HETATM    5  F5  UNL     1     -34.145  12.829  -4.851  1.00 20.00    -0.176 F 
HETATM    6  S6  UNL     1     -36.298  14.325  -4.312  1.00 20.00    -0.048 SA
HETATM    7 CL7  UNL     1     -34.061  16.578  -1.549  1.00 20.00    -0.062 Cl
ENDROOT
TORSDOF 0
ENDMDL
