MODEL 1
REMARK VINA RESULT:      -4.9      0.000      0.000
REMARK  0 active torsions:
REMARK  status: ('A' for Active; 'I' for Inactive)
ROOT
HETATM    1  C1  UNL     1     -33.140   6.501   4.808  1.00 20.00     0.117 A 
HETATM    2  C2  UNL     1     -33.861   5.847   3.896  1.00 20.00    -0.042 A 
HETATM    3  C3  UNL     1     -32.093   7.228   4.085  1.00 20.00     0.186 A 
HETATM    4  C4  UNL     1     -34.998   4.966   4.279  1.00 20.00     0.039 C 
HETATM    5  C5  UNL     1     -33.430   6.064   2.482  1.00 20.00     0.049 A 
HETATM    6  C6  UNL     1     -34.965   4.714   5.792  1.00 20.00     0.031 C 
HETATM    7  C7  UNL     1     -34.583   5.987   6.556  1.00 20.00     0.176 C 
HETATM    8  C8  UNL     1     -32.174   6.947   2.600  1.00 20.00     0.062 A 
HETATM    9  C9  UNL     1     -32.274   8.229   1.792  1.00 20.00     0.018 C 
HETATM   10  O10 UNL     1     -31.273   7.952   4.627  1.00 20.00    -0.290 OA
HETATM   11  O11 UNL     1     -33.310   6.525   6.159  1.00 20.00    -0.347 OA
ENDROOT
TORSDOF 0
ENDMDL
MODEL 2
REMARK VINA RESULT:      -4.8     11.466     13.394
REMARK  0 active torsions:
REMARK  status: ('A' for Active; 'I' for Inactive)
ROOT
HETATM    1  C1  UNL     1     -34.470  14.704  -5.298  1.00 20.00     0.117 A 
HETATM    2  C2  UNL     1     -34.179  15.980  -5.560  1.00 20.00    -0.042 A 
HETATM    3  C3  UNL     1     -34.078  14.453  -3.909  1.00 20.00     0.186 A 
HETATM    4  C4  UNL     1     -34.410  16.577  -6.904  1.00 20.00     0.039 C 
HETATM    5  C5  UNL     1     -33.602  16.740  -4.411  1.00 20.00     0.049 A 
HETATM    6  C6  UNL     1     -34.699  15.463  -7.918  1.00 20.00     0.031 C 
HETATM    7  C7  UNL     1     -35.592  14.377  -7.307  1.00 20.00     0.176 C 
HETATM    8  C8  UNL     1     -33.456  15.689  -3.296  1.00 20.00     0.062 A 
HETATM    9  C9  UNL     1     -34.158  16.090  -2.009  1.00 20.00     0.018 C 
HETATM   10  O10 UNL     1     -34.236  13.383  -3.343  1.00 20.00    -0.290 OA
HETATM   11  O11 UNL     1     -35.029  13.779  -6.127  1.00 20.00    -0.347 OA
ENDROOT
TORSDOF 0
ENDMDL
MODEL 3
REMARK VINA RESULT:      -4.8     11.804     12.825
REMARK  0 active torsions:
REMARK  status: ('A' for Active; 'I' for Inactive)
ROOT
HETATM    1  C1  UNL     1     -33.746  17.084  -3.109  1.00 20.00     0.117 A 
HETATM    2  C2  UNL     1     -34.291  16.153  -2.323  1.00 20.00    -0.042 A 
HETATM    3  C3  UNL     1     -33.456  16.441  -4.393  1.00 20.00     0.186 A 
HETATM    4  C4  UNL     1     -34.680  16.445  -0.916  1.00 20.00     0.039 C 
HETATM    5  C5  UNL     1     -34.464  14.814  -2.963  1.00 20.00     0.049 A 
HETATM    6  C6  UNL     1     -34.081  17.789  -0.485  1.00 20.00     0.031 C 
HETATM    7  C7  UNL     1     -34.160  18.819  -1.618  1.00 20.00     0.176 C 
HETATM    8  C8  UNL     1     -33.828  14.975  -4.355  1.00 20.00     0.062 A 
HETATM    9  C9  UNL     1     -34.775  14.607  -5.484  1.00 20.00     0.018 C 
HETATM   10  O10 UNL     1     -32.975  17.027  -5.351  1.00 20.00    -0.290 OA
HETATM   11  O11 UNL     1     -33.495  18.390  -2.819  1.00 20.00    -0.347 OA
ENDROOT
TORSDOF 0
ENDMDL
MODEL 4
REMARK VINA RESULT:      -4.6      0.852      3.728
REMARK  0 active torsions:
REMARK  status: ('A' for Active; 'I' for Inactive)
ROOT
HETATM    1  C1  UNL     1     -33.206   6.692   4.634  1.00 20.00     0.117 A 
HETATM    2  C2  UNL     1     -33.500   6.071   3.490  1.00 20.00    -0.042 A 
HETATM    3  C3  UNL     1     -34.141   6.190   5.645  1.00 20.00     0.186 A 
HETATM    4  C4  UNL     1     -32.769   6.367   2.227  1.00 20.00     0.039 C 
HETATM    5  C5  UNL     1     -34.613   5.079   3.583  1.00 20.00     0.049 A 
HETATM    6  C6  UNL     1     -31.930   7.639   2.405  1.00 20.00     0.031 C 
HETATM    7  C7  UNL     1     -31.279   7.682   3.792  1.00 20.00     0.176 C 
HETATM    8  C8  UNL     1     -35.112   5.204   5.034  1.00 20.00     0.062 A 
HETATM    9  C9  UNL     1     -35.108   3.879   5.777  1.00 20.00     0.018 C 
HETATM   10  O10 UNL     1     -34.124   6.538   6.815  1.00 20.00    -0.290 OA
HETATM   11  O11 UNL     1     -32.232   7.615   4.867  1.00 20.00    -0.347 OA
ENDROOT
TORSDOF 0
ENDMDL
MODEL 5
REMARK VINA RESULT:      -4.6     11.235     12.610
REMARK  0 active torsions:
REMARK  status: ('A' for Active; 'I' for Inactive)
ROOT
HETATM    1  C1  UNL     1     -36.061  14.418  -3.898  1.00 20.00     0.117 A 
HETATM    2  C2  UNL     1     -35.254  15.451  -3.646  1.00 20.00    -0.042 A 
HETATM    3  C3  UNL     1     -37.433  14.893  -3.705  1.00 20.00     0.186 A 
HETATM    4  C4  UNL     1     -33.772  15.320  -3.707  1.00 20.00     0.039 C 
HETATM    5  C5  UNL     1     -35.953  16.722  -3.292  1.00 20.00     0.049 A 
HETATM    6  C6  UNL     1     -33.389  13.837  -3.777  1.00 20.00     0.031 C 
HETATM    7  C7  UNL     1     -34.347  13.060  -4.687  1.00 20.00     0.176 C 
HETATM    8  C8  UNL     1     -37.443  16.337  -3.255  1.00 20.00     0.062 A 
HETATM    9  C9  UNL     1     -38.300  17.202  -4.163  1.00 20.00     0.018 C 
HETATM   10  O10 UNL     1     -38.422  14.198  -3.885  1.00 20.00    -0.290 OA
HETATM   11  O11 UNL     1     -35.721  13.154  -4.273  1.00 20.00    -0.347 OA
ENDROOT
TORSDOF 0
ENDMDL
MODEL 6
REMARK VINA RESULT:      -4.6     11.493     12.664
REMARK  0 active torsions:
REMARK  status: ('A' for Active; 'I' for Inactive)
ROOT
HETATM    1  C1  UNL     1     -36.449  14.602  -4.189  1.00 20.00     0.117 A 
HETATM    2  C2  UNL     1     -36.156  15.894  -4.357  1.00 20.00    -0.042 A 
HETATM    3  C3  UNL     1     -35.196  13.858  -4.337  1.00 20.00     0.186 A 
HETATM    4  C4  UNL     1     -37.206  16.948  -4.312  1.00 20.00     0.039 C 
HETATM    5  C5  UNL     1     -34.711  16.183  -4.601  1.00 20.00     0.049 A 
HETATM    6  C6  UNL     1     -38.593  16.294  -4.368  1.00 20.00     0.031 C 
HETATM    7  C7  UNL     1     -38.637  15.016  -3.523  1.00 20.00     0.176 C 
HETATM    8  C8  UNL     1     -34.052  14.793  -4.666  1.00 20.00     0.062 A 
HETATM    9  C9  UNL     1     -32.902  14.638  -3.686  1.00 20.00     0.018 C 
HETATM   10  O10 UNL     1     -35.109  12.646  -4.214  1.00 20.00    -0.290 OA
HETATM   11  O11 UNL     1     -37.660  14.040  -3.923  1.00 20.00    -0.347 OA
ENDROOT
TORSDOF 0
ENDMDL
MODEL 7
REMARK VINA RESULT:      -4.3     12.019     13.141
REMARK  0 active torsions:
REMARK  status: ('A' for Active; 'I' for Inactive)
ROOT
HETATM    1  C1  UNL     1     -34.006  16.999  -3.629  1.00 20.00     0.117 A 
HETATM    2  C2  UNL     1     -34.404  15.998  -2.842  1.00 20.00    -0.042 A 
HETATM    3  C3  UNL     1     -33.844  18.176  -2.772  1.00 20.00     0.186 A 
HETATM    4  C4  UNL     1     -34.706  14.645  -3.386  1.00 20.00     0.039 C 
HETATM    5  C5  UNL     1     -34.529  16.348  -1.395  1.00 20.00     0.049 A 
HETATM    6  C6  UNL     1     -34.790  14.714  -4.916  1.00 20.00     0.031 C 
HETATM    7  C7  UNL     1     -33.707  15.636  -5.489  1.00 20.00     0.176 C 
HETATM    8  C8  UNL     1     -34.222  17.855  -1.342  1.00 20.00     0.062 A 
HETATM    9  C9  UNL     1     -33.100  18.197  -0.376  1.00 20.00     0.018 C 
HETATM   10  O10 UNL     1     -33.459  19.262  -3.179  1.00 20.00    -0.290 OA
HETATM   11  O11 UNL     1     -33.774  16.976  -4.971  1.00 20.00    -0.347 OA
ENDROOT
TORSDOF 0
ENDMDL
MODEL 8
REMARK VINA RESULT:      -4.3     12.109     13.667
REMARK  0 active torsions:
REMARK  status: ('A' for Active; 'I' for Inactive)
ROOT
HETATM    1  C1  UNL     1     -34.386  16.455  -5.102  1.00 20.00     0.117 A 
HETATM    2  C2  UNL     1     -34.491  15.224  -4.599  1.00 20.00    -0.042 A 
HETATM    3  C3  UNL     1     -34.395  16.322  -6.561  1.00 20.00     0.186 A 
HETATM    4  C4  UNL     1     -34.476  14.973  -3.131  1.00 20.00     0.039 C 
HETATM    5  C5  UNL     1     -34.612  14.138  -5.617  1.00 20.00     0.049 A 
HETATM    6  C6  UNL     1     -34.021  16.241  -2.398  1.00 20.00     0.031 C 
HETATM    7  C7  UNL     1     -34.624  17.497  -3.037  1.00 20.00     0.176 C 
HETATM    8  C8  UNL     1     -34.472  14.866  -6.966  1.00 20.00     0.062 A 
HETATM    9  C9  UNL     1     -35.639  14.605  -7.903  1.00 20.00     0.018 C 
HETATM   10  O10 UNL     1     -34.342  17.271  -7.328  1.00 20.00    -0.290 OA
HETATM   11  O11 UNL     1     -34.294  17.636  -4.430  1.00 20.00    -0.347 OA
ENDROOT
TORSDOF 0
ENDMDL
MODEL 9
REMARK VINA RESULT:      -4.2     11.595     13.046
REMARK  0 active torsions:
REMARK  status: ('A' for Active; 'I' for Inactive)
ROOT
HETATM    1  C1  UNL     1     -35.040  15.983  -4.374  1.00 20.00     0.117 A 
HETATM    2  C2  UNL     1     -34.450  15.292  -3.397  1.00 20.00    -0.042 A 
HETATM    3  C3  UNL     1     -35.220  17.351  -3.879  1.00 20.00     0.186 A 
HETATM    4  C4  UNL     1     -34.145  13.841  -3.537  1.00 20.00     0.039 C 
HETATM    5  C5  UNL     1     -34.137  16.083  -2.169  1.00 20.00     0.049 A 
HETATM    6  C6  UNL     1     -34.875  13.279  -4.763  1.00 20.00     0.031 C 
HETATM    7  C7  UNL     1     -34.838  14.270  -5.932  1.00 20.00     0.176 C 
HETATM    8  C8  UNL     1     -34.726  17.475  -2.454  1.00 20.00     0.062 A 
HETATM    9  C9  UNL     1     -33.705  18.591  -2.311  1.00 20.00     0.018 C 
HETATM   10  O10 UNL     1     -35.710  18.252  -4.542  1.00 20.00    -0.290 OA
HETATM   11  O11 UNL     1     -35.414  15.548  -5.608  1.00 20.00    -0.347 OA
ENDROOT
TORSDOF 0
ENDMDL
