MODEL 1
REMARK VINA RESULT:      -5.1      0.000      0.000
REMARK  2 active torsions:
REMARK  status: ('A' for Active; 'I' for Inactive)
REMARK    1  A    between atoms: C2_2  and  C3_3 
REMARK    2  A    between atoms: C3_3  and  O11_11 
ROOT
HETATM    1  C1  UNL     1     -33.432   6.041   3.079  1.00 20.00    -0.069 C 
HETATM    2  C2  UNL     1     -32.870   6.957   2.293  1.00 20.00     0.084 C 
HETATM    3  C4  UNL     1     -34.379   4.842   2.840  1.00 20.00     0.040 C 
HETATM    4  C5  UNL     1     -34.636   5.680   6.573  1.00 20.00     0.001 C 
HETATM    5  C6  UNL     1     -33.693   6.590   5.748  1.00 20.00     0.009 C 
HETATM    6  C7  UNL     1     -35.180   4.628   5.576  1.00 20.00     0.005 C 
HETATM    7  C8  UNL     1     -33.399   5.723   4.549  1.00 20.00     0.019 C 
HETATM    8  C9  UNL     1     -34.869   5.285   4.248  1.00 20.00    -0.002 C 
ENDROOT
BRANCH   2   9
HETATM    9  C3  UNL     1     -31.976   8.031   2.776  1.00 20.00     0.165 C 
HETATM   10  O10 UNL     1     -31.171   7.871   3.682  1.00 20.00    -0.647 OA
BRANCH   9  11
HETATM   11  O11 UNL     1     -32.150   9.193   2.109  1.00 20.00    -0.773 OA
HETATM   12  H23 UNL     1     -33.081   9.319   1.828  1.00 20.00     0.167 HD
ENDBRANCH   9  11
ENDBRANCH   2   9
TORSDOF 2
ENDMDL
MODEL 2
REMARK VINA RESULT:      -5.0     11.294     12.594
REMARK  2 active torsions:
REMARK  status: ('A' for Active; 'I' for Inactive)
REMARK    1  A    between atoms: C2_2  and  C3_3 
REMARK    2  A    between atoms: C3_3  and  O11_11 
ROOT
HETATM    1  C1  UNL     1     -34.816  16.107  -4.264  1.00 20.00    -0.069 C 
HETATM    2  C2  UNL     1     -35.124  14.961  -4.868  1.00 20.00     0.084 C 
HETATM    3  C4  UNL     1     -34.068  17.390  -4.692  1.00 20.00     0.040 C 
HETATM    4  C5  UNL     1     -34.080  17.389  -0.857  1.00 20.00     0.001 C 
HETATM    5  C6  UNL     1     -34.758  16.168  -1.528  1.00 20.00     0.009 C 
HETATM    6  C7  UNL     1     -33.619  18.301  -2.020  1.00 20.00     0.005 C 
HETATM    7  C8  UNL     1     -35.063  16.703  -2.906  1.00 20.00     0.019 C 
HETATM    8  C9  UNL     1     -33.665  17.343  -3.190  1.00 20.00    -0.002 C 
ENDROOT
BRANCH   2   9
HETATM    9  C3  UNL     1     -35.868  13.857  -4.226  1.00 20.00     0.165 C 
HETATM   10  O10 UNL     1     -37.022  13.967  -3.839  1.00 20.00    -0.647 OA
BRANCH   9  11
HETATM   11  O11 UNL     1     -35.135  12.727  -4.118  1.00 20.00    -0.773 OA
HETATM   12  H23 UNL     1     -35.521  11.988  -4.633  1.00 20.00     0.167 HD
ENDBRANCH   9  11
ENDBRANCH   2   9
TORSDOF 2
ENDMDL
MODEL 3
REMARK VINA RESULT:      -4.9     10.918     12.358
REMARK  2 active torsions:
REMARK  status: ('A' for Active; 'I' for Inactive)
REMARK    1  A    between atoms: C2_2  and  C3_3 
REMARK    2  A    between atoms: C3_3  and  O11_11 
ROOT
HETATM    1  C1  UNL     1     -35.085  15.797  -4.289  1.00 20.00    -0.069 C 
HETATM    2  C2  UNL     1     -34.641  14.702  -4.901  1.00 20.00     0.084 C 
HETATM    3  C4  UNL     1     -35.496  17.211  -4.761  1.00 20.00     0.040 C 
HETATM    4  C5  UNL     1     -34.804  17.498  -0.999  1.00 20.00     0.001 C 
HETATM    5  C6  UNL     1     -34.586  16.093  -1.613  1.00 20.00     0.009 C 
HETATM    6  C7  UNL     1     -35.303  18.389  -2.163  1.00 20.00     0.005 C 
HETATM    7  C8  UNL     1     -35.416  16.173  -2.871  1.00 20.00     0.019 C 
HETATM    8  C9  UNL     1     -34.902  17.564  -3.366  1.00 20.00    -0.002 C 
ENDROOT
BRANCH   2   9
HETATM    9  C3  UNL     1     -34.310  13.438  -4.208  1.00 20.00     0.165 C 
HETATM   10  O10 UNL     1     -33.206  13.204  -3.740  1.00 20.00    -0.647 OA
BRANCH   9  11
HETATM   11  O11 UNL     1     -35.356  12.585  -4.152  1.00 20.00    -0.773 OA
HETATM   12  H23 UNL     1     -35.870  12.578  -4.988  1.00 20.00     0.167 HD
ENDBRANCH   9  11
ENDBRANCH   2   9
TORSDOF 2
ENDMDL
MODEL 4
REMARK VINA RESULT:      -4.8     10.829     13.201
REMARK  2 active torsions:
REMARK  status: ('A' for Active; 'I' for Inactive)
REMARK    1  A    between atoms: C2_2  and  C3_3 
REMARK    2  A    between atoms: C3_3  and  O11_11 
ROOT
HETATM    1  C1  UNL     1     -33.998  15.731  -3.243  1.00 20.00    -0.069 C 
HETATM    2  C2  UNL     1     -34.456  14.506  -2.997  1.00 20.00     0.084 C 
HETATM    3  C4  UNL     1     -33.855  17.023  -2.404  1.00 20.00     0.040 C 
HETATM    4  C5  UNL     1     -33.686  18.109  -6.079  1.00 20.00     0.001 C 
HETATM    5  C6  UNL     1     -33.894  16.593  -5.839  1.00 20.00     0.009 C 
HETATM    6  C7  UNL     1     -33.564  18.741  -4.671  1.00 20.00     0.005 C 
HETATM    7  C8  UNL     1     -33.389  16.431  -4.427  1.00 20.00     0.019 C 
HETATM    8  C9  UNL     1     -34.144  17.648  -3.799  1.00 20.00    -0.002 C 
ENDROOT
BRANCH   2   9
HETATM    9  C3  UNL     1     -34.487  13.415  -3.994  1.00 20.00     0.165 C 
HETATM   10  O10 UNL     1     -35.525  12.936  -4.427  1.00 20.00    -0.647 OA
BRANCH   9  11
HETATM   11  O11 UNL     1     -33.251  13.014  -4.366  1.00 20.00    -0.773 OA
HETATM   12  H23 UNL     1     -33.013  12.147  -3.975  1.00 20.00     0.167 HD
ENDBRANCH   9  11
ENDBRANCH   2   9
TORSDOF 2
ENDMDL
MODEL 5
REMARK VINA RESULT:      -4.8     11.027     13.261
REMARK  2 active torsions:
REMARK  status: ('A' for Active; 'I' for Inactive)
REMARK    1  A    between atoms: C2_2  and  C3_3 
REMARK    2  A    between atoms: C3_3  and  O11_11 
ROOT
HETATM    1  C1  UNL     1     -34.494  15.479  -5.542  1.00 20.00    -0.069 C 
HETATM    2  C2  UNL     1     -34.377  14.154  -5.579  1.00 20.00     0.084 C 
HETATM    3  C4  UNL     1     -34.564  16.591  -6.614  1.00 20.00     0.040 C 
HETATM    4  C5  UNL     1     -33.600  18.329  -3.334  1.00 20.00     0.001 C 
HETATM    5  C6  UNL     1     -33.778  16.792  -3.248  1.00 20.00     0.009 C 
HETATM    6  C7  UNL     1     -33.927  18.706  -4.799  1.00 20.00     0.005 C 
HETATM    7  C8  UNL     1     -34.635  16.514  -4.459  1.00 20.00     0.019 C 
HETATM    8  C9  UNL     1     -33.819  17.363  -5.487  1.00 20.00    -0.002 C 
ENDROOT
BRANCH   2   9
HETATM    9  C3  UNL     1     -34.333  13.290  -4.380  1.00 20.00     0.165 C 
HETATM   10  O10 UNL     1     -33.373  13.245  -3.625  1.00 20.00    -0.647 OA
BRANCH   9  11
HETATM   11  O11 UNL     1     -35.462  12.566  -4.217  1.00 20.00    -0.773 OA
HETATM   12  H23 UNL     1     -36.170  13.083  -3.776  1.00 20.00     0.167 HD
ENDBRANCH   9  11
ENDBRANCH   2   9
TORSDOF 2
ENDMDL
MODEL 6
REMARK VINA RESULT:      -4.8     11.212     13.546
REMARK  2 active torsions:
REMARK  status: ('A' for Active; 'I' for Inactive)
REMARK    1  A    between atoms: C2_2  and  C3_3 
REMARK    2  A    between atoms: C3_3  and  O11_11 
ROOT
HETATM    1  C1  UNL     1     -34.337  15.853  -4.268  1.00 20.00    -0.069 C 
HETATM    2  C2  UNL     1     -34.385  14.836  -3.410  1.00 20.00     0.084 C 
HETATM    3  C4  UNL     1     -34.627  17.369  -4.169  1.00 20.00     0.040 C 
HETATM    4  C5  UNL     1     -34.751  16.499  -7.902  1.00 20.00     0.001 C 
HETATM    5  C6  UNL     1     -34.470  15.311  -6.949  1.00 20.00     0.009 C 
HETATM    6  C7  UNL     1     -34.860  17.747  -6.993  1.00 20.00     0.005 C 
HETATM    7  C8  UNL     1     -33.963  16.018  -5.716  1.00 20.00     0.019 C 
HETATM    8  C9  UNL     1     -35.076  17.113  -5.636  1.00 20.00    -0.002 C 
ENDROOT
BRANCH   2   9
HETATM    9  C3  UNL     1     -34.050  13.439  -3.759  1.00 20.00     0.165 C 
HETATM   10  O10 UNL     1     -32.910  13.000  -3.734  1.00 20.00    -0.647 OA
BRANCH   9  11
HETATM   11  O11 UNL     1     -35.137  12.713  -4.102  1.00 20.00    -0.773 OA
HETATM   12  H23 UNL     1     -35.726  12.549  -3.336  1.00 20.00     0.167 HD
ENDBRANCH   9  11
ENDBRANCH   2   9
TORSDOF 2
ENDMDL
MODEL 7
REMARK VINA RESULT:      -4.7      1.176      2.228
REMARK  2 active torsions:
REMARK  status: ('A' for Active; 'I' for Inactive)
REMARK    1  A    between atoms: C2_2  and  C3_3 
REMARK    2  A    between atoms: C3_3  and  O11_11 
ROOT
HETATM    1  C1  UNL     1     -33.264   6.915   5.018  1.00 20.00    -0.069 C 
HETATM    2  C2  UNL     1     -32.317   7.450   4.251  1.00 20.00     0.084 C 
HETATM    3  C4  UNL     1     -33.615   6.998   6.522  1.00 20.00     0.040 C 
HETATM    4  C5  UNL     1     -35.364   3.856   5.186  1.00 20.00     0.001 C 
HETATM    5  C6  UNL     1     -34.523   4.644   4.151  1.00 20.00     0.009 C 
HETATM    6  C7  UNL     1     -35.259   4.659   6.506  1.00 20.00     0.005 C 
HETATM    7  C8  UNL     1     -34.442   6.007   4.792  1.00 20.00     0.019 C 
HETATM    8  C9  UNL     1     -34.056   5.534   6.231  1.00 20.00    -0.002 C 
ENDROOT
BRANCH   2   9
HETATM    9  C3  UNL     1     -32.192   7.211   2.797  1.00 20.00     0.165 C 
HETATM   10  O10 UNL     1     -32.099   6.094   2.310  1.00 20.00    -0.647 OA
BRANCH   9  11
HETATM   11  O11 UNL     1     -32.191   8.356   2.079  1.00 20.00    -0.773 OA
HETATM   12  H23 UNL     1     -31.884   9.122   2.609  1.00 20.00     0.167 HD
ENDBRANCH   9  11
ENDBRANCH   2   9
TORSDOF 2
ENDMDL
MODEL 8
REMARK VINA RESULT:      -4.7     10.172     11.348
REMARK  2 active torsions:
REMARK  status: ('A' for Active; 'I' for Inactive)
REMARK    1  A    between atoms: C2_2  and  C3_3 
REMARK    2  A    between atoms: C3_3  and  O11_11 
ROOT
HETATM    1  C1  UNL     1     -42.749   4.739  -2.778  1.00 20.00    -0.069 C 
HETATM    2  C2  UNL     1     -42.872   3.602  -3.459  1.00 20.00     0.084 C 
HETATM    3  C4  UNL     1     -43.111   6.216  -3.061  1.00 20.00     0.040 C 
HETATM    4  C5  UNL     1     -40.531   6.273  -0.224  1.00 20.00     0.001 C 
HETATM    5  C6  UNL     1     -40.894   4.869  -0.769  1.00 20.00     0.009 C 
HETATM    6  C7  UNL     1     -41.411   7.269  -1.019  1.00 20.00     0.005 C 
HETATM    7  C8  UNL     1     -42.230   5.126  -1.420  1.00 20.00     0.019 C 
HETATM    8  C9  UNL     1     -41.832   6.422  -2.200  1.00 20.00    -0.002 C 
ENDROOT
BRANCH   2   9
HETATM    9  C3  UNL     1     -42.437   2.281  -2.955  1.00 20.00     0.165 C 
HETATM   10  O10 UNL     1     -41.518   1.648  -3.451  1.00 20.00    -0.647 OA
BRANCH   9  11
HETATM   11  O11 UNL     1     -43.165   1.863  -1.896  1.00 20.00    -0.773 OA
HETATM   12  H23 UNL     1     -42.802   1.041  -1.503  1.00 20.00     0.167 HD
ENDBRANCH   9  11
ENDBRANCH   2   9
TORSDOF 2
ENDMDL
MODEL 9
REMARK VINA RESULT:      -4.6     11.164     12.378
REMARK  2 active torsions:
REMARK  status: ('A' for Active; 'I' for Inactive)
REMARK    1  A    between atoms: C2_2  and  C3_3 
REMARK    2  A    between atoms: C3_3  and  O11_11 
ROOT
HETATM    1  C1  UNL     1     -34.268  15.581  -3.065  1.00 20.00    -0.069 C 
HETATM    2  C2  UNL     1     -33.864  14.400  -3.526  1.00 20.00     0.084 C 
HETATM    3  C4  UNL     1     -33.769  16.541  -1.960  1.00 20.00     0.040 C 
HETATM    4  C5  UNL     1     -37.403  17.536  -2.680  1.00 20.00     0.001 C 
HETATM    5  C6  UNL     1     -36.864  16.337  -3.499  1.00 20.00     0.009 C 
HETATM    6  C7  UNL     1     -36.217  18.009  -1.803  1.00 20.00     0.005 C 
HETATM    7  C8  UNL     1     -35.372  16.545  -3.405  1.00 20.00     0.019 C 
HETATM    8  C9  UNL     1     -35.299  16.808  -1.866  1.00 20.00    -0.002 C 
ENDROOT
BRANCH   2   9
HETATM    9  C3  UNL     1     -34.529  13.664  -4.623  1.00 20.00     0.165 C 
HETATM   10  O10 UNL     1     -34.497  14.032  -5.789  1.00 20.00    -0.647 OA
BRANCH   9  11
HETATM   11  O11 UNL     1     -35.168  12.554  -4.194  1.00 20.00    -0.773 OA
HETATM   12  H23 UNL     1     -34.810  11.740  -4.607  1.00 20.00     0.167 HD
ENDBRANCH   9  11
ENDBRANCH   2   9
TORSDOF 2
ENDMDL
