MODEL 1
REMARK VINA RESULT:      -4.3      0.000      0.000
REMARK  0 active torsions:
REMARK  status: ('A' for Active; 'I' for Inactive)
ROOT
HETATM    1  C1  UNL     1     -34.904  15.123  -2.915  1.00 20.00     0.024 A 
HETATM    2  C2  UNL     1     -34.793  15.121  -4.338  1.00 20.00    -0.016 A 
HETATM    3  C3  UNL     1     -34.294  16.322  -4.801  1.00 20.00    -0.007 A 
HETATM    4  C4  UNL     1     -34.493  16.318  -2.364  1.00 20.00    -0.020 A 
HETATM    5  C5  UNL     1     -35.127  13.987  -5.261  1.00 20.00     0.311 C 
HETATM    6  C6  UNL     1     -34.094  16.638  -6.246  1.00 20.00     0.077 C 
HETATM    7  C7  UNL     1     -34.208  15.347  -7.082  1.00 20.00     0.277 C 
HETATM    8  C8  UNL     1     -34.457  16.709  -0.937  1.00 20.00     0.056 C 
HETATM    9  C9  UNL     1     -36.621  15.000  -6.908  1.00 20.00     0.310 C 
HETATM   10  N10 UNL     1     -35.294  14.439  -6.660  1.00 20.00     0.088 N 
HETATM   11  S11 UNL     1     -33.974  17.433  -3.556  1.00 20.00    -0.099 SA
ENDROOT
TORSDOF 0
ENDMDL
MODEL 2
REMARK VINA RESULT:      -4.3      1.549      2.194
REMARK  0 active torsions:
REMARK  status: ('A' for Active; 'I' for Inactive)
ROOT
HETATM    1  C1  UNL     1     -34.598  16.405  -1.058  1.00 20.00     0.024 A 
HETATM    2  C2  UNL     1     -34.376  16.258  -2.460  1.00 20.00    -0.016 A 
HETATM    3  C3  UNL     1     -33.860  17.416  -3.007  1.00 20.00    -0.007 A 
HETATM    4  C4  UNL     1     -34.251  17.661  -0.606  1.00 20.00    -0.020 A 
HETATM    5  C5  UNL     1     -34.618  15.026  -3.281  1.00 20.00     0.311 C 
HETATM    6  C6  UNL     1     -33.551  17.584  -4.458  1.00 20.00     0.077 C 
HETATM    7  C7  UNL     1     -33.580  16.211  -5.159  1.00 20.00     0.277 C 
HETATM    8  C8  UNL     1     -34.333  18.199   0.770  1.00 20.00     0.056 C 
HETATM    9  C9  UNL     1     -35.992  15.828  -5.135  1.00 20.00     0.310 C 
HETATM   10  N10 UNL     1     -34.681  15.326  -4.728  1.00 20.00     0.088 N 
HETATM   11  S11 UNL     1     -33.656  18.658  -1.865  1.00 20.00    -0.099 SA
ENDROOT
TORSDOF 0
ENDMDL
MODEL 3
REMARK VINA RESULT:      -4.0      1.262      1.465
REMARK  0 active torsions:
REMARK  status: ('A' for Active; 'I' for Inactive)
ROOT
HETATM    1  C1  UNL     1     -36.117  15.861  -3.083  1.00 20.00     0.024 A 
HETATM    2  C2  UNL     1     -36.017  15.464  -4.451  1.00 20.00    -0.016 A 
HETATM    3  C3  UNL     1     -34.698  15.378  -4.850  1.00 20.00    -0.007 A 
HETATM    4  C4  UNL     1     -34.879  16.064  -2.510  1.00 20.00    -0.020 A 
HETATM    5  C5  UNL     1     -37.154  15.137  -5.374  1.00 20.00     0.311 C 
HETATM    6  C6  UNL     1     -34.271  15.018  -6.234  1.00 20.00     0.077 C 
HETATM    7  C7  UNL     1     -35.471  14.452  -7.019  1.00 20.00     0.277 C 
HETATM    8  C8  UNL     1     -34.563  16.479  -1.125  1.00 20.00     0.056 C 
HETATM    9  C9  UNL     1     -36.723  16.526  -7.337  1.00 20.00     0.310 C 
HETATM   10  N10 UNL     1     -36.743  15.169  -6.794  1.00 20.00     0.088 N 
HETATM   11  S11 UNL     1     -33.602  15.776  -3.614  1.00 20.00    -0.099 SA
ENDROOT
TORSDOF 0
ENDMDL
MODEL 4
REMARK VINA RESULT:      -3.9      1.582      2.247
REMARK  0 active torsions:
REMARK  status: ('A' for Active; 'I' for Inactive)
ROOT
HETATM    1  C1  UNL     1     -36.555  16.802  -3.329  1.00 20.00     0.024 A 
HETATM    2  C2  UNL     1     -35.936  15.672  -3.942  1.00 20.00    -0.016 A 
HETATM    3  C3  UNL     1     -34.814  15.277  -3.240  1.00 20.00    -0.007 A 
HETATM    4  C4  UNL     1     -35.879  17.218  -2.201  1.00 20.00    -0.020 A 
HETATM    5  C5  UNL     1     -36.410  14.944  -5.165  1.00 20.00     0.311 C 
HETATM    6  C6  UNL     1     -33.934  14.144  -3.651  1.00 20.00     0.077 C 
HETATM    7  C7  UNL     1     -34.634  13.309  -4.742  1.00 20.00     0.277 C 
HETATM    8  C8  UNL     1     -36.200  18.344  -1.298  1.00 20.00     0.056 C 
HETATM    9  C9  UNL     1     -34.435  14.880  -6.602  1.00 20.00     0.310 C 
HETATM   10  N10 UNL     1     -35.346  14.106  -5.761  1.00 20.00     0.088 N 
HETATM   11  S11 UNL     1     -34.503  16.248  -1.881  1.00 20.00    -0.099 SA
ENDROOT
TORSDOF 0
ENDMDL
MODEL 5
REMARK VINA RESULT:      -3.9      4.481      6.406
REMARK  0 active torsions:
REMARK  status: ('A' for Active; 'I' for Inactive)
ROOT
HETATM    1  C1  UNL     1     -31.866  18.945   0.790  1.00 20.00     0.024 A 
HETATM    2  C2  UNL     1     -33.141  18.623   0.236  1.00 20.00    -0.016 A 
HETATM    3  C3  UNL     1     -34.080  18.427   1.229  1.00 20.00    -0.007 A 
HETATM    4  C4  UNL     1     -31.890  18.973   2.169  1.00 20.00    -0.020 A 
HETATM    5  C5  UNL     1     -33.487  18.528  -1.220  1.00 20.00     0.311 C 
HETATM    6  C6  UNL     1     -35.500  18.046   0.966  1.00 20.00     0.077 C 
HETATM    7  C7  UNL     1     -35.820  18.230  -0.531  1.00 20.00     0.277 C 
HETATM    8  C8  UNL     1     -30.781  19.263   3.103  1.00 20.00     0.056 C 
HETATM    9  C9  UNL     1     -34.554  16.339  -1.420  1.00 20.00     0.310 C 
HETATM   10  N10 UNL     1     -34.748  17.788  -1.445  1.00 20.00     0.088 N 
HETATM   11  S11 UNL     1     -33.445  18.615   2.793  1.00 20.00    -0.099 SA
ENDROOT
TORSDOF 0
ENDMDL
MODEL 6
REMARK VINA RESULT:      -3.8      2.167      2.956
REMARK  0 active torsions:
REMARK  status: ('A' for Active; 'I' for Inactive)
ROOT
HETATM    1  C1  UNL     1     -34.604  16.545  -0.743  1.00 20.00     0.024 A 
HETATM    2  C2  UNL     1     -35.035  16.452  -2.100  1.00 20.00    -0.016 A 
HETATM    3  C3  UNL     1     -35.939  17.449  -2.405  1.00 20.00    -0.007 A 
HETATM    4  C4  UNL     1     -35.201  17.596  -0.079  1.00 20.00    -0.020 A 
HETATM    5  C5  UNL     1     -34.577  15.450  -3.119  1.00 20.00     0.311 C 
HETATM    6  C6  UNL     1     -36.595  17.597  -3.738  1.00 20.00     0.077 C 
HETATM    7  C7  UNL     1     -35.878  16.707  -4.773  1.00 20.00     0.277 C 
HETATM    8  C8  UNL     1     -35.019  18.019   1.327  1.00 20.00     0.056 C 
HETATM    9  C9  UNL     1     -36.662  14.526  -3.998  1.00 20.00     0.310 C 
HETATM   10  N10 UNL     1     -35.500  15.370  -4.273  1.00 20.00     0.088 N 
HETATM   11  S11 UNL     1     -36.275  18.469  -1.088  1.00 20.00    -0.099 SA
ENDROOT
TORSDOF 0
ENDMDL
MODEL 7
REMARK VINA RESULT:      -3.8      2.872      4.730
REMARK  0 active torsions:
REMARK  status: ('A' for Active; 'I' for Inactive)
ROOT
HETATM    1  C1  UNL     1     -34.556  15.096  -2.627  1.00 20.00     0.024 A 
HETATM    2  C2  UNL     1     -34.464  16.469  -2.249  1.00 20.00    -0.016 A 
HETATM    3  C3  UNL     1     -33.991  17.242  -3.291  1.00 20.00    -0.007 A 
HETATM    4  C4  UNL     1     -34.144  14.886  -3.926  1.00 20.00    -0.020 A 
HETATM    5  C5  UNL     1     -34.847  17.062  -0.925  1.00 20.00     0.311 C 
HETATM    6  C6  UNL     1     -33.754  18.713  -3.194  1.00 20.00     0.077 C 
HETATM    7  C7  UNL     1     -34.414  19.263  -1.913  1.00 20.00     0.277 C 
HETATM    8  C8  UNL     1     -34.090  13.614  -4.680  1.00 20.00     0.056 C 
HETATM    9  C9  UNL     1     -32.868  18.333  -0.266  1.00 20.00     0.310 C 
HETATM   10  N10 UNL     1     -34.255  18.402  -0.724  1.00 20.00     0.088 N 
HETATM   11  S11 UNL     1     -33.652  16.338  -4.689  1.00 20.00    -0.099 SA
ENDROOT
TORSDOF 0
ENDMDL
MODEL 8
REMARK VINA RESULT:      -3.8      2.534      4.712
REMARK  0 active torsions:
REMARK  status: ('A' for Active; 'I' for Inactive)
ROOT
HETATM    1  C1  UNL     1     -34.191  16.597  -5.199  1.00 20.00     0.024 A 
HETATM    2  C2  UNL     1     -34.120  17.054  -3.849  1.00 20.00    -0.016 A 
HETATM    3  C3  UNL     1     -34.523  16.071  -2.968  1.00 20.00    -0.007 A 
HETATM    4  C4  UNL     1     -34.647  15.298  -5.284  1.00 20.00    -0.020 A 
HETATM    5  C5  UNL     1     -33.648  18.400  -3.383  1.00 20.00     0.311 C 
HETATM    6  C6  UNL     1     -34.591  16.257  -1.488  1.00 20.00     0.077 C 
HETATM    7  C7  UNL     1     -33.850  17.550  -1.092  1.00 20.00     0.277 C 
HETATM    8  C8  UNL     1     -34.858  14.475  -6.495  1.00 20.00     0.056 C 
HETATM    9  C9  UNL     1     -35.459  19.180  -1.941  1.00 20.00     0.310 C 
HETATM   10  N10 UNL     1     -34.083  18.692  -1.999  1.00 20.00     0.088 N 
HETATM   11  S11 UNL     1     -34.987  14.632  -3.743  1.00 20.00    -0.099 SA
ENDROOT
TORSDOF 0
ENDMDL
MODEL 9
REMARK VINA RESULT:      -3.8      2.861      4.668
REMARK  0 active torsions:
REMARK  status: ('A' for Active; 'I' for Inactive)
ROOT
HETATM    1  C1  UNL     1     -34.377  14.797  -2.995  1.00 20.00     0.024 A 
HETATM    2  C2  UNL     1     -34.931  15.968  -2.396  1.00 20.00    -0.016 A 
HETATM    3  C3  UNL     1     -36.002  16.442  -3.126  1.00 20.00    -0.007 A 
HETATM    4  C4  UNL     1     -35.042  14.439  -4.149  1.00 20.00    -0.020 A 
HETATM    5  C5  UNL     1     -34.477  16.625  -1.126  1.00 20.00     0.311 C 
HETATM    6  C6  UNL     1     -36.770  17.672  -2.772  1.00 20.00     0.077 C 
HETATM    7  C7  UNL     1     -36.410  18.117  -1.340  1.00 20.00     0.277 C 
HETATM    8  C8  UNL     1     -34.773  13.297  -5.049  1.00 20.00     0.056 C 
HETATM    9  C9  UNL     1     -34.157  18.961  -1.766  1.00 20.00     0.310 C 
HETATM   10  N10 UNL     1     -34.974  18.013  -1.010  1.00 20.00     0.088 N 
HETATM   11  S11 UNL     1     -36.330  15.509  -4.508  1.00 20.00    -0.099 SA
ENDROOT
TORSDOF 0
ENDMDL
