MODEL 1
REMARK VINA RESULT:      -4.8      0.000      0.000
REMARK  1 active torsions:
REMARK  status: ('A' for Active; 'I' for Inactive)
REMARK    1  A    between atoms: C7_7  and  C10_10 
ROOT
HETATM    1  C1  UNL     1     -34.962  13.820  -5.845  1.00 20.00    -0.018 C 
HETATM    2  C2  UNL     1     -34.210  14.932  -5.782  1.00 20.00    -0.024 C 
HETATM    3  C3  UNL     1     -36.149  14.459  -3.873  1.00 20.00     0.139 C 
HETATM    4  C4  UNL     1     -33.925  13.822  -3.774  1.00 20.00     0.025 C 
HETATM    5  C5  UNL     1     -35.233  13.377  -4.432  1.00 20.00     0.078 C 
HETATM    6  C6  UNL     1     -34.001  15.259  -4.314  1.00 20.00     0.020 C 
HETATM    7  C7  UNL     1     -35.359  15.770  -3.750  1.00 20.00     0.067 C 
HETATM    8  O11 UNL     1     -37.332  14.315  -3.607  1.00 20.00    -0.297 OA
ENDROOT
BRANCH   7   9
HETATM    9  C10 UNL     1     -35.293  16.259  -2.315  1.00 20.00    -0.011 C 
HETATM   10  C8  UNL     1     -33.868  16.679  -1.946  1.00 20.00     0.010 C 
HETATM   11  C9  UNL     1     -36.262  17.421  -2.088  1.00 20.00     0.010 C 
ENDBRANCH   7   9
TORSDOF 1
ENDMDL
MODEL 2
REMARK VINA RESULT:      -4.7      2.124      3.955
REMARK  1 active torsions:
REMARK  status: ('A' for Active; 'I' for Inactive)
REMARK    1  A    between atoms: C7_7  and  C10_10 
ROOT
HETATM    1  C1  UNL     1     -34.639  15.163  -2.813  1.00 20.00    -0.018 C 
HETATM    2  C2  UNL     1     -35.789  14.894  -3.456  1.00 20.00    -0.024 C 
HETATM    3  C3  UNL     1     -33.634  15.927  -4.839  1.00 20.00     0.139 C 
HETATM    4  C4  UNL     1     -34.131  13.688  -4.524  1.00 20.00     0.025 C 
HETATM    5  C5  UNL     1     -33.510  14.859  -3.760  1.00 20.00     0.078 C 
HETATM    6  C6  UNL     1     -35.431  14.437  -4.859  1.00 20.00     0.020 C 
HETATM    7  C7  UNL     1     -34.921  15.683  -5.641  1.00 20.00     0.067 C 
HETATM    8  O11 UNL     1     -32.855  16.852  -5.011  1.00 20.00    -0.297 OA
ENDROOT
BRANCH   7   9
HETATM    9  C10 UNL     1     -34.635  15.423  -7.108  1.00 20.00    -0.011 C 
HETATM   10  C8  UNL     1     -35.604  14.385  -7.679  1.00 20.00     0.010 C 
HETATM   11  C9  UNL     1     -34.710  16.719  -7.918  1.00 20.00     0.010 C 
ENDBRANCH   7   9
TORSDOF 1
ENDMDL
MODEL 3
REMARK VINA RESULT:      -4.6      1.753      2.253
REMARK  1 active torsions:
REMARK  status: ('A' for Active; 'I' for Inactive)
REMARK    1  A    between atoms: C7_7  and  C10_10 
ROOT
HETATM    1  C1  UNL     1     -34.422  13.921  -5.190  1.00 20.00    -0.018 C 
HETATM    2  C2  UNL     1     -33.953  13.677  -3.953  1.00 20.00    -0.024 C 
HETATM    3  C3  UNL     1     -34.616  16.251  -4.705  1.00 20.00     0.139 C 
HETATM    4  C4  UNL     1     -36.010  14.702  -3.696  1.00 20.00     0.025 C 
HETATM    5  C5  UNL     1     -35.439  15.024  -5.078  1.00 20.00     0.078 C 
HETATM    6  C6  UNL     1     -34.637  14.649  -3.007  1.00 20.00     0.020 C 
HETATM    7  C7  UNL     1     -34.053  16.064  -3.287  1.00 20.00     0.067 C 
HETATM    8  O11 UNL     1     -34.404  17.209  -5.432  1.00 20.00    -0.297 OA
ENDROOT
BRANCH   7   9
HETATM    9  C10 UNL     1     -34.544  17.139  -2.337  1.00 20.00    -0.011 C 
HETATM   10  C8  UNL     1     -34.602  16.614  -0.900  1.00 20.00     0.010 C 
HETATM   11  C9  UNL     1     -33.654  18.382  -2.410  1.00 20.00     0.010 C 
ENDBRANCH   7   9
TORSDOF 1
ENDMDL
MODEL 4
REMARK VINA RESULT:      -4.5      1.280      3.873
REMARK  1 active torsions:
REMARK  status: ('A' for Active; 'I' for Inactive)
REMARK    1  A    between atoms: C7_7  and  C10_10 
ROOT
HETATM    1  C1  UNL     1     -35.586  17.766  -0.952  1.00 20.00    -0.018 C 
HETATM    2  C2  UNL     1     -34.542  16.995  -0.599  1.00 20.00    -0.024 C 
HETATM    3  C3  UNL     1     -35.950  16.451  -2.912  1.00 20.00     0.139 C 
HETATM    4  C4  UNL     1     -34.085  17.808  -2.715  1.00 20.00     0.025 C 
HETATM    5  C5  UNL     1     -35.591  17.859  -2.454  1.00 20.00     0.078 C 
HETATM    6  C6  UNL     1     -33.860  16.539  -1.877  1.00 20.00     0.020 C 
HETATM    7  C7  UNL     1     -34.794  15.501  -2.563  1.00 20.00     0.067 C 
HETATM    8  O11 UNL     1     -37.004  16.124  -3.435  1.00 20.00    -0.297 OA
ENDROOT
BRANCH   7   9
HETATM    9  C10 UNL     1     -34.202  14.850  -3.798  1.00 20.00    -0.011 C 
HETATM   10  C8  UNL     1     -32.694  14.642  -3.637  1.00 20.00     0.010 C 
HETATM   11  C9  UNL     1     -34.891  13.517  -4.098  1.00 20.00     0.010 C 
ENDBRANCH   7   9
TORSDOF 1
ENDMDL
MODEL 5
REMARK VINA RESULT:      -4.5      1.956      3.057
REMARK  1 active torsions:
REMARK  status: ('A' for Active; 'I' for Inactive)
REMARK    1  A    between atoms: C7_7  and  C10_10 
ROOT
HETATM    1  C1  UNL     1     -33.340  13.590  -3.657  1.00 20.00    -0.018 C 
HETATM    2  C2  UNL     1     -32.514  14.651  -3.638  1.00 20.00    -0.024 C 
HETATM    3  C3  UNL     1     -34.670  14.600  -5.364  1.00 20.00     0.139 C 
HETATM    4  C4  UNL     1     -34.640  15.454  -3.211  1.00 20.00     0.025 C 
HETATM    5  C5  UNL     1     -34.729  14.103  -3.924  1.00 20.00     0.078 C 
HETATM    6  C6  UNL     1     -33.351  15.884  -3.929  1.00 20.00     0.020 C 
HETATM    7  C7  UNL     1     -33.755  15.833  -5.431  1.00 20.00     0.067 C 
HETATM    8  O11 UNL     1     -35.227  14.076  -6.316  1.00 20.00    -0.297 OA
ENDROOT
BRANCH   7   9
HETATM    9  C10 UNL     1     -34.497  17.062  -5.919  1.00 20.00    -0.011 C 
HETATM   10  C8  UNL     1     -33.847  18.341  -5.384  1.00 20.00     0.010 C 
HETATM   11  C9  UNL     1     -34.553  17.097  -7.448  1.00 20.00     0.010 C 
ENDBRANCH   7   9
TORSDOF 1
ENDMDL
MODEL 6
REMARK VINA RESULT:      -4.5      1.914      2.557
REMARK  1 active torsions:
REMARK  status: ('A' for Active; 'I' for Inactive)
REMARK    1  A    between atoms: C7_7  and  C10_10 
ROOT
HETATM    1  C1  UNL     1     -34.518  13.881  -5.227  1.00 20.00    -0.018 C 
HETATM    2  C2  UNL     1     -34.658  13.519  -3.940  1.00 20.00    -0.024 C 
HETATM    3  C3  UNL     1     -33.641  16.006  -4.580  1.00 20.00     0.139 C 
HETATM    4  C4  UNL     1     -35.865  15.471  -4.216  1.00 20.00     0.025 C 
HETATM    5  C5  UNL     1     -34.807  15.356  -5.315  1.00 20.00     0.078 C 
HETATM    6  C6  UNL     1     -35.009  14.767  -3.151  1.00 20.00     0.020 C 
HETATM    7  C7  UNL     1     -33.734  15.656  -3.086  1.00 20.00     0.067 C 
HETATM    8  O11 UNL     1     -32.755  16.664  -5.101  1.00 20.00    -0.297 OA
ENDROOT
BRANCH   7   9
HETATM    9  C10 UNL     1     -33.880  16.894  -2.223  1.00 20.00    -0.011 C 
HETATM   10  C8  UNL     1     -34.612  18.005  -2.980  1.00 20.00     0.010 C 
HETATM   11  C9  UNL     1     -34.615  16.569  -0.920  1.00 20.00     0.010 C 
ENDBRANCH   7   9
TORSDOF 1
ENDMDL
MODEL 7
REMARK VINA RESULT:      -4.5      1.670      2.306
REMARK  1 active torsions:
REMARK  status: ('A' for Active; 'I' for Inactive)
REMARK    1  A    between atoms: C7_7  and  C10_10 
ROOT
HETATM    1  C1  UNL     1     -36.186  14.858  -6.850  1.00 20.00    -0.018 C 
HETATM    2  C2  UNL     1     -36.551  15.825  -5.989  1.00 20.00    -0.024 C 
HETATM    3  C3  UNL     1     -34.898  13.775  -5.155  1.00 20.00     0.139 C 
HETATM    4  C4  UNL     1     -34.239  15.813  -6.035  1.00 20.00     0.025 C 
HETATM    5  C5  UNL     1     -34.775  14.461  -6.511  1.00 20.00     0.078 C 
HETATM    6  C6  UNL     1     -35.387  16.055  -5.042  1.00 20.00     0.020 C 
HETATM    7  C7  UNL     1     -35.297  14.819  -4.100  1.00 20.00     0.067 C 
HETATM    8  O11 UNL     1     -34.745  12.581  -4.950  1.00 20.00    -0.297 OA
ENDROOT
BRANCH   7   9
HETATM    9  C10 UNL     1     -34.255  14.944  -3.005  1.00 20.00    -0.011 C 
HETATM   10  C8  UNL     1     -32.846  15.016  -3.597  1.00 20.00     0.010 C 
HETATM   11  C9  UNL     1     -34.525  16.172  -2.131  1.00 20.00     0.010 C 
ENDBRANCH   7   9
TORSDOF 1
ENDMDL
MODEL 8
REMARK VINA RESULT:      -4.3      2.227      3.912
REMARK  1 active torsions:
REMARK  status: ('A' for Active; 'I' for Inactive)
REMARK    1  A    between atoms: C7_7  and  C10_10 
ROOT
HETATM    1  C1  UNL     1     -34.658  16.000  -2.130  1.00 20.00    -0.018 C 
HETATM    2  C2  UNL     1     -35.414  15.227  -2.928  1.00 20.00    -0.024 C 
HETATM    3  C3  UNL     1     -33.826  17.207  -4.016  1.00 20.00     0.139 C 
HETATM    4  C4  UNL     1     -33.232  14.998  -3.655  1.00 20.00     0.025 C 
HETATM    5  C5  UNL     1     -33.383  16.303  -2.871  1.00 20.00     0.078 C 
HETATM    6  C6  UNL     1     -34.657  15.036  -4.230  1.00 20.00     0.020 C 
HETATM    7  C7  UNL     1     -34.687  16.392  -4.993  1.00 20.00     0.067 C 
HETATM    8  O11 UNL     1     -33.571  18.397  -4.117  1.00 20.00    -0.297 OA
ENDROOT
BRANCH   7   9
HETATM    9  C10 UNL     1     -34.075  16.340  -6.380  1.00 20.00    -0.011 C 
HETATM   10  C8  UNL     1     -34.424  15.026  -7.083  1.00 20.00     0.010 C 
HETATM   11  C9  UNL     1     -34.535  17.530  -7.226  1.00 20.00     0.010 C 
ENDBRANCH   7   9
TORSDOF 1
ENDMDL
MODEL 9
REMARK VINA RESULT:      -4.3      1.507      1.969
REMARK  1 active torsions:
REMARK  status: ('A' for Active; 'I' for Inactive)
REMARK    1  A    between atoms: C7_7  and  C10_10 
ROOT
HETATM    1  C1  UNL     1     -35.823  14.636  -6.205  1.00 20.00    -0.018 C 
HETATM    2  C2  UNL     1     -36.260  15.853  -5.832  1.00 20.00    -0.024 C 
HETATM    3  C3  UNL     1     -34.591  14.408  -4.172  1.00 20.00     0.139 C 
HETATM    4  C4  UNL     1     -33.949  15.933  -5.792  1.00 20.00     0.025 C 
HETATM    5  C5  UNL     1     -34.420  14.481  -5.685  1.00 20.00     0.078 C 
HETATM    6  C6  UNL     1     -35.152  16.507  -5.026  1.00 20.00     0.020 C 
HETATM    7  C7  UNL     1     -35.073  15.773  -3.656  1.00 20.00     0.067 C 
HETATM    8  O11 UNL     1     -34.413  13.413  -3.487  1.00 20.00    -0.297 OA
ENDROOT
BRANCH   7   9
HETATM    9  C10 UNL     1     -34.091  16.387  -2.676  1.00 20.00    -0.011 C 
HETATM   10  C8  UNL     1     -33.768  17.833  -3.059  1.00 20.00     0.010 C 
HETATM   11  C9  UNL     1     -34.636  16.328  -1.247  1.00 20.00     0.010 C 
ENDBRANCH   7   9
TORSDOF 1
ENDMDL
