MODEL 1
REMARK VINA RESULT:      -4.4      0.000      0.000
REMARK  1 active torsions:
REMARK  status: ('A' for Active; 'I' for Inactive)
REMARK    1  A    between atoms: C4_4  and  C7_7 
ROOT
HETATM    1  C1  UNL     1     -34.940  13.893  -4.468  1.00 20.00     0.268 C 
HETATM    2  C2  UNL     1     -35.454  14.593  -5.692  1.00 20.00     0.184 C 
HETATM    3  C3  UNL     1     -33.545  16.435  -4.886  1.00 20.00     0.107 C 
HETATM    4  C4  UNL     1     -34.420  16.120  -3.681  1.00 20.00     0.144 C 
HETATM    5  O8  UNL     1     -34.985  12.672  -4.346  1.00 20.00    -0.264 OA
HETATM    6  O9  UNL     1     -34.467  14.693  -3.477  1.00 20.00    -0.314 OA
HETATM    7  S10 UNL     1     -34.203  15.683  -6.405  1.00 20.00    -0.157 SA
ENDROOT
BRANCH   4   8
HETATM    8  C7  UNL     1     -33.833  16.733  -2.414  1.00 20.00     0.008 C 
HETATM    9  C5  UNL     1     -33.694  18.248  -2.562  1.00 20.00     0.012 C 
HETATM   10  C6  UNL     1     -34.696  16.392  -1.200  1.00 20.00     0.012 C 
ENDBRANCH   4   8
TORSDOF 1
ENDMDL
MODEL 2
REMARK VINA RESULT:      -4.4      1.435      1.445
REMARK  1 active torsions:
REMARK  status: ('A' for Active; 'I' for Inactive)
REMARK    1  A    between atoms: C4_4  and  C7_7 
ROOT
HETATM    1  C1  UNL     1     -35.273  13.866  -3.890  1.00 20.00     0.268 C 
HETATM    2  C2  UNL     1     -36.667  14.303  -4.231  1.00 20.00     0.184 C 
HETATM    3  C3  UNL     1     -35.490  16.787  -3.864  1.00 20.00     0.107 C 
HETATM    4  C4  UNL     1     -35.164  15.936  -2.644  1.00 20.00     0.144 C 
HETATM    5  O8  UNL     1     -34.805  12.803  -4.288  1.00 20.00    -0.264 OA
HETATM    6  O9  UNL     1     -34.572  14.690  -3.068  1.00 20.00    -0.314 OA
HETATM    7  S10 UNL     1     -36.681  15.956  -4.959  1.00 20.00    -0.157 SA
ENDROOT
BRANCH   4   8
HETATM    8  C7  UNL     1     -34.140  16.638  -1.757  1.00 20.00     0.008 C 
HETATM    9  C5  UNL     1     -33.684  17.949  -2.394  1.00 20.00     0.012 C 
HETATM   10  C6  UNL     1     -34.716  16.891  -0.365  1.00 20.00     0.012 C 
ENDBRANCH   4   8
TORSDOF 1
ENDMDL
MODEL 3
REMARK VINA RESULT:      -4.3      1.729      1.836
REMARK  1 active torsions:
REMARK  status: ('A' for Active; 'I' for Inactive)
REMARK    1  A    between atoms: C4_4  and  C7_7 
ROOT
HETATM    1  C1  UNL     1     -36.658  14.715  -3.755  1.00 20.00     0.268 C 
HETATM    2  C2  UNL     1     -36.045  14.312  -5.064  1.00 20.00     0.184 C 
HETATM    3  C3  UNL     1     -33.751  14.453  -3.513  1.00 20.00     0.107 C 
HETATM    4  C4  UNL     1     -34.517  15.755  -3.323  1.00 20.00     0.144 C 
HETATM    5  O8  UNL     1     -37.815  14.430  -3.459  1.00 20.00    -0.264 OA
HETATM    6  O9  UNL     1     -35.876  15.463  -2.933  1.00 20.00    -0.314 OA
HETATM    7  S10 UNL     1     -34.490  13.427  -4.820  1.00 20.00    -0.157 SA
ENDROOT
BRANCH   4   8
HETATM    8  C7  UNL     1     -33.900  16.584  -2.202  1.00 20.00     0.008 C 
HETATM    9  C5  UNL     1     -33.741  18.041  -2.634  1.00 20.00     0.012 C 
HETATM   10  C6  UNL     1     -34.746  16.492  -0.934  1.00 20.00     0.012 C 
ENDBRANCH   4   8
TORSDOF 1
ENDMDL
MODEL 4
REMARK VINA RESULT:      -4.3      1.394      1.802
REMARK  1 active torsions:
REMARK  status: ('A' for Active; 'I' for Inactive)
REMARK    1  A    between atoms: C4_4  and  C7_7 
ROOT
HETATM    1  C1  UNL     1     -33.923  13.790  -3.727  1.00 20.00     0.268 C 
HETATM    2  C2  UNL     1     -35.173  13.388  -4.455  1.00 20.00     0.184 C 
HETATM    3  C3  UNL     1     -35.465  16.143  -4.540  1.00 20.00     0.107 C 
HETATM    4  C4  UNL     1     -35.185  15.754  -3.095  1.00 20.00     0.144 C 
HETATM    5  O8  UNL     1     -32.917  13.085  -3.717  1.00 20.00    -0.264 OA
HETATM    6  O9  UNL     1     -33.984  14.957  -3.034  1.00 20.00    -0.314 OA
HETATM    7  S10 UNL     1     -35.721  14.681  -5.590  1.00 20.00    -0.157 SA
ENDROOT
BRANCH   4   8
HETATM    8  C7  UNL     1     -34.942  16.993  -2.240  1.00 20.00     0.008 C 
HETATM    9  C5  UNL     1     -34.625  16.600  -0.799  1.00 20.00     0.012 C 
HETATM   10  C6  UNL     1     -33.813  17.839  -2.825  1.00 20.00     0.012 C 
ENDBRANCH   4   8
TORSDOF 1
ENDMDL
MODEL 5
REMARK VINA RESULT:      -4.1      2.333      3.883
REMARK  1 active torsions:
REMARK  status: ('A' for Active; 'I' for Inactive)
REMARK    1  A    between atoms: C4_4  and  C7_7 
ROOT
HETATM    1  C1  UNL     1     -34.545  13.507  -4.627  1.00 20.00     0.268 C 
HETATM    2  C2  UNL     1     -33.404  14.167  -3.909  1.00 20.00     0.184 C 
HETATM    3  C3  UNL     1     -34.363  16.343  -5.334  1.00 20.00     0.107 C 
HETATM    4  C4  UNL     1     -34.172  15.197  -6.317  1.00 20.00     0.144 C 
HETATM    5  O8  UNL     1     -35.121  12.523  -4.173  1.00 20.00    -0.264 OA
HETATM    6  O9  UNL     1     -34.871  14.029  -5.839  1.00 20.00    -0.314 OA
HETATM    7  S10 UNL     1     -33.695  15.936  -3.692  1.00 20.00    -0.157 SA
ENDROOT
BRANCH   4   8
HETATM    8  C7  UNL     1     -34.767  15.548  -7.676  1.00 20.00     0.008 C 
HETATM    9  C5  UNL     1     -36.059  14.768  -7.917  1.00 20.00     0.012 C 
HETATM   10  C6  UNL     1     -35.022  17.051  -7.782  1.00 20.00     0.012 C 
ENDBRANCH   4   8
TORSDOF 1
ENDMDL
MODEL 6
REMARK VINA RESULT:      -4.0      1.888      2.271
REMARK  1 active torsions:
REMARK  status: ('A' for Active; 'I' for Inactive)
REMARK    1  A    between atoms: C4_4  and  C7_7 
ROOT
HETATM    1  C1  UNL     1     -37.252  14.833  -4.254  1.00 20.00     0.268 C 
HETATM    2  C2  UNL     1     -37.412  15.384  -5.641  1.00 20.00     0.184 C 
HETATM    3  C3  UNL     1     -34.648  15.191  -5.547  1.00 20.00     0.107 C 
HETATM    4  C4  UNL     1     -35.101  15.939  -4.300  1.00 20.00     0.144 C 
HETATM    5  O8  UNL     1     -38.126  14.163  -3.711  1.00 20.00    -0.264 OA
HETATM    6  O9  UNL     1     -36.102  15.164  -3.609  1.00 20.00    -0.314 OA
HETATM    7  S10 UNL     1     -36.026  14.917  -6.701  1.00 20.00    -0.157 SA
ENDROOT
BRANCH   4   8
HETATM    8  C7  UNL     1     -33.937  16.129  -3.333  1.00 20.00     0.008 C 
HETATM    9  C5  UNL     1     -34.431  16.119  -1.887  1.00 20.00     0.012 C 
HETATM   10  C6  UNL     1     -32.878  15.048  -3.545  1.00 20.00     0.012 C 
ENDBRANCH   4   8
TORSDOF 1
ENDMDL
MODEL 7
REMARK VINA RESULT:      -4.0      2.705      3.532
REMARK  1 active torsions:
REMARK  status: ('A' for Active; 'I' for Inactive)
REMARK    1  A    between atoms: C4_4  and  C7_7 
ROOT
HETATM    1  C1  UNL     1     -38.104  14.755  -3.815  1.00 20.00     0.268 C 
HETATM    2  C2  UNL     1     -38.128  16.221  -3.492  1.00 20.00     0.184 C 
HETATM    3  C3  UNL     1     -35.606  16.048  -4.630  1.00 20.00     0.107 C 
HETATM    4  C4  UNL     1     -35.707  14.963  -3.567  1.00 20.00     0.144 C 
HETATM    5  O8  UNL     1     -39.131  14.116  -4.028  1.00 20.00    -0.264 OA
HETATM    6  O9  UNL     1     -36.882  14.161  -3.806  1.00 20.00    -0.314 OA
HETATM    7  S10 UNL     1     -37.046  17.158  -4.593  1.00 20.00    -0.157 SA
ENDROOT
BRANCH   4   8
HETATM    8  C7  UNL     1     -34.506  14.027  -3.637  1.00 20.00     0.008 C 
HETATM    9  C5  UNL     1     -34.594  13.126  -4.868  1.00 20.00     0.012 C 
HETATM   10  C6  UNL     1     -33.202  14.822  -3.649  1.00 20.00     0.012 C 
ENDBRANCH   4   8
TORSDOF 1
ENDMDL
MODEL 8
REMARK VINA RESULT:      -3.9      1.808      2.160
REMARK  1 active torsions:
REMARK  status: ('A' for Active; 'I' for Inactive)
REMARK    1  A    between atoms: C4_4  and  C7_7 
ROOT
HETATM    1  C1  UNL     1     -34.115  15.521  -5.406  1.00 20.00     0.268 C 
HETATM    2  C2  UNL     1     -34.767  14.189  -5.176  1.00 20.00     0.184 C 
HETATM    3  C3  UNL     1     -35.711  15.546  -2.950  1.00 20.00     0.107 C 
HETATM    4  C4  UNL     1     -34.200  15.732  -2.998  1.00 20.00     0.144 C 
HETATM    5  O8  UNL     1     -33.822  15.920  -6.529  1.00 20.00    -0.264 OA
HETATM    6  O9  UNL     1     -33.817  16.241  -4.293  1.00 20.00    -0.314 OA
HETATM    7  S10 UNL     1     -36.278  14.353  -4.200  1.00 20.00    -0.157 SA
ENDROOT
BRANCH   4   8
HETATM    8  C7  UNL     1     -33.751  16.758  -1.964  1.00 20.00     0.008 C 
HETATM    9  C5  UNL     1     -33.766  18.165  -2.559  1.00 20.00     0.012 C 
HETATM   10  C6  UNL     1     -34.635  16.694  -0.720  1.00 20.00     0.012 C 
ENDBRANCH   4   8
TORSDOF 1
ENDMDL
MODEL 9
REMARK VINA RESULT:      -3.9      2.519      4.218
REMARK  1 active torsions:
REMARK  status: ('A' for Active; 'I' for Inactive)
REMARK    1  A    between atoms: C4_4  and  C7_7 
ROOT
HETATM    1  C1  UNL     1     -34.488  17.019  -0.572  1.00 20.00     0.268 C 
HETATM    2  C2  UNL     1     -33.406  17.978  -0.973  1.00 20.00     0.184 C 
HETATM    3  C3  UNL     1     -34.282  17.205  -3.488  1.00 20.00     0.107 C 
HETATM    4  C4  UNL     1     -34.012  15.941  -2.684  1.00 20.00     0.144 C 
HETATM    5  O8  UNL     1     -35.086  17.118   0.496  1.00 20.00    -0.264 OA
HETATM    6  O9  UNL     1     -34.733  15.998  -1.435  1.00 20.00    -0.314 OA
HETATM    7  S10 UNL     1     -33.727  18.692  -2.601  1.00 20.00    -0.157 SA
ENDROOT
BRANCH   4   8
HETATM    8  C7  UNL     1     -34.513  14.710  -3.432  1.00 20.00     0.008 C 
HETATM    9  C5  UNL     1     -35.240  15.116  -4.713  1.00 20.00     0.012 C 
HETATM   10  C6  UNL     1     -33.357  13.764  -3.750  1.00 20.00     0.012 C 
ENDBRANCH   4   8
TORSDOF 1
ENDMDL
