MODEL 1
REMARK VINA RESULT:      -5.0      0.000      0.000
REMARK  0 active torsions:
REMARK  status: ('A' for Active; 'I' for Inactive)
ROOT
HETATM    1  C1  UNL     1     -35.350  15.943  -2.585  1.00 20.00    -0.028 C 
HETATM    2  C2  UNL     1     -35.952  15.429  -3.670  1.00 20.00     0.003 C 
HETATM    3  C3  UNL     1     -34.527  13.630  -4.369  1.00 20.00     0.154 C 
HETATM    4  C4  UNL     1     -33.845  16.039  -2.485  1.00 20.00     0.032 C 
HETATM    5  C5  UNL     1     -33.192  13.863  -3.687  1.00 20.00     0.085 C 
HETATM    6  C6  UNL     1     -33.837  15.773  -4.983  1.00 20.00     0.043 C 
HETATM    7  C7  UNL     1     -33.102  15.405  -3.687  1.00 20.00    -0.002 C 
HETATM    8  C8  UNL     1     -35.121  14.946  -4.826  1.00 20.00     0.115 C 
HETATM    9  O9  UNL     1     -35.047  12.529  -4.487  1.00 20.00    -0.295 OA
HETATM   10 CL10 UNL     1     -36.013  14.782  -6.323  1.00 20.00    -0.106 Cl
ENDROOT
TORSDOF 0
ENDMDL
MODEL 2
REMARK VINA RESULT:      -4.5      1.915      3.013
REMARK  0 active torsions:
REMARK  status: ('A' for Active; 'I' for Inactive)
ROOT
HETATM    1  C1  UNL     1     -33.671  16.182  -6.039  1.00 20.00    -0.028 C 
HETATM    2  C2  UNL     1     -33.491  16.146  -4.708  1.00 20.00     0.003 C 
HETATM    3  C3  UNL     1     -33.977  13.882  -4.083  1.00 20.00     0.154 C 
HETATM    4  C4  UNL     1     -34.772  15.394  -6.710  1.00 20.00     0.032 C 
HETATM    5  C5  UNL     1     -34.746  13.281  -5.246  1.00 20.00     0.085 C 
HETATM    6  C6  UNL     1     -35.826  15.261  -4.434  1.00 20.00     0.043 C 
HETATM    7  C7  UNL     1     -35.571  14.492  -5.737  1.00 20.00    -0.002 C 
HETATM    8  C8  UNL     1     -34.406  15.316  -3.853  1.00 20.00     0.115 C 
HETATM    9  O9  UNL     1     -33.110  13.284  -3.461  1.00 20.00    -0.295 OA
HETATM   10 CL10 UNL     1     -34.379  15.746  -2.157  1.00 20.00    -0.106 Cl
ENDROOT
TORSDOF 0
ENDMDL
MODEL 3
REMARK VINA RESULT:      -4.5      1.990      2.747
REMARK  0 active torsions:
REMARK  status: ('A' for Active; 'I' for Inactive)
ROOT
HETATM    1  C1  UNL     1     -34.839  13.383  -4.172  1.00 20.00    -0.028 C 
HETATM    2  C2  UNL     1     -35.840  14.277  -4.118  1.00 20.00     0.003 C 
HETATM    3  C3  UNL     1     -34.852  16.351  -4.806  1.00 20.00     0.154 C 
HETATM    4  C4  UNL     1     -33.426  13.753  -3.787  1.00 20.00     0.032 C 
HETATM    5  C5  UNL     1     -33.351  16.162  -4.680  1.00 20.00     0.085 C 
HETATM    6  C6  UNL     1     -34.450  15.714  -2.597  1.00 20.00     0.043 C 
HETATM    7  C7  UNL     1     -33.251  15.252  -3.436  1.00 20.00    -0.002 C 
HETATM    8  C8  UNL     1     -35.565  15.679  -3.652  1.00 20.00     0.115 C 
HETATM    9  O9  UNL     1     -35.387  16.934  -5.738  1.00 20.00    -0.295 OA
HETATM   10 CL10 UNL     1     -36.996  16.558  -3.160  1.00 20.00    -0.106 Cl
ENDROOT
TORSDOF 0
ENDMDL
MODEL 4
REMARK VINA RESULT:      -4.5      1.609      2.453
REMARK  0 active torsions:
REMARK  status: ('A' for Active; 'I' for Inactive)
ROOT
HETATM    1  C1  UNL     1     -33.193  16.179  -4.708  1.00 20.00    -0.028 C 
HETATM    2  C2  UNL     1     -33.925  15.928  -5.807  1.00 20.00     0.003 C 
HETATM    3  C3  UNL     1     -36.067  15.242  -4.976  1.00 20.00     0.154 C 
HETATM    4  C4  UNL     1     -33.326  15.339  -3.460  1.00 20.00     0.032 C 
HETATM    5  C5  UNL     1     -35.854  14.874  -3.519  1.00 20.00     0.085 C 
HETATM    6  C6  UNL     1     -34.395  13.616  -4.944  1.00 20.00     0.043 C 
HETATM    7  C7  UNL     1     -34.436  14.261  -3.553  1.00 20.00    -0.002 C 
HETATM    8  C8  UNL     1     -34.893  14.780  -5.813  1.00 20.00     0.115 C 
HETATM    9  O9  UNL     1     -37.040  15.860  -5.385  1.00 20.00    -0.295 OA
HETATM   10 CL10 UNL     1     -35.386  14.273  -7.414  1.00 20.00    -0.106 Cl
ENDROOT
TORSDOF 0
ENDMDL
MODEL 5
REMARK VINA RESULT:      -4.5      2.133      2.979
REMARK  0 active torsions:
REMARK  status: ('A' for Active; 'I' for Inactive)
ROOT
HETATM    1  C1  UNL     1     -35.112  13.978  -5.890  1.00 20.00    -0.028 C 
HETATM    2  C2  UNL     1     -35.378  15.292  -5.803  1.00 20.00     0.003 C 
HETATM    3  C3  UNL     1     -33.609  16.191  -4.457  1.00 20.00     0.154 C 
HETATM    4  C4  UNL     1     -34.534  13.209  -4.726  1.00 20.00     0.032 C 
HETATM    5  C5  UNL     1     -32.975  15.006  -3.751  1.00 20.00     0.085 C 
HETATM    6  C6  UNL     1     -35.326  15.118  -3.297  1.00 20.00     0.043 C 
HETATM    7  C7  UNL     1     -34.198  14.097  -3.501  1.00 20.00    -0.002 C 
HETATM    8  C8  UNL     1     -35.112  16.024  -4.518  1.00 20.00     0.115 C 
HETATM    9  O9  UNL     1     -32.970  17.118  -4.934  1.00 20.00    -0.295 OA
HETATM   10 CL10 UNL     1     -35.950  17.555  -4.385  1.00 20.00    -0.106 Cl
ENDROOT
TORSDOF 0
ENDMDL
MODEL 6
REMARK VINA RESULT:      -4.4     11.555     12.384
REMARK  0 active torsions:
REMARK  status: ('A' for Active; 'I' for Inactive)
ROOT
HETATM    1  C1  UNL     1     -43.110   5.428   0.438  1.00 20.00    -0.028 C 
HETATM    2  C2  UNL     1     -43.390   6.277  -0.566  1.00 20.00     0.003 C 
HETATM    3  C3  UNL     1     -42.495   5.227  -2.527  1.00 20.00     0.154 C 
HETATM    4  C4  UNL     1     -41.817   4.649   0.477  1.00 20.00     0.032 C 
HETATM    5  C5  UNL     1     -41.522   4.172  -2.032  1.00 20.00     0.085 C 
HETATM    6  C6  UNL     1     -40.953   6.336  -1.172  1.00 20.00     0.043 C 
HETATM    7  C7  UNL     1     -40.930   4.853  -0.777  1.00 20.00    -0.002 C 
HETATM    8  C8  UNL     1     -42.397   6.474  -1.675  1.00 20.00     0.115 C 
HETATM    9  O9  UNL     1     -43.266   5.054  -3.461  1.00 20.00    -0.295 OA
HETATM   10 CL10 UNL     1     -42.655   7.931  -2.610  1.00 20.00    -0.106 Cl
ENDROOT
TORSDOF 0
ENDMDL
MODEL 7
REMARK VINA RESULT:      -4.4      1.945      2.781
REMARK  0 active torsions:
REMARK  status: ('A' for Active; 'I' for Inactive)
ROOT
HETATM    1  C1  UNL     1     -32.879  15.000  -3.722  1.00 20.00    -0.028 C 
HETATM    2  C2  UNL     1     -33.301  16.012  -4.498  1.00 20.00     0.003 C 
HETATM    3  C3  UNL     1     -35.692  15.828  -4.502  1.00 20.00     0.154 C 
HETATM    4  C4  UNL     1     -33.570  13.656  -3.728  1.00 20.00     0.032 C 
HETATM    5  C5  UNL     1     -36.006  14.424  -4.017  1.00 20.00     0.085 C 
HETATM    6  C6  UNL     1     -34.557  14.369  -5.926  1.00 20.00     0.043 C 
HETATM    7  C7  UNL     1     -34.836  13.614  -4.620  1.00 20.00    -0.002 C 
HETATM    8  C8  UNL     1     -34.480  15.813  -5.408  1.00 20.00     0.115 C 
HETATM    9  O9  UNL     1     -36.322  16.820  -4.162  1.00 20.00    -0.295 OA
HETATM   10 CL10 UNL     1     -34.599  17.002  -6.687  1.00 20.00    -0.106 Cl
ENDROOT
TORSDOF 0
ENDMDL
MODEL 8
REMARK VINA RESULT:      -4.4      1.737      2.779
REMARK  0 active torsions:
REMARK  status: ('A' for Active; 'I' for Inactive)
ROOT
HETATM    1  C1  UNL     1     -34.900  16.358  -5.805  1.00 20.00    -0.028 C 
HETATM    2  C2  UNL     1     -33.948  15.496  -5.409  1.00 20.00     0.003 C 
HETATM    3  C3  UNL     1     -35.132  13.752  -4.266  1.00 20.00     0.154 C 
HETATM    4  C4  UNL     1     -36.107  16.651  -4.945  1.00 20.00     0.032 C 
HETATM    5  C5  UNL     1     -36.503  14.318  -3.941  1.00 20.00     0.085 C 
HETATM    6  C6  UNL     1     -34.766  15.705  -3.043  1.00 20.00     0.043 C 
HETATM    7  C7  UNL     1     -36.172  15.799  -3.653  1.00 20.00    -0.002 C 
HETATM    8  C8  UNL     1     -34.067  14.811  -4.077  1.00 20.00     0.115 C 
HETATM    9  O9  UNL     1     -34.945  12.609  -4.660  1.00 20.00    -0.295 OA
HETATM   10 CL10 UNL     1     -32.564  14.136  -3.488  1.00 20.00    -0.106 Cl
ENDROOT
TORSDOF 0
ENDMDL
MODEL 9
REMARK VINA RESULT:      -4.4      1.462      1.879
REMARK  0 active torsions:
REMARK  status: ('A' for Active; 'I' for Inactive)
ROOT
HETATM    1  C1  UNL     1     -34.224  15.992  -2.710  1.00 20.00    -0.028 C 
HETATM    2  C2  UNL     1     -35.398  16.401  -3.220  1.00 20.00     0.003 C 
HETATM    3  C3  UNL     1     -36.401  14.418  -4.125  1.00 20.00     0.154 C 
HETATM    4  C4  UNL     1     -33.397  14.924  -3.387  1.00 20.00     0.032 C 
HETATM    5  C5  UNL     1     -35.280  13.404  -4.256  1.00 20.00     0.085 C 
HETATM    6  C6  UNL     1     -34.755  15.419  -5.442  1.00 20.00     0.043 C 
HETATM    7  C7  UNL     1     -34.081  14.304  -4.632  1.00 20.00    -0.002 C 
HETATM    8  C8  UNL     1     -35.906  15.800  -4.500  1.00 20.00     0.115 C 
HETATM    9  O9  UNL     1     -37.525  14.141  -3.732  1.00 20.00    -0.295 OA
HETATM   10 CL10 UNL     1     -37.146  16.750  -5.289  1.00 20.00    -0.106 Cl
ENDROOT
TORSDOF 0
ENDMDL
