MODEL 1
REMARK VINA RESULT:      -5.4      0.000      0.000
REMARK  0 active torsions:
REMARK  status: ('A' for Active; 'I' for Inactive)
ROOT
HETATM    1  C1  UNL     1     -32.919   6.961   4.481  1.00 20.00     0.086 C 
HETATM    2  C2  UNL     1     -33.881   6.163   4.955  1.00 20.00    -0.064 C 
HETATM    3  C3  UNL     1     -32.661   7.005   3.028  1.00 20.00     0.283 C 
HETATM    4  C4  UNL     1     -34.200   5.930   6.401  1.00 20.00     0.035 C 
HETATM    5  C5  UNL     1     -35.211   4.783   6.371  1.00 20.00     0.005 C 
HETATM    6  C6  UNL     1     -34.988   4.091   5.026  1.00 20.00     0.016 C 
HETATM    7  C7  UNL     1     -33.751   4.829   2.917  1.00 20.00     0.192 C 
HETATM    8  C8  UNL     1     -34.664   5.240   4.066  1.00 20.00     0.002 C 
HETATM    9  C9  UNL     1     -35.938   5.925   3.546  1.00 20.00     0.022 C 
HETATM   10  O10 UNL     1     -31.999   7.913   2.537  1.00 20.00    -0.260 OA
HETATM   11  O11 UNL     1     -33.192   6.000   2.275  1.00 20.00    -0.317 OA
ENDROOT
TORSDOF 0
ENDMDL
MODEL 2
REMARK VINA RESULT:      -4.9     11.313     12.507
REMARK  0 active torsions:
REMARK  status: ('A' for Active; 'I' for Inactive)
ROOT
HETATM    1  C1  UNL     1     -34.924  13.947  -3.807  1.00 20.00     0.086 C 
HETATM    2  C2  UNL     1     -35.595  15.047  -3.449  1.00 20.00    -0.064 C 
HETATM    3  C3  UNL     1     -33.451  13.932  -3.711  1.00 20.00     0.283 C 
HETATM    4  C4  UNL     1     -37.074  15.259  -3.581  1.00 20.00     0.035 C 
HETATM    5  C5  UNL     1     -37.262  16.738  -3.240  1.00 20.00     0.005 C 
HETATM    6  C6  UNL     1     -35.894  17.378  -3.479  1.00 20.00     0.016 C 
HETATM    7  C7  UNL     1     -33.567  16.364  -3.766  1.00 20.00     0.192 C 
HETATM    8  C8  UNL     1     -34.897  16.307  -3.025  1.00 20.00     0.002 C 
HETATM    9  C9  UNL     1     -34.687  16.334  -1.502  1.00 20.00     0.022 C 
HETATM   10  O10 UNL     1     -32.832  12.874  -3.755  1.00 20.00    -0.260 OA
HETATM   11  O11 UNL     1     -32.827  15.136  -3.568  1.00 20.00    -0.317 OA
ENDROOT
TORSDOF 0
ENDMDL
MODEL 3
REMARK VINA RESULT:      -4.8     11.414     13.096
REMARK  0 active torsions:
REMARK  status: ('A' for Active; 'I' for Inactive)
ROOT
HETATM    1  C1  UNL     1     -34.522  14.295  -3.306  1.00 20.00     0.086 C 
HETATM    2  C2  UNL     1     -34.345  15.616  -3.210  1.00 20.00    -0.064 C 
HETATM    3  C3  UNL     1     -34.908  13.706  -4.604  1.00 20.00     0.283 C 
HETATM    4  C4  UNL     1     -34.053  16.377  -1.951  1.00 20.00     0.035 C 
HETATM    5  C5  UNL     1     -34.171  17.842  -2.375  1.00 20.00     0.005 C 
HETATM    6  C6  UNL     1     -35.034  17.822  -3.637  1.00 20.00     0.016 C 
HETATM    7  C7  UNL     1     -35.711  15.925  -5.207  1.00 20.00     0.192 C 
HETATM    8  C8  UNL     1     -34.604  16.544  -4.362  1.00 20.00     0.002 C 
HETATM    9  C9  UNL     1     -33.328  16.761  -5.192  1.00 20.00     0.022 C 
HETATM   10  O10 UNL     1     -34.803  12.500  -4.800  1.00 20.00    -0.260 OA
HETATM   11  O11 UNL     1     -35.374  14.561  -5.557  1.00 20.00    -0.317 OA
ENDROOT
TORSDOF 0
ENDMDL
MODEL 4
REMARK VINA RESULT:      -4.8     11.581     13.109
REMARK  0 active torsions:
REMARK  status: ('A' for Active; 'I' for Inactive)
ROOT
HETATM    1  C1  UNL     1     -35.507  14.795  -4.726  1.00 20.00     0.086 C 
HETATM    2  C2  UNL     1     -35.261  16.013  -4.234  1.00 20.00    -0.064 C 
HETATM    3  C3  UNL     1     -34.675  13.655  -4.294  1.00 20.00     0.283 C 
HETATM    4  C4  UNL     1     -35.944  17.284  -4.644  1.00 20.00     0.035 C 
HETATM    5  C5  UNL     1     -35.133  18.376  -3.943  1.00 20.00     0.005 C 
HETATM    6  C6  UNL     1     -33.773  17.739  -3.657  1.00 20.00     0.016 C 
HETATM    7  C7  UNL     1     -32.997  15.306  -3.668  1.00 20.00     0.192 C 
HETATM    8  C8  UNL     1     -34.108  16.285  -3.311  1.00 20.00     0.002 C 
HETATM    9  C9  UNL     1     -34.532  16.133  -1.841  1.00 20.00     0.022 C 
HETATM   10  O10 UNL     1     -35.040  12.502  -4.495  1.00 20.00    -0.260 OA
HETATM   11  O11 UNL     1     -33.501  13.949  -3.666  1.00 20.00    -0.317 OA
ENDROOT
TORSDOF 0
ENDMDL
MODEL 5
REMARK VINA RESULT:      -4.7     12.003     13.934
REMARK  0 active torsions:
REMARK  status: ('A' for Active; 'I' for Inactive)
ROOT
HETATM    1  C1  UNL     1     -34.584  14.425  -5.878  1.00 20.00     0.086 C 
HETATM    2  C2  UNL     1     -34.458  15.756  -5.864  1.00 20.00    -0.064 C 
HETATM    3  C3  UNL     1     -34.499  13.675  -4.609  1.00 20.00     0.283 C 
HETATM    4  C4  UNL     1     -34.420  16.650  -7.068  1.00 20.00     0.035 C 
HETATM    5  C5  UNL     1     -34.042  18.017  -6.495  1.00 20.00     0.005 C 
HETATM    6  C6  UNL     1     -33.368  17.714  -5.156  1.00 20.00     0.016 C 
HETATM    7  C7  UNL     1     -33.317  15.607  -3.714  1.00 20.00     0.192 C 
HETATM    8  C8  UNL     1     -34.150  16.518  -4.607  1.00 20.00     0.002 C 
HETATM    9  C9  UNL     1     -35.443  16.959  -3.900  1.00 20.00     0.022 C 
HETATM   10  O10 UNL     1     -34.885  12.513  -4.542  1.00 20.00    -0.260 OA
HETATM   11  O11 UNL     1     -33.981  14.333  -3.534  1.00 20.00    -0.317 OA
ENDROOT
TORSDOF 0
ENDMDL
MODEL 6
REMARK VINA RESULT:      -4.6     11.395     13.085
REMARK  0 active torsions:
REMARK  status: ('A' for Active; 'I' for Inactive)
ROOT
HETATM    1  C1  UNL     1     -33.465  14.983  -4.109  1.00 20.00     0.086 C 
HETATM    2  C2  UNL     1     -34.394  15.621  -4.829  1.00 20.00    -0.064 C 
HETATM    3  C3  UNL     1     -33.588  13.528  -3.891  1.00 20.00     0.283 C 
HETATM    4  C4  UNL     1     -34.469  17.101  -5.057  1.00 20.00     0.035 C 
HETATM    5  C5  UNL     1     -35.822  17.297  -5.742  1.00 20.00     0.005 C 
HETATM    6  C6  UNL     1     -36.639  16.059  -5.368  1.00 20.00     0.016 C 
HETATM    7  C7  UNL     1     -35.956  13.801  -4.390  1.00 20.00     0.192 C 
HETATM    8  C8  UNL     1     -35.612  14.923  -5.361  1.00 20.00     0.002 C 
HETATM    9  C9  UNL     1     -35.359  14.376  -6.776  1.00 20.00     0.022 C 
HETATM   10  O10 UNL     1     -32.632  12.873  -3.491  1.00 20.00    -0.260 OA
HETATM   11  O11 UNL     1     -34.799  12.962  -4.158  1.00 20.00    -0.317 OA
ENDROOT
TORSDOF 0
ENDMDL
MODEL 7
REMARK VINA RESULT:      -4.6     11.831     13.407
REMARK  0 active torsions:
REMARK  status: ('A' for Active; 'I' for Inactive)
ROOT
HETATM    1  C1  UNL     1     -34.049  16.833  -5.572  1.00 20.00     0.086 C 
HETATM    2  C2  UNL     1     -34.124  15.549  -5.206  1.00 20.00    -0.064 C 
HETATM    3  C3  UNL     1     -33.620  17.845  -4.586  1.00 20.00     0.283 C 
HETATM    4  C4  UNL     1     -34.635  14.420  -6.051  1.00 20.00     0.035 C 
HETATM    5  C5  UNL     1     -34.707  13.242  -5.080  1.00 20.00     0.005 C 
HETATM    6  C6  UNL     1     -34.775  13.875  -3.690  1.00 20.00     0.016 C 
HETATM    7  C7  UNL     1     -34.277  16.243  -2.873  1.00 20.00     0.192 C 
HETATM    8  C8  UNL     1     -33.865  15.103  -3.796  1.00 20.00     0.002 C 
HETATM    9  C9  UNL     1     -32.386  14.734  -3.598  1.00 20.00     0.022 C 
HETATM   10  O10 UNL     1     -33.270  18.963  -4.949  1.00 20.00    -0.260 OA
HETATM   11  O11 UNL     1     -33.630  17.475  -3.275  1.00 20.00    -0.317 OA
ENDROOT
TORSDOF 0
ENDMDL
MODEL 8
REMARK VINA RESULT:      -4.5     11.572     13.148
REMARK  0 active torsions:
REMARK  status: ('A' for Active; 'I' for Inactive)
ROOT
HETATM    1  C1  UNL     1     -33.649  16.874  -3.783  1.00 20.00     0.086 C 
HETATM    2  C2  UNL     1     -33.973  15.993  -4.734  1.00 20.00    -0.064 C 
HETATM    3  C3  UNL     1     -34.017  16.596  -2.380  1.00 20.00     0.283 C 
HETATM    4  C4  UNL     1     -33.764  16.171  -6.208  1.00 20.00     0.035 C 
HETATM    5  C5  UNL     1     -34.505  14.985  -6.828  1.00 20.00     0.005 C 
HETATM    6  C6  UNL     1     -35.514  14.549  -5.765  1.00 20.00     0.016 C 
HETATM    7  C7  UNL     1     -35.699  15.079  -3.274  1.00 20.00     0.192 C 
HETATM    8  C8  UNL     1     -34.774  14.757  -4.441  1.00 20.00     0.002 C 
HETATM    9  C9  UNL     1     -33.854  13.570  -4.110  1.00 20.00     0.022 C 
HETATM   10  O10 UNL     1     -33.500  17.224  -1.462  1.00 20.00    -0.260 OA
HETATM   11  O11 UNL     1     -34.942  15.619  -2.164  1.00 20.00    -0.317 OA
ENDROOT
TORSDOF 0
ENDMDL
MODEL 9
REMARK VINA RESULT:      -4.5     12.134     13.587
REMARK  0 active torsions:
REMARK  status: ('A' for Active; 'I' for Inactive)
ROOT
HETATM    1  C1  UNL     1     -36.711  15.980  -4.529  1.00 20.00     0.086 C 
HETATM    2  C2  UNL     1     -35.486  16.514  -4.566  1.00 20.00    -0.064 C 
HETATM    3  C3  UNL     1     -36.882  14.588  -4.068  1.00 20.00     0.283 C 
HETATM    4  C4  UNL     1     -35.132  17.871  -5.100  1.00 20.00     0.035 C 
HETATM    5  C5  UNL     1     -33.603  17.872  -5.106  1.00 20.00     0.005 C 
HETATM    6  C6  UNL     1     -33.204  16.396  -5.115  1.00 20.00     0.016 C 
HETATM    7  C7  UNL     1     -34.530  14.271  -4.614  1.00 20.00     0.192 C 
HETATM    8  C8  UNL     1     -34.256  15.721  -4.231  1.00 20.00     0.002 C 
HETATM    9  C9  UNL     1     -33.911  15.845  -2.738  1.00 20.00     0.022 C 
HETATM   10  O10 UNL     1     -37.990  14.165  -3.754  1.00 20.00    -0.260 OA
HETATM   11  O11 UNL     1     -35.762  13.814  -4.008  1.00 20.00    -0.317 OA
ENDROOT
TORSDOF 0
ENDMDL
