MODEL 1
REMARK VINA RESULT:      -5.0      0.000      0.000
REMARK  0 active torsions:
REMARK  status: ('A' for Active; 'I' for Inactive)
ROOT
HETATM    1  C1  UNL     1     -34.665  13.694  -4.688  1.00 20.00     0.145 C 
HETATM    2  C2  UNL     1     -34.145  14.151  -3.342  1.00 20.00     0.089 C 
HETATM    3  C3  UNL     1     -34.701  16.387  -1.352  1.00 20.00     0.002 C 
HETATM    4  C4  UNL     1     -33.560  16.532  -2.379  1.00 20.00     0.010 C 
HETATM    5  C5  UNL     1     -35.651  16.122  -2.536  1.00 20.00     0.010 C 
HETATM    6  C6  UNL     1     -34.410  16.052  -4.833  1.00 20.00     0.037 C 
HETATM    7  C7  UNL     1     -35.100  14.873  -5.526  1.00 20.00     0.152 C 
HETATM    8  C8  UNL     1     -34.403  15.662  -3.352  1.00 20.00    -0.032 C 
HETATM    9  O9  UNL     1     -34.731  12.520  -5.029  1.00 20.00    -0.296 OA
HETATM   10 CL10 UNL     1     -34.572  14.676  -7.193  1.00 20.00    -0.117 Cl
ENDROOT
TORSDOF 0
ENDMDL
MODEL 2
REMARK VINA RESULT:      -4.6      2.291      3.876
REMARK  0 active torsions:
REMARK  status: ('A' for Active; 'I' for Inactive)
ROOT
HETATM    1  C1  UNL     1     -33.796  14.045  -4.085  1.00 20.00     0.145 C 
HETATM    2  C2  UNL     1     -34.765  13.615  -5.166  1.00 20.00     0.089 C 
HETATM    3  C3  UNL     1     -35.649  14.583  -7.915  1.00 20.00     0.002 C 
HETATM    4  C4  UNL     1     -36.467  14.958  -6.663  1.00 20.00     0.010 C 
HETATM    5  C5  UNL     1     -34.416  15.190  -7.217  1.00 20.00     0.010 C 
HETATM    6  C6  UNL     1     -34.929  16.011  -4.792  1.00 20.00     0.037 C 
HETATM    7  C7  UNL     1     -33.680  15.550  -4.034  1.00 20.00     0.152 C 
HETATM    8  C8  UNL     1     -35.138  14.932  -5.858  1.00 20.00    -0.032 C 
HETATM    9  O9  UNL     1     -33.186  13.263  -3.369  1.00 20.00    -0.296 OA
HETATM   10 CL10 UNL     1     -33.666  16.113  -2.366  1.00 20.00    -0.117 Cl
ENDROOT
TORSDOF 0
ENDMDL
MODEL 3
REMARK VINA RESULT:      -4.4      3.061      4.000
REMARK  0 active torsions:
REMARK  status: ('A' for Active; 'I' for Inactive)
ROOT
HETATM    1  C1  UNL     1     -33.608  17.521  -4.387  1.00 20.00     0.145 C 
HETATM    2  C2  UNL     1     -33.373  16.118  -4.905  1.00 20.00     0.089 C 
HETATM    3  C3  UNL     1     -34.620  13.359  -4.585  1.00 20.00     0.002 C 
HETATM    4  C4  UNL     1     -33.403  13.761  -3.728  1.00 20.00     0.010 C 
HETATM    5  C5  UNL     1     -35.332  14.619  -4.056  1.00 20.00     0.010 C 
HETATM    6  C6  UNL     1     -33.806  16.071  -2.514  1.00 20.00     0.037 C 
HETATM    7  C7  UNL     1     -34.151  17.490  -2.978  1.00 20.00     0.152 C 
HETATM    8  C8  UNL     1     -33.920  15.225  -3.785  1.00 20.00    -0.032 C 
HETATM    9  O9  UNL     1     -33.396  18.532  -5.042  1.00 20.00    -0.296 OA
HETATM   10 CL10 UNL     1     -33.375  18.722  -1.989  1.00 20.00    -0.117 Cl
ENDROOT
TORSDOF 0
ENDMDL
MODEL 4
REMARK VINA RESULT:      -4.2      1.917      2.670
REMARK  0 active torsions:
REMARK  status: ('A' for Active; 'I' for Inactive)
ROOT
HETATM    1  C1  UNL     1     -33.515  16.119  -3.981  1.00 20.00     0.145 C 
HETATM    2  C2  UNL     1     -34.036  17.344  -3.261  1.00 20.00     0.089 C 
HETATM    3  C3  UNL     1     -35.173  18.034  -0.522  1.00 20.00     0.002 C 
HETATM    4  C4  UNL     1     -36.122  17.734  -1.699  1.00 20.00     0.010 C 
HETATM    5  C5  UNL     1     -34.510  16.668  -0.786  1.00 20.00     0.010 C 
HETATM    6  C6  UNL     1     -35.505  15.448  -2.869  1.00 20.00     0.037 C 
HETATM    7  C7  UNL     1     -34.245  14.877  -3.529  1.00 20.00     0.152 C 
HETATM    8  C8  UNL     1     -35.037  16.768  -2.252  1.00 20.00    -0.032 C 
HETATM    9  O9  UNL     1     -32.611  16.148  -4.805  1.00 20.00    -0.296 OA
HETATM   10 CL10 UNL     1     -34.622  13.845  -4.904  1.00 20.00    -0.117 Cl
ENDROOT
TORSDOF 0
ENDMDL
MODEL 5
REMARK VINA RESULT:      -4.2      2.930      4.056
REMARK  0 active torsions:
REMARK  status: ('A' for Active; 'I' for Inactive)
ROOT
HETATM    1  C1  UNL     1     -34.565  16.354  -1.624  1.00 20.00     0.145 C 
HETATM    2  C2  UNL     1     -35.252  15.311  -2.479  1.00 20.00     0.089 C 
HETATM    3  C3  UNL     1     -34.488  13.316  -4.648  1.00 20.00     0.002 C 
HETATM    4  C4  UNL     1     -35.055  14.697  -5.033  1.00 20.00     0.010 C 
HETATM    5  C5  UNL     1     -33.409  14.054  -3.832  1.00 20.00     0.010 C 
HETATM    6  C6  UNL     1     -33.736  16.644  -3.832  1.00 20.00     0.037 C 
HETATM    7  C7  UNL     1     -33.425  17.000  -2.375  1.00 20.00     0.152 C 
HETATM    8  C8  UNL     1     -34.392  15.263  -3.748  1.00 20.00    -0.032 C 
HETATM    9  O9  UNL     1     -34.893  16.615  -0.474  1.00 20.00    -0.296 OA
HETATM   10 CL10 UNL     1     -33.409  18.739  -2.101  1.00 20.00    -0.117 Cl
ENDROOT
TORSDOF 0
ENDMDL
MODEL 6
REMARK VINA RESULT:      -4.1      1.719      2.271
REMARK  0 active torsions:
REMARK  status: ('A' for Active; 'I' for Inactive)
ROOT
HETATM    1  C1  UNL     1     -35.958  15.462  -4.353  1.00 20.00     0.145 C 
HETATM    2  C2  UNL     1     -36.111  16.280  -3.088  1.00 20.00     0.089 C 
HETATM    3  C3  UNL     1     -34.352  17.982  -1.277  1.00 20.00     0.002 C 
HETATM    4  C4  UNL     1     -34.622  16.505  -0.926  1.00 20.00     0.010 C 
HETATM    5  C5  UNL     1     -33.847  17.500  -2.652  1.00 20.00     0.010 C 
HETATM    6  C6  UNL     1     -34.099  14.921  -2.974  1.00 20.00     0.037 C 
HETATM    7  C7  UNL     1     -34.587  14.833  -4.424  1.00 20.00     0.152 C 
HETATM    8  C8  UNL     1     -34.717  16.221  -2.451  1.00 20.00    -0.032 C 
HETATM    9  O9  UNL     1     -36.833  15.350  -5.201  1.00 20.00    -0.296 OA
HETATM   10 CL10 UNL     1     -34.697  13.170  -4.990  1.00 20.00    -0.117 Cl
ENDROOT
TORSDOF 0
ENDMDL
MODEL 7
REMARK VINA RESULT:      -4.1      2.993      4.189
REMARK  0 active torsions:
REMARK  status: ('A' for Active; 'I' for Inactive)
ROOT
HETATM    1  C1  UNL     1     -34.052  17.081  -3.346  1.00 20.00     0.145 C 
HETATM    2  C2  UNL     1     -33.760  16.234  -4.567  1.00 20.00     0.089 C 
HETATM    3  C3  UNL     1     -35.270  14.329  -6.400  1.00 20.00     0.002 C 
HETATM    4  C4  UNL     1     -34.439  13.775  -5.226  1.00 20.00     0.010 C 
HETATM    5  C5  UNL     1     -36.017  15.207  -5.378  1.00 20.00     0.010 C 
HETATM    6  C6  UNL     1     -35.070  14.969  -2.956  1.00 20.00     0.037 C 
HETATM    7  C7  UNL     1     -35.089  16.422  -2.468  1.00 20.00     0.152 C 
HETATM    8  C8  UNL     1     -34.767  15.082  -4.453  1.00 20.00    -0.032 C 
HETATM    9  O9  UNL     1     -33.520  18.161  -3.125  1.00 20.00    -0.296 OA
HETATM   10 CL10 UNL     1     -34.642  16.561  -0.772  1.00 20.00    -0.117 Cl
ENDROOT
TORSDOF 0
ENDMDL
MODEL 8
REMARK VINA RESULT:      -4.1      2.652      4.197
REMARK  0 active torsions:
REMARK  status: ('A' for Active; 'I' for Inactive)
ROOT
HETATM    1  C1  UNL     1     -33.713  15.742  -4.918  1.00 20.00     0.145 C 
HETATM    2  C2  UNL     1     -34.286  15.978  -6.299  1.00 20.00     0.089 C 
HETATM    3  C3  UNL     1     -36.891  15.439  -7.780  1.00 20.00     0.002 C 
HETATM    4  C4  UNL     1     -35.709  14.459  -7.915  1.00 20.00     0.010 C 
HETATM    5  C5  UNL     1     -36.792  15.254  -6.253  1.00 20.00     0.010 C 
HETATM    6  C6  UNL     1     -34.797  13.724  -5.548  1.00 20.00     0.037 C 
HETATM    7  C7  UNL     1     -34.253  14.464  -4.322  1.00 20.00     0.152 C 
HETATM    8  C8  UNL     1     -35.302  14.841  -6.465  1.00 20.00    -0.032 C 
HETATM    9  O9  UNL     1     -32.931  16.505  -4.367  1.00 20.00    -0.296 OA
HETATM   10 CL10 UNL     1     -32.971  13.567  -3.516  1.00 20.00    -0.117 Cl
ENDROOT
TORSDOF 0
ENDMDL
MODEL 9
REMARK VINA RESULT:      -4.0      2.597      3.083
REMARK  0 active torsions:
REMARK  status: ('A' for Active; 'I' for Inactive)
ROOT
HETATM    1  C1  UNL     1     -37.227  14.905  -3.824  1.00 20.00     0.145 C 
HETATM    2  C2  UNL     1     -35.848  14.442  -4.241  1.00 20.00     0.089 C 
HETATM    3  C3  UNL     1     -32.950  15.138  -3.616  1.00 20.00     0.002 C 
HETATM    4  C4  UNL     1     -33.642  15.749  -4.850  1.00 20.00     0.010 C 
HETATM    5  C5  UNL     1     -34.105  15.702  -2.764  1.00 20.00     0.010 C 
HETATM    6  C6  UNL     1     -35.944  16.870  -4.203  1.00 20.00     0.037 C 
HETATM    7  C7  UNL     1     -37.229  16.385  -3.523  1.00 20.00     0.152 C 
HETATM    8  C8  UNL     1     -34.978  15.691  -4.058  1.00 20.00    -0.032 C 
HETATM    9  O9  UNL     1     -38.195  14.163  -3.732  1.00 20.00    -0.296 OA
HETATM   10 CL10 UNL     1     -38.667  17.150  -4.190  1.00 20.00    -0.117 Cl
ENDROOT
TORSDOF 0
ENDMDL
