MODEL 1
REMARK VINA RESULT:      -5.1      0.000      0.000
REMARK  0 active torsions:
REMARK  status: ('A' for Active; 'I' for Inactive)
ROOT
HETATM    1  C1  UNL     1     -34.566  13.701  -4.544  1.00 20.00     0.100 C 
HETATM    2  C2  UNL     1     -34.171  15.435  -2.886  1.00 20.00     0.067 A 
HETATM    3  C3  UNL     1     -34.265  15.063  -4.222  1.00 20.00     0.056 A 
HETATM    4  C4  UNL     1     -34.066  16.012  -5.218  1.00 20.00    -0.001 A 
HETATM    5  C5  UNL     1     -33.879  16.759  -2.600  1.00 20.00     0.129 A 
HETATM    6  C6  UNL     1     -33.779  17.311  -4.828  1.00 20.00     0.135 A 
HETATM    7  C7  UNL     1     -34.157  15.642  -6.663  1.00 20.00     0.053 C 
HETATM    8  N8  UNL     1     -34.810  12.597  -4.804  1.00 20.00    -0.191 NA
HETATM    9  N9  UNL     1     -33.680  17.710  -3.540  1.00 20.00    -0.224 NA
HETATM   10 CL10 UNL     1     -33.746  17.310  -0.981  1.00 20.00    -0.062 Cl
HETATM   11 CL11 UNL     1     -33.512  18.578  -5.962  1.00 20.00    -0.062 Cl
ENDROOT
TORSDOF 0
ENDMDL
MODEL 2
REMARK VINA RESULT:      -4.6      2.450      2.880
REMARK  0 active torsions:
REMARK  status: ('A' for Active; 'I' for Inactive)
ROOT
HETATM    1  C1  UNL     1     -37.454  14.796  -3.678  1.00 20.00     0.100 C 
HETATM    2  C2  UNL     1     -36.140  16.650  -2.813  1.00 20.00     0.067 A 
HETATM    3  C3  UNL     1     -36.183  15.378  -3.371  1.00 20.00     0.056 A 
HETATM    4  C4  UNL     1     -34.998  14.694  -3.620  1.00 20.00    -0.001 A 
HETATM    5  C5  UNL     1     -34.897  17.192  -2.525  1.00 20.00     0.129 A 
HETATM    6  C6  UNL     1     -33.806  15.323  -3.297  1.00 20.00     0.135 A 
HETATM    7  C7  UNL     1     -35.011  13.324  -4.217  1.00 20.00     0.053 C 
HETATM    8  N8  UNL     1     -38.485  14.326  -3.926  1.00 20.00    -0.191 NA
HETATM    9  N9  UNL     1     -33.725  16.558  -2.754  1.00 20.00    -0.224 NA
HETATM   10 CL10 UNL     1     -34.748  18.756  -1.837  1.00 20.00    -0.062 Cl
HETATM   11 CL11 UNL     1     -32.273  14.585  -3.556  1.00 20.00    -0.062 Cl
ENDROOT
TORSDOF 0
ENDMDL
MODEL 3
REMARK VINA RESULT:      -4.5      2.357      3.608
REMARK  0 active torsions:
REMARK  status: ('A' for Active; 'I' for Inactive)
ROOT
HETATM    1  C1  UNL     1     -34.581  16.702  -1.074  1.00 20.00     0.100 C 
HETATM    2  C2  UNL     1     -34.455  15.076  -2.877  1.00 20.00     0.067 A 
HETATM    3  C3  UNL     1     -34.360  16.397  -2.455  1.00 20.00     0.056 A 
HETATM    4  C4  UNL     1     -34.054  17.394  -3.374  1.00 20.00    -0.001 A 
HETATM    5  C5  UNL     1     -34.236  14.806  -4.218  1.00 20.00     0.129 A 
HETATM    6  C6  UNL     1     -33.852  17.020  -4.693  1.00 20.00     0.135 A 
HETATM    7  C7  UNL     1     -33.947  18.824  -2.951  1.00 20.00     0.053 C 
HETATM    8  N8  UNL     1     -34.761  16.949   0.045  1.00 20.00    -0.191 NA
HETATM    9  N9  UNL     1     -33.936  15.747  -5.140  1.00 20.00    -0.224 NA
HETATM   10 CL10 UNL     1     -34.331  13.205  -4.829  1.00 20.00    -0.062 Cl
HETATM   11 CL11 UNL     1     -33.466  18.157  -5.926  1.00 20.00    -0.062 Cl
ENDROOT
TORSDOF 0
ENDMDL
MODEL 4
REMARK VINA RESULT:      -4.5      2.232      3.381
REMARK  0 active torsions:
REMARK  status: ('A' for Active; 'I' for Inactive)
ROOT
HETATM    1  C1  UNL     1     -33.750  18.191  -5.637  1.00 20.00     0.100 C 
HETATM    2  C2  UNL     1     -34.119  17.349  -3.386  1.00 20.00     0.067 A 
HETATM    3  C3  UNL     1     -34.018  17.099  -4.749  1.00 20.00     0.056 A 
HETATM    4  C4  UNL     1     -34.178  15.804  -5.227  1.00 20.00    -0.001 A 
HETATM    5  C5  UNL     1     -34.377  16.276  -2.547  1.00 20.00     0.129 A 
HETATM    6  C6  UNL     1     -34.434  14.800  -4.306  1.00 20.00     0.135 A 
HETATM    7  C7  UNL     1     -34.078  15.505  -6.688  1.00 20.00     0.053 C 
HETATM    8  N8  UNL     1     -33.534  19.074  -6.355  1.00 20.00    -0.191 NA
HETATM    9  N9  UNL     1     -34.538  15.004  -2.974  1.00 20.00    -0.224 NA
HETATM   10 CL10 UNL     1     -34.517  16.489  -0.850  1.00 20.00    -0.062 Cl
HETATM   11 CL11 UNL     1     -34.650  13.156  -4.768  1.00 20.00    -0.062 Cl
ENDROOT
TORSDOF 0
ENDMDL
MODEL 5
REMARK VINA RESULT:      -4.5      2.426      2.721
REMARK  0 active torsions:
REMARK  status: ('A' for Active; 'I' for Inactive)
ROOT
HETATM    1  C1  UNL     1     -35.078  13.681  -4.119  1.00 20.00     0.100 C 
HETATM    2  C2  UNL     1     -34.471  15.467  -2.585  1.00 20.00     0.067 A 
HETATM    3  C3  UNL     1     -35.397  14.912  -3.460  1.00 20.00     0.056 A 
HETATM    4  C4  UNL     1     -36.609  15.555  -3.681  1.00 20.00    -0.001 A 
HETATM    5  C5  UNL     1     -34.803  16.658  -1.959  1.00 20.00     0.129 A 
HETATM    6  C6  UNL     1     -36.845  16.742  -3.006  1.00 20.00     0.135 A 
HETATM    7  C7  UNL     1     -37.624  14.984  -4.618  1.00 20.00     0.053 C 
HETATM    8  N8  UNL     1     -34.820  12.684  -4.652  1.00 20.00    -0.191 NA
HETATM    9  N9  UNL     1     -35.971  17.312  -2.148  1.00 20.00    -0.224 NA
HETATM   10 CL10 UNL     1     -33.723  17.416  -0.862  1.00 20.00    -0.062 Cl
HETATM   11 CL11 UNL     1     -38.305  17.635  -3.192  1.00 20.00    -0.062 Cl
ENDROOT
TORSDOF 0
ENDMDL
MODEL 6
REMARK VINA RESULT:      -4.4      3.014      3.751
REMARK  0 active torsions:
REMARK  status: ('A' for Active; 'I' for Inactive)
ROOT
HETATM    1  C1  UNL     1     -34.028  13.811  -3.675  1.00 20.00     0.100 C 
HETATM    2  C2  UNL     1     -36.397  14.227  -4.031  1.00 20.00     0.067 A 
HETATM    3  C3  UNL     1     -35.173  14.658  -3.532  1.00 20.00     0.056 A 
HETATM    4  C4  UNL     1     -35.081  15.896  -2.907  1.00 20.00    -0.001 A 
HETATM    5  C5  UNL     1     -37.490  15.065  -3.881  1.00 20.00     0.129 A 
HETATM    6  C6  UNL     1     -36.233  16.660  -2.807  1.00 20.00     0.135 A 
HETATM    7  C7  UNL     1     -33.779  16.387  -2.359  1.00 20.00     0.053 C 
HETATM    8  N8  UNL     1     -33.100  13.125  -3.791  1.00 20.00    -0.191 NA
HETATM    9  N9  UNL     1     -37.440  16.274  -3.279  1.00 20.00    -0.224 NA
HETATM   10 CL10 UNL     1     -39.039  14.616  -4.466  1.00 20.00    -0.062 Cl
HETATM   11 CL11 UNL     1     -36.252  18.209  -2.058  1.00 20.00    -0.062 Cl
ENDROOT
TORSDOF 0
ENDMDL
MODEL 7
REMARK VINA RESULT:      -4.3      1.400      3.147
REMARK  0 active torsions:
REMARK  status: ('A' for Active; 'I' for Inactive)
ROOT
HETATM    1  C1  UNL     1     -34.629  14.010  -4.428  1.00 20.00     0.100 C 
HETATM    2  C2  UNL     1     -34.464  15.813  -6.051  1.00 20.00     0.067 A 
HETATM    3  C3  UNL     1     -34.409  15.393  -4.727  1.00 20.00     0.056 A 
HETATM    4  C4  UNL     1     -34.145  16.315  -3.721  1.00 20.00    -0.001 A 
HETATM    5  C5  UNL     1     -34.247  17.156  -6.315  1.00 20.00     0.129 A 
HETATM    6  C6  UNL     1     -33.942  17.636  -4.089  1.00 20.00     0.135 A 
HETATM    7  C7  UNL     1     -34.082  15.894  -2.288  1.00 20.00     0.053 C 
HETATM    8  N8  UNL     1     -34.807  12.890  -4.185  1.00 20.00    -0.191 NA
HETATM    9  N9  UNL     1     -33.987  18.081  -5.364  1.00 20.00    -0.224 NA
HETATM   10 CL10 UNL     1     -34.293  17.764  -7.918  1.00 20.00    -0.062 Cl
HETATM   11 CL11 UNL     1     -33.606  18.873  -2.941  1.00 20.00    -0.062 Cl
ENDROOT
TORSDOF 0
ENDMDL
MODEL 8
REMARK VINA RESULT:      -4.3      2.294      4.182
REMARK  0 active torsions:
REMARK  status: ('A' for Active; 'I' for Inactive)
ROOT
HETATM    1  C1  UNL     1     -33.668  18.224  -5.740  1.00 20.00     0.100 C 
HETATM    2  C2  UNL     1     -33.945  15.857  -5.258  1.00 20.00     0.067 A 
HETATM    3  C3  UNL     1     -33.888  17.168  -4.799  1.00 20.00     0.056 A 
HETATM    4  C4  UNL     1     -34.043  17.431  -3.443  1.00 20.00    -0.001 A 
HETATM    5  C5  UNL     1     -34.159  14.852  -4.328  1.00 20.00     0.129 A 
HETATM    6  C6  UNL     1     -34.253  16.356  -2.593  1.00 20.00     0.135 A 
HETATM    7  C7  UNL     1     -33.984  18.830  -2.918  1.00 20.00     0.053 C 
HETATM    8  N8  UNL     1     -33.490  19.080  -6.502  1.00 20.00    -0.191 NA
HETATM    9  N9  UNL     1     -34.316  15.069  -3.002  1.00 20.00    -0.224 NA
HETATM   10 CL10 UNL     1     -34.247  13.206  -4.802  1.00 20.00    -0.062 Cl
HETATM   11 CL11 UNL     1     -34.462  16.548  -0.896  1.00 20.00    -0.062 Cl
ENDROOT
TORSDOF 0
ENDMDL
MODEL 9
REMARK VINA RESULT:      -4.3      6.830      8.324
REMARK  0 active torsions:
REMARK  status: ('A' for Active; 'I' for Inactive)
ROOT
HETATM    1  C1  UNL     1     -31.937  19.021   1.129  1.00 20.00     0.100 C 
HETATM    2  C2  UNL     1     -31.966  19.046   3.560  1.00 20.00     0.067 A 
HETATM    3  C3  UNL     1     -32.639  18.832   2.363  1.00 20.00     0.056 A 
HETATM    4  C4  UNL     1     -33.973  18.442   2.381  1.00 20.00    -0.001 A 
HETATM    5  C5  UNL     1     -32.666  18.856   4.741  1.00 20.00     0.129 A 
HETATM    6  C6  UNL     1     -34.583  18.279   3.615  1.00 20.00     0.135 A 
HETATM    7  C7  UNL     1     -34.724  18.206   1.111  1.00 20.00     0.053 C 
HETATM    8  N8  UNL     1     -31.369  19.173   0.130  1.00 20.00    -0.191 NA
HETATM    9  N9  UNL     1     -33.963  18.477   4.799  1.00 20.00    -0.224 NA
HETATM   10 CL10 UNL     1     -31.918  19.095   6.266  1.00 20.00    -0.062 Cl
HETATM   11 CL11 UNL     1     -36.228  17.798   3.774  1.00 20.00    -0.062 Cl
ENDROOT
TORSDOF 0
ENDMDL
