MODEL 1
REMARK VINA RESULT:      -4.6      0.000      0.000
REMARK  1 active torsions:
REMARK  status: ('A' for Active; 'I' for Inactive)
REMARK    1  A    between atoms: C3_3  and  C8_8 
ROOT
HETATM    1  C1  UNL     1     -33.919  15.726  -5.292  1.00 20.00     0.145 C 
HETATM    2  C4  UNL     1     -33.392  17.028  -4.728  1.00 20.00     0.080 C 
HETATM    3  C5  UNL     1     -34.059  17.351  -3.397  1.00 20.00     0.016 C 
HETATM    4  C6  UNL     1     -34.579  14.914  -3.018  1.00 20.00     0.036 C 
HETATM    5  C7  UNL     1     -33.906  14.544  -4.337  1.00 20.00     0.152 C 
HETATM    6  C8  UNL     1     -33.955  16.180  -2.410  1.00 20.00     0.009 C 
HETATM    7  O9  UNL     1     -34.235  15.639  -6.478  1.00 20.00    -0.296 OA
HETATM    8 CL10 UNL     1     -34.739  13.158  -5.078  1.00 20.00    -0.117 Cl
ENDROOT
BRANCH   6   9
HETATM    9  C3  UNL     1     -34.614  16.531  -1.112  1.00 20.00    -0.032 C 
HETATM   10  C2  UNL     1     -34.208  17.520  -0.309  1.00 20.00     0.007 C 
ENDBRANCH   6   9
TORSDOF 1
ENDMDL
MODEL 2
REMARK VINA RESULT:      -4.5      1.817      2.139
REMARK  1 active torsions:
REMARK  status: ('A' for Active; 'I' for Inactive)
REMARK    1  A    between atoms: C3_3  and  C8_8 
ROOT
HETATM    1  C1  UNL     1     -35.067  14.101  -4.833  1.00 20.00     0.145 C 
HETATM    2  C4  UNL     1     -33.769  13.887  -4.084  1.00 20.00     0.080 C 
HETATM    3  C5  UNL     1     -33.416  15.113  -3.251  1.00 20.00     0.016 C 
HETATM    4  C6  UNL     1     -35.836  15.810  -3.175  1.00 20.00     0.036 C 
HETATM    5  C7  UNL     1     -36.237  14.586  -3.995  1.00 20.00     0.152 C 
HETATM    6  C8  UNL     1     -34.577  15.535  -2.339  1.00 20.00     0.009 C 
HETATM    7  O9  UNL     1     -35.161  13.798  -6.022  1.00 20.00    -0.296 OA
HETATM    8 CL10 UNL     1     -37.614  14.983  -5.048  1.00 20.00    -0.117 Cl
ENDROOT
BRANCH   6   9
HETATM    9  C3  UNL     1     -34.196  16.737  -1.532  1.00 20.00    -0.032 C 
HETATM   10  C2  UNL     1     -34.700  17.019  -0.326  1.00 20.00     0.007 C 
ENDBRANCH   6   9
TORSDOF 1
ENDMDL
MODEL 3
REMARK VINA RESULT:      -4.3      2.290      3.127
REMARK  1 active torsions:
REMARK  status: ('A' for Active; 'I' for Inactive)
REMARK    1  A    between atoms: C3_3  and  C8_8 
ROOT
HETATM    1  C1  UNL     1     -34.777  13.882  -3.886  1.00 20.00     0.145 C 
HETATM    2  C4  UNL     1     -33.323  14.244  -3.670  1.00 20.00     0.080 C 
HETATM    3  C5  UNL     1     -33.010  15.608  -4.270  1.00 20.00     0.016 C 
HETATM    4  C6  UNL     1     -35.430  16.288  -4.092  1.00 20.00     0.036 C 
HETATM    5  C7  UNL     1     -35.786  14.939  -3.472  1.00 20.00     0.152 C 
HETATM    6  C8  UNL     1     -33.982  16.686  -3.769  1.00 20.00     0.009 C 
HETATM    7  O9  UNL     1     -35.091  12.758  -4.278  1.00 20.00    -0.296 OA
HETATM    8 CL10 UNL     1     -37.419  14.449  -3.977  1.00 20.00    -0.117 Cl
ENDROOT
BRANCH   6   9
HETATM    9  C3  UNL     1     -33.644  18.015  -4.373  1.00 20.00    -0.032 C 
HETATM   10  C2  UNL     1     -33.584  18.246  -5.688  1.00 20.00     0.007 C 
ENDBRANCH   6   9
TORSDOF 1
ENDMDL
MODEL 4
REMARK VINA RESULT:      -4.2      1.847      2.504
REMARK  1 active torsions:
REMARK  status: ('A' for Active; 'I' for Inactive)
REMARK    1  A    between atoms: C3_3  and  C8_8 
ROOT
HETATM    1  C1  UNL     1     -35.273  14.542  -5.613  1.00 20.00     0.145 C 
HETATM    2  C4  UNL     1     -35.207  13.646  -4.395  1.00 20.00     0.080 C 
HETATM    3  C5  UNL     1     -34.407  14.307  -3.279  1.00 20.00     0.016 C 
HETATM    4  C6  UNL     1     -34.894  16.591  -4.227  1.00 20.00     0.036 C 
HETATM    5  C7  UNL     1     -35.717  15.972  -5.353  1.00 20.00     0.152 C 
HETATM    6  C8  UNL     1     -34.929  15.716  -2.964  1.00 20.00     0.009 C 
HETATM    7  O9  UNL     1     -35.071  14.086  -6.738  1.00 20.00    -0.296 OA
HETATM    8 CL10 UNL     1     -35.544  16.939  -6.836  1.00 20.00    -0.117 Cl
ENDROOT
BRANCH   6   9
HETATM    9  C3  UNL     1     -34.127  16.335  -1.861  1.00 20.00    -0.032 C 
HETATM   10  C2  UNL     1     -34.651  16.784  -0.716  1.00 20.00     0.007 C 
ENDBRANCH   6   9
TORSDOF 1
ENDMDL
MODEL 5
REMARK VINA RESULT:      -4.1      1.951      2.376
REMARK  1 active torsions:
REMARK  status: ('A' for Active; 'I' for Inactive)
REMARK    1  A    between atoms: C3_3  and  C8_8 
ROOT
HETATM    1  C1  UNL     1     -35.404  14.005  -4.083  1.00 20.00     0.145 C 
HETATM    2  C4  UNL     1     -36.606  14.924  -4.112  1.00 20.00     0.080 C 
HETATM    3  C5  UNL     1     -36.633  15.819  -2.880  1.00 20.00     0.016 C 
HETATM    4  C6  UNL     1     -34.143  15.568  -2.592  1.00 20.00     0.036 C 
HETATM    5  C7  UNL     1     -34.067  14.680  -3.831  1.00 20.00     0.152 C 
HETATM    6  C8  UNL     1     -35.306  16.567  -2.691  1.00 20.00     0.009 C 
HETATM    7  O9  UNL     1     -35.523  12.809  -4.350  1.00 20.00    -0.296 OA
HETATM    8 CL10 UNL     1     -32.797  13.452  -3.623  1.00 20.00    -0.117 Cl
ENDROOT
BRANCH   6   9
HETATM    9  C3  UNL     1     -35.368  17.441  -1.476  1.00 20.00    -0.032 C 
HETATM   10  C2  UNL     1     -34.864  17.104  -0.285  1.00 20.00     0.007 C 
ENDBRANCH   6   9
TORSDOF 1
ENDMDL
MODEL 6
REMARK VINA RESULT:      -4.1      2.420      3.713
REMARK  1 active torsions:
REMARK  status: ('A' for Active; 'I' for Inactive)
REMARK    1  A    between atoms: C3_3  and  C8_8 
ROOT
HETATM    1  C1  UNL     1     -34.094  17.968  -3.431  1.00 20.00     0.145 C 
HETATM    2  C4  UNL     1     -33.990  17.168  -2.151  1.00 20.00     0.080 C 
HETATM    3  C5  UNL     1     -34.358  15.709  -2.393  1.00 20.00     0.016 C 
HETATM    4  C6  UNL     1     -33.766  15.922  -4.833  1.00 20.00     0.036 C 
HETATM    5  C7  UNL     1     -33.372  17.383  -4.632  1.00 20.00     0.152 C 
HETATM    6  C8  UNL     1     -33.551  15.104  -3.550  1.00 20.00     0.009 C 
HETATM    7  O9  UNL     1     -34.649  19.067  -3.440  1.00 20.00    -0.296 OA
HETATM    8 CL10 UNL     1     -33.759  18.324  -6.091  1.00 20.00    -0.117 Cl
ENDROOT
BRANCH   6   9
HETATM    9  C3  UNL     1     -33.931  13.671  -3.758  1.00 20.00    -0.032 C 
HETATM   10  C2  UNL     1     -34.877  13.263  -4.610  1.00 20.00     0.007 C 
ENDBRANCH   6   9
TORSDOF 1
ENDMDL
MODEL 7
REMARK VINA RESULT:      -4.1      2.783      4.610
REMARK  1 active torsions:
REMARK  status: ('A' for Active; 'I' for Inactive)
REMARK    1  A    between atoms: C3_3  and  C8_8 
ROOT
HETATM    1  C1  UNL     1     -33.539  15.679  -3.742  1.00 20.00     0.145 C 
HETATM    2  C4  UNL     1     -33.633  14.190  -3.996  1.00 20.00     0.080 C 
HETATM    3  C5  UNL     1     -34.659  13.889  -5.081  1.00 20.00     0.016 C 
HETATM    4  C6  UNL     1     -34.391  16.206  -6.035  1.00 20.00     0.036 C 
HETATM    5  C7  UNL     1     -33.346  16.545  -4.975  1.00 20.00     0.152 C 
HETATM    6  C8  UNL     1     -34.394  14.703  -6.356  1.00 20.00     0.009 C 
HETATM    7  O9  UNL     1     -33.524  16.119  -2.593  1.00 20.00    -0.296 OA
HETATM    8 CL10 UNL     1     -33.462  18.264  -4.534  1.00 20.00    -0.117 Cl
ENDROOT
BRANCH   6   9
HETATM    9  C3  UNL     1     -35.415  14.380  -7.403  1.00 20.00    -0.032 C 
HETATM   10  C2  UNL     1     -36.587  15.011  -7.525  1.00 20.00     0.007 C 
ENDBRANCH   6   9
TORSDOF 1
ENDMDL
MODEL 8
REMARK VINA RESULT:      -4.1     11.668     12.626
REMARK  1 active torsions:
REMARK  status: ('A' for Active; 'I' for Inactive)
REMARK    1  A    between atoms: C3_3  and  C8_8 
ROOT
HETATM    1  C1  UNL     1     -34.778   5.188   4.144  1.00 20.00     0.145 C 
HETATM    2  C4  UNL     1     -34.270   4.997   2.732  1.00 20.00     0.080 C 
HETATM    3  C5  UNL     1     -33.513   6.230   2.257  1.00 20.00     0.016 C 
HETATM    4  C6  UNL     1     -33.011   6.889   4.636  1.00 20.00     0.036 C 
HETATM    5  C7  UNL     1     -33.747   5.657   5.156  1.00 20.00     0.152 C 
HETATM    6  C8  UNL     1     -32.411   6.636   3.245  1.00 20.00     0.009 C 
HETATM    7  O9  UNL     1     -35.932   4.879   4.442  1.00 20.00    -0.296 OA
HETATM    8 CL10 UNL     1     -34.540   6.029   6.703  1.00 20.00    -0.117 Cl
ENDROOT
BRANCH   6   9
HETATM    9  C3  UNL     1     -31.683   7.847   2.747  1.00 20.00    -0.032 C 
HETATM   10  C2  UNL     1     -32.006   8.509   1.631  1.00 20.00     0.007 C 
ENDBRANCH   6   9
TORSDOF 1
ENDMDL
MODEL 9
REMARK VINA RESULT:      -4.1      2.956      4.044
REMARK  1 active torsions:
REMARK  status: ('A' for Active; 'I' for Inactive)
REMARK    1  A    between atoms: C3_3  and  C8_8 
ROOT
HETATM    1  C1  UNL     1     -33.772  18.194  -2.656  1.00 20.00     0.145 C 
HETATM    2  C4  UNL     1     -33.702  17.786  -4.111  1.00 20.00     0.080 C 
HETATM    3  C5  UNL     1     -33.467  16.286  -4.243  1.00 20.00     0.016 C 
HETATM    4  C6  UNL     1     -34.454  15.890  -1.958  1.00 20.00     0.036 C 
HETATM    5  C7  UNL     1     -34.722  17.383  -1.791  1.00 20.00     0.152 C 
HETATM    6  C8  UNL     1     -34.494  15.477  -3.438  1.00 20.00     0.009 C 
HETATM    7  O9  UNL     1     -33.163  19.185  -2.253  1.00 20.00    -0.296 OA
HETATM    8 CL10 UNL     1     -34.536  17.848  -0.085  1.00 20.00    -0.117 Cl
ENDROOT
BRANCH   6   9
HETATM    9  C3  UNL     1     -34.240  14.010  -3.593  1.00 20.00    -0.032 C 
HETATM   10  C2  UNL     1     -34.649  13.285  -4.639  1.00 20.00     0.007 C 
ENDBRANCH   6   9
TORSDOF 1
ENDMDL
