MODEL 1
REMARK VINA RESULT:      -5.3      0.000      0.000
REMARK  1 active torsions:
REMARK  status: ('A' for Active; 'I' for Inactive)
REMARK    1  A    between atoms: C5_5  and  C10_10 
ROOT
HETATM    1  C1  UNL     1     -35.744  14.676  -3.933  1.00 20.00     0.166 C 
HETATM    2  C2  UNL     1     -35.509  15.745  -2.884  1.00 20.00     0.086 C 
HETATM    3  C3  UNL     1     -33.335  16.426  -3.989  1.00 20.00     0.009 C 
HETATM    4  C4  UNL     1     -34.014  15.896  -5.256  1.00 20.00     0.052 C 
HETATM    5  C5  UNL     1     -34.008  15.961  -2.688  1.00 20.00    -0.004 C 
HETATM    6  C6  UNL     1     -34.701  14.547  -5.039  1.00 20.00     0.159 C 
HETATM    7  C7  UNL     1     -35.337  14.051  -6.332  1.00 20.00     0.060 C 
HETATM    8  O11 UNL     1     -36.735  13.948  -3.876  1.00 20.00    -0.294 OA
HETATM    9  F12 UNL     1     -33.752  13.637  -4.673  1.00 20.00    -0.235 F 
ENDROOT
BRANCH   5  10
HETATM   10  C10 UNL     1     -33.735  16.943  -1.550  1.00 20.00    -0.018 C 
HETATM   11  C8  UNL     1     -33.688  18.375  -2.077  1.00 20.00     0.010 C 
HETATM   12  C9  UNL     1     -34.794  16.807  -0.459  1.00 20.00     0.010 C 
ENDBRANCH   5  10
TORSDOF 1
ENDMDL
MODEL 2
REMARK VINA RESULT:      -5.1      1.415      1.503
REMARK  1 active torsions:
REMARK  status: ('A' for Active; 'I' for Inactive)
REMARK    1  A    between atoms: C5_5  and  C10_10 
ROOT
HETATM    1  C1  UNL     1     -34.270  14.223  -4.443  1.00 20.00     0.166 C 
HETATM    2  C2  UNL     1     -34.222  14.876  -3.075  1.00 20.00     0.086 C 
HETATM    3  C3  UNL     1     -34.838  17.122  -4.066  1.00 20.00     0.009 C 
HETATM    4  C4  UNL     1     -35.523  16.267  -5.138  1.00 20.00     0.052 C 
HETATM    5  C5  UNL     1     -33.824  16.345  -3.212  1.00 20.00    -0.004 C 
HETATM    6  C6  UNL     1     -34.647  15.113  -5.624  1.00 20.00     0.159 C 
HETATM    7  C7  UNL     1     -35.360  14.310  -6.705  1.00 20.00     0.060 C 
HETATM    8  O11 UNL     1     -34.007  13.028  -4.577  1.00 20.00    -0.294 OA
HETATM    9  F12 UNL     1     -33.518  15.639  -6.182  1.00 20.00    -0.235 F 
ENDROOT
BRANCH   5  10
HETATM   10  C10 UNL     1     -33.646  17.000  -1.845  1.00 20.00    -0.018 C 
HETATM   11  C8  UNL     1     -33.639  18.521  -1.974  1.00 20.00     0.010 C 
HETATM   12  C9  UNL     1     -34.745  16.547  -0.886  1.00 20.00     0.010 C 
ENDBRANCH   5  10
TORSDOF 1
ENDMDL
MODEL 3
REMARK VINA RESULT:      -4.9      1.516      1.894
REMARK  1 active torsions:
REMARK  status: ('A' for Active; 'I' for Inactive)
REMARK    1  A    between atoms: C5_5  and  C10_10 
ROOT
HETATM    1  C1  UNL     1     -34.250  14.898  -3.403  1.00 20.00     0.166 C 
HETATM    2  C2  UNL     1     -34.588  15.733  -2.183  1.00 20.00     0.086 C 
HETATM    3  C3  UNL     1     -34.376  17.872  -3.521  1.00 20.00     0.009 C 
HETATM    4  C4  UNL     1     -34.765  16.970  -4.698  1.00 20.00     0.052 C 
HETATM    5  C5  UNL     1     -33.906  17.098  -2.280  1.00 20.00    -0.004 C 
HETATM    6  C6  UNL     1     -33.997  15.648  -4.708  1.00 20.00     0.159 C 
HETATM    7  C7  UNL     1     -34.399  14.799  -5.909  1.00 20.00     0.060 C 
HETATM    8  O11 UNL     1     -34.179  13.672  -3.324  1.00 20.00    -0.294 OA
HETATM    9  F12 UNL     1     -32.667  15.926  -4.829  1.00 20.00    -0.235 F 
ENDROOT
BRANCH   5  10
HETATM   10  C10 UNL     1     -34.126  17.916  -1.010  1.00 20.00    -0.018 C 
HETATM   11  C8  UNL     1     -34.883  17.098   0.033  1.00 20.00     0.010 C 
HETATM   12  C9  UNL     1     -32.792  18.401  -0.446  1.00 20.00     0.010 C 
ENDBRANCH   5  10
TORSDOF 1
ENDMDL
MODEL 4
REMARK VINA RESULT:      -4.7      2.094      4.550
REMARK  1 active torsions:
REMARK  status: ('A' for Active; 'I' for Inactive)
REMARK    1  A    between atoms: C5_5  and  C10_10 
ROOT
HETATM    1  C1  UNL     1     -34.083  17.205  -3.822  1.00 20.00     0.166 C 
HETATM    2  C2  UNL     1     -34.474  17.026  -5.276  1.00 20.00     0.086 C 
HETATM    3  C3  UNL     1     -34.922  14.561  -4.908  1.00 20.00     0.009 C 
HETATM    4  C4  UNL     1     -35.212  15.006  -3.470  1.00 20.00     0.052 C 
HETATM    5  C5  UNL     1     -34.150  15.603  -5.732  1.00 20.00    -0.004 C 
HETATM    6  C6  UNL     1     -34.159  15.972  -2.926  1.00 20.00     0.159 C 
HETATM    7  C7  UNL     1     -34.476  16.364  -1.488  1.00 20.00     0.060 C 
HETATM    8  O11 UNL     1     -33.715  18.302  -3.402  1.00 20.00    -0.294 OA
HETATM    9  F12 UNL     1     -32.953  15.332  -2.921  1.00 20.00    -0.235 F 
ENDROOT
BRANCH   5  10
HETATM   10  C10 UNL     1     -34.417  15.427  -7.225  1.00 20.00    -0.018 C 
HETATM   11  C8  UNL     1     -35.507  14.383  -7.455  1.00 20.00     0.010 C 
HETATM   12  C9  UNL     1     -34.807  16.759  -7.861  1.00 20.00     0.010 C 
ENDBRANCH   5  10
TORSDOF 1
ENDMDL
MODEL 5
REMARK VINA RESULT:      -4.7      1.866      2.212
REMARK  1 active torsions:
REMARK  status: ('A' for Active; 'I' for Inactive)
REMARK    1  A    between atoms: C5_5  and  C10_10 
ROOT
HETATM    1  C1  UNL     1     -34.287  16.586  -5.582  1.00 20.00     0.166 C 
HETATM    2  C2  UNL     1     -33.623  17.047  -4.299  1.00 20.00     0.086 C 
HETATM    3  C3  UNL     1     -34.252  14.889  -3.134  1.00 20.00     0.009 C 
HETATM    4  C4  UNL     1     -34.207  14.312  -4.554  1.00 20.00     0.052 C 
HETATM    5  C5  UNL     1     -34.327  16.423  -3.094  1.00 20.00    -0.004 C 
HETATM    6  C6  UNL     1     -34.921  15.197  -5.575  1.00 20.00     0.159 C 
HETATM    7  C7  UNL     1     -34.871  14.570  -6.963  1.00 20.00     0.060 C 
HETATM    8  O11 UNL     1     -34.311  17.315  -6.574  1.00 20.00    -0.294 OA
HETATM    9  F12 UNL     1     -36.233  15.293  -5.215  1.00 20.00    -0.235 F 
ENDROOT
BRANCH   5  10
HETATM   10  C10 UNL     1     -33.762  16.964  -1.783  1.00 20.00    -0.018 C 
HETATM   11  C8  UNL     1     -33.502  18.464  -1.888  1.00 20.00     0.010 C 
HETATM   12  C9  UNL     1     -34.711  16.663  -0.625  1.00 20.00     0.010 C 
ENDBRANCH   5  10
TORSDOF 1
ENDMDL
MODEL 6
REMARK VINA RESULT:      -4.4      2.215      4.267
REMARK  1 active torsions:
REMARK  status: ('A' for Active; 'I' for Inactive)
REMARK    1  A    between atoms: C5_5  and  C10_10 
ROOT
HETATM    1  C1  UNL     1     -34.485  16.444  -2.108  1.00 20.00     0.166 C 
HETATM    2  C2  UNL     1     -34.503  15.243  -3.033  1.00 20.00     0.086 C 
HETATM    3  C3  UNL     1     -34.265  16.735  -5.064  1.00 20.00     0.009 C 
HETATM    4  C4  UNL     1     -33.567  17.676  -4.076  1.00 20.00     0.052 C 
HETATM    5  C5  UNL     1     -35.097  15.635  -4.386  1.00 20.00    -0.004 C 
HETATM    6  C6  UNL     1     -34.326  17.817  -2.756  1.00 20.00     0.159 C 
HETATM    7  C7  UNL     1     -33.607  18.780  -1.819  1.00 20.00     0.060 C 
HETATM    8  O11 UNL     1     -34.603  16.301  -0.891  1.00 20.00    -0.294 OA
HETATM    9  F12 UNL     1     -35.555  18.345  -3.023  1.00 20.00    -0.235 F 
ENDROOT
BRANCH   5  10
HETATM   10  C10 UNL     1     -35.243  14.420  -5.298  1.00 20.00    -0.018 C 
HETATM   11  C8  UNL     1     -34.683  14.719  -6.686  1.00 20.00     0.010 C 
HETATM   12  C9  UNL     1     -34.548  13.205  -4.689  1.00 20.00     0.010 C 
ENDBRANCH   5  10
TORSDOF 1
ENDMDL
MODEL 7
REMARK VINA RESULT:      -4.4      2.390      4.019
REMARK  1 active torsions:
REMARK  status: ('A' for Active; 'I' for Inactive)
REMARK    1  A    between atoms: C5_5  and  C10_10 
ROOT
HETATM    1  C1  UNL     1     -34.689  13.736  -4.893  1.00 20.00     0.166 C 
HETATM    2  C2  UNL     1     -35.388  14.407  -6.059  1.00 20.00     0.086 C 
HETATM    3  C3  UNL     1     -34.545  16.679  -5.327  1.00 20.00     0.009 C 
HETATM    4  C4  UNL     1     -33.397  15.865  -4.720  1.00 20.00     0.052 C 
HETATM    5  C5  UNL     1     -35.780  15.835  -5.680  1.00 20.00    -0.004 C 
HETATM    6  C6  UNL     1     -33.884  14.633  -3.957  1.00 20.00     0.159 C 
HETATM    7  C7  UNL     1     -32.710  13.873  -3.351  1.00 20.00     0.060 C 
HETATM    8  O11 UNL     1     -34.783  12.521  -4.719  1.00 20.00    -0.294 OA
HETATM    9  F12 UNL     1     -34.675  15.052  -2.928  1.00 20.00    -0.235 F 
ENDROOT
BRANCH   5  10
HETATM   10  C10 UNL     1     -36.595  16.497  -6.788  1.00 20.00    -0.018 C 
HETATM   11  C8  UNL     1     -35.682  16.970  -7.917  1.00 20.00     0.010 C 
HETATM   12  C9  UNL     1     -37.655  15.536  -7.321  1.00 20.00     0.010 C 
ENDBRANCH   5  10
TORSDOF 1
ENDMDL
MODEL 8
REMARK VINA RESULT:      -4.4      2.073      4.295
REMARK  1 active torsions:
REMARK  status: ('A' for Active; 'I' for Inactive)
REMARK    1  A    between atoms: C5_5  and  C10_10 
ROOT
HETATM    1  C1  UNL     1     -35.671  16.713  -3.292  1.00 20.00     0.166 C 
HETATM    2  C2  UNL     1     -35.607  16.162  -4.703  1.00 20.00     0.086 C 
HETATM    3  C3  UNL     1     -33.114  15.773  -4.495  1.00 20.00     0.009 C 
HETATM    4  C4  UNL     1     -33.434  15.644  -3.001  1.00 20.00     0.052 C 
HETATM    5  C5  UNL     1     -34.232  16.442  -5.310  1.00 20.00    -0.004 C 
HETATM    6  C6  UNL     1     -34.368  16.745  -2.499  1.00 20.00     0.159 C 
HETATM    7  C7  UNL     1     -34.634  16.589  -1.007  1.00 20.00     0.060 C 
HETATM    8  O11 UNL     1     -36.735  17.118  -2.824  1.00 20.00    -0.294 OA
HETATM    9  F12 UNL     1     -33.749  17.947  -2.681  1.00 20.00    -0.235 F 
ENDROOT
BRANCH   5  10
HETATM   10  C10 UNL     1     -34.176  16.010  -6.773  1.00 20.00    -0.018 C 
HETATM   11  C8  UNL     1     -34.892  14.675  -6.967  1.00 20.00     0.010 C 
HETATM   12  C9  UNL     1     -34.785  17.082  -7.673  1.00 20.00     0.010 C 
ENDBRANCH   5  10
TORSDOF 1
ENDMDL
MODEL 9
REMARK VINA RESULT:      -4.3      2.229      2.781
REMARK  1 active torsions:
REMARK  status: ('A' for Active; 'I' for Inactive)
REMARK    1  A    between atoms: C5_5  and  C10_10 
ROOT
HETATM    1  C1  UNL     1     -37.285  14.930  -4.214  1.00 20.00     0.166 C 
HETATM    2  C2  UNL     1     -36.021  15.244  -3.438  1.00 20.00     0.086 C 
HETATM    3  C3  UNL     1     -35.207  16.776  -5.282  1.00 20.00     0.009 C 
HETATM    4  C4  UNL     1     -36.704  16.948  -5.563  1.00 20.00     0.052 C 
HETATM    5  C5  UNL     1     -34.880  15.557  -4.406  1.00 20.00    -0.004 C 
HETATM    6  C6  UNL     1     -37.462  15.620  -5.563  1.00 20.00     0.159 C 
HETATM    7  C7  UNL     1     -38.938  15.840  -5.872  1.00 20.00     0.060 C 
HETATM    8  O11 UNL     1     -38.119  14.144  -3.763  1.00 20.00    -0.294 OA
HETATM    9  F12 UNL     1     -36.948  14.834  -6.553  1.00 20.00    -0.235 F 
ENDROOT
BRANCH   5  10
HETATM   10  C10 UNL     1     -33.562  15.757  -3.662  1.00 20.00    -0.018 C 
HETATM   11  C8  UNL     1     -33.813  16.343  -2.274  1.00 20.00     0.010 C 
HETATM   12  C9  UNL     1     -32.799  14.438  -3.557  1.00 20.00     0.010 C 
ENDBRANCH   5  10
TORSDOF 1
ENDMDL
