MODEL 1
REMARK VINA RESULT:      -5.2      0.000      0.000
REMARK  1 active torsions:
REMARK  status: ('A' for Active; 'I' for Inactive)
REMARK    1  A    between atoms: C7_7  and  C11_11 
ROOT
HETATM    1  C1  UNL     1     -34.472  13.637  -4.750  1.00 20.00     0.131 C 
HETATM    2  C2  UNL     1     -33.319  13.896  -3.812  1.00 20.00     0.079 C 
HETATM    3  C3  UNL     1     -33.648  15.035  -2.860  1.00 20.00     0.017 C 
HETATM    4  C4  UNL     1     -33.412  16.753  -4.816  1.00 20.00     0.016 A 
HETATM    5  C5  UNL     1     -35.074  14.816  -5.496  1.00 20.00     0.056 C 
HETATM    6  C6  UNL     1     -34.803  16.166  -4.890  1.00 20.00     0.006 A 
HETATM    7  C7  UNL     1     -34.108  16.297  -3.552  1.00 20.00    -0.032 A 
HETATM    8  C8  UNL     1     -34.648  14.769  -6.960  1.00 20.00     0.018 C 
HETATM    9  O12 UNL     1     -34.858  12.487  -4.967  1.00 20.00    -0.298 OA
ENDROOT
BRANCH   7  10
HETATM   10  C11 UNL     1     -34.597  17.367  -2.610  1.00 20.00    -0.014 C 
HETATM   11  C9  UNL     1     -34.784  16.820  -1.188  1.00 20.00     0.010 C 
HETATM   12  C10 UNL     1     -33.640  18.568  -2.580  1.00 20.00     0.010 C 
ENDBRANCH   7  10
TORSDOF 1
ENDMDL
MODEL 2
REMARK VINA RESULT:      -4.9      1.542      1.794
REMARK  1 active torsions:
REMARK  status: ('A' for Active; 'I' for Inactive)
REMARK    1  A    between atoms: C7_7  and  C11_11 
ROOT
HETATM    1  C1  UNL     1     -33.525  13.988  -3.719  1.00 20.00     0.131 C 
HETATM    2  C2  UNL     1     -32.824  15.323  -3.674  1.00 20.00     0.079 C 
HETATM    3  C3  UNL     1     -33.446  16.218  -2.614  1.00 20.00     0.017 C 
HETATM    4  C4  UNL     1     -35.563  16.542  -4.110  1.00 20.00     0.016 A 
HETATM    5  C5  UNL     1     -35.042  13.971  -3.809  1.00 20.00     0.056 C 
HETATM    6  C6  UNL     1     -35.725  15.236  -3.368  1.00 20.00     0.006 A 
HETATM    7  C7  UNL     1     -34.943  16.370  -2.741  1.00 20.00    -0.032 A 
HETATM    8  C8  UNL     1     -35.468  13.571  -5.219  1.00 20.00     0.018 C 
HETATM    9  O12 UNL     1     -32.876  12.940  -3.766  1.00 20.00    -0.298 OA
ENDROOT
BRANCH   7  10
HETATM   10  C11 UNL     1     -35.582  17.113  -1.597  1.00 20.00    -0.014 C 
HETATM   11  C9  UNL     1     -34.745  16.995  -0.315  1.00 20.00     0.010 C 
HETATM   12  C10 UNL     1     -35.796  18.595  -1.940  1.00 20.00     0.010 C 
ENDBRANCH   7  10
TORSDOF 1
ENDMDL
MODEL 3
REMARK VINA RESULT:      -4.8      2.387      3.987
REMARK  1 active torsions:
REMARK  status: ('A' for Active; 'I' for Inactive)
REMARK    1  A    between atoms: C7_7  and  C11_11 
ROOT
HETATM    1  C1  UNL     1     -33.683  17.042  -3.545  1.00 20.00     0.131 C 
HETATM    2  C2  UNL     1     -33.899  18.516  -3.307  1.00 20.00     0.079 C 
HETATM    3  C3  UNL     1     -33.394  18.916  -1.931  1.00 20.00     0.017 C 
HETATM    4  C4  UNL     1     -35.412  17.684  -0.818  1.00 20.00     0.016 A 
HETATM    5  C5  UNL     1     -34.156  16.063  -2.482  1.00 20.00     0.056 C 
HETATM    6  C6  UNL     1     -34.351  16.649  -1.110  1.00 20.00     0.006 A 
HETATM    7  C7  UNL     1     -33.951  18.076  -0.805  1.00 20.00    -0.032 A 
HETATM    8  C8  UNL     1     -35.415  15.349  -2.966  1.00 20.00     0.018 C 
HETATM    9  O12 UNL     1     -33.212  16.640  -4.610  1.00 20.00    -0.298 OA
ENDROOT
BRANCH   7  10
HETATM   10  C11 UNL     1     -33.324  18.356   0.536  1.00 20.00    -0.014 C 
HETATM   11  C9  UNL     1     -31.937  18.997   0.383  1.00 20.00     0.010 C 
HETATM   12  C10 UNL     1     -34.220  19.261   1.395  1.00 20.00     0.010 C 
ENDBRANCH   7  10
TORSDOF 1
ENDMDL
MODEL 4
REMARK VINA RESULT:      -4.8      1.452      2.578
REMARK  1 active torsions:
REMARK  status: ('A' for Active; 'I' for Inactive)
REMARK    1  A    between atoms: C7_7  and  C11_11 
ROOT
HETATM    1  C1  UNL     1     -34.300  15.603  -5.717  1.00 20.00     0.131 C 
HETATM    2  C2  UNL     1     -35.179  16.767  -5.327  1.00 20.00     0.079 C 
HETATM    3  C3  UNL     1     -34.668  17.419  -4.052  1.00 20.00     0.017 C 
HETATM    4  C4  UNL     1     -35.492  15.369  -2.657  1.00 20.00     0.016 A 
HETATM    5  C5  UNL     1     -33.974  14.560  -4.661  1.00 20.00     0.056 C 
HETATM    6  C6  UNL     1     -34.143  15.013  -3.236  1.00 20.00     0.006 A 
HETATM    7  C7  UNL     1     -34.468  16.454  -2.907  1.00 20.00    -0.032 A 
HETATM    8  C8  UNL     1     -34.766  13.285  -4.936  1.00 20.00     0.018 C 
HETATM    9  O12 UNL     1     -33.929  15.461  -6.883  1.00 20.00    -0.298 OA
ENDROOT
BRANCH   7  10
HETATM   10  C11 UNL     1     -33.803  17.064  -1.701  1.00 20.00    -0.014 C 
HETATM   11  C9  UNL     1     -33.479  18.548  -1.930  1.00 20.00     0.010 C 
HETATM   12  C10 UNL     1     -34.673  16.913  -0.445  1.00 20.00     0.010 C 
ENDBRANCH   7  10
TORSDOF 1
ENDMDL
MODEL 5
REMARK VINA RESULT:      -4.8      1.096      1.144
REMARK  1 active torsions:
REMARK  status: ('A' for Active; 'I' for Inactive)
REMARK    1  A    between atoms: C7_7  and  C11_11 
ROOT
HETATM    1  C1  UNL     1     -35.110  13.851  -4.316  1.00 20.00     0.131 C 
HETATM    2  C2  UNL     1     -33.704  14.371  -4.146  1.00 20.00     0.079 C 
HETATM    3  C3  UNL     1     -33.648  15.409  -3.036  1.00 20.00     0.017 C 
HETATM    4  C4  UNL     1     -34.892  17.126  -4.564  1.00 20.00     0.016 A 
HETATM    5  C5  UNL     1     -36.241  14.858  -4.452  1.00 20.00     0.056 C 
HETATM    6  C6  UNL     1     -35.938  16.237  -3.932  1.00 20.00     0.006 A 
HETATM    7  C7  UNL     1     -34.649  16.530  -3.195  1.00 20.00    -0.032 A 
HETATM    8  C8  UNL     1     -36.718  14.903  -5.901  1.00 20.00     0.018 C 
HETATM    9  O12 UNL     1     -35.323  12.642  -4.427  1.00 20.00    -0.298 OA
ENDROOT
BRANCH   7  10
HETATM   10  C11 UNL     1     -34.714  17.465  -2.015  1.00 20.00    -0.014 C 
HETATM   11  C9  UNL     1     -34.457  16.721  -0.697  1.00 20.00     0.010 C 
HETATM   12  C10 UNL     1     -33.713  18.620  -2.160  1.00 20.00     0.010 C 
ENDBRANCH   7  10
TORSDOF 1
ENDMDL
MODEL 6
REMARK VINA RESULT:      -4.6      1.838      4.106
REMARK  1 active torsions:
REMARK  status: ('A' for Active; 'I' for Inactive)
REMARK    1  A    between atoms: C7_7  and  C11_11 
ROOT
HETATM    1  C1  UNL     1     -33.383  14.668  -3.766  1.00 20.00     0.131 C 
HETATM    2  C2  UNL     1     -34.077  13.451  -4.326  1.00 20.00     0.079 C 
HETATM    3  C3  UNL     1     -34.921  13.824  -5.534  1.00 20.00     0.017 C 
HETATM    4  C4  UNL     1     -36.650  15.010  -3.975  1.00 20.00     0.016 A 
HETATM    5  C5  UNL     1     -34.215  15.909  -3.489  1.00 20.00     0.056 C 
HETATM    6  C6  UNL     1     -35.523  15.983  -4.229  1.00 20.00     0.006 A 
HETATM    7  C7  UNL     1     -35.887  14.958  -5.280  1.00 20.00    -0.032 A 
HETATM    8  C8  UNL     1     -34.417  16.067  -1.985  1.00 20.00     0.018 C 
HETATM    9  O12 UNL     1     -32.189  14.626  -3.462  1.00 20.00    -0.298 OA
ENDROOT
BRANCH   7  10
HETATM   10  C11 UNL     1     -36.600  15.443  -6.515  1.00 20.00    -0.014 C 
HETATM   11  C9  UNL     1     -36.062  14.755  -7.779  1.00 20.00     0.010 C 
HETATM   12  C10 UNL     1     -38.116  15.221  -6.411  1.00 20.00     0.010 C 
ENDBRANCH   7  10
TORSDOF 1
ENDMDL
MODEL 7
REMARK VINA RESULT:      -4.5      3.095      5.443
REMARK  1 active torsions:
REMARK  status: ('A' for Active; 'I' for Inactive)
REMARK    1  A    between atoms: C7_7  and  C11_11 
ROOT
HETATM    1  C1  UNL     1     -36.466  18.368  -0.192  1.00 20.00     0.131 C 
HETATM    2  C2  UNL     1     -36.417  18.674  -1.669  1.00 20.00     0.079 C 
HETATM    3  C3  UNL     1     -36.086  17.421  -2.464  1.00 20.00     0.017 C 
HETATM    4  C4  UNL     1     -33.619  17.513  -1.606  1.00 20.00     0.016 A 
HETATM    5  C5  UNL     1     -35.299  17.618   0.429  1.00 20.00     0.056 C 
HETATM    6  C6  UNL     1     -34.448  16.840  -0.538  1.00 20.00     0.006 A 
HETATM    7  C7  UNL     1     -34.839  16.708  -1.993  1.00 20.00    -0.032 A 
HETATM    8  C8  UNL     1     -34.456  18.579   1.262  1.00 20.00     0.018 C 
HETATM    9  O12 UNL     1     -37.390  18.790   0.506  1.00 20.00    -0.298 OA
ENDROOT
BRANCH   7  10
HETATM   10  C11 UNL     1     -34.604  15.380  -2.665  1.00 20.00    -0.014 C 
HETATM   11  C9  UNL     1     -35.832  14.934  -3.471  1.00 20.00     0.010 C 
HETATM   12  C10 UNL     1     -33.373  15.425  -3.581  1.00 20.00     0.010 C 
ENDBRANCH   7  10
TORSDOF 1
ENDMDL
MODEL 8
REMARK VINA RESULT:      -4.5      2.678      4.826
REMARK  1 active torsions:
REMARK  status: ('A' for Active; 'I' for Inactive)
REMARK    1  A    between atoms: C7_7  and  C11_11 
ROOT
HETATM    1  C1  UNL     1     -35.666  18.293  -1.762  1.00 20.00     0.131 C 
HETATM    2  C2  UNL     1     -35.541  18.309  -3.265  1.00 20.00     0.079 C 
HETATM    3  C3  UNL     1     -35.833  16.933  -3.841  1.00 20.00     0.017 C 
HETATM    4  C4  UNL     1     -33.553  16.051  -2.919  1.00 20.00     0.016 A 
HETATM    5  C5  UNL     1     -34.932  17.210  -0.988  1.00 20.00     0.056 C 
HETATM    6  C6  UNL     1     -34.554  15.994  -1.789  1.00 20.00     0.006 A 
HETATM    7  C7  UNL     1     -35.018  15.823  -3.219  1.00 20.00    -0.032 A 
HETATM    8  C8  UNL     1     -33.719  17.812  -0.286  1.00 20.00     0.018 C 
HETATM    9  O12 UNL     1     -36.279  19.186  -1.173  1.00 20.00    -0.298 OA
ENDROOT
BRANCH   7  10
HETATM   10  C11 UNL     1     -35.424  14.442  -3.665  1.00 20.00    -0.014 C 
HETATM   11  C9  UNL     1     -36.889  14.410  -4.124  1.00 20.00     0.010 C 
HETATM   12  C10 UNL     1     -34.517  13.928  -4.793  1.00 20.00     0.010 C 
ENDBRANCH   7  10
TORSDOF 1
ENDMDL
MODEL 9
REMARK VINA RESULT:      -4.4      2.208      4.599
REMARK  1 active torsions:
REMARK  status: ('A' for Active; 'I' for Inactive)
REMARK    1  A    between atoms: C7_7  and  C11_11 
ROOT
HETATM    1  C1  UNL     1     -34.738  18.066  -2.853  1.00 20.00     0.131 C 
HETATM    2  C2  UNL     1     -33.709  17.967  -3.951  1.00 20.00     0.079 C 
HETATM    3  C3  UNL     1     -34.108  16.906  -4.964  1.00 20.00     0.017 C 
HETATM    4  C4  UNL     1     -33.534  15.028  -3.240  1.00 20.00     0.016 A 
HETATM    5  C5  UNL     1     -35.180  16.788  -2.160  1.00 20.00     0.056 C 
HETATM    6  C6  UNL     1     -34.928  15.520  -2.930  1.00 20.00     0.006 A 
HETATM    7  C7  UNL     1     -34.412  15.558  -4.352  1.00 20.00    -0.032 A 
HETATM    8  C8  UNL     1     -34.566  16.721  -0.764  1.00 20.00     0.018 C 
HETATM    9  O12 UNL     1     -35.146  19.165  -2.471  1.00 20.00    -0.298 OA
ENDROOT
BRANCH   7  10
HETATM   10  C11 UNL     1     -34.970  14.555  -5.327  1.00 20.00    -0.014 C 
HETATM   11  C9  UNL     1     -34.573  14.896  -6.771  1.00 20.00     0.010 C 
HETATM   12  C10 UNL     1     -34.512  13.129  -4.988  1.00 20.00     0.010 C 
ENDBRANCH   7  10
TORSDOF 1
ENDMDL
