MODEL 1
REMARK VINA RESULT:      -4.2      0.000      0.000
REMARK  1 active torsions:
REMARK  status: ('A' for Active; 'I' for Inactive)
REMARK    1  A    between atoms: C4_4  and  C7_7 
ROOT
HETATM    1  C1  UNL     1     -34.452  13.608  -4.498  1.00 20.00     0.075 C 
HETATM    2  C2  UNL     1     -33.804  15.915  -5.076  1.00 20.00     0.105 C 
HETATM    3  C3  UNL     1     -34.029  14.906  -3.961  1.00 20.00     0.164 C 
HETATM    4  C4  UNL     1     -34.616  17.308  -2.866  1.00 20.00     0.113 C 
HETATM    5  N8  UNL     1     -34.787  12.581  -4.923  1.00 20.00    -0.196 NA
HETATM    6  S9  UNL     1     -33.571  17.559  -4.338  1.00 20.00    -0.151 SA
HETATM    7  S10 UNL     1     -35.301  15.623  -2.882  1.00 20.00    -0.133 SA
ENDROOT
BRANCH   4   8
HETATM    8  C7  UNL     1     -33.788  17.523  -1.605  1.00 20.00     0.001 C 
HETATM    9  C5  UNL     1     -33.387  18.993  -1.468  1.00 20.00     0.011 C 
HETATM   10  C6  UNL     1     -34.557  17.062  -0.367  1.00 20.00     0.011 C 
ENDBRANCH   4   8
TORSDOF 1
ENDMDL
MODEL 2
REMARK VINA RESULT:      -4.0      1.924      1.935
REMARK  1 active torsions:
REMARK  status: ('A' for Active; 'I' for Inactive)
REMARK    1  A    between atoms: C4_4  and  C7_7 
ROOT
HETATM    1  C1  UNL     1     -37.239  14.814  -3.633  1.00 20.00     0.075 C 
HETATM    2  C2  UNL     1     -35.027  15.531  -4.453  1.00 20.00     0.105 C 
HETATM    3  C3  UNL     1     -35.952  15.406  -3.252  1.00 20.00     0.164 C 
HETATM    4  C4  UNL     1     -34.414  17.570  -2.736  1.00 20.00     0.113 C 
HETATM    5  N8  UNL     1     -38.257  14.346  -3.934  1.00 20.00    -0.196 NA
HETATM    6  S9  UNL     1     -33.584  16.526  -3.979  1.00 20.00    -0.151 SA
HETATM    7  S10 UNL     1     -36.162  17.089  -2.603  1.00 20.00    -0.133 SA
ENDROOT
BRANCH   4   8
HETATM    8  C7  UNL     1     -33.723  17.410  -1.387  1.00 20.00     0.001 C 
HETATM    9  C5  UNL     1     -33.043  18.715  -0.972  1.00 20.00     0.011 C 
HETATM   10  C6  UNL     1     -34.721  16.965  -0.318  1.00 20.00     0.011 C 
ENDBRANCH   4   8
TORSDOF 1
ENDMDL
MODEL 3
REMARK VINA RESULT:      -3.8      2.869      4.851
REMARK  1 active torsions:
REMARK  status: ('A' for Active; 'I' for Inactive)
REMARK    1  A    between atoms: C4_4  and  C7_7 
ROOT
HETATM    1  C1  UNL     1     -34.616  16.123  -1.909  1.00 20.00     0.075 C 
HETATM    2  C2  UNL     1     -34.302  14.129  -3.324  1.00 20.00     0.105 C 
HETATM    3  C3  UNL     1     -34.683  15.601  -3.278  1.00 20.00     0.164 C 
HETATM    4  C4  UNL     1     -36.096  14.572  -5.342  1.00 20.00     0.113 C 
HETATM    5  N8  UNL     1     -34.563  16.537  -0.826  1.00 20.00    -0.196 NA
HETATM    6  S9  UNL     1     -34.685  13.478  -4.977  1.00 20.00    -0.151 SA
HETATM    7  S10 UNL     1     -36.368  15.705  -3.947  1.00 20.00    -0.133 SA
ENDROOT
BRANCH   4   8
HETATM    8  C7  UNL     1     -35.817  15.364  -6.613  1.00 20.00     0.001 C 
HETATM    9  C5  UNL     1     -34.423  15.045  -7.152  1.00 20.00     0.011 C 
HETATM   10  C6  UNL     1     -36.879  15.076  -7.674  1.00 20.00     0.011 C 
ENDBRANCH   4   8
TORSDOF 1
ENDMDL
MODEL 4
REMARK VINA RESULT:      -3.8      2.209      2.885
REMARK  1 active torsions:
REMARK  status: ('A' for Active; 'I' for Inactive)
REMARK    1  A    between atoms: C4_4  and  C7_7 
ROOT
HETATM    1  C1  UNL     1     -36.157  14.898  -6.898  1.00 20.00     0.075 C 
HETATM    2  C2  UNL     1     -34.901  13.631  -5.195  1.00 20.00     0.105 C 
HETATM    3  C3  UNL     1     -35.463  14.983  -5.608  1.00 20.00     0.164 C 
HETATM    4  C4  UNL     1     -33.256  15.552  -4.152  1.00 20.00     0.113 C 
HETATM    5  N8  UNL     1     -36.705  14.830  -7.918  1.00 20.00    -0.196 NA
HETATM    6  S9  UNL     1     -33.817  13.863  -3.756  1.00 20.00    -0.151 SA
HETATM    7  S10 UNL     1     -34.044  16.113  -5.691  1.00 20.00    -0.133 SA
ENDROOT
BRANCH   4   8
HETATM    8  C7  UNL     1     -33.613  16.493  -3.009  1.00 20.00     0.001 C 
HETATM    9  C5  UNL     1     -34.042  17.858  -3.548  1.00 20.00     0.011 C 
HETATM   10  C6  UNL     1     -34.716  15.893  -2.138  1.00 20.00     0.011 C 
ENDBRANCH   4   8
TORSDOF 1
ENDMDL
MODEL 5
REMARK VINA RESULT:      -3.8      2.387      4.451
REMARK  1 active torsions:
REMARK  status: ('A' for Active; 'I' for Inactive)
REMARK    1  A    between atoms: C4_4  and  C7_7 
ROOT
HETATM    1  C1  UNL     1     -34.751  16.876  -1.163  1.00 20.00     0.075 C 
HETATM    2  C2  UNL     1     -33.982  17.882  -3.278  1.00 20.00     0.105 C 
HETATM    3  C3  UNL     1     -34.723  16.727  -2.622  1.00 20.00     0.164 C 
HETATM    4  C4  UNL     1     -33.629  15.681  -4.863  1.00 20.00     0.113 C 
HETATM    5  N8  UNL     1     -34.774  16.993  -0.008  1.00 20.00    -0.196 NA
HETATM    6  S9  UNL     1     -33.731  17.492  -5.034  1.00 20.00    -0.151 SA
HETATM    7  S10 UNL     1     -33.842  15.219  -3.118  1.00 20.00    -0.133 SA
ENDROOT
BRANCH   4   8
HETATM    8  C7  UNL     1     -34.709  15.023  -5.713  1.00 20.00     0.001 C 
HETATM    9  C5  UNL     1     -34.347  15.097  -7.197  1.00 20.00     0.011 C 
HETATM   10  C6  UNL     1     -34.922  13.570  -5.288  1.00 20.00     0.011 C 
ENDBRANCH   4   8
TORSDOF 1
ENDMDL
MODEL 6
REMARK VINA RESULT:      -3.7      2.813      4.289
REMARK  1 active torsions:
REMARK  status: ('A' for Active; 'I' for Inactive)
REMARK    1  A    between atoms: C4_4  and  C7_7 
ROOT
HETATM    1  C1  UNL     1     -33.686  18.140  -5.946  1.00 20.00     0.075 C 
HETATM    2  C2  UNL     1     -33.728  17.610  -3.539  1.00 20.00     0.105 C 
HETATM    3  C3  UNL     1     -33.712  17.058  -4.956  1.00 20.00     0.164 C 
HETATM    4  C4  UNL     1     -35.070  15.227  -3.502  1.00 20.00     0.113 C 
HETATM    5  N8  UNL     1     -33.666  18.996  -6.730  1.00 20.00    -0.196 NA
HETATM    6  S9  UNL     1     -34.053  16.246  -2.385  1.00 20.00    -0.151 SA
HETATM    7  S10 UNL     1     -35.211  16.046  -5.119  1.00 20.00    -0.133 SA
ENDROOT
BRANCH   4   8
HETATM    8  C7  UNL     1     -34.433  13.852  -3.667  1.00 20.00     0.001 C 
HETATM    9  C5  UNL     1     -34.800  13.247  -5.022  1.00 20.00     0.011 C 
HETATM   10  C6  UNL     1     -32.915  13.938  -3.515  1.00 20.00     0.011 C 
ENDBRANCH   4   8
TORSDOF 1
ENDMDL
MODEL 7
REMARK VINA RESULT:      -3.7      2.513      3.716
REMARK  1 active torsions:
REMARK  status: ('A' for Active; 'I' for Inactive)
REMARK    1  A    between atoms: C4_4  and  C7_7 
ROOT
HETATM    1  C1  UNL     1     -37.563  14.874  -3.886  1.00 20.00     0.075 C 
HETATM    2  C2  UNL     1     -35.636  15.837  -2.687  1.00 20.00     0.105 C 
HETATM    3  C3  UNL     1     -36.299  15.603  -4.036  1.00 20.00     0.164 C 
HETATM    4  C4  UNL     1     -33.644  15.637  -4.551  1.00 20.00     0.113 C 
HETATM    5  N8  UNL     1     -38.563  14.297  -3.769  1.00 20.00    -0.196 NA
HETATM    6  S9  UNL     1     -33.958  16.475  -2.963  1.00 20.00    -0.151 SA
HETATM    7  S10 UNL     1     -35.103  14.662  -5.027  1.00 20.00    -0.133 SA
ENDROOT
BRANCH   4   8
HETATM    8  C7  UNL     1     -33.334  16.672  -5.625  1.00 20.00     0.001 C 
HETATM    9  C5  UNL     1     -34.194  16.435  -6.867  1.00 20.00     0.011 C 
HETATM   10  C6  UNL     1     -33.548  18.087  -5.090  1.00 20.00     0.011 C 
ENDBRANCH   4   8
TORSDOF 1
ENDMDL
MODEL 8
REMARK VINA RESULT:      -3.7      2.597      4.760
REMARK  1 active torsions:
REMARK  status: ('A' for Active; 'I' for Inactive)
REMARK    1  A    between atoms: C4_4  and  C7_7 
ROOT
HETATM    1  C1  UNL     1     -34.737  16.496  -1.358  1.00 20.00     0.075 C 
HETATM    2  C2  UNL     1     -36.478  16.212  -3.081  1.00 20.00     0.105 C 
HETATM    3  C3  UNL     1     -35.033  15.949  -2.687  1.00 20.00     0.164 C 
HETATM    4  C4  UNL     1     -35.001  16.158  -5.382  1.00 20.00     0.113 C 
HETATM    5  N8  UNL     1     -34.503  16.929  -0.307  1.00 20.00    -0.196 NA
HETATM    6  S9  UNL     1     -36.695  15.776  -4.830  1.00 20.00    -0.151 SA
HETATM    7  S10 UNL     1     -34.011  16.730  -3.968  1.00 20.00    -0.133 SA
ENDROOT
BRANCH   4   8
HETATM    8  C7  UNL     1     -34.367  14.916  -5.996  1.00 20.00     0.001 C 
HETATM    9  C5  UNL     1     -34.919  13.649  -5.340  1.00 20.00     0.011 C 
HETATM   10  C6  UNL     1     -34.600  14.879  -7.506  1.00 20.00     0.011 C 
ENDBRANCH   4   8
TORSDOF 1
ENDMDL
MODEL 9
REMARK VINA RESULT:      -3.7      2.606      3.004
REMARK  1 active torsions:
REMARK  status: ('A' for Active; 'I' for Inactive)
REMARK    1  A    between atoms: C4_4  and  C7_7 
ROOT
HETATM    1  C1  UNL     1     -38.176  14.670  -4.189  1.00 20.00     0.075 C 
HETATM    2  C2  UNL     1     -36.222  15.137  -5.619  1.00 20.00     0.105 C 
HETATM    3  C3  UNL     1     -36.749  15.012  -4.197  1.00 20.00     0.164 C 
HETATM    4  C4  UNL     1     -34.764  16.842  -4.055  1.00 20.00     0.113 C 
HETATM    5  N8  UNL     1     -39.304  14.400  -4.181  1.00 20.00    -0.196 NA
HETATM    6  S9  UNL     1     -34.549  15.840  -5.562  1.00 20.00    -0.151 SA
HETATM    7  S10 UNL     1     -36.447  16.618  -3.406  1.00 20.00    -0.133 SA
ENDROOT
BRANCH   4   8
HETATM    8  C7  UNL     1     -33.740  16.422  -3.008  1.00 20.00     0.001 C 
HETATM    9  C5  UNL     1     -34.403  16.263  -1.639  1.00 20.00     0.011 C 
HETATM   10  C6  UNL     1     -33.048  15.123  -3.419  1.00 20.00     0.011 C 
ENDBRANCH   4   8
TORSDOF 1
ENDMDL
