MODEL 1
REMARK VINA RESULT:      -3.9      0.000      0.000
REMARK  2 active torsions:
REMARK  status: ('A' for Active; 'I' for Inactive)
REMARK    1  A    between atoms: C3_3  and  C9_9 
REMARK    2  A    between atoms: C3_3  and  S10_10 
ROOT
HETATM    1  C1  UNL     1     -35.366  14.518  -3.749  1.00 20.00     0.010 A 
HETATM    2  C2  UNL     1     -34.274  15.472  -3.288  1.00 20.00    -0.025 A 
HETATM    3  C3  UNL     1     -35.185  15.842  -4.484  1.00 20.00     0.019 A 
HETATM    4  C4  UNL     1     -35.082  13.191  -4.367  1.00 20.00     0.012 C 
HETATM    5  C5  UNL     1     -34.480  16.128  -1.936  1.00 20.00     0.017 C 
HETATM    6  C6  UNL     1     -32.816  15.151  -3.530  1.00 20.00     0.017 C 
ENDROOT
BRANCH   3   7
HETATM    7  C9  UNL     1     -34.636  15.866  -5.893  1.00 20.00    -0.003 C 
HETATM    8  C7  UNL     1     -35.694  15.415  -6.906  1.00 20.00     0.011 C 
HETATM    9  C8  UNL     1     -34.119  17.260  -6.262  1.00 20.00     0.011 C 
ENDBRANCH   3   7
BRANCH   3  10
HETATM   10  S10 UNL     1     -36.456  17.066  -4.276  1.00 20.00    -0.171 SA
HETATM   11  H28 UNL     1     -35.670  18.076  -3.863  1.00 20.00     0.102 HD
ENDBRANCH   3  10
TORSDOF 2
ENDMDL
MODEL 2
REMARK VINA RESULT:      -3.9      1.450      3.440
REMARK  2 active torsions:
REMARK  status: ('A' for Active; 'I' for Inactive)
REMARK    1  A    between atoms: C3_3  and  C9_9 
REMARK    2  A    between atoms: C3_3  and  S10_10 
ROOT
HETATM    1  C1  UNL     1     -34.708  16.265  -4.669  1.00 20.00     0.010 A 
HETATM    2  C2  UNL     1     -35.119  15.060  -3.837  1.00 20.00    -0.025 A 
HETATM    3  C3  UNL     1     -35.115  16.477  -3.214  1.00 20.00     0.019 A 
HETATM    4  C4  UNL     1     -33.320  16.475  -5.171  1.00 20.00     0.012 C 
HETATM    5  C5  UNL     1     -36.427  14.393  -4.218  1.00 20.00     0.017 C 
HETATM    6  C6  UNL     1     -34.091  14.044  -3.391  1.00 20.00     0.017 C 
ENDROOT
BRANCH   3   7
HETATM    7  C9  UNL     1     -34.081  16.861  -2.180  1.00 20.00    -0.003 C 
HETATM    8  C7  UNL     1     -33.655  18.325  -2.341  1.00 20.00     0.011 C 
HETATM    9  C8  UNL     1     -34.604  16.622  -0.760  1.00 20.00     0.011 C 
ENDBRANCH   3   7
BRANCH   3  10
HETATM   10  S10 UNL     1     -36.655  17.311  -2.915  1.00 20.00    -0.171 SA
HETATM   11  H28 UNL     1     -36.518  18.281  -3.835  1.00 20.00     0.102 HD
ENDBRANCH   3  10
TORSDOF 2
ENDMDL
MODEL 3
REMARK VINA RESULT:      -3.8      1.212      3.363
REMARK  2 active torsions:
REMARK  status: ('A' for Active; 'I' for Inactive)
REMARK    1  A    between atoms: C3_3  and  C9_9 
REMARK    2  A    between atoms: C3_3  and  S10_10 
ROOT
HETATM    1  C1  UNL     1     -33.337  15.482  -4.598  1.00 20.00     0.010 A 
HETATM    2  C2  UNL     1     -34.395  14.775  -5.433  1.00 20.00    -0.025 A 
HETATM    3  C3  UNL     1     -34.805  15.845  -4.391  1.00 20.00     0.019 A 
HETATM    4  C4  UNL     1     -32.512  14.787  -3.569  1.00 20.00     0.012 C 
HETATM    5  C5  UNL     1     -34.412  15.101  -6.914  1.00 20.00     0.017 C 
HETATM    6  C6  UNL     1     -34.729  13.321  -5.184  1.00 20.00     0.017 C 
ENDROOT
BRANCH   3   7
HETATM    7  C9  UNL     1     -35.518  15.447  -3.119  1.00 20.00    -0.003 C 
HETATM    8  C7  UNL     1     -35.080  16.326  -1.942  1.00 20.00     0.011 C 
HETATM    9  C8  UNL     1     -37.039  15.523  -3.291  1.00 20.00     0.011 C 
ENDBRANCH   3   7
BRANCH   3  10
HETATM   10  S10 UNL     1     -35.329  17.451  -4.941  1.00 20.00    -0.171 SA
HETATM   11  H28 UNL     1     -35.575  17.133  -6.223  1.00 20.00     0.102 HD
ENDBRANCH   3  10
TORSDOF 2
ENDMDL
MODEL 4
REMARK VINA RESULT:      -3.8      1.858      2.787
REMARK  2 active torsions:
REMARK  status: ('A' for Active; 'I' for Inactive)
REMARK    1  A    between atoms: C3_3  and  C9_9 
REMARK    2  A    between atoms: C3_3  and  S10_10 
ROOT
HETATM    1  C1  UNL     1     -35.946  16.278  -3.886  1.00 20.00     0.010 A 
HETATM    2  C2  UNL     1     -34.797  16.708  -2.985  1.00 20.00    -0.025 A 
HETATM    3  C3  UNL     1     -34.565  15.669  -4.109  1.00 20.00     0.019 A 
HETATM    4  C4  UNL     1     -37.117  15.496  -3.397  1.00 20.00     0.012 C 
HETATM    5  C5  UNL     1     -34.312  18.136  -3.148  1.00 20.00     0.017 C 
HETATM    6  C6  UNL     1     -34.746  16.269  -1.538  1.00 20.00     0.017 C 
ENDROOT
BRANCH   3   7
HETATM    7  C9  UNL     1     -34.307  14.217  -3.775  1.00 20.00    -0.003 C 
HETATM    8  C7  UNL     1     -34.813  13.295  -4.890  1.00 20.00     0.011 C 
HETATM    9  C8  UNL     1     -32.817  13.964  -3.522  1.00 20.00     0.011 C 
ENDBRANCH   3   7
BRANCH   3  10
HETATM   10  S10 UNL     1     -33.695  16.148  -5.583  1.00 20.00    -0.171 SA
HETATM   11  H28 UNL     1     -32.835  17.009  -5.013  1.00 20.00     0.102 HD
ENDBRANCH   3  10
TORSDOF 2
ENDMDL
MODEL 5
REMARK VINA RESULT:      -3.8      1.552      3.189
REMARK  2 active torsions:
REMARK  status: ('A' for Active; 'I' for Inactive)
REMARK    1  A    between atoms: C3_3  and  C9_9 
REMARK    2  A    between atoms: C3_3  and  S10_10 
ROOT
HETATM    1  C1  UNL     1     -34.974  14.576  -5.547  1.00 20.00     0.010 A 
HETATM    2  C2  UNL     1     -35.997  15.439  -4.824  1.00 20.00    -0.025 A 
HETATM    3  C3  UNL     1     -34.482  15.662  -4.595  1.00 20.00     0.019 A 
HETATM    4  C4  UNL     1     -34.805  13.118  -5.284  1.00 20.00     0.012 C 
HETATM    5  C5  UNL     1     -36.793  16.402  -5.683  1.00 20.00     0.017 C 
HETATM    6  C6  UNL     1     -36.844  14.862  -3.712  1.00 20.00     0.017 C 
ENDROOT
BRANCH   3   7
HETATM    7  C9  UNL     1     -33.839  15.291  -3.278  1.00 20.00    -0.003 C 
HETATM    8  C7  UNL     1     -32.414  14.765  -3.488  1.00 20.00     0.011 C 
HETATM    9  C8  UNL     1     -33.820  16.483  -2.316  1.00 20.00     0.011 C 
ENDBRANCH   3   7
BRANCH   3  10
HETATM   10  S10 UNL     1     -33.682  17.075  -5.318  1.00 20.00    -0.171 SA
HETATM   11  H28 UNL     1     -32.465  16.528  -5.485  1.00 20.00     0.102 HD
ENDBRANCH   3  10
TORSDOF 2
ENDMDL
MODEL 6
REMARK VINA RESULT:      -3.7      1.461      2.100
REMARK  2 active torsions:
REMARK  status: ('A' for Active; 'I' for Inactive)
REMARK    1  A    between atoms: C3_3  and  C9_9 
REMARK    2  A    between atoms: C3_3  and  S10_10 
ROOT
HETATM    1  C1  UNL     1     -35.220  15.541  -3.758  1.00 20.00     0.010 A 
HETATM    2  C2  UNL     1     -34.105  14.625  -4.239  1.00 20.00    -0.025 A 
HETATM    3  C3  UNL     1     -34.687  15.710  -5.178  1.00 20.00     0.019 A 
HETATM    4  C4  UNL     1     -36.597  15.059  -3.451  1.00 20.00     0.012 C 
HETATM    5  C5  UNL     1     -32.747  14.819  -3.591  1.00 20.00     0.017 C 
HETATM    6  C6  UNL     1     -34.376  13.164  -4.524  1.00 20.00     0.017 C 
ENDROOT
BRANCH   3   7
HETATM    7  C9  UNL     1     -35.540  15.324  -6.365  1.00 20.00    -0.003 C 
HETATM    8  C7  UNL     1     -36.542  16.432  -6.709  1.00 20.00     0.011 C 
HETATM    9  C8  UNL     1     -34.673  15.004  -7.588  1.00 20.00     0.011 C 
ENDBRANCH   3   7
BRANCH   3  10
HETATM   10  S10 UNL     1     -33.742  17.175  -5.521  1.00 20.00    -0.171 SA
HETATM   11  H28 UNL     1     -34.443  18.027  -4.754  1.00 20.00     0.102 HD
ENDBRANCH   3  10
TORSDOF 2
ENDMDL
MODEL 7
REMARK VINA RESULT:      -3.7      1.572      3.668
REMARK  2 active torsions:
REMARK  status: ('A' for Active; 'I' for Inactive)
REMARK    1  A    between atoms: C3_3  and  C9_9 
REMARK    2  A    between atoms: C3_3  and  S10_10 
ROOT
HETATM    1  C1  UNL     1     -36.241  15.754  -5.256  1.00 20.00     0.010 A 
HETATM    2  C2  UNL     1     -35.056  15.575  -6.194  1.00 20.00    -0.025 A 
HETATM    3  C3  UNL     1     -34.976  15.083  -4.728  1.00 20.00     0.019 A 
HETATM    4  C4  UNL     1     -36.718  17.087  -4.789  1.00 20.00     0.012 C 
HETATM    5  C5  UNL     1     -35.238  14.583  -7.326  1.00 20.00     0.017 C 
HETATM    6  C6  UNL     1     -34.231  16.765  -6.629  1.00 20.00     0.017 C 
ENDROOT
BRANCH   3   7
HETATM    7  C9  UNL     1     -34.097  15.793  -3.724  1.00 20.00    -0.003 C 
HETATM    8  C7  UNL     1     -34.740  15.799  -2.332  1.00 20.00     0.011 C 
HETATM    9  C8  UNL     1     -32.707  15.152  -3.655  1.00 20.00     0.011 C 
ENDBRANCH   3   7
BRANCH   3  10
HETATM   10  S10 UNL     1     -35.066  13.343  -4.377  1.00 20.00    -0.171 SA
HETATM   11  H28 UNL     1     -35.794  13.423  -3.250  1.00 20.00     0.102 HD
ENDBRANCH   3  10
TORSDOF 2
ENDMDL
MODEL 8
REMARK VINA RESULT:      -3.7      1.781      2.976
REMARK  2 active torsions:
REMARK  status: ('A' for Active; 'I' for Inactive)
REMARK    1  A    between atoms: C3_3  and  C9_9 
REMARK    2  A    between atoms: C3_3  and  S10_10 
ROOT
HETATM    1  C1  UNL     1     -33.505  16.451  -4.994  1.00 20.00     0.010 A 
HETATM    2  C2  UNL     1     -33.553  15.662  -3.693  1.00 20.00    -0.025 A 
HETATM    3  C3  UNL     1     -34.705  15.549  -4.721  1.00 20.00     0.019 A 
HETATM    4  C4  UNL     1     -33.593  17.938  -5.049  1.00 20.00     0.012 C 
HETATM    5  C5  UNL     1     -32.541  14.541  -3.548  1.00 20.00     0.017 C 
HETATM    6  C6  UNL     1     -33.793  16.363  -2.375  1.00 20.00     0.017 C 
ENDROOT
BRANCH   3   7
HETATM    7  C9  UNL     1     -36.061  16.149  -4.428  1.00 20.00    -0.003 C 
HETATM    8  C7  UNL     1     -36.746  16.622  -5.715  1.00 20.00     0.011 C 
HETATM    9  C8  UNL     1     -36.961  15.150  -3.693  1.00 20.00     0.011 C 
ENDBRANCH   3   7
BRANCH   3  10
HETATM   10  S10 UNL     1     -34.859  14.081  -5.711  1.00 20.00    -0.171 SA
HETATM   11  H28 UNL     1     -35.765  13.443  -4.950  1.00 20.00     0.102 HD
ENDBRANCH   3  10
TORSDOF 2
ENDMDL
MODEL 9
REMARK VINA RESULT:      -3.7      1.151      3.698
REMARK  2 active torsions:
REMARK  status: ('A' for Active; 'I' for Inactive)
REMARK    1  A    between atoms: C3_3  and  C9_9 
REMARK    2  A    between atoms: C3_3  and  S10_10 
ROOT
HETATM    1  C1  UNL     1     -35.298  16.875  -5.570  1.00 20.00     0.010 A 
HETATM    2  C2  UNL     1     -35.483  15.525  -6.248  1.00 20.00    -0.025 A 
HETATM    3  C3  UNL     1     -35.275  15.611  -4.716  1.00 20.00     0.019 A 
HETATM    4  C4  UNL     1     -34.102  17.739  -5.787  1.00 20.00     0.012 C 
HETATM    5  C5  UNL     1     -36.858  15.243  -6.821  1.00 20.00     0.017 C 
HETATM    6  C6  UNL     1     -34.391  14.943  -7.119  1.00 20.00     0.017 C 
ENDROOT
BRANCH   3   7
HETATM    7  C9  UNL     1     -33.986  15.137  -4.085  1.00 20.00    -0.003 C 
HETATM    8  C7  UNL     1     -33.654  15.950  -2.828  1.00 20.00     0.011 C 
HETATM    9  C8  UNL     1     -34.054  13.645  -3.741  1.00 20.00     0.011 C 
ENDBRANCH   3   7
BRANCH   3  10
HETATM   10  S10 UNL     1     -36.653  15.344  -3.626  1.00 20.00    -0.171 SA
HETATM   11  H28 UNL     1     -35.971  14.805  -2.600  1.00 20.00     0.102 HD
ENDBRANCH   3  10
TORSDOF 2
ENDMDL
