MODEL 1
REMARK VINA RESULT:      -4.7      0.000      0.000
REMARK  2 active torsions:
REMARK  status: ('A' for Active; 'I' for Inactive)
REMARK    1  A    between atoms: C1_1  and  C3_3 
REMARK    2  A    between atoms: C3_3  and  C5_5 
ROOT
HETATM    1  C1  UNL     1     -34.803   4.578   4.979  1.00 20.00     0.212 C 
HETATM    2  C2  UNL     1     -34.376   5.082   6.141  1.00 20.00     0.228 C 
HETATM    3  F7  UNL     1     -35.077   3.264   4.844  1.00 20.00    -0.198 F 
HETATM    4  F8  UNL     1     -34.209   4.281   7.216  1.00 20.00    -0.189 F 
HETATM    5 CL9  UNL     1     -34.027   6.762   6.308  1.00 20.00    -0.048 Cl
ENDROOT
BRANCH   1   6
HETATM    6  C3  UNL     1     -35.011   5.391   3.751  1.00 20.00     0.191 C 
HETATM    7  O6  UNL     1     -36.073   5.971   3.538  1.00 20.00    -0.290 OA
BRANCH   6   8
HETATM    8  C5  UNL     1     -33.838   5.457   2.789  1.00 20.00     0.082 C 
HETATM    9  C4  UNL     1     -32.869   6.578   3.127  1.00 20.00     0.013 C 
ENDBRANCH   6   8
ENDBRANCH   1   6
TORSDOF 2
ENDMDL
MODEL 2
REMARK VINA RESULT:      -4.6      2.009      2.317
REMARK  2 active torsions:
REMARK  status: ('A' for Active; 'I' for Inactive)
REMARK    1  A    between atoms: C1_1  and  C3_3 
REMARK    2  A    between atoms: C3_3  and  C5_5 
ROOT
HETATM    1  C1  UNL     1     -34.019   6.102   5.055  1.00 20.00     0.212 C 
HETATM    2  C2  UNL     1     -34.688   5.179   5.752  1.00 20.00     0.228 C 
HETATM    3  F7  UNL     1     -33.680   7.286   5.605  1.00 20.00    -0.198 F 
HETATM    4  F8  UNL     1     -35.043   5.413   7.034  1.00 20.00    -0.189 F 
HETATM    5 CL9  UNL     1     -35.118   3.667   5.045  1.00 20.00    -0.048 Cl
ENDROOT
BRANCH   1   6
HETATM    6  C3  UNL     1     -33.593   5.923   3.640  1.00 20.00     0.191 C 
HETATM    7  O6  UNL     1     -34.346   5.435   2.801  1.00 20.00    -0.290 OA
BRANCH   6   8
HETATM    8  C5  UNL     1     -32.183   6.377   3.307  1.00 20.00     0.082 C 
HETATM    9  C4  UNL     1     -32.158   7.701   2.562  1.00 20.00     0.013 C 
ENDBRANCH   6   8
ENDBRANCH   1   6
TORSDOF 2
ENDMDL
MODEL 3
REMARK VINA RESULT:      -4.4      1.143      1.261
REMARK  2 active torsions:
REMARK  status: ('A' for Active; 'I' for Inactive)
REMARK    1  A    between atoms: C1_1  and  C3_3 
REMARK    2  A    between atoms: C3_3  and  C5_5 
ROOT
HETATM    1  C1  UNL     1     -34.502   5.263   4.632  1.00 20.00     0.212 C 
HETATM    2  C2  UNL     1     -34.570   5.392   5.960  1.00 20.00     0.228 C 
HETATM    3  F7  UNL     1     -34.981   4.166   4.009  1.00 20.00    -0.198 F 
HETATM    4  F8  UNL     1     -35.126   4.420   6.716  1.00 20.00    -0.189 F 
HETATM    5 CL9  UNL     1     -33.958   6.796   6.751  1.00 20.00    -0.048 Cl
ENDROOT
BRANCH   1   6
HETATM    6  C3  UNL     1     -33.907   6.286   3.731  1.00 20.00     0.191 C 
HETATM    7  O6  UNL     1     -34.555   7.255   3.344  1.00 20.00    -0.290 OA
BRANCH   6   8
HETATM    8  C5  UNL     1     -32.462   6.056   3.325  1.00 20.00     0.082 C 
HETATM    9  C4  UNL     1     -31.655   7.342   3.284  1.00 20.00     0.013 C 
ENDBRANCH   6   8
ENDBRANCH   1   6
TORSDOF 2
ENDMDL
MODEL 4
REMARK VINA RESULT:      -4.4      2.219      2.795
REMARK  2 active torsions:
REMARK  status: ('A' for Active; 'I' for Inactive)
REMARK    1  A    between atoms: C1_1  and  C3_3 
REMARK    2  A    between atoms: C3_3  and  C5_5 
ROOT
HETATM    1  C1  UNL     1     -33.975   5.728   3.313  1.00 20.00     0.212 C 
HETATM    2  C2  UNL     1     -34.651   5.624   4.460  1.00 20.00     0.228 C 
HETATM    3  F7  UNL     1     -34.452   5.197   2.168  1.00 20.00    -0.198 F 
HETATM    4  F8  UNL     1     -35.839   4.981   4.501  1.00 20.00    -0.189 F 
HETATM    5 CL9  UNL     1     -34.038   6.305   5.921  1.00 20.00    -0.048 Cl
ENDROOT
BRANCH   1   6
HETATM    6  C3  UNL     1     -32.663   6.418   3.185  1.00 20.00     0.191 C 
HETATM    7  O6  UNL     1     -31.604   5.815   3.337  1.00 20.00    -0.290 OA
BRANCH   6   8
HETATM    8  C5  UNL     1     -32.720   7.900   2.858  1.00 20.00     0.082 C 
HETATM    9  C4  UNL     1     -31.915   8.255   1.620  1.00 20.00     0.013 C 
ENDBRANCH   6   8
ENDBRANCH   1   6
TORSDOF 2
ENDMDL
MODEL 5
REMARK VINA RESULT:      -4.3      2.560      3.400
REMARK  2 active torsions:
REMARK  status: ('A' for Active; 'I' for Inactive)
REMARK    1  A    between atoms: C1_1  and  C3_3 
REMARK    2  A    between atoms: C3_3  and  C5_5 
ROOT
HETATM    1  C1  UNL     1     -33.789   6.325   4.595  1.00 20.00     0.212 C 
HETATM    2  C2  UNL     1     -32.696   6.533   3.855  1.00 20.00     0.228 C 
HETATM    3  F7  UNL     1     -33.982   6.978   5.759  1.00 20.00    -0.198 F 
HETATM    4  F8  UNL     1     -31.752   7.410   4.259  1.00 20.00    -0.189 F 
HETATM    5 CL9  UNL     1     -32.455   5.697   2.367  1.00 20.00    -0.048 Cl
ENDROOT
BRANCH   1   6
HETATM    6  C3  UNL     1     -34.874   5.378   4.221  1.00 20.00     0.191 C 
HETATM    7  O6  UNL     1     -35.694   5.654   3.348  1.00 20.00    -0.290 OA
BRANCH   6   8
HETATM    8  C5  UNL     1     -34.900   4.063   4.979  1.00 20.00     0.082 C 
HETATM    9  C4  UNL     1     -35.149   4.252   6.466  1.00 20.00     0.013 C 
ENDBRANCH   6   8
ENDBRANCH   1   6
TORSDOF 2
ENDMDL
MODEL 6
REMARK VINA RESULT:      -4.3      2.201      3.005
REMARK  2 active torsions:
REMARK  status: ('A' for Active; 'I' for Inactive)
REMARK    1  A    between atoms: C1_1  and  C3_3 
REMARK    2  A    between atoms: C3_3  and  C5_5 
ROOT
HETATM    1  C1  UNL     1     -33.774   5.748   3.513  1.00 20.00     0.212 C 
HETATM    2  C2  UNL     1     -32.984   6.549   4.233  1.00 20.00     0.228 C 
HETATM    3  F7  UNL     1     -33.444   5.382   2.257  1.00 20.00    -0.198 F 
HETATM    4  F8  UNL     1     -31.826   7.014   3.716  1.00 20.00    -0.189 F 
HETATM    5 CL9  UNL     1     -33.411   7.013   5.837  1.00 20.00    -0.048 Cl
ENDROOT
BRANCH   1   6
HETATM    6  C3  UNL     1     -35.064   5.194   4.008  1.00 20.00     0.191 C 
HETATM    7  O6  UNL     1     -36.140   5.694   3.691  1.00 20.00    -0.290 OA
BRANCH   6   8
HETATM    8  C5  UNL     1     -34.962   3.985   4.921  1.00 20.00     0.082 C 
HETATM    9  C4  UNL     1     -35.162   4.341   6.384  1.00 20.00     0.013 C 
ENDBRANCH   6   8
ENDBRANCH   1   6
TORSDOF 2
ENDMDL
MODEL 7
REMARK VINA RESULT:      -4.3     12.634     13.089
REMARK  2 active torsions:
REMARK  status: ('A' for Active; 'I' for Inactive)
REMARK    1  A    between atoms: C1_1  and  C3_3 
REMARK    2  A    between atoms: C3_3  and  C5_5 
ROOT
HETATM    1  C1  UNL     1     -35.290  14.564  -3.676  1.00 20.00     0.212 C 
HETATM    2  C2  UNL     1     -34.263  15.117  -3.024  1.00 20.00     0.228 C 
HETATM    3  F7  UNL     1     -36.559  14.716  -3.243  1.00 20.00    -0.198 F 
HETATM    4  F8  UNL     1     -34.473  15.848  -1.908  1.00 20.00    -0.189 F 
HETATM    5 CL9  UNL     1     -32.644  14.920  -3.582  1.00 20.00    -0.048 Cl
ENDROOT
BRANCH   1   6
HETATM    6  C3  UNL     1     -35.143  13.745  -4.910  1.00 20.00     0.191 C 
HETATM    7  O6  UNL     1     -34.765  12.577  -4.863  1.00 20.00    -0.290 OA
BRANCH   6   8
HETATM    8  C5  UNL     1     -35.487  14.441  -6.215  1.00 20.00     0.082 C 
HETATM    9  C4  UNL     1     -34.305  15.192  -6.804  1.00 20.00     0.013 C 
ENDBRANCH   6   8
ENDBRANCH   1   6
TORSDOF 2
ENDMDL
MODEL 8
REMARK VINA RESULT:      -4.2      2.445      3.590
REMARK  2 active torsions:
REMARK  status: ('A' for Active; 'I' for Inactive)
REMARK    1  A    between atoms: C1_1  and  C3_3 
REMARK    2  A    between atoms: C3_3  and  C5_5 
ROOT
HETATM    1  C1  UNL     1     -34.638   5.734   3.943  1.00 20.00     0.212 C 
HETATM    2  C2  UNL     1     -33.794   5.621   2.914  1.00 20.00     0.228 C 
HETATM    3  F7  UNL     1     -35.962   5.527   3.789  1.00 20.00    -0.198 F 
HETATM    4  F8  UNL     1     -34.250   5.292   1.686  1.00 20.00    -0.189 F 
HETATM    5 CL9  UNL     1     -32.102   5.886   3.117  1.00 20.00    -0.048 Cl
ENDROOT
BRANCH   1   6
HETATM    6  C3  UNL     1     -34.216   6.092   5.324  1.00 20.00     0.191 C 
HETATM    7  O6  UNL     1     -33.538   7.092   5.549  1.00 20.00    -0.290 OA
BRANCH   6   8
HETATM    8  C5  UNL     1     -34.673   5.151   6.425  1.00 20.00     0.082 C 
HETATM    9  C4  UNL     1     -34.793   3.713   5.949  1.00 20.00     0.013 C 
ENDBRANCH   6   8
ENDBRANCH   1   6
TORSDOF 2
ENDMDL
MODEL 9
REMARK VINA RESULT:      -4.2     12.666     13.093
REMARK  2 active torsions:
REMARK  status: ('A' for Active; 'I' for Inactive)
REMARK    1  A    between atoms: C1_1  and  C3_3 
REMARK    2  A    between atoms: C3_3  and  C5_5 
ROOT
HETATM    1  C1  UNL     1     -33.850  14.513  -3.748  1.00 20.00     0.212 C 
HETATM    2  C2  UNL     1     -34.451  15.367  -2.915  1.00 20.00     0.228 C 
HETATM    3  F7  UNL     1     -32.514  14.327  -3.717  1.00 20.00    -0.198 F 
HETATM    4  F8  UNL     1     -33.729  16.069  -2.014  1.00 20.00    -0.189 F 
HETATM    5 CL9  UNL     1     -36.159  15.601  -2.958  1.00 20.00    -0.048 Cl
ENDROOT
BRANCH   1   6
HETATM    6  C3  UNL     1     -34.572  13.704  -4.767  1.00 20.00     0.191 C 
HETATM    7  O6  UNL     1     -34.852  12.525  -4.568  1.00 20.00    -0.290 OA
BRANCH   6   8
HETATM    8  C5  UNL     1     -34.934  14.425  -6.054  1.00 20.00     0.082 C 
HETATM    9  C4  UNL     1     -33.969  15.551  -6.383  1.00 20.00     0.013 C 
ENDBRANCH   6   8
ENDBRANCH   1   6
TORSDOF 2
ENDMDL
