MODEL 1
REMARK VINA RESULT:      -3.9      0.000      0.000
REMARK  0 active torsions:
REMARK  status: ('A' for Active; 'I' for Inactive)
ROOT
HETATM    1  C1  UNL     1     -34.391  13.689  -4.820  1.00 20.00     0.154 C 
HETATM    2  C2  UNL     1     -33.697  14.115  -3.546  1.00 20.00     0.081 C 
HETATM    3  C3  UNL     1     -34.375  15.329  -2.921  1.00 20.00     0.018 C 
HETATM    4  C4  UNL     1     -35.003  16.313  -3.904  1.00 20.00     0.076 C 
HETATM    5  C5  UNL     1     -34.353  14.644  -5.999  1.00 20.00     0.212 C 
HETATM    6  O6  UNL     1     -34.899  12.569  -4.902  1.00 20.00    -0.295 OA
HETATM    7  S7  UNL     1     -34.117  16.368  -5.486  1.00 20.00    -0.141 SA
HETATM    8 CL8  UNL     1     -35.865  14.477  -6.923  1.00 20.00    -0.105 Cl
ENDROOT
TORSDOF 0
ENDMDL
MODEL 2
REMARK VINA RESULT:      -3.8     13.036     13.691
REMARK  0 active torsions:
REMARK  status: ('A' for Active; 'I' for Inactive)
ROOT
HETATM    1  C1  UNL     1     -33.880   6.401   5.825  1.00 20.00     0.154 C 
HETATM    2  C2  UNL     1     -34.952   5.613   6.542  1.00 20.00     0.081 C 
HETATM    3  C3  UNL     1     -34.977   4.160   6.081  1.00 20.00     0.018 C 
HETATM    4  C4  UNL     1     -34.595   3.923   4.622  1.00 20.00     0.076 C 
HETATM    5  C5  UNL     1     -34.033   6.606   4.329  1.00 20.00     0.212 C 
HETATM    6  O6  UNL     1     -32.960   6.916   6.464  1.00 20.00    -0.295 OA
HETATM    7  S7  UNL     1     -35.050   5.318   3.555  1.00 20.00    -0.141 SA
HETATM    8 CL8  UNL     1     -32.417   6.645   3.585  1.00 20.00    -0.105 Cl
ENDROOT
TORSDOF 0
ENDMDL
MODEL 3
REMARK VINA RESULT:      -3.7      2.261      2.844
REMARK  0 active torsions:
REMARK  status: ('A' for Active; 'I' for Inactive)
ROOT
HETATM    1  C1  UNL     1     -34.794  13.988  -4.058  1.00 20.00     0.154 C 
HETATM    2  C2  UNL     1     -34.971  13.755  -5.542  1.00 20.00     0.081 C 
HETATM    3  C3  UNL     1     -34.440  14.928  -6.357  1.00 20.00     0.018 C 
HETATM    4  C4  UNL     1     -34.569  16.300  -5.702  1.00 20.00     0.076 C 
HETATM    5  C5  UNL     1     -35.575  15.122  -3.422  1.00 20.00     0.212 C 
HETATM    6  O6  UNL     1     -34.092  13.223  -3.393  1.00 20.00    -0.295 OA
HETATM    7  S7  UNL     1     -36.019  16.413  -4.617  1.00 20.00    -0.141 SA
HETATM    8 CL8  UNL     1     -34.609  15.814  -2.098  1.00 20.00    -0.105 Cl
ENDROOT
TORSDOF 0
ENDMDL
MODEL 4
REMARK VINA RESULT:      -3.7      1.996      2.288
REMARK  0 active torsions:
REMARK  status: ('A' for Active; 'I' for Inactive)
ROOT
HETATM    1  C1  UNL     1     -35.931  14.309  -4.345  1.00 20.00     0.154 C 
HETATM    2  C2  UNL     1     -34.855  13.263  -4.527  1.00 20.00     0.081 C 
HETATM    3  C3  UNL     1     -33.575  13.646  -3.793  1.00 20.00     0.018 C 
HETATM    4  C4  UNL     1     -33.286  15.142  -3.708  1.00 20.00     0.076 C 
HETATM    5  C5  UNL     1     -35.690  15.683  -4.942  1.00 20.00     0.212 C 
HETATM    6  O6  UNL     1     -36.993  14.013  -3.793  1.00 20.00    -0.295 OA
HETATM    7  S7  UNL     1     -33.925  16.051  -5.142  1.00 20.00    -0.141 SA
HETATM    8 CL8  UNL     1     -36.461  16.904  -3.904  1.00 20.00    -0.105 Cl
ENDROOT
TORSDOF 0
ENDMDL
MODEL 5
REMARK VINA RESULT:      -3.7      2.657      3.331
REMARK  0 active torsions:
REMARK  status: ('A' for Active; 'I' for Inactive)
ROOT
HETATM    1  C1  UNL     1     -35.929  15.050  -3.679  1.00 20.00     0.154 C 
HETATM    2  C2  UNL     1     -35.698  14.214  -4.917  1.00 20.00     0.081 C 
HETATM    3  C3  UNL     1     -34.535  13.246  -4.727  1.00 20.00     0.018 C 
HETATM    4  C4  UNL     1     -33.408  13.738  -3.824  1.00 20.00     0.076 C 
HETATM    5  C5  UNL     1     -34.842  16.027  -3.272  1.00 20.00     0.212 C 
HETATM    6  O6  UNL     1     -37.003  14.980  -3.078  1.00 20.00    -0.295 OA
HETATM    7  S7  UNL     1     -33.207  15.540  -3.890  1.00 20.00    -0.141 SA
HETATM    8 CL8  UNL     1     -34.817  16.153  -1.497  1.00 20.00    -0.105 Cl
ENDROOT
TORSDOF 0
ENDMDL
MODEL 6
REMARK VINA RESULT:      -3.6      2.251      2.704
REMARK  0 active torsions:
REMARK  status: ('A' for Active; 'I' for Inactive)
ROOT
HETATM    1  C1  UNL     1     -33.711  15.986  -4.579  1.00 20.00     0.154 C 
HETATM    2  C2  UNL     1     -33.195  15.083  -3.482  1.00 20.00     0.081 C 
HETATM    3  C3  UNL     1     -33.444  13.614  -3.805  1.00 20.00     0.018 C 
HETATM    4  C4  UNL     1     -34.707  13.321  -4.609  1.00 20.00     0.076 C 
HETATM    5  C5  UNL     1     -35.208  16.023  -4.819  1.00 20.00     0.212 C 
HETATM    6  O6  UNL     1     -32.932  16.715  -5.196  1.00 20.00    -0.295 OA
HETATM    7  S7  UNL     1     -36.036  14.507  -4.264  1.00 20.00    -0.141 SA
HETATM    8 CL8  UNL     1     -35.507  16.289  -6.552  1.00 20.00    -0.105 Cl
ENDROOT
TORSDOF 0
ENDMDL
MODEL 7
REMARK VINA RESULT:      -3.6      2.044      2.726
REMARK  0 active torsions:
REMARK  status: ('A' for Active; 'I' for Inactive)
ROOT
HETATM    1  C1  UNL     1     -34.882  13.796  -4.766  1.00 20.00     0.154 C 
HETATM    2  C2  UNL     1     -35.789  14.602  -5.667  1.00 20.00     0.081 C 
HETATM    3  C3  UNL     1     -34.999  15.607  -6.498  1.00 20.00     0.018 C 
HETATM    4  C4  UNL     1     -33.754  16.183  -5.829  1.00 20.00     0.076 C 
HETATM    5  C5  UNL     1     -34.151  14.532  -3.658  1.00 20.00     0.212 C 
HETATM    6  O6  UNL     1     -34.811  12.572  -4.895  1.00 20.00    -0.295 OA
HETATM    7  S7  UNL     1     -33.928  16.294  -4.027  1.00 20.00    -0.141 SA
HETATM    8 CL8  UNL     1     -32.573  13.753  -3.394  1.00 20.00    -0.105 Cl
ENDROOT
TORSDOF 0
ENDMDL
MODEL 8
REMARK VINA RESULT:      -3.5      3.058      3.612
REMARK  0 active torsions:
REMARK  status: ('A' for Active; 'I' for Inactive)
ROOT
HETATM    1  C1  UNL     1     -33.541  16.245  -5.096  1.00 20.00     0.154 C 
HETATM    2  C2  UNL     1     -33.998  15.542  -6.354  1.00 20.00     0.081 C 
HETATM    3  C3  UNL     1     -35.342  14.853  -6.150  1.00 20.00     0.018 C 
HETATM    4  C4  UNL     1     -35.601  14.314  -4.745  1.00 20.00     0.076 C 
HETATM    5  C5  UNL     1     -33.213  15.389  -3.886  1.00 20.00     0.212 C 
HETATM    6  O6  UNL     1     -33.374  17.466  -5.096  1.00 20.00    -0.295 OA
HETATM    7  S7  UNL     1     -34.075  13.793  -3.914  1.00 20.00    -0.141 SA
HETATM    8 CL8  UNL     1     -33.634  16.291  -2.412  1.00 20.00    -0.105 Cl
ENDROOT
TORSDOF 0
ENDMDL
MODEL 9
REMARK VINA RESULT:      -3.5      2.225      2.787
REMARK  0 active torsions:
REMARK  status: ('A' for Active; 'I' for Inactive)
ROOT
HETATM    1  C1  UNL     1     -33.469  14.957  -3.818  1.00 20.00     0.154 C 
HETATM    2  C2  UNL     1     -34.209  13.652  -3.634  1.00 20.00     0.081 C 
HETATM    3  C3  UNL     1     -34.808  13.161  -4.947  1.00 20.00     0.018 C 
HETATM    4  C4  UNL     1     -35.257  14.251  -5.916  1.00 20.00     0.076 C 
HETATM    5  C5  UNL     1     -34.278  16.180  -4.207  1.00 20.00     0.212 C 
HETATM    6  O6  UNL     1     -32.261  15.021  -3.580  1.00 20.00    -0.295 OA
HETATM    7  S7  UNL     1     -35.821  15.747  -5.058  1.00 20.00    -0.141 SA
HETATM    8 CL8  UNL     1     -33.277  17.226  -5.241  1.00 20.00    -0.105 Cl
ENDROOT
TORSDOF 0
ENDMDL
