MODEL 1
REMARK VINA RESULT:      -3.8      0.000      0.000
REMARK  1 active torsions:
REMARK  status: ('A' for Active; 'I' for Inactive)
REMARK    1  A    between atoms: C2_2  and  C4_4 
ROOT
HETATM    1  C1  UNL     1     -34.728   4.518   4.566  1.00 20.00     0.171 A 
HETATM    2  C2  UNL     1     -34.055   5.861   4.374  1.00 20.00     0.175 A 
HETATM    3  C3  UNL     1     -35.207   4.014   5.882  1.00 20.00     0.044 C 
HETATM    4  O5  UNL     1     -35.446   5.656   4.076  1.00 20.00    -0.352 OA
HETATM    5 CL6  UNL     1     -33.652   6.846   5.777  1.00 20.00    -0.084 Cl
ENDROOT
BRANCH   2   6
HETATM    6  C4  UNL     1     -33.215   6.092   3.160  1.00 20.00     0.172 C 
HETATM    7 CL7  UNL     1     -31.869   7.208   3.514  1.00 20.00    -0.126 Cl
ENDBRANCH   2   6
TORSDOF 1
ENDMDL
MODEL 2
REMARK VINA RESULT:      -3.5      1.986      3.405
REMARK  1 active torsions:
REMARK  status: ('A' for Active; 'I' for Inactive)
REMARK    1  A    between atoms: C2_2  and  C4_4 
ROOT
HETATM    1  C1  UNL     1     -32.814   6.785   2.961  1.00 20.00     0.171 A 
HETATM    2  C2  UNL     1     -33.602   6.102   4.059  1.00 20.00     0.175 A 
HETATM    3  C3  UNL     1     -31.837   7.881   3.205  1.00 20.00     0.044 C 
HETATM    4  O5  UNL     1     -32.418   5.516   3.495  1.00 20.00    -0.352 OA
HETATM    5 CL6  UNL     1     -33.513   6.710   5.709  1.00 20.00    -0.084 Cl
ENDROOT
BRANCH   2   6
HETATM    6  C4  UNL     1     -34.854   5.364   3.710  1.00 20.00     0.172 C 
HETATM    7 CL7  UNL     1     -35.237   4.133   4.942  1.00 20.00    -0.126 Cl
ENDBRANCH   2   6
TORSDOF 1
ENDMDL
MODEL 3
REMARK VINA RESULT:      -3.3      2.151      3.434
REMARK  1 active torsions:
REMARK  status: ('A' for Active; 'I' for Inactive)
REMARK    1  A    between atoms: C2_2  and  C4_4 
ROOT
HETATM    1  C1  UNL     1     -33.140   5.917   4.043  1.00 20.00     0.171 A 
HETATM    2  C2  UNL     1     -34.572   5.459   4.223  1.00 20.00     0.175 A 
HETATM    3  C3  UNL     1     -32.709   6.893   3.006  1.00 20.00     0.044 C 
HETATM    4  O5  UNL     1     -33.986   6.472   5.057  1.00 20.00    -0.352 OA
HETATM    5 CL6  UNL     1     -35.802   5.956   3.065  1.00 20.00    -0.084 Cl
ENDROOT
BRANCH   2   6
HETATM    6  C4  UNL     1     -34.845   4.179   4.946  1.00 20.00     0.172 C 
HETATM    7 CL7  UNL     1     -35.208   4.480   6.666  1.00 20.00    -0.126 Cl
ENDBRANCH   2   6
TORSDOF 1
ENDMDL
MODEL 4
REMARK VINA RESULT:      -3.1      9.825     10.092
REMARK  1 active torsions:
REMARK  status: ('A' for Active; 'I' for Inactive)
REMARK    1  A    between atoms: C2_2  and  C4_4 
ROOT
HETATM    1  C1  UNL     1     -41.462   5.962  -1.638  1.00 20.00     0.171 A 
HETATM    2  C2  UNL     1     -41.978   4.647  -1.093  1.00 20.00     0.175 A 
HETATM    3  C3  UNL     1     -41.150   7.143  -0.788  1.00 20.00     0.044 C 
HETATM    4  O5  UNL     1     -40.594   4.842  -1.429  1.00 20.00    -0.352 OA
HETATM    5 CL6  UNL     1     -42.399   4.510   0.611  1.00 20.00    -0.084 Cl
ENDROOT
BRANCH   2   6
HETATM    6  C4  UNL     1     -42.684   3.701  -2.010  1.00 20.00     0.172 C 
HETATM    7 CL7  UNL     1     -41.521   2.749  -2.969  1.00 20.00    -0.126 Cl
ENDBRANCH   2   6
TORSDOF 1
ENDMDL
MODEL 5
REMARK VINA RESULT:      -3.1     12.215     12.610
REMARK  1 active torsions:
REMARK  status: ('A' for Active; 'I' for Inactive)
REMARK    1  A    between atoms: C2_2  and  C4_4 
ROOT
HETATM    1  C1  UNL     1     -35.102  15.471  -2.682  1.00 20.00     0.171 A 
HETATM    2  C2  UNL     1     -34.264  14.730  -3.701  1.00 20.00     0.175 A 
HETATM    3  C3  UNL     1     -34.529  16.312  -1.595  1.00 20.00     0.044 C 
HETATM    4  O5  UNL     1     -34.888  15.990  -3.999  1.00 20.00    -0.352 OA
HETATM    5 CL6  UNL     1     -32.510  14.700  -3.538  1.00 20.00    -0.084 Cl
ENDROOT
BRANCH   2   6
HETATM    6  C4  UNL     1     -34.862  13.580  -4.444  1.00 20.00     0.172 C 
HETATM    7 CL7  UNL     1     -35.127  13.992  -6.159  1.00 20.00    -0.126 Cl
ENDBRANCH   2   6
TORSDOF 1
ENDMDL
MODEL 6
REMARK VINA RESULT:      -3.1     12.421     12.993
REMARK  1 active torsions:
REMARK  status: ('A' for Active; 'I' for Inactive)
REMARK    1  A    between atoms: C2_2  and  C4_4 
ROOT
HETATM    1  C1  UNL     1     -34.628  15.584  -5.182  1.00 20.00     0.171 A 
HETATM    2  C2  UNL     1     -34.045  15.176  -3.846  1.00 20.00     0.175 A 
HETATM    3  C3  UNL     1     -34.655  14.697  -6.377  1.00 20.00     0.044 C 
HETATM    4  O5  UNL     1     -35.458  15.140  -4.102  1.00 20.00    -0.352 OA
HETATM    5 CL6  UNL     1     -33.197  13.640  -3.692  1.00 20.00    -0.084 Cl
ENDROOT
BRANCH   2   6
HETATM    6  C4  UNL     1     -33.645  16.234  -2.868  1.00 20.00     0.172 C 
HETATM    7 CL7  UNL     1     -34.683  16.193  -1.419  1.00 20.00    -0.126 Cl
ENDBRANCH   2   6
TORSDOF 1
ENDMDL
MODEL 7
REMARK VINA RESULT:      -3.1     12.660     13.306
REMARK  1 active torsions:
REMARK  status: ('A' for Active; 'I' for Inactive)
REMARK    1  A    between atoms: C2_2  and  C4_4 
ROOT
HETATM    1  C1  UNL     1     -34.357  16.115  -3.671  1.00 20.00     0.171 A 
HETATM    2  C2  UNL     1     -34.015  14.868  -4.458  1.00 20.00     0.175 A 
HETATM    3  C3  UNL     1     -33.848  16.393  -2.300  1.00 20.00     0.044 C 
HETATM    4  O5  UNL     1     -33.345  16.119  -4.685  1.00 20.00    -0.352 OA
HETATM    5 CL6  UNL     1     -33.100  13.573  -3.692  1.00 20.00    -0.084 Cl
ENDROOT
BRANCH   2   6
HETATM    6  C4  UNL     1     -34.897  14.453  -5.591  1.00 20.00     0.172 C 
HETATM    7 CL7  UNL     1     -34.250  15.024  -7.151  1.00 20.00    -0.126 Cl
ENDBRANCH   2   6
TORSDOF 1
ENDMDL
MODEL 8
REMARK VINA RESULT:      -3.1     12.082     12.601
REMARK  1 active torsions:
REMARK  status: ('A' for Active; 'I' for Inactive)
REMARK    1  A    between atoms: C2_2  and  C4_4 
ROOT
HETATM    1  C1  UNL     1     -33.679  14.491  -3.767  1.00 20.00     0.171 A 
HETATM    2  C2  UNL     1     -34.438  15.685  -3.227  1.00 20.00     0.175 A 
HETATM    3  C3  UNL     1     -34.334  13.313  -4.399  1.00 20.00     0.044 C 
HETATM    4  O5  UNL     1     -33.805  15.705  -4.517  1.00 20.00    -0.352 OA
HETATM    5 CL6  UNL     1     -36.198  15.654  -3.175  1.00 20.00    -0.084 Cl
ENDROOT
BRANCH   2   6
HETATM    6  C4  UNL     1     -33.778  16.580  -2.228  1.00 20.00     0.172 C 
HETATM    7 CL7  UNL     1     -34.661  16.572  -0.679  1.00 20.00    -0.126 Cl
ENDBRANCH   2   6
TORSDOF 1
ENDMDL
MODEL 9
REMARK VINA RESULT:      -3.0      2.329      2.692
REMARK  1 active torsions:
REMARK  status: ('A' for Active; 'I' for Inactive)
REMARK    1  A    between atoms: C2_2  and  C4_4 
ROOT
HETATM    1  C1  UNL     1     -33.995   6.717   5.370  1.00 20.00     0.171 A 
HETATM    2  C2  UNL     1     -34.581   5.398   4.912  1.00 20.00     0.175 A 
HETATM    3  C3  UNL     1     -33.597   7.001   6.775  1.00 20.00     0.044 C 
HETATM    4  O5  UNL     1     -33.195   5.723   4.721  1.00 20.00    -0.352 OA
HETATM    5 CL6  UNL     1     -34.979   4.159   6.098  1.00 20.00    -0.084 Cl
ENDROOT
BRANCH   2   6
HETATM    6  C4  UNL     1     -35.360   5.346   3.638  1.00 20.00     0.172 C 
HETATM    7 CL7  UNL     1     -34.279   5.157   2.232  1.00 20.00    -0.126 Cl
ENDBRANCH   2   6
TORSDOF 1
ENDMDL
