MODEL 1
REMARK VINA RESULT:      -4.4      0.000      0.000
REMARK  3 active torsions:
REMARK  status: ('A' for Active; 'I' for Inactive)
REMARK    1  A    between atoms: C1_1  and  C5_5 
REMARK    2  A    between atoms: C1_1  and  C6_6 
REMARK    3  A    between atoms: C4_4  and  C5_5 
ROOT
HETATM    1  C1  UNL     1     -33.143   6.304   3.610  1.00 20.00     0.137 C 
HETATM    2  O7  UNL     1     -33.648   5.718   2.652  1.00 20.00    -0.297 OA
ENDROOT
BRANCH   1   3
HETATM    3  C5  UNL     1     -33.735   6.240   5.007  1.00 20.00     0.083 C 
BRANCH   3   4
HETATM    4  C4  UNL     1     -34.909   5.320   5.121  1.00 20.00    -0.008 A 
HETATM    5  C2  UNL     1     -34.699   3.844   5.313  1.00 20.00     0.005 A 
HETATM    6  C3  UNL     1     -35.243   4.678   6.438  1.00 20.00     0.005 A 
ENDBRANCH   3   4
ENDBRANCH   1   3
BRANCH   1   7
HETATM    7  C6  UNL     1     -31.880   7.104   3.449  1.00 20.00     0.163 C 
HETATM    8 BR8  UNL     1     -32.164   8.300   1.957  1.00 20.00    -0.089 Br
ENDBRANCH   1   7
TORSDOF 3
ENDMDL
MODEL 2
REMARK VINA RESULT:      -4.3      2.379      4.122
REMARK  3 active torsions:
REMARK  status: ('A' for Active; 'I' for Inactive)
REMARK    1  A    between atoms: C1_1  and  C5_5 
REMARK    2  A    between atoms: C1_1  and  C6_6 
REMARK    3  A    between atoms: C4_4  and  C5_5 
ROOT
HETATM    1  C1  UNL     1     -34.430   5.438   3.537  1.00 20.00     0.137 C 
HETATM    2  O7  UNL     1     -34.408   5.093   2.355  1.00 20.00    -0.297 OA
ENDROOT
BRANCH   1   3
HETATM    3  C5  UNL     1     -33.493   6.494   4.095  1.00 20.00     0.083 C 
BRANCH   3   4
HETATM    4  C4  UNL     1     -32.250   6.682   3.284  1.00 20.00    -0.008 A 
HETATM    5  C2  UNL     1     -32.118   7.863   2.364  1.00 20.00     0.005 A 
HETATM    6  C3  UNL     1     -31.291   7.791   3.616  1.00 20.00     0.005 A 
ENDBRANCH   3   4
ENDBRANCH   1   3
BRANCH   1   7
HETATM    7  C6  UNL     1     -35.422   4.840   4.498  1.00 20.00     0.163 C 
HETATM    8 BR8  UNL     1     -34.653   4.999   6.264  1.00 20.00    -0.089 Br
ENDBRANCH   1   7
TORSDOF 3
ENDMDL
MODEL 3
REMARK VINA RESULT:      -4.1      2.804      4.187
REMARK  3 active torsions:
REMARK  status: ('A' for Active; 'I' for Inactive)
REMARK    1  A    between atoms: C1_1  and  C5_5 
REMARK    2  A    between atoms: C1_1  and  C6_6 
REMARK    3  A    between atoms: C4_4  and  C5_5 
ROOT
HETATM    1  C1  UNL     1     -33.962   6.408   5.992  1.00 20.00     0.137 C 
HETATM    2  O7  UNL     1     -33.358   7.169   6.749  1.00 20.00    -0.297 OA
ENDROOT
BRANCH   1   3
HETATM    3  C5  UNL     1     -33.941   6.573   4.483  1.00 20.00     0.083 C 
BRANCH   3   4
HETATM    4  C4  UNL     1     -32.563   6.661   3.907  1.00 20.00    -0.008 A 
HETATM    5  C2  UNL     1     -32.239   5.972   2.612  1.00 20.00     0.005 A 
HETATM    6  C3  UNL     1     -32.312   7.472   2.667  1.00 20.00     0.005 A 
ENDBRANCH   3   4
ENDBRANCH   1   3
BRANCH   1   7
HETATM    7  C6  UNL     1     -34.743   5.241   6.533  1.00 20.00     0.163 C 
HETATM    8 BR8  UNL     1     -35.064   4.048   5.046  1.00 20.00    -0.089 Br
ENDBRANCH   1   7
TORSDOF 3
ENDMDL
MODEL 4
REMARK VINA RESULT:      -4.1      1.649      2.129
REMARK  3 active torsions:
REMARK  status: ('A' for Active; 'I' for Inactive)
REMARK    1  A    between atoms: C1_1  and  C5_5 
REMARK    2  A    between atoms: C1_1  and  C6_6 
REMARK    3  A    between atoms: C4_4  and  C5_5 
ROOT
HETATM    1  C1  UNL     1     -31.957   7.370   2.996  1.00 20.00     0.137 C 
HETATM    2  O7  UNL     1     -31.326   7.878   3.923  1.00 20.00    -0.297 OA
ENDROOT
BRANCH   1   3
HETATM    3  C5  UNL     1     -32.805   6.124   3.173  1.00 20.00     0.083 C 
BRANCH   3   4
HETATM    4  C4  UNL     1     -34.032   6.344   3.999  1.00 20.00    -0.008 A 
HETATM    5  C2  UNL     1     -35.204   5.412   3.878  1.00 20.00     0.005 A 
HETATM    6  C3  UNL     1     -34.365   5.405   5.125  1.00 20.00     0.005 A 
ENDBRANCH   3   4
ENDBRANCH   1   3
BRANCH   1   7
HETATM    7  C6  UNL     1     -31.938   7.984   1.622  1.00 20.00     0.163 C 
HETATM    8 BR8  UNL     1     -32.594   9.793   1.810  1.00 20.00    -0.089 Br
ENDBRANCH   1   7
TORSDOF 3
ENDMDL
MODEL 5
REMARK VINA RESULT:      -4.0      2.560      4.680
REMARK  3 active torsions:
REMARK  status: ('A' for Active; 'I' for Inactive)
REMARK    1  A    between atoms: C1_1  and  C5_5 
REMARK    2  A    between atoms: C1_1  and  C6_6 
REMARK    3  A    between atoms: C4_4  and  C5_5 
ROOT
HETATM    1  C1  UNL     1     -33.349   6.267   3.531  1.00 20.00     0.137 C 
HETATM    2  O7  UNL     1     -33.909   5.484   2.763  1.00 20.00    -0.297 OA
ENDROOT
BRANCH   1   3
HETATM    3  C5  UNL     1     -32.263   7.223   3.071  1.00 20.00     0.083 C 
BRANCH   3   4
HETATM    4  C4  UNL     1     -32.640   8.025   1.866  1.00 20.00    -0.008 A 
HETATM    5  C2  UNL     1     -32.453   9.516   1.860  1.00 20.00     0.005 A 
HETATM    6  C3  UNL     1     -31.573   8.646   1.007  1.00 20.00     0.005 A 
ENDBRANCH   3   4
ENDBRANCH   1   3
BRANCH   1   7
HETATM    7  C6  UNL     1     -33.736   6.334   4.983  1.00 20.00     0.163 C 
HETATM    8 BR8  UNL     1     -34.876   4.811   5.328  1.00 20.00    -0.089 Br
ENDBRANCH   1   7
TORSDOF 3
ENDMDL
MODEL 6
REMARK VINA RESULT:      -3.9     11.758     12.448
REMARK  3 active torsions:
REMARK  status: ('A' for Active; 'I' for Inactive)
REMARK    1  A    between atoms: C1_1  and  C5_5 
REMARK    2  A    between atoms: C1_1  and  C6_6 
REMARK    3  A    between atoms: C4_4  and  C5_5 
ROOT
HETATM    1  C1  UNL     1     -35.002  13.763  -4.365  1.00 20.00     0.137 C 
HETATM    2  O7  UNL     1     -34.999  12.544  -4.535  1.00 20.00    -0.297 OA
ENDROOT
BRANCH   1   3
HETATM    3  C5  UNL     1     -34.272  14.426  -3.211  1.00 20.00     0.083 C 
BRANCH   3   4
HETATM    4  C4  UNL     1     -34.832  15.759  -2.831  1.00 20.00    -0.008 A 
HETATM    5  C2  UNL     1     -34.642  16.292  -1.439  1.00 20.00     0.005 A 
HETATM    6  C3  UNL     1     -33.915  16.925  -2.591  1.00 20.00     0.005 A 
ENDBRANCH   3   4
ENDBRANCH   1   3
BRANCH   1   7
HETATM    7  C6  UNL     1     -35.721  14.675  -5.321  1.00 20.00     0.163 C 
HETATM    8 BR8  UNL     1     -34.438  15.187  -6.675  1.00 20.00    -0.089 Br
ENDBRANCH   1   7
TORSDOF 3
ENDMDL
MODEL 7
REMARK VINA RESULT:      -3.9     12.046     12.405
REMARK  3 active torsions:
REMARK  status: ('A' for Active; 'I' for Inactive)
REMARK    1  A    between atoms: C1_1  and  C5_5 
REMARK    2  A    between atoms: C1_1  and  C6_6 
REMARK    3  A    between atoms: C4_4  and  C5_5 
ROOT
HETATM    1  C1  UNL     1     -36.479  14.538  -3.756  1.00 20.00     0.137 C 
HETATM    2  O7  UNL     1     -37.663  14.202  -3.812  1.00 20.00    -0.297 OA
ENDROOT
BRANCH   1   3
HETATM    3  C5  UNL     1     -36.030  15.831  -3.100  1.00 20.00     0.083 C 
BRANCH   3   4
HETATM    4  C4  UNL     1     -34.828  15.673  -2.223  1.00 20.00    -0.008 A 
HETATM    5  C2  UNL     1     -33.750  16.719  -2.221  1.00 20.00     0.005 A 
HETATM    6  C3  UNL     1     -34.645  16.562  -1.024  1.00 20.00     0.005 A 
ENDBRANCH   3   4
ENDBRANCH   1   3
BRANCH   1   7
HETATM    7  C6  UNL     1     -35.399  13.657  -4.323  1.00 20.00     0.163 C 
HETATM    8 BR8  UNL     1     -34.750  14.529  -5.922  1.00 20.00    -0.089 Br
ENDBRANCH   1   7
TORSDOF 3
ENDMDL
MODEL 8
REMARK VINA RESULT:      -3.8     12.225     12.855
REMARK  3 active torsions:
REMARK  status: ('A' for Active; 'I' for Inactive)
REMARK    1  A    between atoms: C1_1  and  C5_5 
REMARK    2  A    between atoms: C1_1  and  C6_6 
REMARK    3  A    between atoms: C4_4  and  C5_5 
ROOT
HETATM    1  C1  UNL     1     -33.570  15.871  -4.526  1.00 20.00     0.137 C 
HETATM    2  O7  UNL     1     -32.881  16.750  -5.047  1.00 20.00    -0.297 OA
ENDROOT
BRANCH   1   3
HETATM    3  C5  UNL     1     -33.614  15.655  -3.024  1.00 20.00     0.083 C 
BRANCH   3   4
HETATM    4  C4  UNL     1     -34.297  16.757  -2.278  1.00 20.00    -0.008 A 
HETATM    5  C2  UNL     1     -34.705  16.562  -0.845  1.00 20.00     0.005 A 
HETATM    6  C3  UNL     1     -33.573  17.491  -1.184  1.00 20.00     0.005 A 
ENDBRANCH   3   4
ENDBRANCH   1   3
BRANCH   1   7
HETATM    7  C6  UNL     1     -34.435  14.970  -5.364  1.00 20.00     0.163 C 
HETATM    8 BR8  UNL     1     -34.909  13.460  -4.253  1.00 20.00    -0.089 Br
ENDBRANCH   1   7
TORSDOF 3
ENDMDL
MODEL 9
REMARK VINA RESULT:      -3.8     12.220     12.775
REMARK  3 active torsions:
REMARK  status: ('A' for Active; 'I' for Inactive)
REMARK    1  A    between atoms: C1_1  and  C5_5 
REMARK    2  A    between atoms: C1_1  and  C6_6 
REMARK    3  A    between atoms: C4_4  and  C5_5 
ROOT
HETATM    1  C1  UNL     1     -33.287  16.160  -4.085  1.00 20.00     0.137 C 
HETATM    2  O7  UNL     1     -32.931  16.585  -5.184  1.00 20.00    -0.297 OA
ENDROOT
BRANCH   1   3
HETATM    3  C5  UNL     1     -34.059  17.011  -3.093  1.00 20.00     0.083 C 
BRANCH   3   4
HETATM    4  C4  UNL     1     -33.730  16.717  -1.664  1.00 20.00    -0.008 A 
HETATM    5  C2  UNL     1     -33.677  17.829  -0.655  1.00 20.00     0.005 A 
HETATM    6  C3  UNL     1     -34.792  16.823  -0.606  1.00 20.00     0.005 A 
ENDBRANCH   3   4
ENDBRANCH   1   3
BRANCH   1   7
HETATM    7  C6  UNL     1     -32.991  14.743  -3.673  1.00 20.00     0.163 C 
HETATM    8 BR8  UNL     1     -34.612  13.729  -3.959  1.00 20.00    -0.089 Br
ENDBRANCH   1   7
TORSDOF 3
ENDMDL
