MODEL 1
REMARK VINA RESULT:      -4.9      0.000      0.000
REMARK  0 active torsions:
REMARK  status: ('A' for Active; 'I' for Inactive)
ROOT
HETATM    1  C1  UNL     1     -34.538  14.618  -5.944  1.00 20.00     0.082 C 
HETATM    2  C2  UNL     1     -33.921  15.735  -5.572  1.00 20.00    -0.050 C 
HETATM    3  C3  UNL     1     -34.407  13.699  -4.798  1.00 20.00     0.171 C 
HETATM    4  C4  UNL     1     -33.972  17.127  -6.098  1.00 20.00     0.036 C 
HETATM    5  C5  UNL     1     -33.769  14.389  -3.614  1.00 20.00     0.094 C 
HETATM    6  C6  UNL     1     -33.604  17.957  -4.857  1.00 20.00     0.005 C 
HETATM    7  C7  UNL     1     -33.721  17.005  -3.658  1.00 20.00     0.010 C 
HETATM    8  C8  UNL     1     -33.257  15.679  -4.233  1.00 20.00     0.023 C 
HETATM    9  O9  UNL     1     -34.810  12.546  -4.797  1.00 20.00    -0.291 OA
HETATM   10 CL10 UNL     1     -35.499  14.314  -7.291  1.00 20.00    -0.080 Cl
ENDROOT
TORSDOF 0
ENDMDL
MODEL 2
REMARK VINA RESULT:      -4.8     12.735     13.877
REMARK  0 active torsions:
REMARK  status: ('A' for Active; 'I' for Inactive)
ROOT
HETATM    1  C1  UNL     1     -33.997   6.373   5.699  1.00 20.00     0.082 C 
HETATM    2  C2  UNL     1     -33.730   6.478   4.402  1.00 20.00    -0.050 C 
HETATM    3  C3  UNL     1     -34.924   5.232   5.817  1.00 20.00     0.171 C 
HETATM    4  C4  UNL     1     -32.643   7.173   3.658  1.00 20.00     0.036 C 
HETATM    5  C5  UNL     1     -35.110   4.539   4.487  1.00 20.00     0.094 C 
HETATM    6  C6  UNL     1     -32.552   6.345   2.365  1.00 20.00     0.005 C 
HETATM    7  C7  UNL     1     -33.337   5.052   2.631  1.00 20.00     0.010 C 
HETATM    8  C8  UNL     1     -34.474   5.525   3.521  1.00 20.00     0.023 C 
HETATM    9  O9  UNL     1     -35.433   4.870   6.867  1.00 20.00    -0.291 OA
HETATM   10 CL10 UNL     1     -33.290   7.152   7.012  1.00 20.00    -0.080 Cl
ENDROOT
TORSDOF 0
ENDMDL
MODEL 3
REMARK VINA RESULT:      -4.8     12.211     13.731
REMARK  0 active torsions:
REMARK  status: ('A' for Active; 'I' for Inactive)
ROOT
HETATM    1  C1  UNL     1     -33.881   5.703   3.124  1.00 20.00     0.082 C 
HETATM    2  C2  UNL     1     -34.523   5.461   4.262  1.00 20.00    -0.050 C 
HETATM    3  C3  UNL     1     -32.913   6.769   3.439  1.00 20.00     0.171 C 
HETATM    4  C4  UNL     1     -35.357   4.314   4.714  1.00 20.00     0.036 C 
HETATM    5  C5  UNL     1     -32.907   7.083   4.918  1.00 20.00     0.094 C 
HETATM    6  C6  UNL     1     -35.186   4.370   6.241  1.00 20.00     0.005 C 
HETATM    7  C7  UNL     1     -34.001   5.311   6.503  1.00 20.00     0.010 C 
HETATM    8  C8  UNL     1     -34.146   6.349   5.405  1.00 20.00     0.023 C 
HETATM    9  O9  UNL     1     -32.178   7.292   2.615  1.00 20.00    -0.291 OA
HETATM   10 CL10 UNL     1     -33.916   4.863   1.666  1.00 20.00    -0.080 Cl
ENDROOT
TORSDOF 0
ENDMDL
MODEL 4
REMARK VINA RESULT:      -4.7      3.037      4.247
REMARK  0 active torsions:
REMARK  status: ('A' for Active; 'I' for Inactive)
ROOT
HETATM    1  C1  UNL     1     -34.009  16.382  -2.588  1.00 20.00     0.082 C 
HETATM    2  C2  UNL     1     -33.866  15.384  -3.454  1.00 20.00    -0.050 C 
HETATM    3  C3  UNL     1     -33.743  17.611  -3.359  1.00 20.00     0.171 C 
HETATM    4  C4  UNL     1     -34.309  13.963  -3.423  1.00 20.00     0.036 C 
HETATM    5  C5  UNL     1     -33.554  17.305  -4.827  1.00 20.00     0.094 C 
HETATM    6  C6  UNL     1     -34.426  13.626  -4.918  1.00 20.00     0.005 C 
HETATM    7  C7  UNL     1     -34.388  14.969  -5.662  1.00 20.00     0.010 C 
HETATM    8  C8  UNL     1     -33.424  15.791  -4.824  1.00 20.00     0.023 C 
HETATM    9  O9  UNL     1     -33.728  18.732  -2.875  1.00 20.00    -0.291 OA
HETATM   10 CL10 UNL     1     -34.604  16.367  -1.014  1.00 20.00    -0.080 Cl
ENDROOT
TORSDOF 0
ENDMDL
MODEL 5
REMARK VINA RESULT:      -4.7      2.549      3.004
REMARK  0 active torsions:
REMARK  status: ('A' for Active; 'I' for Inactive)
ROOT
HETATM    1  C1  UNL     1     -34.056  14.321  -3.385  1.00 20.00     0.082 C 
HETATM    2  C2  UNL     1     -34.700  15.328  -2.806  1.00 20.00    -0.050 C 
HETATM    3  C3  UNL     1     -35.072  13.619  -4.190  1.00 20.00     0.171 C 
HETATM    4  C4  UNL     1     -34.219  16.581  -2.159  1.00 20.00     0.036 C 
HETATM    5  C5  UNL     1     -36.390  14.360  -4.175  1.00 20.00     0.094 C 
HETATM    6  C6  UNL     1     -35.419  17.524  -2.345  1.00 20.00     0.005 C 
HETATM    7  C7  UNL     1     -36.331  16.853  -3.383  1.00 20.00     0.010 C 
HETATM    8  C8  UNL     1     -36.172  15.376  -3.066  1.00 20.00     0.023 C 
HETATM    9  O9  UNL     1     -34.857  12.597  -4.825  1.00 20.00    -0.291 OA
HETATM   10 CL10 UNL     1     -32.408  13.988  -3.450  1.00 20.00    -0.080 Cl
ENDROOT
TORSDOF 0
ENDMDL
MODEL 6
REMARK VINA RESULT:      -4.5      2.226      2.576
REMARK  0 active torsions:
REMARK  status: ('A' for Active; 'I' for Inactive)
ROOT
HETATM    1  C1  UNL     1     -36.092  14.877  -3.763  1.00 20.00     0.082 C 
HETATM    2  C2  UNL     1     -35.532  15.986  -3.292  1.00 20.00    -0.050 C 
HETATM    3  C3  UNL     1     -34.990  13.906  -3.891  1.00 20.00     0.171 C 
HETATM    4  C4  UNL     1     -36.106  17.193  -2.636  1.00 20.00     0.036 C 
HETATM    5  C5  UNL     1     -33.703  14.462  -3.326  1.00 20.00     0.094 C 
HETATM    6  C6  UNL     1     -34.926  17.693  -1.786  1.00 20.00     0.005 C 
HETATM    7  C7  UNL     1     -33.908  16.543  -1.753  1.00 20.00     0.010 C 
HETATM    8  C8  UNL     1     -34.046  15.931  -3.135  1.00 20.00     0.023 C 
HETATM    9  O9  UNL     1     -35.118  12.781  -4.350  1.00 20.00    -0.291 OA
HETATM   10 CL10 UNL     1     -37.718  14.487  -3.958  1.00 20.00    -0.080 Cl
ENDROOT
TORSDOF 0
ENDMDL
MODEL 7
REMARK VINA RESULT:      -4.4      1.764      2.491
REMARK  0 active torsions:
REMARK  status: ('A' for Active; 'I' for Inactive)
ROOT
HETATM    1  C1  UNL     1     -33.818  14.762  -4.563  1.00 20.00     0.082 C 
HETATM    2  C2  UNL     1     -34.136  15.911  -5.151  1.00 20.00    -0.050 C 
HETATM    3  C3  UNL     1     -34.684  13.748  -5.193  1.00 20.00     0.171 C 
HETATM    4  C4  UNL     1     -33.432  17.221  -5.229  1.00 20.00     0.036 C 
HETATM    5  C5  UNL     1     -35.482  14.341  -6.332  1.00 20.00     0.094 C 
HETATM    6  C6  UNL     1     -33.976  17.804  -6.543  1.00 20.00     0.005 C 
HETATM    7  C7  UNL     1     -34.661  16.640  -7.275  1.00 20.00     0.010 C 
HETATM    8  C8  UNL     1     -35.258  15.832  -6.136  1.00 20.00     0.023 C 
HETATM    9  O9  UNL     1     -34.711  12.572  -4.864  1.00 20.00    -0.291 OA
HETATM   10 CL10 UNL     1     -32.554  14.400  -3.513  1.00 20.00    -0.080 Cl
ENDROOT
TORSDOF 0
ENDMDL
MODEL 8
REMARK VINA RESULT:      -4.4      2.593      3.618
REMARK  0 active torsions:
REMARK  status: ('A' for Active; 'I' for Inactive)
ROOT
HETATM    1  C1  UNL     1     -34.060  16.972  -4.572  1.00 20.00     0.082 C 
HETATM    2  C2  UNL     1     -34.513  15.724  -4.632  1.00 20.00    -0.050 C 
HETATM    3  C3  UNL     1     -33.905  17.264  -3.135  1.00 20.00     0.171 C 
HETATM    4  C4  UNL     1     -34.557  14.730  -5.739  1.00 20.00     0.036 C 
HETATM    5  C5  UNL     1     -34.172  16.035  -2.295  1.00 20.00     0.094 C 
HETATM    6  C6  UNL     1     -34.544  13.394  -4.977  1.00 20.00     0.005 C 
HETATM    7  C7  UNL     1     -34.137  13.731  -3.535  1.00 20.00     0.010 C 
HETATM    8  C8  UNL     1     -34.788  15.084  -3.308  1.00 20.00     0.023 C 
HETATM    9  O9  UNL     1     -33.558  18.347  -2.690  1.00 20.00    -0.291 OA
HETATM   10 CL10 UNL     1     -33.514  17.982  -5.802  1.00 20.00    -0.080 Cl
ENDROOT
TORSDOF 0
ENDMDL
MODEL 9
REMARK VINA RESULT:      -4.3      6.804      7.894
REMARK  0 active torsions:
REMARK  status: ('A' for Active; 'I' for Inactive)
ROOT
HETATM    1  C1  UNL     1     -33.252  18.617   2.349  1.00 20.00     0.082 C 
HETATM    2  C2  UNL     1     -33.586  18.499   1.069  1.00 20.00    -0.050 C 
HETATM    3  C3  UNL     1     -34.423  18.135   3.105  1.00 20.00     0.171 C 
HETATM    4  C4  UNL     1     -32.773  18.485  -0.179  1.00 20.00     0.036 C 
HETATM    5  C5  UNL     1     -35.477  17.571   2.180  1.00 20.00     0.094 C 
HETATM    6  C6  UNL     1     -33.655  17.665  -1.134  1.00 20.00     0.005 C 
HETATM    7  C7  UNL     1     -34.717  16.987  -0.255  1.00 20.00     0.010 C 
HETATM    8  C8  UNL     1     -34.983  18.028   0.817  1.00 20.00     0.023 C 
HETATM    9  O9  UNL     1     -34.503  18.148   4.324  1.00 20.00    -0.291 OA
HETATM   10 CL10 UNL     1     -31.765  18.982   3.047  1.00 20.00    -0.080 Cl
ENDROOT
TORSDOF 0
ENDMDL
