MODEL 1
REMARK VINA RESULT:      -5.2      0.000      0.000
REMARK  0 active torsions:
REMARK  status: ('A' for Active; 'I' for Inactive)
ROOT
HETATM    1  C1  UNL     1     -35.087  13.943  -5.408  1.00 20.00     0.051 C 
HETATM    2  C2  UNL     1     -35.189  14.138  -6.870  1.00 20.00     0.058 C 
HETATM    3  C3  UNL     1     -34.303  15.406  -6.948  1.00 20.00     0.007 C 
HETATM    4  C4  UNL     1     -35.436  16.791  -2.953  1.00 20.00     0.004 C 
HETATM    5  C5  UNL     1     -34.483  15.680  -2.428  1.00 20.00     0.036 C 
HETATM    6  C6  UNL     1     -33.833  15.723  -5.496  1.00 20.00     0.018 C 
HETATM    7  C7  UNL     1     -35.984  16.289  -4.324  1.00 20.00     0.018 C 
HETATM    8  C8  UNL     1     -34.902  14.530  -3.303  1.00 20.00     0.169 C 
HETATM    9  C9  UNL     1     -34.997  15.199  -4.647  1.00 20.00     0.031 C 
HETATM   10  N10 UNL     1     -34.642  12.883  -4.804  1.00 20.00    -0.142 NA
HETATM   11  O11 UNL     1     -34.163  13.356  -3.526  1.00 20.00    -0.250 OA
ENDROOT
TORSDOF 0
ENDMDL
MODEL 2
REMARK VINA RESULT:      -5.0      0.775      3.166
REMARK  0 active torsions:
REMARK  status: ('A' for Active; 'I' for Inactive)
ROOT
HETATM    1  C1  UNL     1     -34.298  14.594  -3.529  1.00 20.00     0.051 C 
HETATM    2  C2  UNL     1     -34.364  15.556  -2.408  1.00 20.00     0.058 C 
HETATM    3  C3  UNL     1     -35.636  16.302  -2.882  1.00 20.00     0.007 C 
HETATM    4  C4  UNL     1     -34.797  15.633  -7.125  1.00 20.00     0.004 C 
HETATM    5  C5  UNL     1     -35.272  14.176  -6.866  1.00 20.00     0.036 C 
HETATM    6  C6  UNL     1     -36.092  15.627  -4.210  1.00 20.00     0.018 C 
HETATM    7  C7  UNL     1     -34.198  16.146  -5.780  1.00 20.00     0.018 C 
HETATM    8  C8  UNL     1     -34.539  13.876  -5.588  1.00 20.00     0.169 C 
HETATM    9  C9  UNL     1     -34.767  15.144  -4.811  1.00 20.00     0.031 C 
HETATM   10  N10 UNL     1     -34.311  13.299  -3.431  1.00 20.00    -0.142 NA
HETATM   11  O11 UNL     1     -34.841  12.836  -4.693  1.00 20.00    -0.250 OA
ENDROOT
TORSDOF 0
ENDMDL
MODEL 3
REMARK VINA RESULT:      -4.8      2.476      3.152
REMARK  0 active torsions:
REMARK  status: ('A' for Active; 'I' for Inactive)
ROOT
HETATM    1  C1  UNL     1     -33.275  15.506  -3.799  1.00 20.00     0.051 C 
HETATM    2  C2  UNL     1     -33.269  14.028  -3.783  1.00 20.00     0.058 C 
HETATM    3  C3  UNL     1     -34.802  13.840  -3.658  1.00 20.00     0.007 C 
HETATM    4  C4  UNL     1     -35.363  17.553  -1.409  1.00 20.00     0.004 C 
HETATM    5  C5  UNL     1     -35.167  18.269  -2.775  1.00 20.00     0.036 C 
HETATM    6  C6  UNL     1     -35.434  15.263  -3.629  1.00 20.00     0.018 C 
HETATM    7  C7  UNL     1     -34.543  16.228  -1.485  1.00 20.00     0.018 C 
HETATM    8  C8  UNL     1     -33.969  17.526  -3.299  1.00 20.00     0.169 C 
HETATM    9  C9  UNL     1     -34.334  16.104  -2.971  1.00 20.00     0.031 C 
HETATM   10  N10 UNL     1     -32.794  16.266  -4.737  1.00 20.00    -0.142 NA
HETATM   11  O11 UNL     1     -33.542  17.498  -4.637  1.00 20.00    -0.250 OA
ENDROOT
TORSDOF 0
ENDMDL
MODEL 4
REMARK VINA RESULT:      -4.7      1.575      2.647
REMARK  0 active torsions:
REMARK  status: ('A' for Active; 'I' for Inactive)
ROOT
HETATM    1  C1  UNL     1     -34.091  14.535  -4.202  1.00 20.00     0.051 C 
HETATM    2  C2  UNL     1     -32.894  15.290  -3.774  1.00 20.00     0.058 C 
HETATM    3  C3  UNL     1     -33.568  16.057  -2.610  1.00 20.00     0.007 C 
HETATM    4  C4  UNL     1     -37.488  16.146  -4.556  1.00 20.00     0.004 C 
HETATM    5  C5  UNL     1     -37.590  14.649  -4.149  1.00 20.00     0.036 C 
HETATM    6  C6  UNL     1     -35.056  15.599  -2.564  1.00 20.00     0.018 C 
HETATM    7  C7  UNL     1     -35.969  16.446  -4.748  1.00 20.00     0.018 C 
HETATM    8  C8  UNL     1     -36.224  14.166  -4.553  1.00 20.00     0.169 C 
HETATM    9  C9  UNL     1     -35.351  15.275  -4.033  1.00 20.00     0.031 C 
HETATM   10  N10 UNL     1     -34.199  13.242  -4.269  1.00 20.00    -0.142 NA
HETATM   11  O11 UNL     1     -35.611  12.979  -4.118  1.00 20.00    -0.250 OA
ENDROOT
TORSDOF 0
ENDMDL
MODEL 5
REMARK VINA RESULT:      -4.6      1.834      2.318
REMARK  0 active torsions:
REMARK  status: ('A' for Active; 'I' for Inactive)
ROOT
HETATM    1  C1  UNL     1     -35.716  14.948  -4.819  1.00 20.00     0.051 C 
HETATM    2  C2  UNL     1     -35.139  14.048  -5.841  1.00 20.00     0.058 C 
HETATM    3  C3  UNL     1     -34.220  13.250  -4.883  1.00 20.00     0.007 C 
HETATM    4  C4  UNL     1     -33.608  16.640  -2.183  1.00 20.00     0.004 C 
HETATM    5  C5  UNL     1     -35.049  16.345  -1.678  1.00 20.00     0.036 C 
HETATM    6  C6  UNL     1     -34.435  13.834  -3.454  1.00 20.00     0.018 C 
HETATM    7  C7  UNL     1     -33.561  16.181  -3.673  1.00 20.00     0.018 C 
HETATM    8  C8  UNL     1     -35.760  16.158  -2.990  1.00 20.00     0.169 C 
HETATM    9  C9  UNL     1     -34.779  15.300  -3.741  1.00 20.00     0.031 C 
HETATM   10  N10 UNL     1     -36.978  15.082  -4.539  1.00 20.00    -0.142 NA
HETATM   11  O11 UNL     1     -37.007  15.534  -3.167  1.00 20.00    -0.250 OA
ENDROOT
TORSDOF 0
ENDMDL
MODEL 6
REMARK VINA RESULT:      -4.6      2.148      3.750
REMARK  0 active torsions:
REMARK  status: ('A' for Active; 'I' for Inactive)
ROOT
HETATM    1  C1  UNL     1     -35.666  15.979  -2.642  1.00 20.00     0.051 C 
HETATM    2  C2  UNL     1     -34.868  16.458  -1.493  1.00 20.00     0.058 C 
HETATM    3  C3  UNL     1     -33.523  16.595  -2.248  1.00 20.00     0.007 C 
HETATM    4  C4  UNL     1     -34.412  13.319  -5.012  1.00 20.00     0.004 C 
HETATM    5  C5  UNL     1     -35.360  14.330  -5.716  1.00 20.00     0.036 C 
HETATM    6  C6  UNL     1     -33.784  16.169  -3.724  1.00 20.00     0.018 C 
HETATM    7  C7  UNL     1     -34.366  13.733  -3.509  1.00 20.00     0.018 C 
HETATM    8  C8  UNL     1     -36.059  14.920  -4.523  1.00 20.00     0.169 C 
HETATM    9  C9  UNL     1     -34.907  15.136  -3.580  1.00 20.00     0.031 C 
HETATM   10  N10 UNL     1     -36.734  16.540  -3.123  1.00 20.00    -0.142 NA
HETATM   11  O11 UNL     1     -36.780  16.127  -4.507  1.00 20.00    -0.250 OA
ENDROOT
TORSDOF 0
ENDMDL
MODEL 7
REMARK VINA RESULT:      -4.5      2.313      3.720
REMARK  0 active torsions:
REMARK  status: ('A' for Active; 'I' for Inactive)
ROOT
HETATM    1  C1  UNL     1     -34.575  17.233  -3.767  1.00 20.00     0.051 C 
HETATM    2  C2  UNL     1     -35.327  18.118  -2.853  1.00 20.00     0.058 C 
HETATM    3  C3  UNL     1     -35.243  17.205  -1.604  1.00 20.00     0.007 C 
HETATM    4  C4  UNL     1     -35.194  13.512  -3.953  1.00 20.00     0.004 C 
HETATM    5  C5  UNL     1     -33.717  13.876  -4.272  1.00 20.00     0.036 C 
HETATM    6  C6  UNL     1     -34.441  15.936  -2.021  1.00 20.00     0.018 C 
HETATM    7  C7  UNL     1     -35.941  14.863  -3.730  1.00 20.00     0.018 C 
HETATM    8  C8  UNL     1     -33.864  15.335  -4.606  1.00 20.00     0.169 C 
HETATM    9  C9  UNL     1     -34.783  15.799  -3.509  1.00 20.00     0.031 C 
HETATM   10  N10 UNL     1     -33.491  17.539  -4.414  1.00 20.00    -0.142 NA
HETATM   11  O11 UNL     1     -32.824  16.278  -4.640  1.00 20.00    -0.250 OA
ENDROOT
TORSDOF 0
ENDMDL
MODEL 8
REMARK VINA RESULT:      -4.5     12.075     12.974
REMARK  0 active torsions:
REMARK  status: ('A' for Active; 'I' for Inactive)
ROOT
HETATM    1  C1  UNL     1     -42.681   4.306  -2.761  1.00 20.00     0.051 C 
HETATM    2  C2  UNL     1     -43.025   2.886  -2.536  1.00 20.00     0.058 C 
HETATM    3  C3  UNL     1     -43.417   3.027  -1.044  1.00 20.00     0.007 C 
HETATM    4  C4  UNL     1     -40.608   6.303  -0.317  1.00 20.00     0.004 C 
HETATM    5  C5  UNL     1     -41.633   7.192  -1.077  1.00 20.00     0.036 C 
HETATM    6  C6  UNL     1     -43.235   4.527  -0.665  1.00 20.00     0.018 C 
HETATM    7  C7  UNL     1     -40.754   4.865  -0.902  1.00 20.00     0.018 C 
HETATM    8  C8  UNL     1     -41.937   6.306  -2.254  1.00 20.00     0.169 C 
HETATM    9  C9  UNL     1     -42.091   4.967  -1.586  1.00 20.00     0.031 C 
HETATM   10  N10 UNL     1     -43.215   5.094  -3.644  1.00 20.00    -0.142 NA
HETATM   11  O11 UNL     1     -43.048   6.424  -3.105  1.00 20.00    -0.250 OA
ENDROOT
TORSDOF 0
ENDMDL
MODEL 9
REMARK VINA RESULT:      -4.5      1.922      2.853
REMARK  0 active torsions:
REMARK  status: ('A' for Active; 'I' for Inactive)
ROOT
HETATM    1  C1  UNL     1     -36.677  15.446  -3.478  1.00 20.00     0.051 C 
HETATM    2  C2  UNL     1     -37.282  16.795  -3.440  1.00 20.00     0.058 C 
HETATM    3  C3  UNL     1     -36.364  17.436  -4.511  1.00 20.00     0.007 C 
HETATM    4  C4  UNL     1     -32.942  14.897  -3.513  1.00 20.00     0.004 C 
HETATM    5  C5  UNL     1     -33.704  13.776  -4.272  1.00 20.00     0.036 C 
HETATM    6  C6  UNL     1     -35.380  16.328  -4.990  1.00 20.00     0.018 C 
HETATM    7  C7  UNL     1     -34.029  15.849  -2.925  1.00 20.00     0.018 C 
HETATM    8  C8  UNL     1     -35.085  13.955  -3.702  1.00 20.00     0.169 C 
HETATM    9  C9  UNL     1     -35.230  15.452  -3.741  1.00 20.00     0.031 C 
HETATM   10  N10 UNL     1     -37.296  14.335  -3.742  1.00 20.00    -0.142 NA
HETATM   11  O11 UNL     1     -36.274  13.455  -4.258  1.00 20.00    -0.250 OA
ENDROOT
TORSDOF 0
ENDMDL
