MODEL 1
REMARK VINA RESULT:      -4.2      0.000      0.000
REMARK  1 active torsions:
REMARK  status: ('A' for Active; 'I' for Inactive)
REMARK    1  A    between atoms: C3_3  and  N9_9 
ROOT
HETATM    1  C1  UNL     1     -33.896  16.685  -4.727  1.00 20.00     0.079 C 
HETATM    2  C4  UNL     1     -33.954  15.859  -6.015  1.00 20.00     0.070 C 
HETATM    3  C5  UNL     1     -35.130  14.883  -6.007  1.00 20.00     0.007 C 
HETATM    4  C6  UNL     1     -34.805  13.551  -5.337  1.00 20.00     0.002 C 
HETATM    5  C7  UNL     1     -34.460  13.655  -3.855  1.00 20.00     0.020 C 
HETATM    6  C8  UNL     1     -33.255  14.547  -3.569  1.00 20.00     0.129 C 
HETATM    7  N9  UNL     1     -33.611  15.979  -3.545  1.00 20.00    -0.352 N 
HETATM    8  S10 UNL     1     -34.206  18.344  -4.858  1.00 20.00    -0.065 SA
ENDROOT
BRANCH   7   9
HETATM    9  C3  UNL     1     -33.651  16.563  -2.292  1.00 20.00     0.081 C 
HETATM   10  C2  UNL     1     -34.657  16.376  -1.435  1.00 20.00     0.030 C 
ENDBRANCH   7   9
TORSDOF 1
ENDMDL
MODEL 2
REMARK VINA RESULT:      -3.9      1.537      3.148
REMARK  1 active torsions:
REMARK  status: ('A' for Active; 'I' for Inactive)
REMARK    1  A    between atoms: C3_3  and  N9_9 
ROOT
HETATM    1  C1  UNL     1     -35.061  16.417  -4.233  1.00 20.00     0.079 C 
HETATM    2  C4  UNL     1     -34.038  16.024  -3.165  1.00 20.00     0.070 C 
HETATM    3  C5  UNL     1     -32.952  15.109  -3.732  1.00 20.00     0.007 C 
HETATM    4  C6  UNL     1     -33.332  13.632  -3.707  1.00 20.00     0.002 C 
HETATM    5  C7  UNL     1     -34.540  13.274  -4.567  1.00 20.00     0.020 C 
HETATM    6  C8  UNL     1     -35.813  14.019  -4.173  1.00 20.00     0.129 C 
HETATM    7  N9  UNL     1     -35.865  15.380  -4.740  1.00 20.00    -0.352 N 
HETATM    8  S10 UNL     1     -35.098  18.041  -4.708  1.00 20.00    -0.065 SA
ENDROOT
BRANCH   7   9
HETATM    9  C3  UNL     1     -36.741  15.555  -5.795  1.00 20.00     0.081 C 
HETATM   10  C2  UNL     1     -36.430  15.249  -7.056  1.00 20.00     0.030 C 
ENDBRANCH   7   9
TORSDOF 1
ENDMDL
MODEL 3
REMARK VINA RESULT:      -3.8      1.932      2.624
REMARK  1 active torsions:
REMARK  status: ('A' for Active; 'I' for Inactive)
REMARK    1  A    between atoms: C3_3  and  N9_9 
ROOT
HETATM    1  C1  UNL     1     -35.500  15.416  -5.750  1.00 20.00     0.079 C 
HETATM    2  C4  UNL     1     -34.904  14.008  -5.811  1.00 20.00     0.070 C 
HETATM    3  C5  UNL     1     -34.721  13.411  -4.416  1.00 20.00     0.007 C 
HETATM    4  C6  UNL     1     -33.394  13.788  -3.765  1.00 20.00     0.002 C 
HETATM    5  C7  UNL     1     -33.219  15.281  -3.505  1.00 20.00     0.020 C 
HETATM    6  C8  UNL     1     -33.300  16.135  -4.768  1.00 20.00     0.129 C 
HETATM    7  N9  UNL     1     -34.692  16.411  -5.170  1.00 20.00    -0.352 N 
HETATM    8  S10 UNL     1     -37.067  15.620  -6.358  1.00 20.00    -0.065 SA
ENDROOT
BRANCH   7   9
HETATM    9  C3  UNL     1     -35.141  17.697  -4.929  1.00 20.00     0.081 C 
HETATM   10  C2  UNL     1     -35.653  18.080  -3.758  1.00 20.00     0.030 C 
ENDBRANCH   7   9
TORSDOF 1
ENDMDL
MODEL 4
REMARK VINA RESULT:      -3.8      2.103      3.806
REMARK  1 active torsions:
REMARK  status: ('A' for Active; 'I' for Inactive)
REMARK    1  A    between atoms: C3_3  and  N9_9 
ROOT
HETATM    1  C1  UNL     1     -36.287  15.051  -4.531  1.00 20.00     0.079 C 
HETATM    2  C4  UNL     1     -36.215  15.434  -3.051  1.00 20.00     0.070 C 
HETATM    3  C5  UNL     1     -35.194  16.544  -2.804  1.00 20.00     0.007 C 
HETATM    4  C6  UNL     1     -33.776  16.024  -2.591  1.00 20.00     0.002 C 
HETATM    5  C7  UNL     1     -33.181  15.297  -3.793  1.00 20.00     0.020 C 
HETATM    6  C8  UNL     1     -33.989  14.079  -4.232  1.00 20.00     0.129 C 
HETATM    7  N9  UNL     1     -35.142  14.444  -5.076  1.00 20.00    -0.352 N 
HETATM    8  S10 UNL     1     -37.719  15.420  -5.356  1.00 20.00    -0.065 SA
ENDROOT
BRANCH   7   9
HETATM    9  C3  UNL     1     -35.010  14.160  -6.423  1.00 20.00     0.081 C 
HETATM   10  C2  UNL     1     -34.452  15.006  -7.293  1.00 20.00     0.030 C 
ENDBRANCH   7   9
TORSDOF 1
ENDMDL
MODEL 5
REMARK VINA RESULT:      -3.7      1.554      3.065
REMARK  1 active torsions:
REMARK  status: ('A' for Active; 'I' for Inactive)
REMARK    1  A    between atoms: C3_3  and  N9_9 
ROOT
HETATM    1  C1  UNL     1     -34.658  16.427  -3.827  1.00 20.00     0.079 C 
HETATM    2  C4  UNL     1     -34.604  15.123  -3.029  1.00 20.00     0.070 C 
HETATM    3  C5  UNL     1     -33.735  14.073  -3.721  1.00 20.00     0.007 C 
HETATM    4  C6  UNL     1     -34.495  13.242  -4.751  1.00 20.00     0.002 C 
HETATM    5  C7  UNL     1     -35.041  14.042  -5.930  1.00 20.00     0.020 C 
HETATM    6  C8  UNL     1     -36.006  15.151  -5.522  1.00 20.00     0.129 C 
HETATM    7  N9  UNL     1     -35.305  16.369  -5.075  1.00 20.00    -0.352 N 
HETATM    8  S10 UNL     1     -33.916  17.786  -3.141  1.00 20.00    -0.065 SA
ENDROOT
BRANCH   7   9
HETATM    9  C3  UNL     1     -35.322  17.429  -5.963  1.00 20.00     0.081 C 
HETATM   10  C2  UNL     1     -34.445  17.555  -6.961  1.00 20.00     0.030 C 
ENDBRANCH   7   9
TORSDOF 1
ENDMDL
MODEL 6
REMARK VINA RESULT:      -3.7      2.268      3.400
REMARK  1 active torsions:
REMARK  status: ('A' for Active; 'I' for Inactive)
REMARK    1  A    between atoms: C3_3  and  N9_9 
ROOT
HETATM    1  C1  UNL     1     -35.948  16.094  -3.105  1.00 20.00     0.079 C 
HETATM    2  C4  UNL     1     -34.651  15.794  -2.350  1.00 20.00     0.070 C 
HETATM    3  C5  UNL     1     -33.458  15.681  -3.298  1.00 20.00     0.007 C 
HETATM    4  C6  UNL     1     -33.276  14.281  -3.877  1.00 20.00     0.002 C 
HETATM    5  C7  UNL     1     -34.431  13.803  -4.751  1.00 20.00     0.020 C 
HETATM    6  C8  UNL     1     -35.771  13.760  -4.022  1.00 20.00     0.129 C 
HETATM    7  N9  UNL     1     -36.420  15.083  -3.962  1.00 20.00    -0.352 N 
HETATM    8  S10 UNL     1     -36.657  17.611  -2.853  1.00 20.00    -0.065 SA
ENDROOT
BRANCH   7   9
HETATM    9  C3  UNL     1     -37.503  15.257  -4.804  1.00 20.00     0.081 C 
HETATM   10  C2  UNL     1     -38.730  14.824  -4.508  1.00 20.00     0.030 C 
ENDBRANCH   7   9
TORSDOF 1
ENDMDL
MODEL 7
REMARK VINA RESULT:      -3.7      2.021      4.178
REMARK  1 active torsions:
REMARK  status: ('A' for Active; 'I' for Inactive)
REMARK    1  A    between atoms: C3_3  and  N9_9 
ROOT
HETATM    1  C1  UNL     1     -34.221  14.899  -4.364  1.00 20.00     0.079 C 
HETATM    2  C4  UNL     1     -33.445  15.300  -3.108  1.00 20.00     0.070 C 
HETATM    3  C5  UNL     1     -34.134  16.439  -2.357  1.00 20.00     0.007 C 
HETATM    4  C6  UNL     1     -33.743  17.823  -2.866  1.00 20.00     0.002 C 
HETATM    5  C7  UNL     1     -34.139  18.101  -4.313  1.00 20.00     0.020 C 
HETATM    6  C8  UNL     1     -33.529  17.122  -5.313  1.00 20.00     0.129 C 
HETATM    7  N9  UNL     1     -34.284  15.857  -5.392  1.00 20.00    -0.352 N 
HETATM    8  S10 UNL     1     -34.941  13.367  -4.373  1.00 20.00    -0.065 SA
ENDROOT
BRANCH   7   9
HETATM    9  C3  UNL     1     -35.053  15.690  -6.530  1.00 20.00     0.081 C 
HETATM   10  C2  UNL     1     -34.614  15.051  -7.616  1.00 20.00     0.030 C 
ENDBRANCH   7   9
TORSDOF 1
ENDMDL
MODEL 8
REMARK VINA RESULT:      -3.6      1.974      2.950
REMARK  1 active torsions:
REMARK  status: ('A' for Active; 'I' for Inactive)
REMARK    1  A    between atoms: C3_3  and  N9_9 
ROOT
HETATM    1  C1  UNL     1     -34.956  15.073  -4.690  1.00 20.00     0.079 C 
HETATM    2  C4  UNL     1     -35.466  15.365  -6.103  1.00 20.00     0.070 C 
HETATM    3  C5  UNL     1     -34.363  15.931  -6.996  1.00 20.00     0.007 C 
HETATM    4  C6  UNL     1     -34.217  17.446  -6.890  1.00 20.00     0.002 C 
HETATM    5  C7  UNL     1     -33.806  17.947  -5.509  1.00 20.00     0.020 C 
HETATM    6  C8  UNL     1     -34.786  17.564  -4.404  1.00 20.00     0.129 C 
HETATM    7  N9  UNL     1     -34.576  16.187  -3.920  1.00 20.00    -0.352 N 
HETATM    8  S10 UNL     1     -34.878  13.449  -4.216  1.00 20.00    -0.065 SA
ENDROOT
BRANCH   7   9
HETATM    9  C3  UNL     1     -33.978  16.073  -2.678  1.00 20.00     0.081 C 
HETATM   10  C2  UNL     1     -34.630  16.295  -1.535  1.00 20.00     0.030 C 
ENDBRANCH   7   9
TORSDOF 1
ENDMDL
MODEL 9
REMARK VINA RESULT:      -3.6      2.290      3.414
REMARK  1 active torsions:
REMARK  status: ('A' for Active; 'I' for Inactive)
REMARK    1  A    between atoms: C3_3  and  N9_9 
ROOT
HETATM    1  C1  UNL     1     -34.874  15.622  -5.654  1.00 20.00     0.079 C 
HETATM    2  C4  UNL     1     -33.560  16.225  -5.153  1.00 20.00     0.070 C 
HETATM    3  C5  UNL     1     -33.059  15.519  -3.893  1.00 20.00     0.007 C 
HETATM    4  C6  UNL     1     -33.645  16.091  -2.606  1.00 20.00     0.002 C 
HETATM    5  C7  UNL     1     -35.158  15.945  -2.480  1.00 20.00     0.020 C 
HETATM    6  C8  UNL     1     -35.934  16.623  -3.606  1.00 20.00     0.129 C 
HETATM    7  N9  UNL     1     -35.997  15.793  -4.824  1.00 20.00    -0.352 N 
HETATM    8  S10 UNL     1     -34.832  14.795  -7.131  1.00 20.00    -0.065 SA
ENDROOT
BRANCH   7   9
HETATM    9  C3  UNL     1     -37.218  15.197  -5.079  1.00 20.00     0.081 C 
HETATM   10  C2  UNL     1     -38.026  14.755  -4.113  1.00 20.00     0.030 C 
ENDBRANCH   7   9
TORSDOF 1
ENDMDL
