MODEL 1
REMARK VINA RESULT:      -4.3      0.000      0.000
REMARK  2 active torsions:
REMARK  status: ('A' for Active; 'I' for Inactive)
REMARK    1  A    between atoms: C2_2  and  C4_4 
REMARK    2  A    between atoms: C4_4  and  C5_5 
ROOT
HETATM    1  C1  UNL     1     -35.117   4.448   4.602  1.00 20.00     0.147 A 
HETATM    2  C2  UNL     1     -34.498   5.350   3.563  1.00 20.00     0.151 A 
HETATM    3  C3  UNL     1     -34.938   4.647   6.064  1.00 20.00     0.042 C 
HETATM    4  O6  UNL     1     -35.875   5.472   3.944  1.00 20.00    -0.376 OA
ENDROOT
BRANCH   2   5
HETATM    5  C4  UNL     1     -33.650   6.521   3.903  1.00 20.00     0.049 C 
BRANCH   5   6
HETATM    6  C5  UNL     1     -32.271   6.537   3.219  1.00 20.00     0.117 C 
HETATM    7 CL7  UNL     1     -32.068   7.976   2.193  1.00 20.00    -0.130 Cl
ENDBRANCH   5   6
ENDBRANCH   2   5
TORSDOF 2
ENDMDL
MODEL 2
REMARK VINA RESULT:      -3.9      2.100      3.304
REMARK  2 active torsions:
REMARK  status: ('A' for Active; 'I' for Inactive)
REMARK    1  A    between atoms: C2_2  and  C4_4 
REMARK    2  A    between atoms: C4_4  and  C5_5 
ROOT
HETATM    1  C1  UNL     1     -33.683   6.364   3.082  1.00 20.00     0.147 A 
HETATM    2  C2  UNL     1     -34.755   5.641   3.859  1.00 20.00     0.151 A 
HETATM    3  C3  UNL     1     -32.234   6.244   3.389  1.00 20.00     0.042 C 
HETATM    4  O6  UNL     1     -34.294   5.164   2.588  1.00 20.00    -0.376 OA
ENDROOT
BRANCH   2   5
HETATM    5  C4  UNL     1     -34.464   4.742   5.005  1.00 20.00     0.049 C 
BRANCH   5   6
HETATM    6  C5  UNL     1     -34.746   5.353   6.390  1.00 20.00     0.117 C 
HETATM    7 CL7  UNL     1     -33.846   6.868   6.629  1.00 20.00    -0.130 Cl
ENDBRANCH   5   6
ENDBRANCH   2   5
TORSDOF 2
ENDMDL
MODEL 3
REMARK VINA RESULT:      -3.8      1.692      2.127
REMARK  2 active torsions:
REMARK  status: ('A' for Active; 'I' for Inactive)
REMARK    1  A    between atoms: C2_2  and  C4_4 
REMARK    2  A    between atoms: C4_4  and  C5_5 
ROOT
HETATM    1  C1  UNL     1     -34.117   5.244   6.349  1.00 20.00     0.147 A 
HETATM    2  C2  UNL     1     -34.673   4.614   5.095  1.00 20.00     0.151 A 
HETATM    3  C3  UNL     1     -33.948   6.710   6.517  1.00 20.00     0.042 C 
HETATM    4  O6  UNL     1     -35.478   4.800   6.267  1.00 20.00    -0.376 OA
ENDROOT
BRANCH   2   5
HETATM    5  C4  UNL     1     -35.104   5.400   3.911  1.00 20.00     0.049 C 
BRANCH   5   6
HETATM    6  C5  UNL     1     -34.103   5.399   2.741  1.00 20.00     0.117 C 
HETATM    7 CL7  UNL     1     -32.582   6.209   3.182  1.00 20.00    -0.130 Cl
ENDBRANCH   5   6
ENDBRANCH   2   5
TORSDOF 2
ENDMDL
MODEL 4
REMARK VINA RESULT:      -3.8      1.283      1.303
REMARK  2 active torsions:
REMARK  status: ('A' for Active; 'I' for Inactive)
REMARK    1  A    between atoms: C2_2  and  C4_4 
REMARK    2  A    between atoms: C4_4  and  C5_5 
ROOT
HETATM    1  C1  UNL     1     -35.038   5.342   5.326  1.00 20.00     0.147 A 
HETATM    2  C2  UNL     1     -34.444   6.268   4.293  1.00 20.00     0.151 A 
HETATM    3  C3  UNL     1     -34.714   3.894   5.406  1.00 20.00     0.042 C 
HETATM    4  O6  UNL     1     -33.949   6.221   5.639  1.00 20.00    -0.376 OA
ENDROOT
BRANCH   2   5
HETATM    5  C4  UNL     1     -33.478   5.819   3.258  1.00 20.00     0.049 C 
BRANCH   5   6
HETATM    6  C5  UNL     1     -32.118   6.539   3.292  1.00 20.00     0.117 C 
HETATM    7 CL7  UNL     1     -32.104   7.958   2.220  1.00 20.00    -0.130 Cl
ENDBRANCH   5   6
ENDBRANCH   2   5
TORSDOF 2
ENDMDL
MODEL 5
REMARK VINA RESULT:      -3.6      2.686      3.843
REMARK  2 active torsions:
REMARK  status: ('A' for Active; 'I' for Inactive)
REMARK    1  A    between atoms: C2_2  and  C4_4 
REMARK    2  A    between atoms: C4_4  and  C5_5 
ROOT
HETATM    1  C1  UNL     1     -32.771   6.790   3.044  1.00 20.00     0.147 A 
HETATM    2  C2  UNL     1     -33.820   6.218   3.966  1.00 20.00     0.151 A 
HETATM    3  C3  UNL     1     -31.640   7.629   3.518  1.00 20.00     0.042 C 
HETATM    4  O6  UNL     1     -32.731   5.423   3.478  1.00 20.00    -0.376 OA
ENDROOT
BRANCH   2   5
HETATM    5  C4  UNL     1     -33.821   6.440   5.435  1.00 20.00     0.049 C 
BRANCH   5   6
HETATM    6  C5  UNL     1     -34.586   5.378   6.245  1.00 20.00     0.117 C 
HETATM    7 CL7  UNL     1     -35.104   4.022   5.218  1.00 20.00    -0.130 Cl
ENDBRANCH   5   6
ENDBRANCH   2   5
TORSDOF 2
ENDMDL
MODEL 6
REMARK VINA RESULT:      -3.6      2.863      4.216
REMARK  2 active torsions:
REMARK  status: ('A' for Active; 'I' for Inactive)
REMARK    1  A    between atoms: C2_2  and  C4_4 
REMARK    2  A    between atoms: C4_4  and  C5_5 
ROOT
HETATM    1  C1  UNL     1     -31.802   7.377   2.513  1.00 20.00     0.147 A 
HETATM    2  C2  UNL     1     -32.528   6.373   3.375  1.00 20.00     0.151 A 
HETATM    3  C3  UNL     1     -32.446   8.601   1.970  1.00 20.00     0.042 C 
HETATM    4  O6  UNL     1     -31.652   7.359   3.939  1.00 20.00    -0.376 OA
ENDROOT
BRANCH   2   5
HETATM    5  C4  UNL     1     -33.956   6.514   3.761  1.00 20.00     0.049 C 
BRANCH   5   6
HETATM    6  C5  UNL     1     -34.467   5.436   4.733  1.00 20.00     0.117 C 
HETATM    7 CL7  UNL     1     -34.335   5.967   6.425  1.00 20.00    -0.130 Cl
ENDBRANCH   5   6
ENDBRANCH   2   5
TORSDOF 2
ENDMDL
MODEL 7
REMARK VINA RESULT:      -3.4     11.403     12.161
REMARK  2 active torsions:
REMARK  status: ('A' for Active; 'I' for Inactive)
REMARK    1  A    between atoms: C2_2  and  C4_4 
REMARK    2  A    between atoms: C4_4  and  C5_5 
ROOT
HETATM    1  C1  UNL     1     -34.904  13.734  -4.821  1.00 20.00     0.147 A 
HETATM    2  C2  UNL     1     -34.225  14.142  -3.536  1.00 20.00     0.151 A 
HETATM    3  C3  UNL     1     -34.671  14.418  -6.119  1.00 20.00     0.042 C 
HETATM    4  O6  UNL     1     -33.773  13.019  -4.305  1.00 20.00    -0.376 OA
ENDROOT
BRANCH   2   5
HETATM    5  C4  UNL     1     -33.258  15.267  -3.449  1.00 20.00     0.049 C 
BRANCH   5   6
HETATM    6  C5  UNL     1     -33.839  16.570  -2.870  1.00 20.00     0.117 C 
HETATM    7 CL7  UNL     1     -34.661  16.285  -1.319  1.00 20.00    -0.130 Cl
ENDBRANCH   5   6
ENDBRANCH   2   5
TORSDOF 2
ENDMDL
MODEL 8
REMARK VINA RESULT:      -3.3     11.683     12.578
REMARK  2 active torsions:
REMARK  status: ('A' for Active; 'I' for Inactive)
REMARK    1  A    between atoms: C2_2  and  C4_4 
REMARK    2  A    between atoms: C4_4  and  C5_5 
ROOT
HETATM    1  C1  UNL     1     -34.219  13.780  -3.726  1.00 20.00     0.147 A 
HETATM    2  C2  UNL     1     -34.399  13.404  -5.177  1.00 20.00     0.151 A 
HETATM    3  C3  UNL     1     -34.847  14.979  -3.111  1.00 20.00     0.042 C 
HETATM    4  O6  UNL     1     -35.141  12.759  -4.132  1.00 20.00    -0.376 OA
ENDROOT
BRANCH   2   5
HETATM    5  C4  UNL     1     -35.221  14.197  -6.127  1.00 20.00     0.049 C 
BRANCH   5   6
HETATM    6  C5  UNL     1     -34.412  15.074  -7.099  1.00 20.00     0.117 C 
HETATM    7 CL7  UNL     1     -34.053  16.668  -6.396  1.00 20.00    -0.130 Cl
ENDBRANCH   5   6
ENDBRANCH   2   5
TORSDOF 2
ENDMDL
MODEL 9
REMARK VINA RESULT:      -3.1      9.130      9.835
REMARK  2 active torsions:
REMARK  status: ('A' for Active; 'I' for Inactive)
REMARK    1  A    between atoms: C2_2  and  C4_4 
REMARK    2  A    between atoms: C4_4  and  C5_5 
ROOT
HETATM    1  C1  UNL     1     -40.665   5.906  -0.429  1.00 20.00     0.147 A 
HETATM    2  C2  UNL     1     -40.975   4.590  -1.101  1.00 20.00     0.151 A 
HETATM    3  C3  UNL     1     -41.212   7.207  -0.894  1.00 20.00     0.042 C 
HETATM    4  O6  UNL     1     -41.640   4.998   0.103  1.00 20.00    -0.376 OA
ENDROOT
BRANCH   2   5
HETATM    5  C4  UNL     1     -41.857   4.472  -2.291  1.00 20.00     0.049 C 
BRANCH   5   6
HETATM    6  C5  UNL     1     -42.409   3.057  -2.543  1.00 20.00     0.117 C 
HETATM    7 CL7  UNL     1     -41.342   2.121  -3.614  1.00 20.00    -0.130 Cl
ENDBRANCH   5   6
ENDBRANCH   2   5
TORSDOF 2
ENDMDL
