MODEL 1
REMARK VINA RESULT:      -4.6      0.000      0.000
REMARK  1 active torsions:
REMARK  status: ('A' for Active; 'I' for Inactive)
REMARK    1  A    between atoms: C3_3  and  C9_9 
ROOT
HETATM    1  C1  UNL     1     -33.767   7.381   3.807  1.00 20.00     0.069 C 
HETATM    2  C2  UNL     1     -32.384   7.310   3.176  1.00 20.00     0.069 C 
HETATM    3  C3  UNL     1     -34.106   5.913   4.029  1.00 20.00     0.076 C 
HETATM    4  C4  UNL     1     -32.267   8.244   1.970  1.00 20.00     0.042 C 
HETATM    5  C5  UNL     1     -31.254   7.597   4.165  1.00 20.00     0.042 C 
HETATM    6  C6  UNL     1     -35.535   5.592   3.589  1.00 20.00     0.043 C 
HETATM    7  N10 UNL     1     -32.264   5.919   2.701  1.00 20.00    -0.187 NA
HETATM    8  N11 UNL     1     -33.173   5.181   3.152  1.00 20.00    -0.186 NA
ENDROOT
BRANCH   3   9
HETATM    9  C9  UNL     1     -33.893   5.457   5.473  1.00 20.00     0.009 C 
HETATM   10  C7  UNL     1     -34.022   6.637   6.431  1.00 20.00     0.012 C 
HETATM   11  C8  UNL     1     -34.885   4.356   5.838  1.00 20.00     0.012 C 
ENDBRANCH   3   9
TORSDOF 1
ENDMDL
MODEL 2
REMARK VINA RESULT:      -4.3     11.323     12.763
REMARK  1 active torsions:
REMARK  status: ('A' for Active; 'I' for Inactive)
REMARK    1  A    between atoms: C3_3  and  C9_9 
ROOT
HETATM    1  C1  UNL     1     -33.744  15.967  -2.975  1.00 20.00     0.069 C 
HETATM    2  C2  UNL     1     -34.846  16.702  -2.227  1.00 20.00     0.069 C 
HETATM    3  C3  UNL     1     -34.525  15.129  -3.978  1.00 20.00     0.076 C 
HETATM    4  C4  UNL     1     -34.613  16.678  -0.715  1.00 20.00     0.042 C 
HETATM    5  C5  UNL     1     -35.039  18.143  -2.699  1.00 20.00     0.042 C 
HETATM    6  C6  UNL     1     -34.003  13.692  -4.039  1.00 20.00     0.043 C 
HETATM    7  N10 UNL     1     -36.070  15.933  -2.521  1.00 20.00    -0.187 NA
HETATM    8  N11 UNL     1     -35.900  15.103  -3.447  1.00 20.00    -0.186 NA
ENDROOT
BRANCH   3   9
HETATM    9  C9  UNL     1     -34.545  15.733  -5.382  1.00 20.00     0.009 C 
HETATM   10  C7  UNL     1     -33.331  16.633  -5.595  1.00 20.00     0.012 C 
HETATM   11  C8  UNL     1     -34.590  14.631  -6.438  1.00 20.00     0.012 C 
ENDBRANCH   3   9
TORSDOF 1
ENDMDL
MODEL 3
REMARK VINA RESULT:      -4.3     11.159     12.531
REMARK  1 active torsions:
REMARK  status: ('A' for Active; 'I' for Inactive)
REMARK    1  A    between atoms: C3_3  and  C9_9 
ROOT
HETATM    1  C1  UNL     1     -34.130  16.123  -4.511  1.00 20.00     0.069 C 
HETATM    2  C2  UNL     1     -34.513  14.653  -4.420  1.00 20.00     0.069 C 
HETATM    3  C3  UNL     1     -34.867  16.731  -3.325  1.00 20.00     0.076 C 
HETATM    4  C4  UNL     1     -34.902  14.087  -5.787  1.00 20.00     0.042 C 
HETATM    5  C5  UNL     1     -33.425  13.783  -3.789  1.00 20.00     0.042 C 
HETATM    6  C6  UNL     1     -35.574  18.033  -3.710  1.00 20.00     0.043 C 
HETATM    7  N10 UNL     1     -35.705  14.633  -3.552  1.00 20.00    -0.187 NA
HETATM    8  N11 UNL     1     -35.892  15.731  -2.973  1.00 20.00    -0.186 NA
ENDROOT
BRANCH   3   9
HETATM    9  C9  UNL     1     -33.966  16.969  -2.113  1.00 20.00     0.009 C 
HETATM   10  C7  UNL     1     -33.523  18.427  -2.054  1.00 20.00     0.012 C 
HETATM   11  C8  UNL     1     -34.686  16.572  -0.826  1.00 20.00     0.012 C 
ENDBRANCH   3   9
TORSDOF 1
ENDMDL
MODEL 4
REMARK VINA RESULT:      -4.2     11.466     12.476
REMARK  1 active torsions:
REMARK  status: ('A' for Active; 'I' for Inactive)
REMARK    1  A    between atoms: C3_3  and  C9_9 
ROOT
HETATM    1  C1  UNL     1     -35.824  16.344  -2.926  1.00 20.00     0.069 C 
HETATM    2  C2  UNL     1     -34.974  17.273  -2.073  1.00 20.00     0.069 C 
HETATM    3  C3  UNL     1     -34.800  15.736  -3.876  1.00 20.00     0.076 C 
HETATM    4  C4  UNL     1     -35.639  18.639  -1.896  1.00 20.00     0.042 C 
HETATM    5  C5  UNL     1     -34.624  16.686  -0.705  1.00 20.00     0.042 C 
HETATM    6  C6  UNL     1     -35.309  15.722  -5.318  1.00 20.00     0.043 C 
HETATM    7  N10 UNL     1     -33.732  17.456  -2.847  1.00 20.00    -0.187 NA
HETATM    8  N11 UNL     1     -33.640  16.644  -3.799  1.00 20.00    -0.186 NA
ENDROOT
BRANCH   3   9
HETATM    9  C9  UNL     1     -34.359  14.330  -3.468  1.00 20.00     0.009 C 
HETATM   10  C7  UNL     1     -35.085  13.279  -4.301  1.00 20.00     0.012 C 
HETATM   11  C8  UNL     1     -32.846  14.181  -3.611  1.00 20.00     0.012 C 
ENDBRANCH   3   9
TORSDOF 1
ENDMDL
MODEL 5
REMARK VINA RESULT:      -4.1     11.788     12.717
REMARK  1 active torsions:
REMARK  status: ('A' for Active; 'I' for Inactive)
REMARK    1  A    between atoms: C3_3  and  C9_9 
ROOT
HETATM    1  C1  UNL     1     -34.727  16.194  -1.360  1.00 20.00     0.069 C 
HETATM    2  C2  UNL     1     -34.610  17.684  -1.078  1.00 20.00     0.069 C 
HETATM    3  C3  UNL     1     -34.784  16.147  -2.880  1.00 20.00     0.076 C 
HETATM    4  C4  UNL     1     -35.550  18.120   0.047  1.00 20.00     0.042 C 
HETATM    5  C5  UNL     1     -33.182  18.129  -0.761  1.00 20.00     0.042 C 
HETATM    6  C6  UNL     1     -35.880  15.202  -3.374  1.00 20.00     0.043 C 
HETATM    7  N10 UNL     1     -35.047  18.334  -2.328  1.00 20.00    -0.187 NA
HETATM    8  N11 UNL     1     -35.138  17.521  -3.280  1.00 20.00    -0.186 NA
ENDROOT
BRANCH   3   9
HETATM    9  C9  UNL     1     -33.448  15.772  -3.522  1.00 20.00     0.009 C 
HETATM   10  C7  UNL     1     -33.355  14.262  -3.722  1.00 20.00     0.012 C 
HETATM   11  C8  UNL     1     -33.268  16.502  -4.851  1.00 20.00     0.012 C 
ENDBRANCH   3   9
TORSDOF 1
ENDMDL
MODEL 6
REMARK VINA RESULT:      -4.1     11.291     13.034
REMARK  1 active torsions:
REMARK  status: ('A' for Active; 'I' for Inactive)
REMARK    1  A    between atoms: C3_3  and  C9_9 
ROOT
HETATM    1  C1  UNL     1     -34.024  15.623  -5.170  1.00 20.00     0.069 C 
HETATM    2  C2  UNL     1     -33.857  14.754  -3.932  1.00 20.00     0.069 C 
HETATM    3  C3  UNL     1     -35.027  14.832  -5.998  1.00 20.00     0.076 C 
HETATM    4  C4  UNL     1     -32.385  14.603  -3.545  1.00 20.00     0.042 C 
HETATM    5  C5  UNL     1     -34.660  15.252  -2.731  1.00 20.00     0.042 C 
HETATM    6  C6  UNL     1     -34.606  14.751  -7.466  1.00 20.00     0.043 C 
HETATM    7  N10 UNL     1     -34.370  13.431  -4.336  1.00 20.00    -0.187 NA
HETATM    8  N11 UNL     1     -34.989  13.473  -5.427  1.00 20.00    -0.186 NA
ENDROOT
BRANCH   3   9
HETATM    9  C9  UNL     1     -36.453  15.374  -5.896  1.00 20.00     0.009 C 
HETATM   10  C7  UNL     1     -36.437  16.866  -5.577  1.00 20.00     0.012 C 
HETATM   11  C8  UNL     1     -37.220  15.108  -7.190  1.00 20.00     0.012 C 
ENDBRANCH   3   9
TORSDOF 1
ENDMDL
MODEL 7
REMARK VINA RESULT:      -4.1      9.599     10.861
REMARK  1 active torsions:
REMARK  status: ('A' for Active; 'I' for Inactive)
REMARK    1  A    between atoms: C3_3  and  C9_9 
ROOT
HETATM    1  C1  UNL     1     -43.131   5.778  -2.732  1.00 20.00     0.069 C 
HETATM    2  C2  UNL     1     -42.492   7.132  -2.458  1.00 20.00     0.069 C 
HETATM    3  C3  UNL     1     -42.285   4.835  -1.889  1.00 20.00     0.076 C 
HETATM    4  C4  UNL     1     -42.297   7.934  -3.745  1.00 20.00     0.042 C 
HETATM    5  C5  UNL     1     -43.264   7.969  -1.437  1.00 20.00     0.042 C 
HETATM    6  C6  UNL     1     -41.904   3.573  -2.667  1.00 20.00     0.043 C 
HETATM    7  N10 UNL     1     -41.163   6.809  -1.905  1.00 20.00    -0.187 NA
HETATM    8  N11 UNL     1     -41.054   5.595  -1.604  1.00 20.00    -0.186 NA
ENDROOT
BRANCH   3   9
HETATM    9  C9  UNL     1     -42.948   4.448  -0.567  1.00 20.00     0.009 C 
HETATM   10  C7  UNL     1     -43.417   2.997  -0.608  1.00 20.00     0.012 C 
HETATM   11  C8  UNL     1     -41.988   4.671   0.599  1.00 20.00     0.012 C 
ENDBRANCH   3   9
TORSDOF 1
ENDMDL
MODEL 8
REMARK VINA RESULT:      -4.0     11.491     13.183
REMARK  1 active torsions:
REMARK  status: ('A' for Active; 'I' for Inactive)
REMARK    1  A    between atoms: C3_3  and  C9_9 
ROOT
HETATM    1  C1  UNL     1     -36.850  16.152  -4.709  1.00 20.00     0.069 C 
HETATM    2  C2  UNL     1     -38.280  15.639  -4.804  1.00 20.00     0.069 C 
HETATM    3  C3  UNL     1     -36.095  14.934  -4.195  1.00 20.00     0.076 C 
HETATM    4  C4  UNL     1     -39.277  16.643  -4.224  1.00 20.00     0.042 C 
HETATM    5  C5  UNL     1     -38.692  15.262  -6.227  1.00 20.00     0.042 C 
HETATM    6  C6  UNL     1     -35.130  15.305  -3.067  1.00 20.00     0.043 C 
HETATM    7  N10 UNL     1     -38.296  14.427  -3.964  1.00 20.00    -0.187 NA
HETATM    8  N11 UNL     1     -37.141  14.054  -3.643  1.00 20.00    -0.186 NA
ENDROOT
BRANCH   3   9
HETATM    9  C9  UNL     1     -35.343  14.183  -5.295  1.00 20.00     0.009 C 
HETATM   10  C7  UNL     1     -34.704  15.164  -6.273  1.00 20.00     0.012 C 
HETATM   11  C8  UNL     1     -34.287  13.262  -4.688  1.00 20.00     0.012 C 
ENDBRANCH   3   9
TORSDOF 1
ENDMDL
MODEL 9
REMARK VINA RESULT:      -4.0     11.403     13.022
REMARK  1 active torsions:
REMARK  status: ('A' for Active; 'I' for Inactive)
REMARK    1  A    between atoms: C3_3  and  C9_9 
ROOT
HETATM    1  C1  UNL     1     -34.983  15.373  -5.104  1.00 20.00     0.069 C 
HETATM    2  C2  UNL     1     -34.456  16.654  -5.735  1.00 20.00     0.069 C 
HETATM    3  C3  UNL     1     -34.004  15.139  -3.961  1.00 20.00     0.076 C 
HETATM    4  C4  UNL     1     -34.414  16.554  -7.260  1.00 20.00     0.042 C 
HETATM    5  C5  UNL     1     -35.241  17.899  -5.319  1.00 20.00     0.042 C 
HETATM    6  C6  UNL     1     -33.555  13.679  -3.895  1.00 20.00     0.043 C 
HETATM    7  N10 UNL     1     -33.073  16.771  -5.237  1.00 20.00    -0.187 NA
HETATM    8  N11 UNL     1     -32.834  15.971  -4.300  1.00 20.00    -0.186 NA
ENDROOT
BRANCH   3   9
HETATM    9  C9  UNL     1     -34.549  15.577  -2.602  1.00 20.00     0.009 C 
HETATM   10  C7  UNL     1     -33.776  16.784  -2.079  1.00 20.00     0.012 C 
HETATM   11  C8  UNL     1     -36.040  15.893  -2.699  1.00 20.00     0.012 C 
ENDBRANCH   3   9
TORSDOF 1
ENDMDL
