MODEL 1
REMARK VINA RESULT:      -5.3      0.000      0.000
REMARK  0 active torsions:
REMARK  status: ('A' for Active; 'I' for Inactive)
ROOT
HETATM    1  C1  UNL     1     -34.793  13.445  -5.337  1.00 20.00     0.088 C 
HETATM    2  C2  UNL     1     -34.462  15.700  -6.120  1.00 20.00    -0.041 C 
HETATM    3  C3  UNL     1     -34.095  16.223  -4.802  1.00 20.00    -0.050 C 
HETATM    4  C4  UNL     1     -34.784  14.419  -6.365  1.00 20.00     0.101 C 
HETATM    5  C5  UNL     1     -34.460  15.673  -3.632  1.00 20.00    -0.081 C 
HETATM    6  C6  UNL     1     -34.443  16.713  -7.248  1.00 20.00     0.044 C 
HETATM    7  C7  UNL     1     -33.300  17.505  -4.842  1.00 20.00     0.040 C 
HETATM    8  C8  UNL     1     -34.025  18.617  -5.610  1.00 20.00     0.009 C 
HETATM    9  C9  UNL     1     -34.902  18.099  -6.767  1.00 20.00    -0.014 C 
HETATM   10  C10 UNL     1     -34.047  16.264  -2.317  1.00 20.00     0.043 C 
HETATM   11  C11 UNL     1     -35.302  14.435  -3.568  1.00 20.00     0.043 C 
HETATM   12  C12 UNL     1     -34.937  19.102  -7.918  1.00 20.00     0.010 C 
HETATM   13  N13 UNL     1     -34.803  12.642  -4.499  1.00 20.00    -0.192 NA
ENDROOT
TORSDOF 0
ENDMDL
MODEL 2
REMARK VINA RESULT:      -5.2      1.953      4.411
REMARK  0 active torsions:
REMARK  status: ('A' for Active; 'I' for Inactive)
ROOT
HETATM    1  C1  UNL     1     -34.389  14.760  -4.247  1.00 20.00     0.088 C 
HETATM    2  C2  UNL     1     -34.447  16.377  -2.461  1.00 20.00    -0.041 C 
HETATM    3  C3  UNL     1     -34.286  17.531  -3.350  1.00 20.00    -0.050 C 
HETATM    4  C4  UNL     1     -34.494  15.100  -2.876  1.00 20.00     0.101 C 
HETATM    5  C5  UNL     1     -33.717  17.485  -4.566  1.00 20.00    -0.081 C 
HETATM    6  C6  UNL     1     -34.583  16.708  -0.988  1.00 20.00     0.044 C 
HETATM    7  C7  UNL     1     -34.763  18.836  -2.765  1.00 20.00     0.040 C 
HETATM    8  C8  UNL     1     -34.079  19.163  -1.432  1.00 20.00     0.009 C 
HETATM    9  C9  UNL     1     -33.716  17.917  -0.601  1.00 20.00    -0.014 C 
HETATM   10  C10 UNL     1     -33.585  18.708  -5.424  1.00 20.00     0.043 C 
HETATM   11  C11 UNL     1     -33.179  16.211  -5.142  1.00 20.00     0.043 C 
HETATM   12  C12 UNL     1     -33.810  18.211   0.895  1.00 20.00     0.010 C 
HETATM   13  N13 UNL     1     -34.303  14.474  -5.368  1.00 20.00    -0.192 NA
ENDROOT
TORSDOF 0
ENDMDL
MODEL 3
REMARK VINA RESULT:      -5.2      1.735      3.538
REMARK  0 active torsions:
REMARK  status: ('A' for Active; 'I' for Inactive)
ROOT
HETATM    1  C1  UNL     1     -34.511  13.449  -4.080  1.00 20.00     0.088 C 
HETATM    2  C2  UNL     1     -34.473  15.651  -3.102  1.00 20.00    -0.041 C 
HETATM    3  C3  UNL     1     -35.286  16.256  -4.160  1.00 20.00    -0.050 C 
HETATM    4  C4  UNL     1     -34.116  14.356  -3.067  1.00 20.00     0.101 C 
HETATM    5  C5  UNL     1     -35.391  15.779  -5.411  1.00 20.00    -0.081 C 
HETATM    6  C6  UNL     1     -34.050  16.591  -1.991  1.00 20.00     0.044 C 
HETATM    7  C7  UNL     1     -35.977  17.535  -3.757  1.00 20.00     0.040 C 
HETATM    8  C8  UNL     1     -34.993  18.595  -3.247  1.00 20.00     0.009 C 
HETATM    9  C9  UNL     1     -33.765  18.003  -2.527  1.00 20.00    -0.014 C 
HETATM   10  C10 UNL     1     -36.243  16.452  -6.446  1.00 20.00     0.043 C 
HETATM   11  C11 UNL     1     -34.663  14.546  -5.852  1.00 20.00     0.043 C 
HETATM   12  C12 UNL     1     -33.284  18.932  -1.414  1.00 20.00     0.010 C 
HETATM   13  N13 UNL     1     -34.830  12.699  -4.907  1.00 20.00    -0.192 NA
ENDROOT
TORSDOF 0
ENDMDL
MODEL 4
REMARK VINA RESULT:      -5.1      2.301      4.755
REMARK  0 active torsions:
REMARK  status: ('A' for Active; 'I' for Inactive)
ROOT
HETATM    1  C1  UNL     1     -33.674  19.046  -6.508  1.00 20.00     0.088 C 
HETATM    2  C2  UNL     1     -33.756  17.780  -4.460  1.00 20.00    -0.041 C 
HETATM    3  C3  UNL     1     -33.860  16.483  -5.135  1.00 20.00    -0.050 C 
HETATM    4  C4  UNL     1     -33.671  18.961  -5.094  1.00 20.00     0.101 C 
HETATM    5  C5  UNL     1     -34.339  16.304  -6.377  1.00 20.00    -0.081 C 
HETATM    6  C6  UNL     1     -33.729  17.721  -2.945  1.00 20.00     0.044 C 
HETATM    7  C7  UNL     1     -33.434  15.308  -4.291  1.00 20.00     0.040 C 
HETATM    8  C8  UNL     1     -34.215  15.223  -2.973  1.00 20.00     0.009 C 
HETATM    9  C9  UNL     1     -34.629  16.597  -2.410  1.00 20.00    -0.014 C 
HETATM   10  C10 UNL     1     -34.417  14.946  -7.007  1.00 20.00     0.043 C 
HETATM   11  C11 UNL     1     -34.826  17.450  -7.211  1.00 20.00     0.043 C 
HETATM   12  C12 UNL     1     -34.645  16.578  -0.883  1.00 20.00     0.010 C 
HETATM   13  N13 UNL     1     -33.677  19.125  -7.666  1.00 20.00    -0.192 NA
ENDROOT
TORSDOF 0
ENDMDL
MODEL 5
REMARK VINA RESULT:      -4.8      1.970      3.561
REMARK  0 active torsions:
REMARK  status: ('A' for Active; 'I' for Inactive)
ROOT
HETATM    1  C1  UNL     1     -34.940  15.809  -6.726  1.00 20.00     0.088 C 
HETATM    2  C2  UNL     1     -35.137  16.756  -4.519  1.00 20.00    -0.041 C 
HETATM    3  C3  UNL     1     -34.307  15.729  -3.883  1.00 20.00    -0.050 C 
HETATM    4  C4  UNL     1     -35.428  16.791  -5.830  1.00 20.00     0.101 C 
HETATM    5  C5  UNL     1     -34.119  14.490  -4.367  1.00 20.00    -0.081 C 
HETATM    6  C6  UNL     1     -35.659  17.834  -3.591  1.00 20.00     0.044 C 
HETATM    7  C7  UNL     1     -33.702  16.148  -2.566  1.00 20.00     0.040 C 
HETATM    8  C8  UNL     1     -34.763  16.598  -1.554  1.00 20.00     0.009 C 
HETATM    9  C9  UNL     1     -35.991  17.267  -2.201  1.00 20.00    -0.014 C 
HETATM   10  C10 UNL     1     -33.255  13.488  -3.661  1.00 20.00     0.043 C 
HETATM   11  C11 UNL     1     -34.761  14.031  -5.641  1.00 20.00     0.043 C 
HETATM   12  C12 UNL     1     -36.571  18.345  -1.287  1.00 20.00     0.010 C 
HETATM   13  N13 UNL     1     -34.544  15.007  -7.466  1.00 20.00    -0.192 NA
ENDROOT
TORSDOF 0
ENDMDL
MODEL 6
REMARK VINA RESULT:      -4.6      2.898      4.359
REMARK  0 active torsions:
REMARK  status: ('A' for Active; 'I' for Inactive)
ROOT
HETATM    1  C1  UNL     1     -37.141  15.932  -4.907  1.00 20.00     0.088 C 
HETATM    2  C2  UNL     1     -36.104  16.952  -2.986  1.00 20.00    -0.041 C 
HETATM    3  C3  UNL     1     -34.951  16.047  -2.988  1.00 20.00    -0.050 C 
HETATM    4  C4  UNL     1     -37.113  16.898  -3.871  1.00 20.00     0.101 C 
HETATM    5  C5  UNL     1     -34.949  14.814  -3.521  1.00 20.00    -0.081 C 
HETATM    6  C6  UNL     1     -36.094  18.011  -1.901  1.00 20.00     0.044 C 
HETATM    7  C7  UNL     1     -33.738  16.586  -2.272  1.00 20.00     0.040 C 
HETATM    8  C8  UNL     1     -34.040  16.968  -0.818  1.00 20.00     0.009 C 
HETATM    9  C9  UNL     1     -35.479  17.476  -0.598  1.00 20.00    -0.014 C 
HETATM   10  C10 UNL     1     -33.731  13.940  -3.487  1.00 20.00     0.043 C 
HETATM   11  C11 UNL     1     -36.162  14.234  -4.182  1.00 20.00     0.043 C 
HETATM   12  C12 UNL     1     -35.524  18.527   0.509  1.00 20.00     0.010 C 
HETATM   13  N13 UNL     1     -37.172  15.144  -5.758  1.00 20.00    -0.192 NA
ENDROOT
TORSDOF 0
ENDMDL
MODEL 7
REMARK VINA RESULT:      -4.6      2.607      3.634
REMARK  0 active torsions:
REMARK  status: ('A' for Active; 'I' for Inactive)
ROOT
HETATM    1  C1  UNL     1     -35.604  16.722  -2.027  1.00 20.00     0.088 C 
HETATM    2  C2  UNL     1     -36.031  15.735  -4.184  1.00 20.00    -0.041 C 
HETATM    3  C3  UNL     1     -34.810  14.924  -4.179  1.00 20.00    -0.050 C 
HETATM    4  C4  UNL     1     -36.395  16.564  -3.191  1.00 20.00     0.101 C 
HETATM    5  C5  UNL     1     -33.704  15.212  -3.473  1.00 20.00    -0.081 C 
HETATM    6  C6  UNL     1     -36.911  15.574  -5.408  1.00 20.00     0.044 C 
HETATM    7  C7  UNL     1     -34.853  13.731  -5.101  1.00 20.00     0.040 C 
HETATM    8  C8  UNL     1     -35.157  14.125  -6.551  1.00 20.00     0.009 C 
HETATM    9  C9  UNL     1     -36.073  15.359  -6.678  1.00 20.00    -0.014 C 
HETATM   10  C10 UNL     1     -32.488  14.336  -3.516  1.00 20.00     0.043 C 
HETATM   11  C11 UNL     1     -33.615  16.427  -2.599  1.00 20.00     0.043 C 
HETATM   12  C12 UNL     1     -36.961  15.255  -7.917  1.00 20.00     0.010 C 
HETATM   13  N13 UNL     1     -34.960  16.857  -1.071  1.00 20.00    -0.192 NA
ENDROOT
TORSDOF 0
ENDMDL
MODEL 8
REMARK VINA RESULT:      -4.5      1.704      2.119
REMARK  0 active torsions:
REMARK  status: ('A' for Active; 'I' for Inactive)
ROOT
HETATM    1  C1  UNL     1     -34.044  13.436  -4.347  1.00 20.00     0.088 C 
HETATM    2  C2  UNL     1     -35.291  14.860  -5.838  1.00 20.00    -0.041 C 
HETATM    3  C3  UNL     1     -34.734  16.102  -5.298  1.00 20.00    -0.050 C 
HETATM    4  C4  UNL     1     -34.973  13.631  -5.398  1.00 20.00     0.101 C 
HETATM    5  C5  UNL     1     -34.230  16.240  -4.060  1.00 20.00    -0.081 C 
HETATM    6  C6  UNL     1     -36.274  15.032  -6.979  1.00 20.00     0.044 C 
HETATM    7  C7  UNL     1     -34.821  17.281  -6.235  1.00 20.00     0.040 C 
HETATM    8  C8  UNL     1     -36.259  17.561  -6.689  1.00 20.00     0.009 C 
HETATM    9  C9  UNL     1     -37.132  16.295  -6.796  1.00 20.00    -0.014 C 
HETATM   10  C10 UNL     1     -33.676  17.545  -3.572  1.00 20.00     0.043 C 
HETATM   11  C11 UNL     1     -34.192  15.099  -3.089  1.00 20.00     0.043 C 
HETATM   12  C12 UNL     1     -38.160  16.435  -7.918  1.00 20.00     0.010 C 
HETATM   13  N13 UNL     1     -33.284  13.269  -3.485  1.00 20.00    -0.192 NA
ENDROOT
TORSDOF 0
ENDMDL
MODEL 9
REMARK VINA RESULT:      -4.4      2.521      4.367
REMARK  0 active torsions:
REMARK  status: ('A' for Active; 'I' for Inactive)
ROOT
HETATM    1  C1  UNL     1     -37.808  17.108  -6.028  1.00 20.00     0.088 C 
HETATM    2  C2  UNL     1     -36.216  17.049  -4.220  1.00 20.00    -0.041 C 
HETATM    3  C3  UNL     1     -35.207  16.310  -4.984  1.00 20.00    -0.050 C 
HETATM    4  C4  UNL     1     -37.415  17.415  -4.702  1.00 20.00     0.101 C 
HETATM    5  C5  UNL     1     -35.473  15.518  -6.036  1.00 20.00    -0.081 C 
HETATM    6  C6  UNL     1     -35.818  17.411  -2.803  1.00 20.00     0.044 C 
HETATM    7  C7  UNL     1     -33.801  16.453  -4.456  1.00 20.00     0.040 C 
HETATM    8  C8  UNL     1     -33.685  16.035  -2.986  1.00 20.00     0.009 C 
HETATM    9  C9  UNL     1     -34.958  16.311  -2.161  1.00 20.00    -0.014 C 
HETATM   10  C10 UNL     1     -34.389  14.791  -6.773  1.00 20.00     0.043 C 
HETATM   11  C11 UNL     1     -36.870  15.312  -6.539  1.00 20.00     0.043 C 
HETATM   12  C12 UNL     1     -34.607  16.653  -0.714  1.00 20.00     0.010 C 
HETATM   13  N13 UNL     1     -38.137  16.859  -7.112  1.00 20.00    -0.192 NA
ENDROOT
TORSDOF 0
ENDMDL
