MODEL 1
REMARK VINA RESULT:      -4.8      0.000      0.000
REMARK  1 active torsions:
REMARK  status: ('A' for Active; 'I' for Inactive)
REMARK    1  A    between atoms: C5_5  and  C10_10 
ROOT
HETATM    1  C1  UNL     1     -33.701  14.354  -3.640  1.00 20.00     0.046 C 
HETATM    2  C2  UNL     1     -33.687  15.641  -3.276  1.00 20.00    -0.018 C 
HETATM    3  C3  UNL     1     -34.964  13.726  -4.087  1.00 20.00     0.149 C 
HETATM    4  C4  UNL     1     -36.185  14.604  -4.238  1.00 20.00     0.088 C 
HETATM    5  C5  UNL     1     -34.904  16.533  -3.211  1.00 20.00     0.015 C 
HETATM    6  C6  UNL     1     -36.211  15.705  -3.173  1.00 20.00    -0.003 C 
HETATM    7  C7  UNL     1     -37.458  16.575  -3.365  1.00 20.00     0.011 C 
HETATM    8  O11 UNL     1     -34.981  12.534  -4.389  1.00 20.00    -0.293 OA
ENDROOT
BRANCH   5   9
HETATM    9  C10 UNL     1     -34.792  17.461  -1.996  1.00 20.00    -0.015 C 
HETATM   10  C8  UNL     1     -34.619  16.648  -0.717  1.00 20.00     0.010 C 
HETATM   11  C9  UNL     1     -33.633  18.437  -2.176  1.00 20.00     0.010 C 
ENDBRANCH   5   9
TORSDOF 1
ENDMDL
MODEL 2
REMARK VINA RESULT:      -4.6      2.520      4.312
REMARK  1 active torsions:
REMARK  status: ('A' for Active; 'I' for Inactive)
REMARK    1  A    between atoms: C5_5  and  C10_10 
ROOT
HETATM    1  C1  UNL     1     -34.447  16.567  -1.236  1.00 20.00     0.046 C 
HETATM    2  C2  UNL     1     -34.865  15.719  -2.183  1.00 20.00    -0.018 C 
HETATM    3  C3  UNL     1     -33.805  17.844  -1.620  1.00 20.00     0.149 C 
HETATM    4  C4  UNL     1     -33.757  18.207  -3.087  1.00 20.00     0.088 C 
HETATM    5  C5  UNL     1     -34.676  15.920  -3.667  1.00 20.00     0.015 C 
HETATM    6  C6  UNL     1     -33.571  16.964  -3.961  1.00 20.00    -0.003 C 
HETATM    7  C7  UNL     1     -33.535  17.374  -5.436  1.00 20.00     0.011 C 
HETATM    8  O11 UNL     1     -33.391  18.606  -0.749  1.00 20.00    -0.293 OA
ENDROOT
BRANCH   5   9
HETATM    9  C10 UNL     1     -34.365  14.572  -4.329  1.00 20.00    -0.015 C 
HETATM   10  C8  UNL     1     -33.154  13.921  -3.670  1.00 20.00     0.010 C 
HETATM   11  C9  UNL     1     -35.580  13.651  -4.257  1.00 20.00     0.010 C 
ENDBRANCH   5   9
TORSDOF 1
ENDMDL
MODEL 3
REMARK VINA RESULT:      -4.5      1.504      2.862
REMARK  1 active torsions:
REMARK  status: ('A' for Active; 'I' for Inactive)
REMARK    1  A    between atoms: C5_5  and  C10_10 
ROOT
HETATM    1  C1  UNL     1     -36.420  15.812  -4.958  1.00 20.00     0.046 C 
HETATM    2  C2  UNL     1     -35.971  16.041  -3.718  1.00 20.00    -0.018 C 
HETATM    3  C3  UNL     1     -35.800  14.753  -5.784  1.00 20.00     0.149 C 
HETATM    4  C4  UNL     1     -34.752  13.870  -5.146  1.00 20.00     0.088 C 
HETATM    5  C5  UNL     1     -34.799  15.334  -3.081  1.00 20.00     0.015 C 
HETATM    6  C6  UNL     1     -33.902  14.654  -4.143  1.00 20.00    -0.003 C 
HETATM    7  C7  UNL     1     -32.859  13.723  -3.516  1.00 20.00     0.011 C 
HETATM    8  O11 UNL     1     -36.192  14.568  -6.935  1.00 20.00    -0.293 OA
ENDROOT
BRANCH   5   9
HETATM    9  C10 UNL     1     -34.004  16.331  -2.229  1.00 20.00    -0.015 C 
HETATM   10  C8  UNL     1     -33.827  17.648  -2.977  1.00 20.00     0.010 C 
HETATM   11  C9  UNL     1     -34.698  16.559  -0.890  1.00 20.00     0.010 C 
ENDBRANCH   5   9
TORSDOF 1
ENDMDL
MODEL 4
REMARK VINA RESULT:      -4.4     11.859     12.899
REMARK  1 active torsions:
REMARK  status: ('A' for Active; 'I' for Inactive)
REMARK    1  A    between atoms: C5_5  and  C10_10 
ROOT
HETATM    1  C1  UNL     1     -35.020   4.490   4.217  1.00 20.00     0.046 C 
HETATM    2  C2  UNL     1     -34.384   5.503   3.616  1.00 20.00    -0.018 C 
HETATM    3  C3  UNL     1     -35.176   4.485   5.688  1.00 20.00     0.149 C 
HETATM    4  C4  UNL     1     -34.717   5.701   6.461  1.00 20.00     0.088 C 
HETATM    5  C5  UNL     1     -33.725   6.656   4.335  1.00 20.00     0.015 C 
HETATM    6  C6  UNL     1     -33.471   6.324   5.825  1.00 20.00    -0.003 C 
HETATM    7  C7  UNL     1     -33.043   7.553   6.632  1.00 20.00     0.011 C 
HETATM    8  O11 UNL     1     -35.731   3.537   6.240  1.00 20.00    -0.293 OA
ENDROOT
BRANCH   5   9
HETATM    9  C10 UNL     1     -32.425   7.031   3.614  1.00 20.00    -0.015 C 
HETATM   10  C8  UNL     1     -31.820   5.807   2.934  1.00 20.00     0.010 C 
HETATM   11  C9  UNL     1     -32.681   8.141   2.599  1.00 20.00     0.010 C 
ENDBRANCH   5   9
TORSDOF 1
ENDMDL
MODEL 5
REMARK VINA RESULT:      -4.4      2.472      4.145
REMARK  1 active torsions:
REMARK  status: ('A' for Active; 'I' for Inactive)
REMARK    1  A    between atoms: C5_5  and  C10_10 
ROOT
HETATM    1  C1  UNL     1     -34.745  13.273  -4.545  1.00 20.00     0.046 C 
HETATM    2  C2  UNL     1     -35.569  14.125  -5.166  1.00 20.00    -0.018 C 
HETATM    3  C3  UNL     1     -33.472  13.763  -3.972  1.00 20.00     0.149 C 
HETATM    4  C4  UNL     1     -33.202  15.251  -3.996  1.00 20.00     0.088 C 
HETATM    5  C5  UNL     1     -35.280  15.588  -5.404  1.00 20.00     0.015 C 
HETATM    6  C6  UNL     1     -33.770  15.897  -5.263  1.00 20.00    -0.003 C 
HETATM    7  C7  UNL     1     -33.482  17.401  -5.246  1.00 20.00     0.011 C 
HETATM    8  O11 UNL     1     -32.700  12.973  -3.432  1.00 20.00    -0.293 OA
ENDROOT
BRANCH   5   9
HETATM    9  C10 UNL     1     -35.810  15.995  -6.785  1.00 20.00    -0.015 C 
HETATM   10  C8  UNL     1     -35.097  15.211  -7.881  1.00 20.00     0.010 C 
HETATM   11  C9  UNL     1     -37.318  15.779  -6.860  1.00 20.00     0.010 C 
ENDBRANCH   5   9
TORSDOF 1
ENDMDL
MODEL 6
REMARK VINA RESULT:      -4.4      1.799      2.621
REMARK  1 active torsions:
REMARK  status: ('A' for Active; 'I' for Inactive)
REMARK    1  A    between atoms: C5_5  and  C10_10 
ROOT
HETATM    1  C1  UNL     1     -34.747  14.698  -5.857  1.00 20.00     0.046 C 
HETATM    2  C2  UNL     1     -34.852  16.016  -5.647  1.00 20.00    -0.018 C 
HETATM    3  C3  UNL     1     -34.656  13.772  -4.707  1.00 20.00     0.149 C 
HETATM    4  C4  UNL     1     -34.812  14.343  -3.315  1.00 20.00     0.088 C 
HETATM    5  C5  UNL     1     -34.817  16.680  -4.292  1.00 20.00     0.015 C 
HETATM    6  C6  UNL     1     -34.206  15.746  -3.219  1.00 20.00    -0.003 C 
HETATM    7  C7  UNL     1     -34.391  16.289  -1.799  1.00 20.00     0.011 C 
HETATM    8  O11 UNL     1     -34.526  12.566  -4.902  1.00 20.00    -0.293 OA
ENDROOT
BRANCH   5   9
HETATM    9  C10 UNL     1     -34.046  18.002  -4.390  1.00 20.00    -0.015 C 
HETATM   10  C8  UNL     1     -33.575  18.238  -5.821  1.00 20.00     0.010 C 
HETATM   11  C9  UNL     1     -34.913  19.160  -3.908  1.00 20.00     0.010 C 
ENDBRANCH   5   9
TORSDOF 1
ENDMDL
MODEL 7
REMARK VINA RESULT:      -4.4      1.689      2.178
REMARK  1 active torsions:
REMARK  status: ('A' for Active; 'I' for Inactive)
REMARK    1  A    between atoms: C5_5  and  C10_10 
ROOT
HETATM    1  C1  UNL     1     -34.236  14.216  -3.369  1.00 20.00     0.046 C 
HETATM    2  C2  UNL     1     -33.920  15.506  -3.205  1.00 20.00    -0.018 C 
HETATM    3  C3  UNL     1     -34.536  13.697  -4.722  1.00 20.00     0.149 C 
HETATM    4  C4  UNL     1     -34.352  14.624  -5.902  1.00 20.00     0.088 C 
HETATM    5  C5  UNL     1     -33.906  16.539  -4.305  1.00 20.00     0.015 C 
HETATM    6  C6  UNL     1     -34.716  16.066  -5.536  1.00 20.00    -0.003 C 
HETATM    7  C7  UNL     1     -34.509  16.972  -6.754  1.00 20.00     0.011 C 
HETATM    8  O11 UNL     1     -34.859  12.519  -4.867  1.00 20.00    -0.293 OA
ENDROOT
BRANCH   5   9
HETATM    9  C10 UNL     1     -34.437  17.871  -3.762  1.00 20.00    -0.015 C 
HETATM   10  C8  UNL     1     -35.936  17.779  -3.498  1.00 20.00     0.010 C 
HETATM   11  C9  UNL     1     -33.688  18.265  -2.493  1.00 20.00     0.010 C 
ENDBRANCH   5   9
TORSDOF 1
ENDMDL
MODEL 8
REMARK VINA RESULT:      -4.3      2.559      3.373
REMARK  1 active torsions:
REMARK  status: ('A' for Active; 'I' for Inactive)
REMARK    1  A    between atoms: C5_5  and  C10_10 
ROOT
HETATM    1  C1  UNL     1     -33.364  15.284  -3.963  1.00 20.00     0.046 C 
HETATM    2  C2  UNL     1     -33.393  16.229  -4.911  1.00 20.00    -0.018 C 
HETATM    3  C3  UNL     1     -34.018  13.978  -4.202  1.00 20.00     0.149 C 
HETATM    4  C4  UNL     1     -34.595  13.707  -5.573  1.00 20.00     0.088 C 
HETATM    5  C5  UNL     1     -34.118  16.107  -6.229  1.00 20.00     0.015 C 
HETATM    6  C6  UNL     1     -35.179  14.981  -6.190  1.00 20.00    -0.003 C 
HETATM    7  C7  UNL     1     -35.746  14.666  -7.578  1.00 20.00     0.011 C 
HETATM    8  O11 UNL     1     -34.019  13.124  -3.318  1.00 20.00    -0.293 OA
ENDROOT
BRANCH   5   9
HETATM    9  C10 UNL     1     -34.745  17.458  -6.594  1.00 20.00    -0.015 C 
HETATM   10  C8  UNL     1     -35.929  17.759  -5.681  1.00 20.00     0.010 C 
HETATM   11  C9  UNL     1     -33.702  18.568  -6.511  1.00 20.00     0.010 C 
ENDBRANCH   5   9
TORSDOF 1
ENDMDL
MODEL 9
REMARK VINA RESULT:      -4.3      1.561      2.311
REMARK  1 active torsions:
REMARK  status: ('A' for Active; 'I' for Inactive)
REMARK    1  A    between atoms: C5_5  and  C10_10 
ROOT
HETATM    1  C1  UNL     1     -34.876  14.177  -3.921  1.00 20.00     0.046 C 
HETATM    2  C2  UNL     1     -34.581  15.028  -2.932  1.00 20.00    -0.018 C 
HETATM    3  C3  UNL     1     -34.625  14.563  -5.327  1.00 20.00     0.149 C 
HETATM    4  C4  UNL     1     -33.919  15.874  -5.594  1.00 20.00     0.088 C 
HETATM    5  C5  UNL     1     -34.057  16.430  -3.127  1.00 20.00     0.015 C 
HETATM    6  C6  UNL     1     -34.317  16.937  -4.566  1.00 20.00    -0.003 C 
HETATM    7  C7  UNL     1     -33.577  18.244  -4.867  1.00 20.00     0.011 C 
HETATM    8  O11 UNL     1     -34.928  13.793  -6.236  1.00 20.00    -0.293 OA
ENDROOT
BRANCH   5   9
HETATM    9  C10 UNL     1     -34.686  17.361  -2.082  1.00 20.00    -0.015 C 
HETATM   10  C8  UNL     1     -36.147  17.635  -2.423  1.00 20.00     0.010 C 
HETATM   11  C9  UNL     1     -34.561  16.755  -0.687  1.00 20.00     0.010 C 
ENDBRANCH   5   9
TORSDOF 1
ENDMDL
