MODEL 1
REMARK VINA RESULT:      -3.9      0.000      0.000
REMARK  1 active torsions:
REMARK  status: ('A' for Active; 'I' for Inactive)
REMARK    1  A    between atoms: C3_3  and  C7_7 
ROOT
HETATM    1  C1  UNL     1     -32.815   6.890   2.963  1.00 20.00     0.255 C 
HETATM    2  C2  UNL     1     -34.313   5.300   3.407  1.00 20.00     0.157 C 
HETATM    3  C3  UNL     1     -33.603   5.728   4.678  1.00 20.00     0.164 C 
HETATM    4  C4  UNL     1     -35.717   5.851   3.198  1.00 20.00     0.043 C 
HETATM    5  O8  UNL     1     -33.459   5.838   2.394  1.00 20.00    -0.314 OA
HETATM    6  O9  UNL     1     -32.993   6.962   4.307  1.00 20.00    -0.313 OA
HETATM    7  S10 UNL     1     -31.916   7.969   2.110  1.00 20.00    -0.025 SA
ENDROOT
BRANCH   3   8
HETATM    8  C7  UNL     1     -34.469   5.912   5.909  1.00 20.00     0.010 C 
HETATM    9  C5  UNL     1     -34.744   4.569   6.591  1.00 20.00     0.012 C 
HETATM   10  C6  UNL     1     -33.816   6.881   6.898  1.00 20.00     0.012 C 
ENDBRANCH   3   8
TORSDOF 1
ENDMDL
MODEL 2
REMARK VINA RESULT:      -3.9     12.187     12.968
REMARK  1 active torsions:
REMARK  status: ('A' for Active; 'I' for Inactive)
REMARK    1  A    between atoms: C3_3  and  C7_7 
ROOT
HETATM    1  C1  UNL     1     -34.262  17.861  -3.973  1.00 20.00     0.255 C 
HETATM    2  C2  UNL     1     -35.403  16.586  -2.544  1.00 20.00     0.157 C 
HETATM    3  C3  UNL     1     -34.927  15.761  -3.725  1.00 20.00     0.164 C 
HETATM    4  C4  UNL     1     -34.612  16.437  -1.251  1.00 20.00     0.043 C 
HETATM    5  O8  UNL     1     -35.235  17.921  -3.028  1.00 20.00    -0.314 OA
HETATM    6  O9  UNL     1     -33.929  16.590  -4.316  1.00 20.00    -0.313 OA
HETATM    7  S10 UNL     1     -33.555  19.190  -4.631  1.00 20.00    -0.025 SA
ENDROOT
BRANCH   3   8
HETATM    8  C7  UNL     1     -34.360  14.390  -3.410  1.00 20.00     0.010 C 
HETATM    9  C5  UNL     1     -35.050  13.308  -4.245  1.00 20.00     0.012 C 
HETATM   10  C6  UNL     1     -32.848  14.355  -3.646  1.00 20.00     0.012 C 
ENDBRANCH   3   8
TORSDOF 1
ENDMDL
MODEL 3
REMARK VINA RESULT:      -3.8     12.559     13.202
REMARK  1 active torsions:
REMARK  status: ('A' for Active; 'I' for Inactive)
REMARK    1  A    between atoms: C3_3  and  C7_7 
ROOT
HETATM    1  C1  UNL     1     -33.640  17.438  -5.057  1.00 20.00     0.255 C 
HETATM    2  C2  UNL     1     -33.170  15.657  -3.801  1.00 20.00     0.157 C 
HETATM    3  C3  UNL     1     -33.830  16.736  -2.963  1.00 20.00     0.164 C 
HETATM    4  C4  UNL     1     -34.056  14.490  -4.221  1.00 20.00     0.043 C 
HETATM    5  O8  UNL     1     -32.789  16.382  -4.973  1.00 20.00    -0.314 OA
HETATM    6  O9  UNL     1     -34.397  17.603  -3.942  1.00 20.00    -0.313 OA
HETATM    7  S10 UNL     1     -33.746  18.412  -6.375  1.00 20.00    -0.025 SA
ENDROOT
BRANCH   3   8
HETATM    8  C7  UNL     1     -34.891  16.278  -1.980  1.00 20.00     0.010 C 
HETATM    9  C5  UNL     1     -34.585  16.787  -0.569  1.00 20.00     0.012 C 
HETATM   10  C6  UNL     1     -36.281  16.744  -2.419  1.00 20.00     0.012 C 
ENDBRANCH   3   8
TORSDOF 1
ENDMDL
MODEL 4
REMARK VINA RESULT:      -3.8     11.680     12.451
REMARK  1 active torsions:
REMARK  status: ('A' for Active; 'I' for Inactive)
REMARK    1  A    between atoms: C3_3  and  C7_7 
ROOT
HETATM    1  C1  UNL     1     -34.487  16.597  -1.418  1.00 20.00     0.255 C 
HETATM    2  C2  UNL     1     -33.447  16.204  -3.351  1.00 20.00     0.157 C 
HETATM    3  C3  UNL     1     -34.449  15.104  -3.056  1.00 20.00     0.164 C 
HETATM    4  C4  UNL     1     -33.870  17.247  -4.378  1.00 20.00     0.043 C 
HETATM    5  O8  UNL     1     -33.325  16.844  -2.078  1.00 20.00    -0.314 OA
HETATM    6  O9  UNL     1     -35.268  15.677  -2.040  1.00 20.00    -0.313 OA
HETATM    7  S10 UNL     1     -34.905  17.340  -0.014  1.00 20.00    -0.025 SA
ENDROOT
BRANCH   3   8
HETATM    8  C7  UNL     1     -35.300  14.631  -4.220  1.00 20.00     0.010 C 
HETATM    9  C5  UNL     1     -34.899  13.218  -4.652  1.00 20.00     0.012 C 
HETATM   10  C6  UNL     1     -36.788  14.671  -3.862  1.00 20.00     0.012 C 
ENDBRANCH   3   8
TORSDOF 1
ENDMDL
MODEL 5
REMARK VINA RESULT:      -3.8     12.057     12.832
REMARK  1 active torsions:
REMARK  status: ('A' for Active; 'I' for Inactive)
REMARK    1  A    between atoms: C3_3  and  C7_7 
ROOT
HETATM    1  C1  UNL     1     -35.992  15.596  -3.819  1.00 20.00     0.255 C 
HETATM    2  C2  UNL     1     -33.887  16.307  -4.003  1.00 20.00     0.157 C 
HETATM    3  C3  UNL     1     -34.596  17.039  -2.880  1.00 20.00     0.164 C 
HETATM    4  C4  UNL     1     -32.935  15.192  -3.589  1.00 20.00     0.043 C 
HETATM    5  O8  UNL     1     -34.981  15.727  -4.718  1.00 20.00    -0.314 OA
HETATM    6  O9  UNL     1     -35.748  16.231  -2.645  1.00 20.00    -0.313 OA
HETATM    7  S10 UNL     1     -37.366  14.748  -4.121  1.00 20.00    -0.025 SA
ENDROOT
BRANCH   3   8
HETATM    8  C7  UNL     1     -33.813  17.233  -1.595  1.00 20.00     0.010 C 
HETATM    9  C5  UNL     1     -33.310  18.674  -1.474  1.00 20.00     0.012 C 
HETATM   10  C6  UNL     1     -34.663  16.867  -0.375  1.00 20.00     0.012 C 
ENDBRANCH   3   8
TORSDOF 1
ENDMDL
MODEL 6
REMARK VINA RESULT:      -3.7     11.654     13.236
REMARK  1 active torsions:
REMARK  status: ('A' for Active; 'I' for Inactive)
REMARK    1  A    between atoms: C3_3  and  C7_7 
ROOT
HETATM    1  C1  UNL     1     -34.299  16.473  -2.824  1.00 20.00     0.255 C 
HETATM    2  C2  UNL     1     -34.738  14.467  -3.691  1.00 20.00     0.157 C 
HETATM    3  C3  UNL     1     -34.963  15.551  -4.727  1.00 20.00     0.164 C 
HETATM    4  C4  UNL     1     -33.444  13.671  -3.814  1.00 20.00     0.043 C 
HETATM    5  O8  UNL     1     -34.694  15.220  -2.476  1.00 20.00    -0.314 OA
HETATM    6  O9  UNL     1     -34.292  16.678  -4.165  1.00 20.00    -0.313 OA
HETATM    7  S10 UNL     1     -33.867  17.621  -1.730  1.00 20.00    -0.025 SA
ENDROOT
BRANCH   3   8
HETATM    8  C7  UNL     1     -34.448  15.271  -6.126  1.00 20.00     0.010 C 
HETATM    9  C5  UNL     1     -35.405  14.349  -6.887  1.00 20.00     0.012 C 
HETATM   10  C6  UNL     1     -34.239  16.573  -6.904  1.00 20.00     0.012 C 
ENDBRANCH   3   8
TORSDOF 1
ENDMDL
MODEL 7
REMARK VINA RESULT:      -3.7     11.897     12.941
REMARK  1 active torsions:
REMARK  status: ('A' for Active; 'I' for Inactive)
REMARK    1  A    between atoms: C3_3  and  C7_7 
ROOT
HETATM    1  C1  UNL     1     -35.253  16.291  -2.529  1.00 20.00     0.255 C 
HETATM    2  C2  UNL     1     -36.751  16.019  -4.157  1.00 20.00     0.157 C 
HETATM    3  C3  UNL     1     -35.365  15.649  -4.648  1.00 20.00     0.164 C 
HETATM    4  C4  UNL     1     -37.677  14.861  -3.808  1.00 20.00     0.043 C 
HETATM    5  O8  UNL     1     -36.460  16.744  -2.960  1.00 20.00    -0.314 OA
HETATM    6  O9  UNL     1     -34.622  15.505  -3.438  1.00 20.00    -0.313 OA
HETATM    7  S10 UNL     1     -34.624  16.655  -1.056  1.00 20.00    -0.025 SA
ENDROOT
BRANCH   3   8
HETATM    8  C7  UNL     1     -35.255  14.392  -5.490  1.00 20.00     0.010 C 
HETATM    9  C5  UNL     1     -34.658  14.705  -6.865  1.00 20.00     0.012 C 
HETATM   10  C6  UNL     1     -34.415  13.328  -4.779  1.00 20.00     0.012 C 
ENDBRANCH   3   8
TORSDOF 1
ENDMDL
MODEL 8
REMARK VINA RESULT:      -3.7     11.783     12.696
REMARK  1 active torsions:
REMARK  status: ('A' for Active; 'I' for Inactive)
REMARK    1  A    between atoms: C3_3  and  C7_7 
ROOT
HETATM    1  C1  UNL     1     -36.824  15.251  -3.904  1.00 20.00     0.255 C 
HETATM    2  C2  UNL     1     -34.634  15.199  -4.318  1.00 20.00     0.157 C 
HETATM    3  C3  UNL     1     -34.988  16.426  -3.500  1.00 20.00     0.164 C 
HETATM    4  C4  UNL     1     -34.000  14.040  -3.560  1.00 20.00     0.043 C 
HETATM    5  O8  UNL     1     -35.915  14.781  -4.798  1.00 20.00    -0.314 OA
HETATM    6  O9  UNL     1     -36.292  16.120  -3.008  1.00 20.00    -0.313 OA
HETATM    7  S10 UNL     1     -38.406  14.808  -3.906  1.00 20.00    -0.025 SA
ENDROOT
BRANCH   3   8
HETATM    8  C7  UNL     1     -34.056  16.771  -2.354  1.00 20.00     0.010 C 
HETATM    9  C5  UNL     1     -33.625  18.238  -2.423  1.00 20.00     0.012 C 
HETATM   10  C6  UNL     1     -34.715  16.477  -1.004  1.00 20.00     0.012 C 
ENDBRANCH   3   8
TORSDOF 1
ENDMDL
MODEL 9
REMARK VINA RESULT:      -3.7     11.974     13.523
REMARK  1 active torsions:
REMARK  status: ('A' for Active; 'I' for Inactive)
REMARK    1  A    between atoms: C3_3  and  C7_7 
ROOT
HETATM    1  C1  UNL     1     -36.199  16.154  -3.638  1.00 20.00     0.255 C 
HETATM    2  C2  UNL     1     -35.834  14.044  -4.260  1.00 20.00     0.157 C 
HETATM    3  C3  UNL     1     -35.955  14.941  -5.478  1.00 20.00     0.164 C 
HETATM    4  C4  UNL     1     -34.423  13.632  -3.861  1.00 20.00     0.043 C 
HETATM    5  O8  UNL     1     -36.375  14.871  -3.227  1.00 20.00    -0.314 OA
HETATM    6  O9  UNL     1     -35.798  16.249  -4.932  1.00 20.00    -0.313 OA
HETATM    7  S10 UNL     1     -36.440  17.457  -2.667  1.00 20.00    -0.025 SA
ENDROOT
BRANCH   3   8
HETATM    8  C7  UNL     1     -34.956  14.708  -6.595  1.00 20.00     0.010 C 
HETATM    9  C5  UNL     1     -35.671  14.422  -7.918  1.00 20.00     0.012 C 
HETATM   10  C6  UNL     1     -34.019  15.908  -6.750  1.00 20.00     0.012 C 
ENDBRANCH   3   8
TORSDOF 1
ENDMDL
