MODEL 1
REMARK VINA RESULT:      -5.4      0.000      0.000
REMARK  0 active torsions:
REMARK  status: ('A' for Active; 'I' for Inactive)
ROOT
HETATM    1  C1  UNL     1     -34.874  15.542  -7.693  1.00 20.00    -0.004 C 
HETATM    2  C2  UNL     1     -35.096  14.247  -7.109  1.00 20.00    -0.003 C 
HETATM    3  C3  UNL     1     -35.025  16.655  -6.966  1.00 20.00    -0.025 C 
HETATM    4  C4  UNL     1     -35.197  14.088  -5.781  1.00 20.00    -0.009 C 
HETATM    5  C5  UNL     1     -36.178  15.059  -3.709  1.00 20.00     0.140 C 
HETATM    6  C6  UNL     1     -35.407  16.606  -5.512  1.00 20.00     0.048 C 
HETATM    7  C7  UNL     1     -36.096  15.968  -2.500  1.00 20.00     0.079 C 
HETATM    8  C8  UNL     1     -34.712  15.933  -1.877  1.00 20.00     0.008 C 
HETATM    9  C9  UNL     1     -33.623  16.223  -2.906  1.00 20.00     0.006 C 
HETATM   10  C10 UNL     1     -33.682  15.265  -4.116  1.00 20.00     0.001 C 
HETATM   11  C11 UNL     1     -35.096  15.246  -4.793  1.00 20.00     0.044 C 
HETATM   12  C12 UNL     1     -33.185  13.872  -3.679  1.00 20.00     0.011 C 
HETATM   13  O13 UNL     1     -37.126  14.284  -3.835  1.00 20.00    -0.297 OA
ENDROOT
TORSDOF 0
ENDMDL
MODEL 2
REMARK VINA RESULT:      -5.4      1.902      4.054
REMARK  0 active torsions:
REMARK  status: ('A' for Active; 'I' for Inactive)
ROOT
HETATM    1  C1  UNL     1     -33.558  18.379  -1.134  1.00 20.00    -0.004 C 
HETATM    2  C2  UNL     1     -33.804  18.779  -2.494  1.00 20.00    -0.003 C 
HETATM    3  C3  UNL     1     -34.022  17.212  -0.671  1.00 20.00    -0.025 C 
HETATM    4  C4  UNL     1     -34.261  17.909  -3.406  1.00 20.00    -0.009 C 
HETATM    5  C5  UNL     1     -35.883  16.059  -3.784  1.00 20.00     0.140 C 
HETATM    6  C6  UNL     1     -34.794  16.263  -1.546  1.00 20.00     0.048 C 
HETATM    7  C7  UNL     1     -36.241  14.587  -3.793  1.00 20.00     0.079 C 
HETATM    8  C8  UNL     1     -35.095  13.745  -4.324  1.00 20.00     0.008 C 
HETATM    9  C9  UNL     1     -33.794  14.029  -3.578  1.00 20.00     0.006 C 
HETATM   10  C10 UNL     1     -33.409  15.524  -3.610  1.00 20.00     0.001 C 
HETATM   11  C11 UNL     1     -34.563  16.448  -3.087  1.00 20.00     0.044 C 
HETATM   12  C12 UNL     1     -32.917  15.888  -5.025  1.00 20.00     0.011 C 
HETATM   13  O13 UNL     1     -36.673  16.889  -4.236  1.00 20.00    -0.297 OA
ENDROOT
TORSDOF 0
ENDMDL
MODEL 3
REMARK VINA RESULT:      -5.2      1.857      4.130
REMARK  0 active torsions:
REMARK  status: ('A' for Active; 'I' for Inactive)
ROOT
HETATM    1  C1  UNL     1     -35.568  17.166  -1.553  1.00 20.00    -0.004 C 
HETATM    2  C2  UNL     1     -34.450  16.263  -1.608  1.00 20.00    -0.003 C 
HETATM    3  C3  UNL     1     -36.107  17.655  -2.675  1.00 20.00    -0.025 C 
HETATM    4  C4  UNL     1     -34.083  15.676  -2.757  1.00 20.00    -0.009 C 
HETATM    5  C5  UNL     1     -33.735  16.065  -5.191  1.00 20.00     0.140 C 
HETATM    6  C6  UNL     1     -35.592  17.271  -4.035  1.00 20.00     0.048 C 
HETATM    7  C7  UNL     1     -34.237  16.073  -6.620  1.00 20.00     0.079 C 
HETATM    8  C8  UNL     1     -35.127  14.874  -6.897  1.00 20.00     0.008 C 
HETATM    9  C9  UNL     1     -36.257  14.764  -5.877  1.00 20.00     0.006 C 
HETATM   10  C10 UNL     1     -35.739  14.711  -4.423  1.00 20.00     0.001 C 
HETATM   11  C11 UNL     1     -34.798  15.918  -4.082  1.00 20.00     0.044 C 
HETATM   12  C12 UNL     1     -35.096  13.333  -4.168  1.00 20.00     0.011 C 
HETATM   13  O13 UNL     1     -32.542  16.263  -4.955  1.00 20.00    -0.297 OA
ENDROOT
TORSDOF 0
ENDMDL
MODEL 4
REMARK VINA RESULT:      -5.1      1.330      4.061
REMARK  0 active torsions:
REMARK  status: ('A' for Active; 'I' for Inactive)
ROOT
HETATM    1  C1  UNL     1     -35.160  17.683  -1.214  1.00 20.00    -0.004 C 
HETATM    2  C2  UNL     1     -36.418  17.668  -1.912  1.00 20.00    -0.003 C 
HETATM    3  C3  UNL     1     -34.240  16.739  -1.443  1.00 20.00    -0.025 C 
HETATM    4  C4  UNL     1     -36.611  16.888  -2.986  1.00 20.00    -0.009 C 
HETATM    5  C5  UNL     1     -36.200  14.617  -3.920  1.00 20.00     0.140 C 
HETATM    6  C6  UNL     1     -34.464  15.641  -2.446  1.00 20.00     0.048 C 
HETATM    7  C7  UNL     1     -35.358  13.639  -4.715  1.00 20.00     0.079 C 
HETATM    8  C8  UNL     1     -34.765  14.299  -5.947  1.00 20.00     0.008 C 
HETATM    9  C9  UNL     1     -34.007  15.575  -5.593  1.00 20.00     0.006 C 
HETATM   10  C10 UNL     1     -34.882  16.588  -4.823  1.00 20.00     0.001 C 
HETATM   11  C11 UNL     1     -35.537  15.959  -3.545  1.00 20.00     0.044 C 
HETATM   12  C12 UNL     1     -35.900  17.217  -5.796  1.00 20.00     0.011 C 
HETATM   13  O13 UNL     1     -37.321  14.290  -3.529  1.00 20.00    -0.297 OA
ENDROOT
TORSDOF 0
ENDMDL
MODEL 5
REMARK VINA RESULT:      -5.1      1.578      4.059
REMARK  0 active torsions:
REMARK  status: ('A' for Active; 'I' for Inactive)
ROOT
HETATM    1  C1  UNL     1     -34.006  17.599  -1.889  1.00 20.00    -0.004 C 
HETATM    2  C2  UNL     1     -34.517  16.321  -1.471  1.00 20.00    -0.003 C 
HETATM    3  C3  UNL     1     -33.691  17.824  -3.169  1.00 20.00    -0.025 C 
HETATM    4  C4  UNL     1     -34.942  15.415  -2.364  1.00 20.00    -0.009 C 
HETATM    5  C5  UNL     1     -34.426  14.358  -4.558  1.00 20.00     0.140 C 
HETATM    6  C6  UNL     1     -33.875  16.771  -4.228  1.00 20.00     0.048 C 
HETATM    7  C7  UNL     1     -34.553  14.299  -6.067  1.00 20.00     0.079 C 
HETATM    8  C8  UNL     1     -35.964  14.637  -6.514  1.00 20.00     0.008 C 
HETATM    9  C9  UNL     1     -36.435  15.968  -5.936  1.00 20.00     0.006 C 
HETATM   10  C10 UNL     1     -36.347  16.008  -4.395  1.00 20.00     0.001 C 
HETATM   11  C11 UNL     1     -34.914  15.651  -3.870  1.00 20.00     0.044 C 
HETATM   12  C12 UNL     1     -37.462  15.121  -3.804  1.00 20.00     0.011 C 
HETATM   13  O13 UNL     1     -33.872  13.442  -3.949  1.00 20.00    -0.297 OA
ENDROOT
TORSDOF 0
ENDMDL
MODEL 6
REMARK VINA RESULT:      -5.1      1.654      2.859
REMARK  0 active torsions:
REMARK  status: ('A' for Active; 'I' for Inactive)
ROOT
HETATM    1  C1  UNL     1     -38.256  15.787  -4.916  1.00 20.00    -0.004 C 
HETATM    2  C2  UNL     1     -37.586  15.183  -6.036  1.00 20.00    -0.003 C 
HETATM    3  C3  UNL     1     -37.719  15.741  -3.691  1.00 20.00    -0.025 C 
HETATM    4  C4  UNL     1     -36.304  14.795  -5.956  1.00 20.00    -0.009 C 
HETATM    5  C5  UNL     1     -34.635  13.662  -4.498  1.00 20.00     0.140 C 
HETATM    6  C6  UNL     1     -36.392  15.082  -3.433  1.00 20.00     0.048 C 
HETATM    7  C7  UNL     1     -33.555  13.701  -3.435  1.00 20.00     0.079 C 
HETATM    8  C8  UNL     1     -32.639  14.897  -3.624  1.00 20.00     0.008 C 
HETATM    9  C9  UNL     1     -33.427  16.201  -3.711  1.00 20.00     0.006 C 
HETATM   10  C10 UNL     1     -34.496  16.175  -4.824  1.00 20.00     0.001 C 
HETATM   11  C11 UNL     1     -35.465  14.949  -4.692  1.00 20.00     0.044 C 
HETATM   12  C12 UNL     1     -33.797  16.266  -6.196  1.00 20.00     0.011 C 
HETATM   13  O13 UNL     1     -34.875  12.612  -5.095  1.00 20.00    -0.297 OA
ENDROOT
TORSDOF 0
ENDMDL
MODEL 7
REMARK VINA RESULT:      -5.0      2.120      3.319
REMARK  0 active torsions:
REMARK  status: ('A' for Active; 'I' for Inactive)
ROOT
HETATM    1  C1  UNL     1     -34.274  13.288  -4.358  1.00 20.00    -0.004 C 
HETATM    2  C2  UNL     1     -33.224  14.061  -3.749  1.00 20.00    -0.003 C 
HETATM    3  C3  UNL     1     -35.553  13.666  -4.248  1.00 20.00    -0.025 C 
HETATM    4  C4  UNL     1     -33.448  15.300  -3.288  1.00 20.00    -0.009 C 
HETATM    5  C5  UNL     1     -35.060  16.715  -2.025  1.00 20.00     0.140 C 
HETATM    6  C6  UNL     1     -35.949  14.915  -3.510  1.00 20.00     0.048 C 
HETATM    7  C7  UNL     1     -36.248  17.654  -1.974  1.00 20.00     0.079 C 
HETATM    8  C8  UNL     1     -36.214  18.647  -3.122  1.00 20.00     0.008 C 
HETATM    9  C9  UNL     1     -36.076  17.945  -4.470  1.00 20.00     0.006 C 
HETATM   10  C10 UNL     1     -34.839  17.023  -4.533  1.00 20.00     0.001 C 
HETATM   11  C11 UNL     1     -34.810  15.983  -3.360  1.00 20.00     0.044 C 
HETATM   12  C12 UNL     1     -33.568  17.891  -4.623  1.00 20.00     0.011 C 
HETATM   13  O13 UNL     1     -34.402  16.496  -1.006  1.00 20.00    -0.297 OA
ENDROOT
TORSDOF 0
ENDMDL
MODEL 8
REMARK VINA RESULT:      -5.0      2.560      3.769
REMARK  0 active torsions:
REMARK  status: ('A' for Active; 'I' for Inactive)
ROOT
HETATM    1  C1  UNL     1     -34.479  13.884  -3.616  1.00 20.00    -0.004 C 
HETATM    2  C2  UNL     1     -35.694  14.639  -3.470  1.00 20.00    -0.003 C 
HETATM    3  C3  UNL     1     -33.292  14.501  -3.661  1.00 20.00    -0.025 C 
HETATM    4  C4  UNL     1     -35.674  15.931  -3.111  1.00 20.00    -0.009 C 
HETATM    5  C5  UNL     1     -34.511  18.101  -3.478  1.00 20.00     0.140 C 
HETATM    6  C6  UNL     1     -33.171  15.995  -3.539  1.00 20.00     0.048 C 
HETATM    7  C7  UNL     1     -33.439  19.111  -3.123  1.00 20.00     0.079 C 
HETATM    8  C8  UNL     1     -33.270  19.228  -1.618  1.00 20.00     0.008 C 
HETATM    9  C9  UNL     1     -33.035  17.867  -0.970  1.00 20.00     0.006 C 
HETATM   10  C10 UNL     1     -34.153  16.854  -1.298  1.00 20.00     0.001 C 
HETATM   11  C11 UNL     1     -34.386  16.702  -2.841  1.00 20.00     0.044 C 
HETATM   12  C12 UNL     1     -35.425  17.237  -0.515  1.00 20.00     0.011 C 
HETATM   13  O13 UNL     1     -35.375  18.385  -4.310  1.00 20.00    -0.297 OA
ENDROOT
TORSDOF 0
ENDMDL
MODEL 9
REMARK VINA RESULT:      -5.0      1.971      4.528
REMARK  0 active torsions:
REMARK  status: ('A' for Active; 'I' for Inactive)
ROOT
HETATM    1  C1  UNL     1     -34.624  18.195  -0.689  1.00 20.00    -0.004 C 
HETATM    2  C2  UNL     1     -34.578  16.758  -0.665  1.00 20.00    -0.003 C 
HETATM    3  C3  UNL     1     -34.360  18.869  -1.815  1.00 20.00    -0.025 C 
HETATM    4  C4  UNL     1     -34.537  16.042  -1.799  1.00 20.00    -0.009 C 
HETATM    5  C5  UNL     1     -33.506  15.918  -4.061  1.00 20.00     0.140 C 
HETATM    6  C6  UNL     1     -34.029  18.163  -3.101  1.00 20.00     0.048 C 
HETATM    7  C7  UNL     1     -33.511  16.234  -5.543  1.00 20.00     0.079 C 
HETATM    8  C8  UNL     1     -34.908  16.108  -6.127  1.00 20.00     0.008 C 
HETATM    9  C9  UNL     1     -35.922  16.937  -5.345  1.00 20.00     0.006 C 
HETATM   10  C10 UNL     1     -35.945  16.581  -3.842  1.00 20.00     0.001 C 
HETATM   11  C11 UNL     1     -34.525  16.677  -3.185  1.00 20.00     0.044 C 
HETATM   12  C12 UNL     1     -36.620  15.206  -3.661  1.00 20.00     0.011 C 
HETATM   13  O13 UNL     1     -32.655  15.159  -3.595  1.00 20.00    -0.297 OA
ENDROOT
TORSDOF 0
ENDMDL
