MODEL 1
REMARK VINA RESULT:      -4.2      0.000      0.000
REMARK  0 active torsions:
REMARK  status: ('A' for Active; 'I' for Inactive)
ROOT
HETATM    1  C1  UNL     1     -33.928   5.893   5.160  1.00 20.00     0.076 A 
HETATM    2  C2  UNL     1     -34.442   5.016   4.248  1.00 20.00     0.123 A 
HETATM    3  C3  UNL     1     -33.015   6.721   3.403  1.00 20.00     0.073 A 
HETATM    4  C4  UNL     1     -35.263   4.315   6.024  1.00 20.00     0.097 A 
HETATM    5  C5  UNL     1     -34.420   5.529   6.490  1.00 20.00     0.109 A 
HETATM    6  C6  UNL     1     -32.215   7.586   2.509  1.00 20.00     0.079 C 
HETATM    7  N7  UNL     1     -33.110   6.879   4.714  1.00 20.00    -0.248 NA
HETATM    8  N8  UNL     1     -35.254   4.050   4.740  1.00 20.00    -0.255 NA
HETATM    9  S9  UNL     1     -33.903   5.396   2.702  1.00 20.00    -0.053 SA
ENDROOT
TORSDOF 0
ENDMDL
MODEL 2
REMARK VINA RESULT:      -3.8     11.874     13.641
REMARK  0 active torsions:
REMARK  status: ('A' for Active; 'I' for Inactive)
ROOT
HETATM    1  C1  UNL     1     -34.053  15.136  -4.970  1.00 20.00     0.076 A 
HETATM    2  C2  UNL     1     -34.715  14.068  -5.507  1.00 20.00     0.123 A 
HETATM    3  C3  UNL     1     -34.628  16.044  -6.827  1.00 20.00     0.073 A 
HETATM    4  C4  UNL     1     -34.098  13.309  -3.673  1.00 20.00     0.097 A 
HETATM    5  C5  UNL     1     -33.547  14.757  -3.650  1.00 20.00     0.109 A 
HETATM    6  C6  UNL     1     -34.795  17.030  -7.917  1.00 20.00     0.079 C 
HETATM    7  N7  UNL     1     -33.984  16.280  -5.695  1.00 20.00    -0.248 NA
HETATM    8  N8  UNL     1     -34.759  12.949  -4.746  1.00 20.00    -0.255 NA
HETATM    9  S9  UNL     1     -35.317  14.457  -7.027  1.00 20.00    -0.053 SA
ENDROOT
TORSDOF 0
ENDMDL
MODEL 3
REMARK VINA RESULT:      -3.7     12.075     12.919
REMARK  0 active torsions:
REMARK  status: ('A' for Active; 'I' for Inactive)
ROOT
HETATM    1  C1  UNL     1     -35.270  14.356  -3.805  1.00 20.00     0.076 A 
HETATM    2  C2  UNL     1     -35.052  15.669  -3.496  1.00 20.00     0.123 A 
HETATM    3  C3  UNL     1     -37.319  14.980  -3.691  1.00 20.00     0.073 A 
HETATM    4  C4  UNL     1     -33.111  14.936  -3.639  1.00 20.00     0.097 A 
HETATM    5  C5  UNL     1     -33.975  13.686  -3.943  1.00 20.00     0.109 A 
HETATM    6  C6  UNL     1     -38.798  14.960  -3.717  1.00 20.00     0.079 C 
HETATM    7  N7  UNL     1     -36.551  13.927  -3.925  1.00 20.00    -0.248 NA
HETATM    8  N8  UNL     1     -33.756  16.050  -3.388  1.00 20.00    -0.255 NA
HETATM    9  S9  UNL     1     -36.514  16.481  -3.329  1.00 20.00    -0.053 SA
ENDROOT
TORSDOF 0
ENDMDL
MODEL 4
REMARK VINA RESULT:      -3.7     12.449     13.255
REMARK  0 active torsions:
REMARK  status: ('A' for Active; 'I' for Inactive)
ROOT
HETATM    1  C1  UNL     1     -34.407  16.114  -2.355  1.00 20.00     0.076 A 
HETATM    2  C2  UNL     1     -33.831  17.114  -3.086  1.00 20.00     0.123 A 
HETATM    3  C3  UNL     1     -34.311  15.090  -4.238  1.00 20.00     0.073 A 
HETATM    4  C4  UNL     1     -33.981  17.990  -1.207  1.00 20.00     0.097 A 
HETATM    5  C5  UNL     1     -34.584  16.581  -0.979  1.00 20.00     0.109 A 
HETATM    6  C6  UNL     1     -34.442  14.048  -5.280  1.00 20.00     0.079 C 
HETATM    7  N7  UNL     1     -34.695  14.944  -2.979  1.00 20.00    -0.248 NA
HETATM    8  N8  UNL     1     -33.562  18.261  -2.419  1.00 20.00    -0.255 NA
HETATM    9  S9  UNL     1     -33.607  16.621  -4.677  1.00 20.00    -0.053 SA
ENDROOT
TORSDOF 0
ENDMDL
MODEL 5
REMARK VINA RESULT:      -3.6     12.107     12.625
REMARK  0 active torsions:
REMARK  status: ('A' for Active; 'I' for Inactive)
ROOT
HETATM    1  C1  UNL     1     -34.082  14.959  -3.400  1.00 20.00     0.076 A 
HETATM    2  C2  UNL     1     -35.432  15.150  -3.482  1.00 20.00     0.123 A 
HETATM    3  C3  UNL     1     -34.172  16.876  -2.439  1.00 20.00     0.073 A 
HETATM    4  C4  UNL     1     -35.206  13.294  -4.393  1.00 20.00     0.097 A 
HETATM    5  C5  UNL     1     -33.753  13.670  -4.010  1.00 20.00     0.109 A 
HETATM    6  C6  UNL     1     -33.774  18.124  -1.753  1.00 20.00     0.079 C 
HETATM    7  N7  UNL     1     -33.331  15.923  -2.811  1.00 20.00    -0.248 NA
HETATM    8  N8  UNL     1     -36.140  14.160  -4.078  1.00 20.00    -0.255 NA
HETATM    9  S9  UNL     1     -35.859  16.621  -2.791  1.00 20.00    -0.053 SA
ENDROOT
TORSDOF 0
ENDMDL
MODEL 6
REMARK VINA RESULT:      -3.6     12.480     13.608
REMARK  0 active torsions:
REMARK  status: ('A' for Active; 'I' for Inactive)
ROOT
HETATM    1  C1  UNL     1     -34.609  14.944  -4.354  1.00 20.00     0.076 A 
HETATM    2  C2  UNL     1     -34.201  16.113  -4.931  1.00 20.00     0.123 A 
HETATM    3  C3  UNL     1     -34.458  16.122  -2.567  1.00 20.00     0.073 A 
HETATM    4  C4  UNL     1     -34.389  14.864  -6.583  1.00 20.00     0.097 A 
HETATM    5  C5  UNL     1     -34.790  13.941  -5.405  1.00 20.00     0.109 A 
HETATM    6  C6  UNL     1     -34.493  16.531  -1.146  1.00 20.00     0.079 C 
HETATM    7  N7  UNL     1     -34.766  14.912  -3.007  1.00 20.00    -0.248 NA
HETATM    8  N8  UNL     1     -34.059  16.096  -6.278  1.00 20.00    -0.255 NA
HETATM    9  S9  UNL     1     -33.981  17.298  -3.760  1.00 20.00    -0.053 SA
ENDROOT
TORSDOF 0
ENDMDL
MODEL 7
REMARK VINA RESULT:      -3.6     12.547     13.834
REMARK  0 active torsions:
REMARK  status: ('A' for Active; 'I' for Inactive)
ROOT
HETATM    1  C1  UNL     1     -34.286  14.336  -5.040  1.00 20.00     0.076 A 
HETATM    2  C2  UNL     1     -33.832  15.603  -5.267  1.00 20.00     0.123 A 
HETATM    3  C3  UNL     1     -35.451  14.761  -6.791  1.00 20.00     0.073 A 
HETATM    4  C4  UNL     1     -32.762  15.065  -3.568  1.00 20.00     0.097 A 
HETATM    5  C5  UNL     1     -33.617  13.804  -3.851  1.00 20.00     0.109 A 
HETATM    6  C6  UNL     1     -36.405  14.620  -7.913  1.00 20.00     0.079 C 
HETATM    7  N7  UNL     1     -35.211  13.822  -5.888  1.00 20.00    -0.248 NA
HETATM    8  N8  UNL     1     -32.908  16.072  -4.394  1.00 20.00    -0.255 NA
HETATM    9  S9  UNL     1     -34.574  16.256  -6.627  1.00 20.00    -0.053 SA
ENDROOT
TORSDOF 0
ENDMDL
MODEL 8
REMARK VINA RESULT:      -3.6     12.328     12.658
REMARK  0 active torsions:
REMARK  status: ('A' for Active; 'I' for Inactive)
ROOT
HETATM    1  C1  UNL     1     -36.045  15.727  -3.463  1.00 20.00     0.076 A 
HETATM    2  C2  UNL     1     -36.410  14.474  -3.865  1.00 20.00     0.123 A 
HETATM    3  C3  UNL     1     -34.078  14.899  -3.685  1.00 20.00     0.073 A 
HETATM    4  C4  UNL     1     -38.256  15.396  -3.612  1.00 20.00     0.097 A 
HETATM    5  C5  UNL     1     -37.255  16.519  -3.238  1.00 20.00     0.109 A 
HETATM    6  C6  UNL     1     -32.605  14.759  -3.700  1.00 20.00     0.079 C 
HETATM    7  N7  UNL     1     -34.722  16.006  -3.350  1.00 20.00    -0.248 NA
HETATM    8  N8  UNL     1     -37.741  14.243  -3.964  1.00 20.00    -0.255 NA
HETATM    9  S9  UNL     1     -35.049  13.526  -4.137  1.00 20.00    -0.053 SA
ENDROOT
TORSDOF 0
ENDMDL
MODEL 9
REMARK VINA RESULT:      -3.6     12.610     13.756
REMARK  0 active torsions:
REMARK  status: ('A' for Active; 'I' for Inactive)
ROOT
HETATM    1  C1  UNL     1     -34.120  16.046  -3.231  1.00 20.00     0.076 A 
HETATM    2  C2  UNL     1     -33.695  17.302  -3.557  1.00 20.00     0.123 A 
HETATM    3  C3  UNL     1     -34.469  16.982  -1.332  1.00 20.00     0.073 A 
HETATM    4  C4  UNL     1     -33.405  16.276  -5.342  1.00 20.00     0.097 A 
HETATM    5  C5  UNL     1     -33.978  15.183  -4.405  1.00 20.00     0.109 A 
HETATM    6  C6  UNL     1     -34.852  17.196   0.081  1.00 20.00     0.079 C 
HETATM    7  N7  UNL     1     -34.568  15.826  -1.970  1.00 20.00    -0.248 NA
HETATM    8  N8  UNL     1     -33.257  17.473  -4.828  1.00 20.00    -0.255 NA
HETATM    9  S9  UNL     1     -33.841  18.331  -2.237  1.00 20.00    -0.053 SA
ENDROOT
TORSDOF 0
ENDMDL
