MODEL 1
REMARK VINA RESULT:      -3.6      0.000      0.000
REMARK  0 active torsions:
REMARK  status: ('A' for Active; 'I' for Inactive)
ROOT
HETATM    1  C1  UNL     1     -35.065  13.744  -5.627  1.00 20.00     0.147 A 
HETATM    2  C2  UNL     1     -33.493  17.212  -5.491  1.00 20.00     0.168 A 
HETATM    3  C3  UNL     1     -34.543  15.067  -5.673  1.00 20.00     0.061 A 
HETATM    4  C4  UNL     1     -33.667  15.227  -4.637  1.00 20.00     0.134 A 
HETATM    5  N5  UNL     1     -34.666  12.912  -4.661  1.00 20.00    -0.220 NA
HETATM    6  N6  UNL     1     -33.061  16.438  -4.515  1.00 20.00    -0.244 NA
HETATM    7  S7  UNL     1     -34.641  16.533  -6.594  1.00 20.00    -0.078 SA
HETATM    8  S8  UNL     1     -33.566  13.754  -3.707  1.00 20.00     0.032 SA
ENDROOT
TORSDOF 0
ENDMDL
MODEL 2
REMARK VINA RESULT:      -3.5      1.442      1.546
REMARK  0 active torsions:
REMARK  status: ('A' for Active; 'I' for Inactive)
ROOT
HETATM    1  C1  UNL     1     -34.744  13.178  -4.801  1.00 20.00     0.147 A 
HETATM    2  C2  UNL     1     -34.632  16.127  -7.209  1.00 20.00     0.168 A 
HETATM    3  C3  UNL     1     -34.770  14.214  -5.775  1.00 20.00     0.061 A 
HETATM    4  C4  UNL     1     -34.055  15.277  -5.300  1.00 20.00     0.134 A 
HETATM    5  N5  UNL     1     -34.085  13.367  -3.654  1.00 20.00    -0.220 NA
HETATM    6  N6  UNL     1     -33.966  16.375  -6.099  1.00 20.00    -0.244 NA
HETATM    7  S7  UNL     1     -35.395  14.581  -7.351  1.00 20.00    -0.078 SA
HETATM    8  S8  UNL     1     -33.424  14.913  -3.715  1.00 20.00     0.032 SA
ENDROOT
TORSDOF 0
ENDMDL
MODEL 3
REMARK VINA RESULT:      -3.4      1.813      2.196
REMARK  0 active torsions:
REMARK  status: ('A' for Active; 'I' for Inactive)
ROOT
HETATM    1  C1  UNL     1     -34.362  13.544  -3.623  1.00 20.00     0.147 A 
HETATM    2  C2  UNL     1     -34.160  17.333  -3.968  1.00 20.00     0.168 A 
HETATM    3  C3  UNL     1     -34.253  14.963  -3.636  1.00 20.00     0.061 A 
HETATM    4  C4  UNL     1     -34.572  15.413  -4.887  1.00 20.00     0.134 A 
HETATM    5  N5  UNL     1     -34.728  12.901  -4.735  1.00 20.00    -0.220 NA
HETATM    6  N6  UNL     1     -34.524  16.756  -5.096  1.00 20.00    -0.244 NA
HETATM    7  S7  UNL     1     -33.856  16.304  -2.611  1.00 20.00    -0.078 SA
HETATM    8  S8  UNL     1     -34.972  14.067  -5.923  1.00 20.00     0.032 SA
ENDROOT
TORSDOF 0
ENDMDL
MODEL 4
REMARK VINA RESULT:      -3.4      2.227      2.240
REMARK  0 active torsions:
REMARK  status: ('A' for Active; 'I' for Inactive)
ROOT
HETATM    1  C1  UNL     1     -35.917  13.865  -4.211  1.00 20.00     0.147 A 
HETATM    2  C2  UNL     1     -34.742  17.066  -2.512  1.00 20.00     0.168 A 
HETATM    3  C3  UNL     1     -35.591  15.101  -3.585  1.00 20.00     0.061 A 
HETATM    4  C4  UNL     1     -34.261  15.093  -3.270  1.00 20.00     0.134 A 
HETATM    5  N5  UNL     1     -34.965  12.945  -4.389  1.00 20.00    -0.220 NA
HETATM    6  N6  UNL     1     -33.760  16.199  -2.659  1.00 20.00    -0.244 NA
HETATM    7  S7  UNL     1     -36.305  16.603  -3.092  1.00 20.00    -0.078 SA
HETATM    8  S8  UNL     1     -33.539  13.583  -3.764  1.00 20.00     0.032 SA
ENDROOT
TORSDOF 0
ENDMDL
MODEL 5
REMARK VINA RESULT:      -3.3     12.436     13.227
REMARK  0 active torsions:
REMARK  status: ('A' for Active; 'I' for Inactive)
ROOT
HETATM    1  C1  UNL     1     -43.201   5.580  -3.155  1.00 20.00     0.147 A 
HETATM    2  C2  UNL     1     -40.591   5.906  -0.399  1.00 20.00     0.168 A 
HETATM    3  C3  UNL     1     -42.250   5.820  -2.124  1.00 20.00     0.061 A 
HETATM    4  C4  UNL     1     -41.667   4.632  -1.785  1.00 20.00     0.134 A 
HETATM    5  N5  UNL     1     -43.381   4.338  -3.611  1.00 20.00    -0.220 NA
HETATM    6  N6  UNL     1     -40.723   4.659  -0.806  1.00 20.00    -0.244 NA
HETATM    7  S7  UNL     1     -41.586   7.099  -1.160  1.00 20.00    -0.078 SA
HETATM    8  S8  UNL     1     -42.333   3.341  -2.751  1.00 20.00     0.032 SA
ENDROOT
TORSDOF 0
ENDMDL
MODEL 6
REMARK VINA RESULT:      -3.3     12.580     13.737
REMARK  0 active torsions:
REMARK  status: ('A' for Active; 'I' for Inactive)
ROOT
HETATM    1  C1  UNL     1     -40.783   4.726  -1.113  1.00 20.00     0.147 A 
HETATM    2  C2  UNL     1     -43.417   3.590  -3.619  1.00 20.00     0.168 A 
HETATM    3  C3  UNL     1     -41.736   4.189  -2.023  1.00 20.00     0.061 A 
HETATM    4  C4  UNL     1     -42.403   5.223  -2.616  1.00 20.00     0.134 A 
HETATM    5  N5  UNL     1     -40.679   6.050  -0.972  1.00 20.00    -0.220 NA
HETATM    6  N6  UNL     1     -43.363   4.904  -3.525  1.00 20.00    -0.244 NA
HETATM    7  S7  UNL     1     -42.332   2.677  -2.629  1.00 20.00    -0.078 SA
HETATM    8  S8  UNL     1     -41.808   6.746  -2.008  1.00 20.00     0.032 SA
ENDROOT
TORSDOF 0
ENDMDL
MODEL 7
REMARK VINA RESULT:      -3.3      1.789      3.340
REMARK  0 active torsions:
REMARK  status: ('A' for Active; 'I' for Inactive)
ROOT
HETATM    1  C1  UNL     1     -34.163  16.241  -6.239  1.00 20.00     0.147 A 
HETATM    2  C2  UNL     1     -34.108  13.398  -3.704  1.00 20.00     0.168 A 
HETATM    3  C3  UNL     1     -34.080  15.252  -5.219  1.00 20.00     0.061 A 
HETATM    4  C4  UNL     1     -34.728  14.128  -5.648  1.00 20.00     0.134 A 
HETATM    5  N5  UNL     1     -34.807  15.964  -7.375  1.00 20.00    -0.220 NA
HETATM    6  N6  UNL     1     -34.757  13.064  -4.802  1.00 20.00    -0.244 NA
HETATM    7  S7  UNL     1     -33.439  14.991  -3.629  1.00 20.00    -0.078 SA
HETATM    8  S8  UNL     1     -35.376  14.386  -7.248  1.00 20.00     0.032 SA
ENDROOT
TORSDOF 0
ENDMDL
MODEL 8
REMARK VINA RESULT:      -3.2     11.685     12.511
REMARK  0 active torsions:
REMARK  status: ('A' for Active; 'I' for Inactive)
ROOT
HETATM    1  C1  UNL     1     -42.940   5.455  -3.170  1.00 20.00     0.147 A 
HETATM    2  C2  UNL     1     -40.630   6.198  -0.233  1.00 20.00     0.168 A 
HETATM    3  C3  UNL     1     -42.068   5.613  -2.056  1.00 20.00     0.061 A 
HETATM    4  C4  UNL     1     -41.858   6.948  -1.855  1.00 20.00     0.134 A 
HETATM    5  N5  UNL     1     -43.392   6.535  -3.812  1.00 20.00    -0.220 NA
HETATM    6  N6  UNL     1     -41.043   7.301  -0.825  1.00 20.00    -0.244 NA
HETATM    7  S7  UNL     1     -41.191   4.693  -0.877  1.00 20.00    -0.078 SA
HETATM    8  S8  UNL     1     -42.738   7.879  -3.040  1.00 20.00     0.032 SA
ENDROOT
TORSDOF 0
ENDMDL
MODEL 9
REMARK VINA RESULT:      -3.2      2.550      3.560
REMARK  0 active torsions:
REMARK  status: ('A' for Active; 'I' for Inactive)
ROOT
HETATM    1  C1  UNL     1     -35.810  16.484  -3.545  1.00 20.00     0.147 A 
HETATM    2  C2  UNL     1     -33.785  13.313  -4.139  1.00 20.00     0.168 A 
HETATM    3  C3  UNL     1     -34.955  15.365  -3.747  1.00 20.00     0.061 A 
HETATM    4  C4  UNL     1     -35.726  14.272  -4.028  1.00 20.00     0.134 A 
HETATM    5  N5  UNL     1     -37.133  16.329  -3.647  1.00 20.00    -0.220 NA
HETATM    6  N6  UNL     1     -35.080  13.096  -4.253  1.00 20.00    -0.244 NA
HETATM    7  S7  UNL     1     -33.278  14.922  -3.758  1.00 20.00    -0.078 SA
HETATM    8  S8  UNL     1     -37.414  14.712  -4.017  1.00 20.00     0.032 SA
ENDROOT
TORSDOF 0
ENDMDL
