MODEL 1
REMARK VINA RESULT:      -5.4      0.000      0.000
REMARK  1 active torsions:
REMARK  status: ('A' for Active; 'I' for Inactive)
REMARK    1  A    between atoms: C8_8  and  C11_11 
ROOT
HETATM    1  C1  UNL     1     -35.745  16.195  -3.272  1.00 20.00     0.071 C 
HETATM    2  C2  UNL     1     -34.798  13.538  -5.234  1.00 20.00    -0.004 A 
HETATM    3  C3  UNL     1     -34.578  14.665  -6.118  1.00 20.00    -0.004 A 
HETATM    4  C4  UNL     1     -34.385  13.583  -3.954  1.00 20.00    -0.020 A 
HETATM    5  C5  UNL     1     -33.957  15.771  -5.671  1.00 20.00    -0.020 A 
HETATM    6  C6  UNL     1     -33.652  14.728  -3.370  1.00 20.00     0.041 A 
HETATM    7  C7  UNL     1     -33.420  15.912  -4.300  1.00 20.00     0.041 A 
HETATM    8  C8  UNL     1     -34.321  16.062  -3.086  1.00 20.00     0.067 A 
HETATM    9  N12 UNL     1     -36.890  16.301  -3.423  1.00 20.00    -0.196 NA
ENDROOT
BRANCH   8  10
HETATM   10  C11 UNL     1     -33.784  16.866  -1.926  1.00 20.00     0.001 C 
HETATM   11  C9  UNL     1     -33.703  18.357  -2.275  1.00 20.00     0.011 C 
HETATM   12  C10 UNL     1     -34.642  16.670  -0.671  1.00 20.00     0.011 C 
ENDBRANCH   8  10
TORSDOF 1
ENDMDL
MODEL 2
REMARK VINA RESULT:      -5.2      1.462      2.038
REMARK  1 active torsions:
REMARK  status: ('A' for Active; 'I' for Inactive)
REMARK    1  A    between atoms: C8_8  and  C11_11 
ROOT
HETATM    1  C1  UNL     1     -33.562  16.785  -4.276  1.00 20.00     0.071 C 
HETATM    2  C2  UNL     1     -35.901  14.485  -5.296  1.00 20.00    -0.004 A 
HETATM    3  C3  UNL     1     -34.710  13.671  -5.162  1.00 20.00    -0.004 A 
HETATM    4  C4  UNL     1     -36.233  15.372  -4.341  1.00 20.00    -0.020 A 
HETATM    5  C5  UNL     1     -33.920  13.791  -4.080  1.00 20.00    -0.020 A 
HETATM    6  C6  UNL     1     -35.464  15.554  -3.090  1.00 20.00     0.041 A 
HETATM    7  C7  UNL     1     -34.212  14.698  -2.949  1.00 20.00     0.041 A 
HETATM    8  C8  UNL     1     -34.093  16.208  -3.065  1.00 20.00     0.067 A 
HETATM    9  N12 UNL     1     -33.135  17.249  -5.250  1.00 20.00    -0.196 NA
ENDROOT
BRANCH   8  10
HETATM   10  C11 UNL     1     -33.716  16.966  -1.816  1.00 20.00     0.001 C 
HETATM   11  C9  UNL     1     -33.680  18.478  -2.075  1.00 20.00     0.011 C 
HETATM   12  C10 UNL     1     -34.681  16.657  -0.666  1.00 20.00     0.011 C 
ENDBRANCH   8  10
TORSDOF 1
ENDMDL
MODEL 3
REMARK VINA RESULT:      -5.2      1.768      4.281
REMARK  1 active torsions:
REMARK  status: ('A' for Active; 'I' for Inactive)
REMARK    1  A    between atoms: C8_8  and  C11_11 
ROOT
HETATM    1  C1  UNL     1     -34.689  13.822  -5.198  1.00 20.00     0.071 C 
HETATM    2  C2  UNL     1     -35.384  15.907  -2.557  1.00 20.00    -0.004 A 
HETATM    3  C3  UNL     1     -33.938  15.828  -2.512  1.00 20.00    -0.004 A 
HETATM    4  C4  UNL     1     -36.021  16.101  -3.726  1.00 20.00    -0.020 A 
HETATM    5  C5  UNL     1     -33.213  15.949  -3.639  1.00 20.00    -0.020 A 
HETATM    6  C6  UNL     1     -35.324  16.292  -5.017  1.00 20.00     0.041 A 
HETATM    7  C7  UNL     1     -33.804  16.211  -4.970  1.00 20.00     0.041 A 
HETATM    8  C8  UNL     1     -34.600  15.162  -5.726  1.00 20.00     0.067 A 
HETATM    9  N12 UNL     1     -34.760  12.745  -4.773  1.00 20.00    -0.196 NA
ENDROOT
BRANCH   8  10
HETATM   10  C11 UNL     1     -34.551  15.216  -7.234  1.00 20.00     0.001 C 
HETATM   11  C9  UNL     1     -35.670  14.371  -7.856  1.00 20.00     0.011 C 
HETATM   12  C10 UNL     1     -34.645  16.660  -7.741  1.00 20.00     0.011 C 
ENDBRANCH   8  10
TORSDOF 1
ENDMDL
MODEL 4
REMARK VINA RESULT:      -5.2      1.897      3.050
REMARK  1 active torsions:
REMARK  status: ('A' for Active; 'I' for Inactive)
REMARK    1  A    between atoms: C8_8  and  C11_11 
ROOT
HETATM    1  C1  UNL     1     -34.762  13.792  -4.701  1.00 20.00     0.071 C 
HETATM    2  C2  UNL     1     -35.721  14.611  -7.897  1.00 20.00    -0.004 A 
HETATM    3  C3  UNL     1     -36.879  15.003  -7.120  1.00 20.00    -0.004 A 
HETATM    4  C4  UNL     1     -34.482  14.934  -7.486  1.00 20.00    -0.020 A 
HETATM    5  C5  UNL     1     -36.730  15.697  -5.977  1.00 20.00    -0.020 A 
HETATM    6  C6  UNL     1     -34.203  15.732  -6.271  1.00 20.00     0.041 A 
HETATM    7  C7  UNL     1     -35.421  16.145  -5.455  1.00 20.00     0.041 A 
HETATM    8  C8  UNL     1     -34.405  15.179  -4.871  1.00 20.00     0.067 A 
HETATM    9  N12 UNL     1     -35.050  12.676  -4.566  1.00 20.00    -0.196 NA
ENDROOT
BRANCH   8  10
HETATM   10  C11 UNL     1     -33.497  15.707  -3.787  1.00 20.00     0.001 C 
HETATM   11  C9  UNL     1     -34.270  15.945  -2.483  1.00 20.00     0.011 C 
HETATM   12  C10 UNL     1     -32.324  14.754  -3.531  1.00 20.00     0.011 C 
ENDBRANCH   8  10
TORSDOF 1
ENDMDL
MODEL 5
REMARK VINA RESULT:      -4.9      1.758      2.549
REMARK  1 active torsions:
REMARK  status: ('A' for Active; 'I' for Inactive)
REMARK    1  A    between atoms: C8_8  and  C11_11 
ROOT
HETATM    1  C1  UNL     1     -36.597  14.619  -4.058  1.00 20.00     0.071 C 
HETATM    2  C2  UNL     1     -36.416  14.992  -7.468  1.00 20.00    -0.004 A 
HETATM    3  C3  UNL     1     -36.787  16.324  -7.034  1.00 20.00    -0.004 A 
HETATM    4  C4  UNL     1     -35.443  14.314  -6.834  1.00 20.00    -0.020 A 
HETATM    5  C5  UNL     1     -36.162  16.900  -5.992  1.00 20.00    -0.020 A 
HETATM    6  C6  UNL     1     -34.659  14.867  -5.708  1.00 20.00     0.041 A 
HETATM    7  C7  UNL     1     -35.048  16.267  -5.252  1.00 20.00     0.041 A 
HETATM    8  C8  UNL     1     -35.257  15.080  -4.328  1.00 20.00     0.067 A 
HETATM    9  N12 UNL     1     -37.675  14.249  -3.841  1.00 20.00    -0.196 NA
ENDROOT
BRANCH   8  10
HETATM   10  C11 UNL     1     -34.324  14.954  -3.149  1.00 20.00     0.001 C 
HETATM   11  C9  UNL     1     -32.858  15.056  -3.587  1.00 20.00     0.011 C 
HETATM   12  C10 UNL     1     -34.626  16.018  -2.087  1.00 20.00     0.011 C 
ENDBRANCH   8  10
TORSDOF 1
ENDMDL
MODEL 6
REMARK VINA RESULT:      -4.9      1.642      4.144
REMARK  1 active torsions:
REMARK  status: ('A' for Active; 'I' for Inactive)
REMARK    1  A    between atoms: C8_8  and  C11_11 
ROOT
HETATM    1  C1  UNL     1     -33.685  16.377  -4.120  1.00 20.00     0.071 C 
HETATM    2  C2  UNL     1     -34.103  18.672  -1.598  1.00 20.00    -0.004 A 
HETATM    3  C3  UNL     1     -35.299  18.869  -2.392  1.00 20.00    -0.004 A 
HETATM    4  C4  UNL     1     -33.686  17.432  -1.288  1.00 20.00    -0.020 A 
HETATM    5  C5  UNL     1     -36.009  17.813  -2.828  1.00 20.00    -0.020 A 
HETATM    6  C6  UNL     1     -34.413  16.202  -1.675  1.00 20.00     0.041 A 
HETATM    7  C7  UNL     1     -35.671  16.409  -2.508  1.00 20.00     0.041 A 
HETATM    8  C8  UNL     1     -34.466  15.706  -3.109  1.00 20.00     0.067 A 
HETATM    9  N12 UNL     1     -33.058  16.917  -4.933  1.00 20.00    -0.196 NA
ENDROOT
BRANCH   8  10
HETATM   10  C11 UNL     1     -34.572  14.215  -3.316  1.00 20.00     0.001 C 
HETATM   11  C9  UNL     1     -35.637  13.876  -4.366  1.00 20.00     0.011 C 
HETATM   12  C10 UNL     1     -33.224  13.614  -3.729  1.00 20.00     0.011 C 
ENDBRANCH   8  10
TORSDOF 1
ENDMDL
MODEL 7
REMARK VINA RESULT:      -4.8      1.312      3.847
REMARK  1 active torsions:
REMARK  status: ('A' for Active; 'I' for Inactive)
REMARK    1  A    between atoms: C8_8  and  C11_11 
ROOT
HETATM    1  C1  UNL     1     -36.486  14.989  -3.408  1.00 20.00     0.071 C 
HETATM    2  C2  UNL     1     -35.584  18.293  -3.141  1.00 20.00    -0.004 A 
HETATM    3  C3  UNL     1     -35.611  17.870  -1.755  1.00 20.00    -0.004 A 
HETATM    4  C4  UNL     1     -34.991  17.529  -4.076  1.00 20.00    -0.020 A 
HETATM    5  C5  UNL     1     -35.042  16.708  -1.386  1.00 20.00    -0.020 A 
HETATM    6  C6  UNL     1     -34.296  16.258  -3.776  1.00 20.00     0.041 A 
HETATM    7  C7  UNL     1     -34.323  15.814  -2.320  1.00 20.00     0.041 A 
HETATM    8  C8  UNL     1     -35.043  14.997  -3.379  1.00 20.00     0.067 A 
HETATM    9  N12 UNL     1     -37.645  14.982  -3.431  1.00 20.00    -0.196 NA
ENDROOT
BRANCH   8  10
HETATM   10  C11 UNL     1     -34.422  13.679  -3.770  1.00 20.00     0.001 C 
HETATM   11  C9  UNL     1     -34.762  13.313  -5.220  1.00 20.00     0.011 C 
HETATM   12  C10 UNL     1     -32.901  13.704  -3.582  1.00 20.00     0.011 C 
ENDBRANCH   8  10
TORSDOF 1
ENDMDL
MODEL 8
REMARK VINA RESULT:      -4.7      2.181      3.887
REMARK  1 active torsions:
REMARK  status: ('A' for Active; 'I' for Inactive)
REMARK    1  A    between atoms: C8_8  and  C11_11 
ROOT
HETATM    1  C1  UNL     1     -35.636  13.804  -4.303  1.00 20.00     0.071 C 
HETATM    2  C2  UNL     1     -33.641  16.085  -2.684  1.00 20.00    -0.004 A 
HETATM    3  C3  UNL     1     -33.353  16.361  -4.077  1.00 20.00    -0.004 A 
HETATM    4  C4  UNL     1     -34.910  15.919  -2.270  1.00 20.00    -0.020 A 
HETATM    5  C5  UNL     1     -34.351  16.455  -4.974  1.00 20.00    -0.020 A 
HETATM    6  C6  UNL     1     -36.086  16.046  -3.159  1.00 20.00     0.041 A 
HETATM    7  C7  UNL     1     -35.783  16.337  -4.623  1.00 20.00     0.041 A 
HETATM    8  C8  UNL     1     -36.416  15.015  -4.223  1.00 20.00     0.067 A 
HETATM    9  N12 UNL     1     -35.008  12.830  -4.366  1.00 20.00    -0.196 NA
ENDROOT
BRANCH   8  10
HETATM   10  C11 UNL     1     -37.873  14.820  -4.563  1.00 20.00     0.001 C 
HETATM   11  C9  UNL     1     -38.768  15.092  -3.347  1.00 20.00     0.011 C 
HETATM   12  C10 UNL     1     -38.296  15.717  -5.732  1.00 20.00     0.011 C 
ENDBRANCH   8  10
TORSDOF 1
ENDMDL
MODEL 9
REMARK VINA RESULT:      -4.7      1.629      4.202
REMARK  1 active torsions:
REMARK  status: ('A' for Active; 'I' for Inactive)
REMARK    1  A    between atoms: C8_8  and  C11_11 
ROOT
HETATM    1  C1  UNL     1     -36.884  14.662  -4.316  1.00 20.00     0.071 C 
HETATM    2  C2  UNL     1     -35.542  17.213  -2.446  1.00 20.00    -0.004 A 
HETATM    3  C3  UNL     1     -34.778  16.068  -1.995  1.00 20.00    -0.004 A 
HETATM    4  C4  UNL     1     -35.763  17.413  -3.758  1.00 20.00    -0.020 A 
HETATM    5  C5  UNL     1     -34.277  15.189  -2.883  1.00 20.00    -0.020 A 
HETATM    6  C6  UNL     1     -35.222  16.538  -4.822  1.00 20.00     0.041 A 
HETATM    7  C7  UNL     1     -34.417  15.335  -4.348  1.00 20.00     0.041 A 
HETATM    8  C8  UNL     1     -35.742  15.132  -5.062  1.00 20.00     0.067 A 
HETATM    9  N12 UNL     1     -37.802  14.285  -3.716  1.00 20.00    -0.196 NA
ENDROOT
BRANCH   8  10
HETATM   10  C11 UNL     1     -35.688  14.612  -6.478  1.00 20.00     0.001 C 
HETATM   11  C9  UNL     1     -36.902  15.081  -7.288  1.00 20.00     0.011 C 
HETATM   12  C10 UNL     1     -34.395  15.044  -7.179  1.00 20.00     0.011 C 
ENDBRANCH   8  10
TORSDOF 1
ENDMDL
