MODEL 1
REMARK VINA RESULT:      -4.8      0.000      0.000
REMARK  1 active torsions:
REMARK  status: ('A' for Active; 'I' for Inactive)
REMARK    1  A    between atoms: C3_3  and  C8_8 
ROOT
HETATM    1  C1  UNL     1     -34.705  14.001  -4.475  1.00 20.00     0.145 C 
HETATM    2  C4  UNL     1     -34.742  14.747  -3.154  1.00 20.00     0.088 C 
HETATM    3  C5  UNL     1     -34.940  16.259  -5.514  1.00 20.00     0.028 C 
HETATM    4  C6  UNL     1     -34.262  16.948  -4.325  1.00 20.00     0.011 C 
HETATM    5  C7  UNL     1     -34.439  14.834  -5.719  1.00 20.00     0.151 C 
HETATM    6  C8  UNL     1     -33.826  15.970  -3.220  1.00 20.00     0.014 C 
HETATM    7  O9  UNL     1     -34.880  12.783  -4.511  1.00 20.00    -0.296 OA
HETATM    8 CL10 UNL     1     -35.274  14.092  -7.104  1.00 20.00    -0.117 Cl
ENDROOT
BRANCH   6   9
HETATM    9  C3  UNL     1     -33.744  16.666  -1.896  1.00 20.00    -0.032 C 
HETATM   10  C2  UNL     1     -34.674  16.565  -0.940  1.00 20.00     0.007 C 
ENDBRANCH   6   9
TORSDOF 1
ENDMDL
MODEL 2
REMARK VINA RESULT:      -4.6     11.906     12.875
REMARK  1 active torsions:
REMARK  status: ('A' for Active; 'I' for Inactive)
REMARK    1  A    between atoms: C3_3  and  C8_8 
ROOT
HETATM    1  C1  UNL     1     -33.690   6.391   5.592  1.00 20.00     0.145 C 
HETATM    2  C4  UNL     1     -33.237   7.237   4.416  1.00 20.00     0.088 C 
HETATM    3  C5  UNL     1     -34.883   5.024   3.877  1.00 20.00     0.028 C 
HETATM    4  C6  UNL     1     -33.878   5.402   2.784  1.00 20.00     0.011 C 
HETATM    5  C7  UNL     1     -34.252   5.016   5.265  1.00 20.00     0.151 C 
HETATM    6  C8  UNL     1     -32.758   6.333   3.279  1.00 20.00     0.014 C 
HETATM    7  O9  UNL     1     -33.593   6.816   6.743  1.00 20.00    -0.296 OA
HETATM    8 CL10 UNL     1     -35.475   4.584   6.483  1.00 20.00    -0.117 Cl
ENDROOT
BRANCH   6   9
HETATM    9  C3  UNL     1     -32.193   7.133   2.145  1.00 20.00    -0.032 C 
HETATM   10  C2  UNL     1     -32.184   8.470   2.104  1.00 20.00     0.007 C 
ENDBRANCH   6   9
TORSDOF 1
ENDMDL
MODEL 3
REMARK VINA RESULT:      -4.6      1.640      1.917
REMARK  1 active torsions:
REMARK  status: ('A' for Active; 'I' for Inactive)
REMARK    1  A    between atoms: C3_3  and  C8_8 
ROOT
HETATM    1  C1  UNL     1     -36.016  14.665  -3.541  1.00 20.00     0.145 C 
HETATM    2  C4  UNL     1     -35.984  15.978  -2.781  1.00 20.00     0.088 C 
HETATM    3  C5  UNL     1     -33.623  15.154  -4.064  1.00 20.00     0.028 C 
HETATM    4  C6  UNL     1     -33.446  15.977  -2.783  1.00 20.00     0.011 C 
HETATM    5  C7  UNL     1     -34.670  14.056  -3.904  1.00 20.00     0.151 C 
HETATM    6  C8  UNL     1     -34.719  16.053  -1.924  1.00 20.00     0.014 C 
HETATM    7  O9  UNL     1     -37.088  14.137  -3.833  1.00 20.00    -0.296 OA
HETATM    8 CL10 UNL     1     -34.835  13.150  -5.426  1.00 20.00    -0.117 Cl
ENDROOT
BRANCH   6   9
HETATM    9  C3  UNL     1     -34.709  17.283  -1.068  1.00 20.00    -0.032 C 
HETATM   10  C2  UNL     1     -34.921  17.277   0.252  1.00 20.00     0.007 C 
ENDBRANCH   6   9
TORSDOF 1
ENDMDL
MODEL 4
REMARK VINA RESULT:      -4.3      1.780      2.345
REMARK  1 active torsions:
REMARK  status: ('A' for Active; 'I' for Inactive)
REMARK    1  A    between atoms: C3_3  and  C8_8 
ROOT
HETATM    1  C1  UNL     1     -34.209  15.539  -3.010  1.00 20.00     0.145 C 
HETATM    2  C4  UNL     1     -34.673  16.164  -1.708  1.00 20.00     0.088 C 
HETATM    3  C5  UNL     1     -33.924  17.893  -3.792  1.00 20.00     0.028 C 
HETATM    4  C6  UNL     1     -33.679  18.404  -2.368  1.00 20.00     0.011 C 
HETATM    5  C7  UNL     1     -33.466  16.450  -3.975  1.00 20.00     0.151 C 
HETATM    6  C8  UNL     1     -33.725  17.294  -1.304  1.00 20.00     0.014 C 
HETATM    7  O9  UNL     1     -34.429  14.352  -3.248  1.00 20.00    -0.296 OA
HETATM    8 CL10 UNL     1     -33.791  15.919  -5.641  1.00 20.00    -0.117 Cl
ENDROOT
BRANCH   6   9
HETATM    9  C3  UNL     1     -34.083  17.858   0.037  1.00 20.00    -0.032 C 
HETATM   10  C2  UNL     1     -35.132  17.454   0.761  1.00 20.00     0.007 C 
ENDBRANCH   6   9
TORSDOF 1
ENDMDL
MODEL 5
REMARK VINA RESULT:      -4.2      1.635      2.274
REMARK  1 active torsions:
REMARK  status: ('A' for Active; 'I' for Inactive)
REMARK    1  A    between atoms: C3_3  and  C8_8 
ROOT
HETATM    1  C1  UNL     1     -34.305  16.308  -5.800  1.00 20.00     0.145 C 
HETATM    2  C4  UNL     1     -33.638  16.629  -4.475  1.00 20.00     0.088 C 
HETATM    3  C5  UNL     1     -34.472  13.981  -4.911  1.00 20.00     0.028 C 
HETATM    4  C6  UNL     1     -34.503  14.470  -3.458  1.00 20.00     0.011 C 
HETATM    5  C7  UNL     1     -35.073  14.997  -5.876  1.00 20.00     0.151 C 
HETATM    6  C8  UNL     1     -34.431  16.001  -3.328  1.00 20.00     0.014 C 
HETATM    7  O9  UNL     1     -34.218  17.087  -6.749  1.00 20.00    -0.296 OA
HETATM    8 CL10 UNL     1     -34.992  14.373  -7.540  1.00 20.00    -0.117 Cl
ENDROOT
BRANCH   6   9
HETATM    9  C3  UNL     1     -33.870  16.394  -1.995  1.00 20.00    -0.032 C 
HETATM   10  C2  UNL     1     -34.617  16.633  -0.911  1.00 20.00     0.007 C 
ENDBRANCH   6   9
TORSDOF 1
ENDMDL
MODEL 6
REMARK VINA RESULT:      -4.2      2.819      4.449
REMARK  1 active torsions:
REMARK  status: ('A' for Active; 'I' for Inactive)
REMARK    1  A    between atoms: C3_3  and  C8_8 
ROOT
HETATM    1  C1  UNL     1     -34.039  16.959  -3.774  1.00 20.00     0.145 C 
HETATM    2  C4  UNL     1     -34.397  16.759  -5.235  1.00 20.00     0.088 C 
HETATM    3  C5  UNL     1     -35.297  14.836  -3.395  1.00 20.00     0.028 C 
HETATM    4  C6  UNL     1     -34.995  14.330  -4.809  1.00 20.00     0.011 C 
HETATM    5  C7  UNL     1     -34.200  15.753  -2.863  1.00 20.00     0.151 C 
HETATM    6  C8  UNL     1     -34.144  15.306  -5.639  1.00 20.00     0.014 C 
HETATM    7  O9  UNL     1     -33.636  18.051  -3.372  1.00 20.00    -0.296 OA
HETATM    8 CL10 UNL     1     -34.620  16.313  -1.227  1.00 20.00    -0.117 Cl
ENDROOT
BRANCH   6   9
HETATM    9  C3  UNL     1     -34.374  15.097  -7.105  1.00 20.00    -0.032 C 
HETATM   10  C2  UNL     1     -35.437  14.465  -7.612  1.00 20.00     0.007 C 
ENDBRANCH   6   9
TORSDOF 1
ENDMDL
MODEL 7
REMARK VINA RESULT:      -4.1     12.267     13.488
REMARK  1 active torsions:
REMARK  status: ('A' for Active; 'I' for Inactive)
REMARK    1  A    between atoms: C3_3  and  C8_8 
ROOT
HETATM    1  C1  UNL     1     -41.189   5.450  -1.028  1.00 20.00     0.145 C 
HETATM    2  C4  UNL     1     -40.982   4.165  -1.809  1.00 20.00     0.088 C 
HETATM    3  C5  UNL     1     -42.714   6.090  -2.899  1.00 20.00     0.028 C 
HETATM    4  C6  UNL     1     -43.042   4.628  -3.218  1.00 20.00     0.011 C 
HETATM    5  C7  UNL     1     -42.385   6.301  -1.425  1.00 20.00     0.151 C 
HETATM    6  C8  UNL     1     -42.328   3.626  -2.293  1.00 20.00     0.014 C 
HETATM    7  O9  UNL     1     -40.418   5.763  -0.122  1.00 20.00    -0.296 OA
HETATM    8 CL10 UNL     1     -42.003   8.013  -1.129  1.00 20.00    -0.117 Cl
ENDROOT
BRANCH   6   9
HETATM    9  C3  UNL     1     -42.177   2.297  -2.967  1.00 20.00    -0.032 C 
HETATM   10  C2  UNL     1     -41.182   1.994  -3.808  1.00 20.00     0.007 C 
ENDBRANCH   6   9
TORSDOF 1
ENDMDL
MODEL 8
REMARK VINA RESULT:      -4.0      2.337      3.991
REMARK  1 active torsions:
REMARK  status: ('A' for Active; 'I' for Inactive)
REMARK    1  A    between atoms: C3_3  and  C8_8 
ROOT
HETATM    1  C1  UNL     1     -34.516  13.874  -5.139  1.00 20.00     0.145 C 
HETATM    2  C4  UNL     1     -35.245  14.125  -6.447  1.00 20.00     0.088 C 
HETATM    3  C5  UNL     1     -33.572  16.162  -5.472  1.00 20.00     0.028 C 
HETATM    4  C6  UNL     1     -34.792  16.617  -6.281  1.00 20.00     0.011 C 
HETATM    5  C7  UNL     1     -33.927  15.092  -4.445  1.00 20.00     0.151 C 
HETATM    6  C8  UNL     1     -35.863  15.524  -6.439  1.00 20.00     0.014 C 
HETATM    7  O9  UNL     1     -34.425  12.735  -4.683  1.00 20.00    -0.296 OA
HETATM    8 CL10 UNL     1     -32.468  14.601  -3.553  1.00 20.00    -0.117 Cl
ENDROOT
BRANCH   6   9
HETATM    9  C3  UNL     1     -36.690  15.765  -7.665  1.00 20.00    -0.032 C 
HETATM   10  C2  UNL     1     -37.849  15.148  -7.918  1.00 20.00     0.007 C 
ENDBRANCH   6   9
TORSDOF 1
ENDMDL
MODEL 9
REMARK VINA RESULT:      -3.9      2.677      3.439
REMARK  1 active torsions:
REMARK  status: ('A' for Active; 'I' for Inactive)
REMARK    1  A    between atoms: C3_3  and  C8_8 
ROOT
HETATM    1  C1  UNL     1     -35.123  13.687  -4.232  1.00 20.00     0.145 C 
HETATM    2  C4  UNL     1     -36.492  14.214  -4.623  1.00 20.00     0.088 C 
HETATM    3  C5  UNL     1     -34.702  16.004  -3.405  1.00 20.00     0.028 C 
HETATM    4  C6  UNL     1     -36.191  16.248  -3.135  1.00 20.00     0.011 C 
HETATM    5  C7  UNL     1     -34.321  14.535  -3.258  1.00 20.00     0.151 C 
HETATM    6  C8  UNL     1     -37.079  15.039  -3.478  1.00 20.00     0.014 C 
HETATM    7  O9  UNL     1     -34.709  12.622  -4.689  1.00 20.00    -0.296 OA
HETATM    8 CL10 UNL     1     -32.587  14.323  -3.596  1.00 20.00    -0.117 Cl
ENDROOT
BRANCH   6   9
HETATM    9  C3  UNL     1     -38.479  15.479  -3.780  1.00 20.00    -0.032 C 
HETATM   10  C2  UNL     1     -39.395  14.703  -4.370  1.00 20.00     0.007 C 
ENDBRANCH   6   9
TORSDOF 1
ENDMDL
