MODEL 1
REMARK VINA RESULT:      -4.8      0.000      0.000
REMARK  1 active torsions:
REMARK  status: ('A' for Active; 'I' for Inactive)
REMARK    1  A    between atoms: C6_6  and  C7_7 
ROOT
HETATM    1  C1  UNL     1     -35.026  13.986  -3.947  1.00 20.00     0.146 C 
HETATM    2  C2  UNL     1     -36.042  14.998  -3.398  1.00 20.00     0.091 C 
HETATM    3  C5  UNL     1     -33.938  15.067  -4.106  1.00 20.00     0.160 C 
HETATM    4  C7  UNL     1     -34.832  15.980  -3.168  1.00 20.00    -0.010 C 
HETATM    5  C8  UNL     1     -35.091  17.348  -3.819  1.00 20.00     0.018 C 
HETATM    6  O9  UNL     1     -35.073  12.794  -4.170  1.00 20.00    -0.296 OA
HETATM    7 CL10 UNL     1     -32.309  14.555  -3.588  1.00 20.00    -0.116 Cl
ENDROOT
BRANCH   4   8
HETATM    8  C6  UNL     1     -34.396  16.145  -1.706  1.00 20.00    -0.004 A 
HETATM    9  C3  UNL     1     -33.696  17.371  -1.190  1.00 20.00     0.006 A 
HETATM   10  C4  UNL     1     -35.096  17.060  -0.739  1.00 20.00     0.006 A 
ENDBRANCH   4   8
TORSDOF 1
ENDMDL
MODEL 2
REMARK VINA RESULT:      -4.5      1.231      1.339
REMARK  1 active torsions:
REMARK  status: ('A' for Active; 'I' for Inactive)
REMARK    1  A    between atoms: C6_6  and  C7_7 
ROOT
HETATM    1  C1  UNL     1     -36.404  15.005  -3.687  1.00 20.00     0.146 C 
HETATM    2  C2  UNL     1     -36.411  16.469  -3.223  1.00 20.00     0.091 C 
HETATM    3  C5  UNL     1     -34.906  15.060  -4.048  1.00 20.00     0.160 C 
HETATM    4  C7  UNL     1     -34.838  16.393  -3.193  1.00 20.00    -0.010 C 
HETATM    5  C8  UNL     1     -34.208  17.535  -4.005  1.00 20.00     0.018 C 
HETATM    6  O9  UNL     1     -37.257  14.144  -3.745  1.00 20.00    -0.296 OA
HETATM    7 CL10 UNL     1     -33.976  13.619  -3.555  1.00 20.00    -0.116 Cl
ENDROOT
BRANCH   4   8
HETATM    8  C6  UNL     1     -34.217  16.312  -1.792  1.00 20.00    -0.004 A 
HETATM    9  C3  UNL     1     -33.591  17.491  -1.101  1.00 20.00     0.006 A 
HETATM   10  C4  UNL     1     -34.868  16.900  -0.571  1.00 20.00     0.006 A 
ENDBRANCH   4   8
TORSDOF 1
ENDMDL
MODEL 3
REMARK VINA RESULT:      -4.5      1.902      2.872
REMARK  1 active torsions:
REMARK  status: ('A' for Active; 'I' for Inactive)
REMARK    1  A    between atoms: C6_6  and  C7_7 
ROOT
HETATM    1  C1  UNL     1     -34.827  13.576  -4.168  1.00 20.00     0.146 C 
HETATM    2  C2  UNL     1     -33.657  14.412  -3.626  1.00 20.00     0.091 C 
HETATM    3  C5  UNL     1     -35.873  14.550  -3.590  1.00 20.00     0.160 C 
HETATM    4  C7  UNL     1     -34.685  15.585  -3.415  1.00 20.00    -0.010 C 
HETATM    5  C8  UNL     1     -34.632  16.123  -1.977  1.00 20.00     0.018 C 
HETATM    6  O9  UNL     1     -34.892  12.545  -4.804  1.00 20.00    -0.296 OA
HETATM    7 CL10 UNL     1     -37.234  14.907  -4.687  1.00 20.00    -0.116 Cl
ENDROOT
BRANCH   4   8
HETATM    8  C6  UNL     1     -34.582  16.731  -4.431  1.00 20.00    -0.004 A 
HETATM    9  C3  UNL     1     -33.784  17.981  -4.182  1.00 20.00     0.006 A 
HETATM   10  C4  UNL     1     -33.342  17.004  -5.236  1.00 20.00     0.006 A 
ENDBRANCH   4   8
TORSDOF 1
ENDMDL
MODEL 4
REMARK VINA RESULT:      -4.1      2.341      2.957
REMARK  1 active torsions:
REMARK  status: ('A' for Active; 'I' for Inactive)
REMARK    1  A    between atoms: C6_6  and  C7_7 
ROOT
HETATM    1  C1  UNL     1     -33.759  13.715  -4.021  1.00 20.00     0.146 C 
HETATM    2  C2  UNL     1     -34.995  13.391  -4.875  1.00 20.00     0.091 C 
HETATM    3  C5  UNL     1     -34.029  15.231  -4.091  1.00 20.00     0.160 C 
HETATM    4  C7  UNL     1     -35.486  14.860  -4.592  1.00 20.00    -0.010 C 
HETATM    5  C8  UNL     1     -35.822  15.598  -5.898  1.00 20.00     0.018 C 
HETATM    6  O9  UNL     1     -32.904  13.031  -3.498  1.00 20.00    -0.296 OA
HETATM    7 CL10 UNL     1     -33.793  16.094  -2.547  1.00 20.00    -0.116 Cl
ENDROOT
BRANCH   4   8
HETATM    8  C6  UNL     1     -36.639  14.979  -3.586  1.00 20.00    -0.004 A 
HETATM    9  C3  UNL     1     -37.624  16.115  -3.595  1.00 20.00     0.006 A 
HETATM   10  C4  UNL     1     -38.076  14.726  -3.951  1.00 20.00     0.006 A 
ENDBRANCH   4   8
TORSDOF 1
ENDMDL
MODEL 5
REMARK VINA RESULT:      -4.0      2.257      2.595
REMARK  1 active torsions:
REMARK  status: ('A' for Active; 'I' for Inactive)
REMARK    1  A    between atoms: C6_6  and  C7_7 
ROOT
HETATM    1  C1  UNL     1     -35.075  13.722  -4.699  1.00 20.00     0.146 C 
HETATM    2  C2  UNL     1     -35.246  14.718  -3.542  1.00 20.00     0.091 C 
HETATM    3  C5  UNL     1     -35.425  14.790  -5.755  1.00 20.00     0.160 C 
HETATM    4  C7  UNL     1     -35.185  15.867  -4.617  1.00 20.00    -0.010 C 
HETATM    5  C8  UNL     1     -36.391  16.813  -4.493  1.00 20.00     0.018 C 
HETATM    6  O9  UNL     1     -34.780  12.546  -4.752  1.00 20.00    -0.296 OA
HETATM    7 CL10 UNL     1     -34.390  14.759  -7.208  1.00 20.00    -0.116 Cl
ENDROOT
BRANCH   4   8
HETATM    8  C6  UNL     1     -33.871  16.660  -4.650  1.00 20.00    -0.004 A 
HETATM    9  C3  UNL     1     -33.751  18.026  -5.266  1.00 20.00     0.006 A 
HETATM   10  C4  UNL     1     -33.614  17.857  -3.778  1.00 20.00     0.006 A 
ENDBRANCH   4   8
TORSDOF 1
ENDMDL
MODEL 6
REMARK VINA RESULT:      -4.0      2.554      3.991
REMARK  1 active torsions:
REMARK  status: ('A' for Active; 'I' for Inactive)
REMARK    1  A    between atoms: C6_6  and  C7_7 
ROOT
HETATM    1  C1  UNL     1     -34.468  16.282  -2.122  1.00 20.00     0.146 C 
HETATM    2  C2  UNL     1     -33.474  15.520  -3.011  1.00 20.00     0.091 C 
HETATM    3  C5  UNL     1     -35.121  16.974  -3.335  1.00 20.00     0.160 C 
HETATM    4  C7  UNL     1     -34.395  15.889  -4.234  1.00 20.00    -0.010 C 
HETATM    5  C8  UNL     1     -33.589  16.559  -5.358  1.00 20.00     0.018 C 
HETATM    6  O9  UNL     1     -34.656  16.320  -0.924  1.00 20.00    -0.296 OA
HETATM    7 CL10 UNL     1     -36.903  17.051  -3.268  1.00 20.00    -0.116 Cl
ENDROOT
BRANCH   4   8
HETATM    8  C6  UNL     1     -35.242  14.734  -4.783  1.00 20.00    -0.004 A 
HETATM    9  C3  UNL     1     -35.034  14.139  -6.148  1.00 20.00     0.006 A 
HETATM   10  C4  UNL     1     -34.723  13.329  -4.920  1.00 20.00     0.006 A 
ENDBRANCH   4   8
TORSDOF 1
ENDMDL
MODEL 7
REMARK VINA RESULT:      -4.0      2.643      3.600
REMARK  1 active torsions:
REMARK  status: ('A' for Active; 'I' for Inactive)
REMARK    1  A    between atoms: C6_6  and  C7_7 
ROOT
HETATM    1  C1  UNL     1     -36.951  14.516  -3.753  1.00 20.00     0.146 C 
HETATM    2  C2  UNL     1     -35.707  13.959  -4.460  1.00 20.00     0.091 C 
HETATM    3  C5  UNL     1     -36.135  15.620  -3.050  1.00 20.00     0.160 C 
HETATM    4  C7  UNL     1     -34.980  15.305  -4.088  1.00 20.00    -0.010 C 
HETATM    5  C8  UNL     1     -33.650  15.040  -3.365  1.00 20.00     0.018 C 
HETATM    6  O9  UNL     1     -38.123  14.200  -3.752  1.00 20.00    -0.296 OA
HETATM    7 CL10 UNL     1     -36.925  17.221  -3.030  1.00 20.00    -0.116 Cl
ENDROOT
BRANCH   4   8
HETATM    8  C6  UNL     1     -34.782  16.282  -5.254  1.00 20.00    -0.004 A 
HETATM    9  C3  UNL     1     -33.462  16.932  -5.568  1.00 20.00     0.006 A 
HETATM   10  C4  UNL     1     -34.045  15.918  -6.513  1.00 20.00     0.006 A 
ENDBRANCH   4   8
TORSDOF 1
ENDMDL
MODEL 8
REMARK VINA RESULT:      -3.9      2.516      3.076
REMARK  1 active torsions:
REMARK  status: ('A' for Active; 'I' for Inactive)
REMARK    1  A    between atoms: C6_6  and  C7_7 
ROOT
HETATM    1  C1  UNL     1     -36.539  14.480  -4.554  1.00 20.00     0.146 C 
HETATM    2  C2  UNL     1     -36.490  15.568  -5.637  1.00 20.00     0.091 C 
HETATM    3  C5  UNL     1     -35.114  13.995  -4.888  1.00 20.00     0.160 C 
HETATM    4  C7  UNL     1     -34.930  15.354  -5.681  1.00 20.00    -0.010 C 
HETATM    5  C8  UNL     1     -34.442  15.092  -7.114  1.00 20.00     0.018 C 
HETATM    6  O9  UNL     1     -37.382  14.139  -3.751  1.00 20.00    -0.296 OA
HETATM    7 CL10 UNL     1     -34.105  13.634  -3.461  1.00 20.00    -0.116 Cl
ENDROOT
BRANCH   4   8
HETATM    8  C6  UNL     1     -34.102  16.463  -5.017  1.00 20.00    -0.004 A 
HETATM    9  C3  UNL     1     -33.605  17.673  -5.757  1.00 20.00     0.006 A 
HETATM   10  C4  UNL     1     -34.659  17.822  -4.695  1.00 20.00     0.006 A 
ENDBRANCH   4   8
TORSDOF 1
ENDMDL
MODEL 9
REMARK VINA RESULT:      -3.9      2.522      3.916
REMARK  1 active torsions:
REMARK  status: ('A' for Active; 'I' for Inactive)
REMARK    1  A    between atoms: C6_6  and  C7_7 
ROOT
HETATM    1  C1  UNL     1     -34.449  17.301  -2.952  1.00 20.00     0.146 C 
HETATM    2  C2  UNL     1     -34.384  15.871  -2.395  1.00 20.00     0.091 C 
HETATM    3  C5  UNL     1     -33.480  16.964  -4.104  1.00 20.00     0.160 C 
HETATM    4  C7  UNL     1     -33.755  15.439  -3.772  1.00 20.00    -0.010 C 
HETATM    5  C8  UNL     1     -32.437  14.675  -3.569  1.00 20.00     0.018 C 
HETATM    6  O9  UNL     1     -35.039  18.304  -2.609  1.00 20.00    -0.296 OA
HETATM    7 CL10 UNL     1     -33.948  17.648  -5.684  1.00 20.00    -0.116 Cl
ENDROOT
BRANCH   4   8
HETATM    8  C6  UNL     1     -34.697  14.664  -4.704  1.00 20.00    -0.004 A 
HETATM    9  C3  UNL     1     -34.581  13.185  -4.944  1.00 20.00     0.006 A 
HETATM   10  C4  UNL     1     -35.766  13.735  -4.201  1.00 20.00     0.006 A 
ENDBRANCH   4   8
TORSDOF 1
ENDMDL
