MODEL 1
REMARK VINA RESULT:      -5.0      0.000      0.000
REMARK  1 active torsions:
REMARK  status: ('A' for Active; 'I' for Inactive)
REMARK    1  A    between atoms: C4_4  and  C9_9 
ROOT
HETATM    1  C1  UNL     1     -33.137  14.990  -3.068  1.00 20.00     0.014 A 
HETATM    2  C2  UNL     1     -33.443  13.905  -3.790  1.00 20.00     0.075 A 
HETATM    3  C3  UNL     1     -35.433  15.682  -2.982  1.00 20.00     0.101 A 
HETATM    4  C4  UNL     1     -34.157  15.920  -2.642  1.00 20.00    -0.039 A 
HETATM    5  C5  UNL     1     -34.859  13.634  -4.172  1.00 20.00     0.246 A 
HETATM    6  C8  UNL     1     -37.204  14.380  -4.063  1.00 20.00     0.159 C 
HETATM    7  N10 UNL     1     -35.797  14.574  -3.729  1.00 20.00    -0.329 N 
HETATM    8  O11 UNL     1     -35.113  12.631  -4.836  1.00 20.00    -0.268 OA
ENDROOT
BRANCH   4   9
HETATM    9  C9  UNL     1     -33.727  17.106  -1.838  1.00 20.00     0.012 C 
HETATM   10  C6  UNL     1     -33.969  18.394  -2.619  1.00 20.00     0.015 C 
HETATM   11  C7  UNL     1     -34.451  17.144  -0.493  1.00 20.00     0.015 C 
ENDBRANCH   4   9
TORSDOF 1
ENDMDL
MODEL 2
REMARK VINA RESULT:      -4.6      1.825      2.145
REMARK  1 active torsions:
REMARK  status: ('A' for Active; 'I' for Inactive)
REMARK    1  A    between atoms: C4_4  and  C9_9 
ROOT
HETATM    1  C1  UNL     1     -33.578  17.308  -4.253  1.00 20.00     0.014 A 
HETATM    2  C2  UNL     1     -33.715  16.846  -5.502  1.00 20.00     0.075 A 
HETATM    3  C3  UNL     1     -34.151  15.175  -3.314  1.00 20.00     0.101 A 
HETATM    4  C4  UNL     1     -33.801  16.454  -3.110  1.00 20.00    -0.039 A 
HETATM    5  C5  UNL     1     -34.104  15.426  -5.738  1.00 20.00     0.246 A 
HETATM    6  C8  UNL     1     -34.689  13.253  -4.736  1.00 20.00     0.159 C 
HETATM    7  N10 UNL     1     -34.305  14.653  -4.588  1.00 20.00    -0.329 N 
HETATM    8  O11 UNL     1     -34.223  15.028  -6.895  1.00 20.00    -0.268 OA
ENDROOT
BRANCH   4   9
HETATM    9  C9  UNL     1     -33.626  17.051  -1.749  1.00 20.00     0.012 C 
HETATM   10  C6  UNL     1     -33.586  18.574  -1.838  1.00 20.00     0.015 C 
HETATM   11  C7  UNL     1     -34.736  16.592  -0.806  1.00 20.00     0.015 C 
ENDBRANCH   4   9
TORSDOF 1
ENDMDL
MODEL 3
REMARK VINA RESULT:      -4.5      1.812      1.993
REMARK  1 active torsions:
REMARK  status: ('A' for Active; 'I' for Inactive)
REMARK    1  A    between atoms: C4_4  and  C9_9 
ROOT
HETATM    1  C1  UNL     1     -34.456  14.741  -3.026  1.00 20.00     0.014 A 
HETATM    2  C2  UNL     1     -34.797  13.994  -4.082  1.00 20.00     0.075 A 
HETATM    3  C3  UNL     1     -34.072  16.666  -4.407  1.00 20.00     0.101 A 
HETATM    4  C4  UNL     1     -34.078  16.127  -3.178  1.00 20.00    -0.039 A 
HETATM    5  C5  UNL     1     -34.793  14.586  -5.452  1.00 20.00     0.246 A 
HETATM    6  C8  UNL     1     -34.387  16.583  -6.835  1.00 20.00     0.159 C 
HETATM    7  N10 UNL     1     -34.417  15.932  -5.530  1.00 20.00    -0.329 N 
HETATM    8  O11 UNL     1     -35.110  13.877  -6.405  1.00 20.00    -0.268 OA
ENDROOT
BRANCH   4   9
HETATM    9  C9  UNL     1     -33.711  16.889  -1.944  1.00 20.00     0.012 C 
HETATM   10  C6  UNL     1     -33.663  18.386  -2.238  1.00 20.00     0.015 C 
HETATM   11  C7  UNL     1     -34.690  16.592  -0.810  1.00 20.00     0.015 C 
ENDBRANCH   4   9
TORSDOF 1
ENDMDL
MODEL 4
REMARK VINA RESULT:      -4.4      1.858      2.197
REMARK  1 active torsions:
REMARK  status: ('A' for Active; 'I' for Inactive)
REMARK    1  A    between atoms: C4_4  and  C9_9 
ROOT
HETATM    1  C1  UNL     1     -33.760  15.507  -3.288  1.00 20.00     0.014 A 
HETATM    2  C2  UNL     1     -34.049  14.210  -3.446  1.00 20.00     0.075 A 
HETATM    3  C3  UNL     1     -34.423  16.013  -5.538  1.00 20.00     0.101 A 
HETATM    4  C4  UNL     1     -33.948  16.453  -4.363  1.00 20.00    -0.039 A 
HETATM    5  C5  UNL     1     -34.578  13.713  -4.749  1.00 20.00     0.246 A 
HETATM    6  C8  UNL     1     -35.247  14.273  -7.052  1.00 20.00     0.159 C 
HETATM    7  N10 UNL     1     -34.736  14.680  -5.748  1.00 20.00    -0.329 N 
HETATM    8  O11 UNL     1     -34.835  12.516  -4.867  1.00 20.00    -0.268 OA
ENDROOT
BRANCH   4   9
HETATM    9  C9  UNL     1     -33.599  17.884  -4.100  1.00 20.00     0.012 C 
HETATM   10  C6  UNL     1     -33.589  18.677  -5.404  1.00 20.00     0.015 C 
HETATM   11  C7  UNL     1     -34.569  18.505  -3.096  1.00 20.00     0.015 C 
ENDBRANCH   4   9
TORSDOF 1
ENDMDL
MODEL 5
REMARK VINA RESULT:      -4.4     11.198     13.254
REMARK  1 active torsions:
REMARK  status: ('A' for Active; 'I' for Inactive)
REMARK    1  A    between atoms: C4_4  and  C9_9 
ROOT
HETATM    1  C1  UNL     1     -41.207   4.288  -1.443  1.00 20.00     0.014 A 
HETATM    2  C2  UNL     1     -40.800   5.424  -0.866  1.00 20.00     0.075 A 
HETATM    3  C3  UNL     1     -42.684   5.470  -2.919  1.00 20.00     0.101 A 
HETATM    4  C4  UNL     1     -42.183   4.296  -2.509  1.00 20.00    -0.039 A 
HETATM    5  C5  UNL     1     -41.354   6.734  -1.316  1.00 20.00     0.246 A 
HETATM    6  C8  UNL     1     -42.884   7.911  -2.846  1.00 20.00     0.159 C 
HETATM    7  N10 UNL     1     -42.295   6.672  -2.351  1.00 20.00    -0.329 N 
HETATM    8  O11 UNL     1     -40.963   7.763  -0.768  1.00 20.00    -0.268 OA
ENDROOT
BRANCH   4   9
HETATM    9  C9  UNL     1     -42.581   2.979  -3.099  1.00 20.00     0.012 C 
HETATM   10  C6  UNL     1     -41.345   2.195  -3.531  1.00 20.00     0.015 C 
HETATM   11  C7  UNL     1     -43.417   2.170  -2.109  1.00 20.00     0.015 C 
ENDBRANCH   4   9
TORSDOF 1
ENDMDL
MODEL 6
REMARK VINA RESULT:      -4.4      2.323      3.415
REMARK  1 active torsions:
REMARK  status: ('A' for Active; 'I' for Inactive)
REMARK    1  A    between atoms: C4_4  and  C9_9 
ROOT
HETATM    1  C1  UNL     1     -34.468  16.730  -0.943  1.00 20.00     0.014 A 
HETATM    2  C2  UNL     1     -34.786  15.957  -1.987  1.00 20.00     0.075 A 
HETATM    3  C3  UNL     1     -33.606  18.451  -2.376  1.00 20.00     0.101 A 
HETATM    4  C4  UNL     1     -33.855  18.025  -1.128  1.00 20.00    -0.039 A 
HETATM    5  C5  UNL     1     -34.511  16.423  -3.378  1.00 20.00     0.246 A 
HETATM    6  C8  UNL     1     -33.615  18.212  -4.814  1.00 20.00     0.159 C 
HETATM    7  N10 UNL     1     -33.917  17.685  -3.487  1.00 20.00    -0.329 N 
HETATM    8  O11 UNL     1     -34.814  15.692  -4.319  1.00 20.00    -0.268 OA
ENDROOT
BRANCH   4   9
HETATM    9  C9  UNL     1     -33.532  18.825   0.094  1.00 20.00     0.012 C 
HETATM   10  C6  UNL     1     -34.238  18.240   1.314  1.00 20.00     0.015 C 
HETATM   11  C7  UNL     1     -32.023  18.888   0.320  1.00 20.00     0.015 C 
ENDBRANCH   4   9
TORSDOF 1
ENDMDL
MODEL 7
REMARK VINA RESULT:      -4.3      2.813      4.629
REMARK  1 active torsions:
REMARK  status: ('A' for Active; 'I' for Inactive)
REMARK    1  A    between atoms: C4_4  and  C9_9 
ROOT
HETATM    1  C1  UNL     1     -34.181  15.501  -2.716  1.00 20.00     0.014 A 
HETATM    2  C2  UNL     1     -34.067  16.585  -1.940  1.00 20.00     0.075 A 
HETATM    3  C3  UNL     1     -33.807  16.787  -4.707  1.00 20.00     0.101 A 
HETATM    4  C4  UNL     1     -34.048  15.590  -4.152  1.00 20.00    -0.039 A 
HETATM    5  C5  UNL     1     -33.799  17.920  -2.550  1.00 20.00     0.246 A 
HETATM    6  C8  UNL     1     -33.420  19.204  -4.617  1.00 20.00     0.159 C 
HETATM    7  N10 UNL     1     -33.682  17.936  -3.945  1.00 20.00    -0.329 N 
HETATM    8  O11 UNL     1     -33.699  18.899  -1.814  1.00 20.00    -0.268 OA
ENDROOT
BRANCH   4   9
HETATM    9  C9  UNL     1     -34.190  14.328  -4.944  1.00 20.00     0.012 C 
HETATM   10  C6  UNL     1     -35.142  13.364  -4.243  1.00 20.00     0.015 C 
HETATM   11  C7  UNL     1     -34.669  14.627  -6.363  1.00 20.00     0.015 C 
ENDBRANCH   4   9
TORSDOF 1
ENDMDL
MODEL 8
REMARK VINA RESULT:      -4.1      5.256      7.146
REMARK  1 active torsions:
REMARK  status: ('A' for Active; 'I' for Inactive)
REMARK    1  A    between atoms: C4_4  and  C9_9 
ROOT
HETATM    1  C1  UNL     1     -32.521  18.802   0.596  1.00 20.00     0.014 A 
HETATM    2  C2  UNL     1     -31.558  19.064   1.487  1.00 20.00     0.075 A 
HETATM    3  C3  UNL     1     -34.098  18.285   2.329  1.00 20.00     0.101 A 
HETATM    4  C4  UNL     1     -33.843  18.397   1.017  1.00 20.00    -0.039 A 
HETATM    5  C5  UNL     1     -31.835  18.941   2.948  1.00 20.00     0.246 A 
HETATM    6  C8  UNL     1     -33.482  18.400   4.697  1.00 20.00     0.159 C 
HETATM    7  N10 UNL     1     -33.134  18.544   3.288  1.00 20.00    -0.329 N 
HETATM    8  O11 UNL     1     -30.932  19.188   3.746  1.00 20.00    -0.268 OA
ENDROOT
BRANCH   4   9
HETATM    9  C9  UNL     1     -34.860  18.124  -0.046  1.00 20.00     0.012 C 
HETATM   10  C6  UNL     1     -34.628  16.748  -0.663  1.00 20.00     0.015 C 
HETATM   11  C7  UNL     1     -36.276  18.235   0.514  1.00 20.00     0.015 C 
ENDBRANCH   4   9
TORSDOF 1
ENDMDL
MODEL 9
REMARK VINA RESULT:      -4.1      1.464      2.157
REMARK  1 active torsions:
REMARK  status: ('A' for Active; 'I' for Inactive)
REMARK    1  A    between atoms: C4_4  and  C9_9 
ROOT
HETATM    1  C1  UNL     1     -35.350  17.340  -3.486  1.00 20.00     0.014 A 
HETATM    2  C2  UNL     1     -35.977  16.881  -4.575  1.00 20.00     0.075 A 
HETATM    3  C3  UNL     1     -34.398  15.185  -3.027  1.00 20.00     0.101 A 
HETATM    4  C4  UNL     1     -34.528  16.473  -2.674  1.00 20.00    -0.039 A 
HETATM    5  C5  UNL     1     -35.838  15.450  -4.975  1.00 20.00     0.246 A 
HETATM    6  C8  UNL     1     -34.843  13.255  -4.468  1.00 20.00     0.159 C 
HETATM    7  N10 UNL     1     -35.029  14.665  -4.145  1.00 20.00    -0.329 N 
HETATM    8  O11 UNL     1     -36.425  15.055  -5.980  1.00 20.00    -0.268 OA
ENDROOT
BRANCH   4   9
HETATM    9  C9  UNL     1     -33.862  17.068  -1.473  1.00 20.00     0.012 C 
HETATM   10  C6  UNL     1     -33.486  18.523  -1.740  1.00 20.00     0.015 C 
HETATM   11  C7  UNL     1     -34.760  16.958  -0.242  1.00 20.00     0.015 C 
ENDBRANCH   4   9
TORSDOF 1
ENDMDL
