MODEL 1
REMARK VINA RESULT:      -4.8      0.000      0.000
REMARK  1 active torsions:
REMARK  status: ('A' for Active; 'I' for Inactive)
REMARK    1  A    between atoms: C7_7  and  C11_11 
ROOT
HETATM    1  C1  UNL     1     -34.415  15.320  -6.222  1.00 20.00    -0.021 C 
HETATM    2  C2  UNL     1     -34.274  16.195  -5.206  1.00 20.00    -0.053 C 
HETATM    3  C3  UNL     1     -34.898  13.911  -5.994  1.00 20.00     0.034 C 
HETATM    4  C4  UNL     1     -35.807  14.743  -3.832  1.00 20.00     0.050 C 
HETATM    5  C5  UNL     1     -33.795  13.563  -3.719  1.00 20.00     0.174 C 
HETATM    6  C6  UNL     1     -35.110  13.574  -4.503  1.00 20.00     0.016 C 
HETATM    7  C7  UNL     1     -34.638  15.737  -3.794  1.00 20.00     0.087 C 
HETATM    8  C8  UNL     1     -33.708  17.564  -5.424  1.00 20.00     0.046 C 
HETATM    9  O12 UNL     1     -33.526  14.931  -3.334  1.00 20.00    -0.375 OA
ENDROOT
BRANCH   7  10
HETATM   10  C11 UNL     1     -34.898  16.855  -2.791  1.00 20.00     0.016 C 
HETATM   11  C9  UNL     1     -36.365  17.283  -2.828  1.00 20.00     0.013 C 
HETATM   12  C10 UNL     1     -34.504  16.419  -1.381  1.00 20.00     0.013 C 
ENDBRANCH   7  10
TORSDOF 1
ENDMDL
MODEL 2
REMARK VINA RESULT:      -4.7      1.330      2.588
REMARK  1 active torsions:
REMARK  status: ('A' for Active; 'I' for Inactive)
REMARK    1  A    between atoms: C7_7  and  C11_11 
ROOT
HETATM    1  C1  UNL     1     -34.823  13.621  -5.419  1.00 20.00    -0.021 C 
HETATM    2  C2  UNL     1     -34.690  14.799  -6.060  1.00 20.00    -0.053 C 
HETATM    3  C3  UNL     1     -34.719  13.519  -3.919  1.00 20.00     0.034 C 
HETATM    4  C4  UNL     1     -35.177  15.965  -3.882  1.00 20.00     0.050 C 
HETATM    5  C5  UNL     1     -32.948  15.329  -3.601  1.00 20.00     0.174 C 
HETATM    6  C6  UNL     1     -34.360  14.858  -3.241  1.00 20.00     0.016 C 
HETATM    7  C7  UNL     1     -34.449  16.059  -5.230  1.00 20.00     0.087 C 
HETATM    8  C8  UNL     1     -34.702  14.882  -7.556  1.00 20.00     0.046 C 
HETATM    9  O12 UNL     1     -33.049  16.034  -4.858  1.00 20.00    -0.375 OA
ENDROOT
BRANCH   7  10
HETATM   10  C11 UNL     1     -34.761  17.375  -5.933  1.00 20.00     0.016 C 
HETATM   11  C9  UNL     1     -36.074  17.963  -5.420  1.00 20.00     0.013 C 
HETATM   12  C10 UNL     1     -33.618  18.371  -5.745  1.00 20.00     0.013 C 
ENDBRANCH   7  10
TORSDOF 1
ENDMDL
MODEL 3
REMARK VINA RESULT:      -4.6      1.442      2.388
REMARK  1 active torsions:
REMARK  status: ('A' for Active; 'I' for Inactive)
REMARK    1  A    between atoms: C7_7  and  C11_11 
ROOT
HETATM    1  C1  UNL     1     -34.801  14.072  -5.500  1.00 20.00    -0.021 C 
HETATM    2  C2  UNL     1     -34.281  14.500  -4.332  1.00 20.00    -0.053 C 
HETATM    3  C3  UNL     1     -35.993  14.745  -6.130  1.00 20.00     0.034 C 
HETATM    4  C4  UNL     1     -35.441  16.704  -4.698  1.00 20.00     0.050 C 
HETATM    5  C5  UNL     1     -37.197  15.352  -3.963  1.00 20.00     0.174 C 
HETATM    6  C6  UNL     1     -36.581  15.878  -5.262  1.00 20.00     0.016 C 
HETATM    7  C7  UNL     1     -34.913  15.713  -3.652  1.00 20.00     0.087 C 
HETATM    8  C8  UNL     1     -33.155  13.771  -3.663  1.00 20.00     0.046 C 
HETATM    9  O12 UNL     1     -36.118  15.231  -3.008  1.00 20.00    -0.375 OA
ENDROOT
BRANCH   7  10
HETATM   10  C11 UNL     1     -34.037  16.415  -2.621  1.00 20.00     0.016 C 
HETATM   11  C9  UNL     1     -33.756  17.856  -3.043  1.00 20.00     0.013 C 
HETATM   12  C10 UNL     1     -34.693  16.380  -1.241  1.00 20.00     0.013 C 
ENDBRANCH   7  10
TORSDOF 1
ENDMDL
MODEL 4
REMARK VINA RESULT:      -4.6      1.313      2.700
REMARK  1 active torsions:
REMARK  status: ('A' for Active; 'I' for Inactive)
REMARK    1  A    between atoms: C7_7  and  C11_11 
ROOT
HETATM    1  C1  UNL     1     -35.199  13.709  -4.078  1.00 20.00    -0.021 C 
HETATM    2  C2  UNL     1     -35.932  14.794  -3.759  1.00 20.00    -0.053 C 
HETATM    3  C3  UNL     1     -33.692  13.741  -4.072  1.00 20.00     0.034 C 
HETATM    4  C4  UNL     1     -33.902  15.750  -2.618  1.00 20.00     0.050 C 
HETATM    5  C5  UNL     1     -33.424  16.151  -4.869  1.00 20.00     0.174 C 
HETATM    6  C6  UNL     1     -33.115  15.139  -3.762  1.00 20.00     0.016 C 
HETATM    7  C7  UNL     1     -35.204  16.077  -3.362  1.00 20.00     0.087 C 
HETATM    8  C8  UNL     1     -37.428  14.784  -3.856  1.00 20.00     0.046 C 
HETATM    9  O12 UNL     1     -34.743  16.677  -4.598  1.00 20.00    -0.375 OA
ENDROOT
BRANCH   7  10
HETATM   10  C11 UNL     1     -36.039  17.092  -2.591  1.00 20.00     0.016 C 
HETATM   11  C9  UNL     1     -35.414  17.379  -1.226  1.00 20.00     0.013 C 
HETATM   12  C10 UNL     1     -36.194  18.384  -3.391  1.00 20.00     0.013 C 
ENDBRANCH   7  10
TORSDOF 1
ENDMDL
MODEL 5
REMARK VINA RESULT:      -4.6      1.553      3.177
REMARK  1 active torsions:
REMARK  status: ('A' for Active; 'I' for Inactive)
REMARK    1  A    between atoms: C7_7  and  C11_11 
ROOT
HETATM    1  C1  UNL     1     -34.741  14.833  -6.981  1.00 20.00    -0.021 C 
HETATM    2  C2  UNL     1     -34.628  14.549  -5.668  1.00 20.00    -0.053 C 
HETATM    3  C3  UNL     1     -34.581  16.238  -7.504  1.00 20.00     0.034 C 
HETATM    4  C4  UNL     1     -33.400  16.727  -5.368  1.00 20.00     0.050 C 
HETATM    5  C5  UNL     1     -35.619  17.439  -5.506  1.00 20.00     0.174 C 
HETATM    6  C6  UNL     1     -34.377  17.283  -6.387  1.00 20.00     0.016 C 
HETATM    7  C7  UNL     1     -34.308  15.686  -4.699  1.00 20.00     0.087 C 
HETATM    8  C8  UNL     1     -34.878  13.168  -5.142  1.00 20.00     0.046 C 
HETATM    9  O12 UNL     1     -35.551  16.404  -4.499  1.00 20.00    -0.375 OA
ENDROOT
BRANCH   7  10
HETATM   10  C11 UNL     1     -33.751  15.257  -3.347  1.00 20.00     0.016 C 
HETATM   11  C9  UNL     1     -32.296  14.809  -3.481  1.00 20.00     0.013 C 
HETATM   12  C10 UNL     1     -33.871  16.389  -2.329  1.00 20.00     0.013 C 
ENDBRANCH   7  10
TORSDOF 1
ENDMDL
MODEL 6
REMARK VINA RESULT:      -4.6      1.378      2.865
REMARK  1 active torsions:
REMARK  status: ('A' for Active; 'I' for Inactive)
REMARK    1  A    between atoms: C7_7  and  C11_11 
ROOT
HETATM    1  C1  UNL     1     -34.325  14.036  -3.433  1.00 20.00    -0.021 C 
HETATM    2  C2  UNL     1     -34.483  15.367  -3.291  1.00 20.00    -0.053 C 
HETATM    3  C3  UNL     1     -34.419  13.367  -4.781  1.00 20.00     0.034 C 
HETATM    4  C4  UNL     1     -34.007  15.622  -5.750  1.00 20.00     0.050 C 
HETATM    5  C5  UNL     1     -36.223  14.883  -5.761  1.00 20.00     0.174 C 
HETATM    6  C6  UNL     1     -34.800  14.339  -5.917  1.00 20.00     0.016 C 
HETATM    7  C7  UNL     1     -34.744  16.210  -4.538  1.00 20.00     0.087 C 
HETATM    8  C8  UNL     1     -34.481  16.015  -1.939  1.00 20.00     0.046 C 
HETATM    9  O12 UNL     1     -36.141  16.018  -4.869  1.00 20.00    -0.375 OA
ENDROOT
BRANCH   7  10
HETATM   10  C11 UNL     1     -34.461  17.700  -4.392  1.00 20.00     0.016 C 
HETATM   11  C9  UNL     1     -33.565  18.194  -5.527  1.00 20.00     0.013 C 
HETATM   12  C10 UNL     1     -35.764  18.496  -4.355  1.00 20.00     0.013 C 
ENDBRANCH   7  10
TORSDOF 1
ENDMDL
MODEL 7
REMARK VINA RESULT:      -4.5      1.123      3.441
REMARK  1 active torsions:
REMARK  status: ('A' for Active; 'I' for Inactive)
REMARK    1  A    between atoms: C7_7  and  C11_11 
ROOT
HETATM    1  C1  UNL     1     -35.447  17.925  -3.101  1.00 20.00    -0.021 C 
HETATM    2  C2  UNL     1     -34.926  16.729  -2.761  1.00 20.00    -0.053 C 
HETATM    3  C3  UNL     1     -35.612  18.335  -4.542  1.00 20.00     0.034 C 
HETATM    4  C4  UNL     1     -35.451  15.911  -5.084  1.00 20.00     0.050 C 
HETATM    5  C5  UNL     1     -33.522  17.179  -5.442  1.00 20.00     0.174 C 
HETATM    6  C6  UNL     1     -35.046  17.301  -5.538  1.00 20.00     0.016 C 
HETATM    7  C7  UNL     1     -34.517  15.767  -3.874  1.00 20.00     0.087 C 
HETATM    8  C8  UNL     1     -34.679  16.363  -1.329  1.00 20.00     0.046 C 
HETATM    9  O12 UNL     1     -33.244  16.247  -4.373  1.00 20.00    -0.375 OA
ENDROOT
BRANCH   7  10
HETATM   10  C11 UNL     1     -34.377  14.307  -3.459  1.00 20.00     0.016 C 
HETATM   11  C9  UNL     1     -35.289  13.416  -4.301  1.00 20.00     0.013 C 
HETATM   12  C10 UNL     1     -32.924  13.849  -3.576  1.00 20.00     0.013 C 
ENDBRANCH   7  10
TORSDOF 1
ENDMDL
MODEL 8
REMARK VINA RESULT:      -4.5      1.748      3.181
REMARK  1 active torsions:
REMARK  status: ('A' for Active; 'I' for Inactive)
REMARK    1  A    between atoms: C7_7  and  C11_11 
ROOT
HETATM    1  C1  UNL     1     -33.212  15.236  -3.708  1.00 20.00    -0.021 C 
HETATM    2  C2  UNL     1     -33.805  16.000  -4.646  1.00 20.00    -0.053 C 
HETATM    3  C3  UNL     1     -33.694  13.842  -3.400  1.00 20.00     0.034 C 
HETATM    4  C4  UNL     1     -34.801  13.906  -5.628  1.00 20.00     0.050 C 
HETATM    5  C5  UNL     1     -36.180  14.276  -3.780  1.00 20.00     0.174 C 
HETATM    6  C6  UNL     1     -34.960  13.447  -4.191  1.00 20.00     0.016 C 
HETATM    7  C7  UNL     1     -34.983  15.417  -5.425  1.00 20.00     0.087 C 
HETATM    8  C8  UNL     1     -33.381  17.418  -4.884  1.00 20.00     0.046 C 
HETATM    9  O12 UNL     1     -36.130  15.502  -4.545  1.00 20.00    -0.375 OA
ENDROOT
BRANCH   7  10
HETATM   10  C11 UNL     1     -35.306  16.114  -6.742  1.00 20.00     0.016 C 
HETATM   11  C9  UNL     1     -35.135  15.153  -7.917  1.00 20.00     0.013 C 
HETATM   12  C10 UNL     1     -36.723  16.683  -6.718  1.00 20.00     0.013 C 
ENDBRANCH   7  10
TORSDOF 1
ENDMDL
MODEL 9
REMARK VINA RESULT:      -4.5      1.450      3.879
REMARK  1 active torsions:
REMARK  status: ('A' for Active; 'I' for Inactive)
REMARK    1  A    between atoms: C7_7  and  C11_11 
ROOT
HETATM    1  C1  UNL     1     -33.727  15.927  -2.632  1.00 20.00    -0.021 C 
HETATM    2  C2  UNL     1     -33.930  15.172  -3.730  1.00 20.00    -0.053 C 
HETATM    3  C3  UNL     1     -34.076  17.394  -2.604  1.00 20.00     0.034 C 
HETATM    4  C4  UNL     1     -35.550  16.915  -4.551  1.00 20.00     0.050 C 
HETATM    5  C5  UNL     1     -33.491  17.905  -5.035  1.00 20.00     0.174 C 
HETATM    6  C6  UNL     1     -34.583  17.924  -3.962  1.00 20.00     0.016 C 
HETATM    7  C7  UNL     1     -34.549  15.827  -4.963  1.00 20.00     0.087 C 
HETATM    8  C8  UNL     1     -33.497  13.738  -3.783  1.00 20.00     0.046 C 
HETATM    9  O12 UNL     1     -33.484  16.574  -5.600  1.00 20.00    -0.375 OA
ENDROOT
BRANCH   7  10
HETATM   10  C11 UNL     1     -35.165  14.867  -5.974  1.00 20.00     0.016 C 
HETATM   11  C9  UNL     1     -36.663  15.130  -6.125  1.00 20.00     0.013 C 
HETATM   12  C10 UNL     1     -34.463  14.982  -7.325  1.00 20.00     0.013 C 
ENDBRANCH   7  10
TORSDOF 1
ENDMDL
