MODEL 1
REMARK VINA RESULT:      -5.1      0.000      0.000
REMARK  1 active torsions:
REMARK  status: ('A' for Active; 'I' for Inactive)
REMARK    1  A    between atoms: C8_8  and  C11_11 
ROOT
HETATM    1  C1  UNL     1     -34.358  16.799  -5.665  1.00 20.00    -0.079 C 
HETATM    2  C2  UNL     1     -34.315  13.549  -4.709  1.00 20.00     0.132 C 
HETATM    3  C3  UNL     1     -33.922  17.979  -6.100  1.00 20.00     0.015 C 
HETATM    4  C4  UNL     1     -35.332  15.719  -6.227  1.00 20.00     0.047 C 
HETATM    5  C5  UNL     1     -33.284  13.809  -3.606  1.00 20.00     0.080 C 
HETATM    6  C6  UNL     1     -32.873  15.306  -3.849  1.00 20.00     0.022 C 
HETATM    7  C7  UNL     1     -34.313  14.821  -5.541  1.00 20.00     0.072 C 
HETATM    8  C8  UNL     1     -34.136  15.956  -4.422  1.00 20.00    -0.004 C 
HETATM    9  O12 UNL     1     -34.958  12.520  -4.841  1.00 20.00    -0.298 OA
ENDROOT
BRANCH   8  10
HETATM   10  C11 UNL     1     -35.170  16.241  -3.322  1.00 20.00    -0.009 C 
HETATM   11  C9  UNL     1     -34.531  16.094  -1.947  1.00 20.00     0.011 C 
HETATM   12  C10 UNL     1     -35.761  17.634  -3.502  1.00 20.00     0.011 C 
ENDBRANCH   8  10
TORSDOF 1
ENDMDL
MODEL 2
REMARK VINA RESULT:      -5.1      1.171      2.909
REMARK  1 active torsions:
REMARK  status: ('A' for Active; 'I' for Inactive)
REMARK    1  A    between atoms: C8_8  and  C11_11 
ROOT
HETATM    1  C1  UNL     1     -34.932  16.750  -3.416  1.00 20.00    -0.079 C 
HETATM    2  C2  UNL     1     -33.750  13.606  -3.862  1.00 20.00     0.132 C 
HETATM    3  C3  UNL     1     -35.789  17.740  -3.177  1.00 20.00     0.015 C 
HETATM    4  C4  UNL     1     -33.684  16.181  -2.675  1.00 20.00     0.047 C 
HETATM    5  C5  UNL     1     -34.720  13.324  -5.013  1.00 20.00     0.080 C 
HETATM    6  C6  UNL     1     -35.652  14.590  -5.012  1.00 20.00     0.022 C 
HETATM    7  C7  UNL     1     -34.264  14.892  -3.236  1.00 20.00     0.072 C 
HETATM    8  C8  UNL     1     -34.747  15.723  -4.519  1.00 20.00    -0.004 C 
HETATM    9  O12 UNL     1     -32.796  12.907  -3.560  1.00 20.00    -0.298 OA
ENDROOT
BRANCH   8  10
HETATM   10  C11 UNL     1     -33.803  16.210  -5.628  1.00 20.00    -0.009 C 
HETATM   11  C9  UNL     1     -34.240  15.652  -6.977  1.00 20.00     0.011 C 
HETATM   12  C10 UNL     1     -33.763  17.733  -5.656  1.00 20.00     0.011 C 
ENDBRANCH   8  10
TORSDOF 1
ENDMDL
MODEL 3
REMARK VINA RESULT:      -4.6      2.228      3.682
REMARK  1 active torsions:
REMARK  status: ('A' for Active; 'I' for Inactive)
REMARK    1  A    between atoms: C8_8  and  C11_11 
ROOT
HETATM    1  C1  UNL     1     -37.484  15.118  -3.942  1.00 20.00    -0.079 C 
HETATM    2  C2  UNL     1     -34.198  15.274  -3.130  1.00 20.00     0.132 C 
HETATM    3  C3  UNL     1     -38.729  14.657  -4.022  1.00 20.00     0.015 C 
HETATM    4  C4  UNL     1     -36.816  16.355  -3.268  1.00 20.00     0.047 C 
HETATM    5  C5  UNL     1     -33.885  13.946  -3.828  1.00 20.00     0.080 C 
HETATM    6  C6  UNL     1     -35.307  13.410  -4.226  1.00 20.00     0.022 C 
HETATM    7  C7  UNL     1     -35.716  15.324  -3.069  1.00 20.00     0.072 C 
HETATM    8  C8  UNL     1     -36.132  14.676  -4.475  1.00 20.00    -0.004 C 
HETATM    9  O12 UNL     1     -33.364  16.069  -2.726  1.00 20.00    -0.298 OA
ENDROOT
BRANCH   8  10
HETATM   10  C11 UNL     1     -35.800  15.304  -5.837  1.00 20.00    -0.009 C 
HETATM   11  C9  UNL     1     -34.807  14.429  -6.594  1.00 20.00     0.011 C 
HETATM   12  C10 UNL     1     -37.074  15.508  -6.649  1.00 20.00     0.011 C 
ENDBRANCH   8  10
TORSDOF 1
ENDMDL
MODEL 4
REMARK VINA RESULT:      -4.6      1.634      2.206
REMARK  1 active torsions:
REMARK  status: ('A' for Active; 'I' for Inactive)
REMARK    1  A    between atoms: C8_8  and  C11_11 
ROOT
HETATM    1  C1  UNL     1     -35.275  16.450  -6.625  1.00 20.00    -0.079 C 
HETATM    2  C2  UNL     1     -36.633  14.346  -4.343  1.00 20.00     0.132 C 
HETATM    3  C3  UNL     1     -34.708  16.872  -7.752  1.00 20.00     0.015 C 
HETATM    4  C4  UNL     1     -36.654  16.691  -5.937  1.00 20.00     0.047 C 
HETATM    5  C5  UNL     1     -35.370  13.482  -4.276  1.00 20.00     0.080 C 
HETATM    6  C6  UNL     1     -34.473  14.075  -5.422  1.00 20.00     0.022 C 
HETATM    7  C7  UNL     1     -36.422  15.237  -5.556  1.00 20.00     0.072 C 
HETATM    8  C8  UNL     1     -34.854  15.557  -5.471  1.00 20.00    -0.004 C 
HETATM    9  O12 UNL     1     -37.573  14.277  -3.566  1.00 20.00    -0.298 OA
ENDROOT
BRANCH   8  10
HETATM   10  C11 UNL     1     -34.202  16.343  -4.323  1.00 20.00    -0.009 C 
HETATM   11  C9  UNL     1     -33.220  15.456  -3.568  1.00 20.00     0.011 C 
HETATM   12  C10 UNL     1     -33.508  17.587  -4.863  1.00 20.00     0.011 C 
ENDBRANCH   8  10
TORSDOF 1
ENDMDL
MODEL 5
REMARK VINA RESULT:      -4.6      1.829      3.570
REMARK  1 active torsions:
REMARK  status: ('A' for Active; 'I' for Inactive)
REMARK    1  A    between atoms: C8_8  and  C11_11 
ROOT
HETATM    1  C1  UNL     1     -34.100  14.801  -4.096  1.00 20.00    -0.079 C 
HETATM    2  C2  UNL     1     -37.471  14.913  -3.766  1.00 20.00     0.132 C 
HETATM    3  C3  UNL     1     -32.813  15.016  -3.837  1.00 20.00     0.015 C 
HETATM    4  C4  UNL     1     -35.015  13.539  -4.122  1.00 20.00     0.047 C 
HETATM    5  C5  UNL     1     -37.501  16.443  -3.817  1.00 20.00     0.080 C 
HETATM    6  C6  UNL     1     -35.977  16.830  -3.789  1.00 20.00     0.022 C 
HETATM    7  C7  UNL     1     -36.002  14.565  -3.587  1.00 20.00     0.072 C 
HETATM    8  C8  UNL     1     -35.280  15.667  -4.501  1.00 20.00    -0.004 C 
HETATM    9  O12 UNL     1     -38.450  14.188  -3.848  1.00 20.00    -0.298 OA
ENDROOT
BRANCH   8  10
HETATM   10  C11 UNL     1     -35.450  15.758  -6.025  1.00 20.00    -0.009 C 
HETATM   11  C9  UNL     1     -35.995  17.127  -6.414  1.00 20.00     0.011 C 
HETATM   12  C10 UNL     1     -34.123  15.482  -6.721  1.00 20.00     0.011 C 
ENDBRANCH   8  10
TORSDOF 1
ENDMDL
MODEL 6
REMARK VINA RESULT:      -4.6      1.619      2.710
REMARK  1 active torsions:
REMARK  status: ('A' for Active; 'I' for Inactive)
REMARK    1  A    between atoms: C8_8  and  C11_11 
ROOT
HETATM    1  C1  UNL     1     -34.259  16.449  -2.883  1.00 20.00    -0.079 C 
HETATM    2  C2  UNL     1     -34.245  14.896  -5.894  1.00 20.00     0.132 C 
HETATM    3  C3  UNL     1     -34.022  16.674  -1.593  1.00 20.00     0.015 C 
HETATM    4  C4  UNL     1     -33.827  17.140  -4.212  1.00 20.00     0.047 C 
HETATM    5  C5  UNL     1     -34.925  13.642  -5.336  1.00 20.00     0.080 C 
HETATM    6  C6  UNL     1     -34.951  13.912  -3.788  1.00 20.00     0.022 C 
HETATM    7  C7  UNL     1     -33.835  15.688  -4.664  1.00 20.00     0.072 C 
HETATM    8  C8  UNL     1     -35.068  15.434  -3.672  1.00 20.00    -0.004 C 
HETATM    9  O12 UNL     1     -34.090  15.142  -7.080  1.00 20.00    -0.298 OA
ENDROOT
BRANCH   8  10
HETATM   10  C11 UNL     1     -36.502  15.910  -3.951  1.00 20.00    -0.009 C 
HETATM   11  C9  UNL     1     -37.469  14.734  -3.892  1.00 20.00     0.011 C 
HETATM   12  C10 UNL     1     -36.901  16.994  -2.957  1.00 20.00     0.011 C 
ENDBRANCH   8  10
TORSDOF 1
ENDMDL
MODEL 7
REMARK VINA RESULT:      -4.5      2.252      3.873
REMARK  1 active torsions:
REMARK  status: ('A' for Active; 'I' for Inactive)
REMARK    1  A    between atoms: C8_8  and  C11_11 
ROOT
HETATM    1  C1  UNL     1     -33.837  14.612  -4.093  1.00 20.00    -0.079 C 
HETATM    2  C2  UNL     1     -33.666  17.649  -5.586  1.00 20.00     0.132 C 
HETATM    3  C3  UNL     1     -33.626  13.318  -3.868  1.00 20.00     0.015 C 
HETATM    4  C4  UNL     1     -33.468  15.927  -3.341  1.00 20.00     0.047 C 
HETATM    5  C5  UNL     1     -34.224  17.114  -6.908  1.00 20.00     0.080 C 
HETATM    6  C6  UNL     1     -34.281  15.562  -6.668  1.00 20.00     0.022 C 
HETATM    7  C7  UNL     1     -33.336  16.404  -4.779  1.00 20.00     0.072 C 
HETATM    8  C8  UNL     1     -34.543  15.421  -5.166  1.00 20.00    -0.004 C 
HETATM    9  O12 UNL     1     -33.531  18.830  -5.306  1.00 20.00    -0.298 OA
ENDROOT
BRANCH   8  10
HETATM   10  C11 UNL     1     -36.014  15.699  -4.825  1.00 20.00    -0.009 C 
HETATM   11  C9  UNL     1     -36.836  15.833  -6.101  1.00 20.00     0.011 C 
HETATM   12  C10 UNL     1     -36.568  14.592  -3.935  1.00 20.00     0.011 C 
ENDBRANCH   8  10
TORSDOF 1
ENDMDL
MODEL 8
REMARK VINA RESULT:      -4.5      1.573      3.421
REMARK  1 active torsions:
REMARK  status: ('A' for Active; 'I' for Inactive)
REMARK    1  A    between atoms: C8_8  and  C11_11 
ROOT
HETATM    1  C1  UNL     1     -34.942  16.124  -2.366  1.00 20.00    -0.079 C 
HETATM    2  C2  UNL     1     -35.419  16.086  -5.721  1.00 20.00     0.132 C 
HETATM    3  C3  UNL     1     -34.500  16.512  -1.172  1.00 20.00     0.015 C 
HETATM    4  C4  UNL     1     -36.345  16.042  -3.040  1.00 20.00     0.047 C 
HETATM    5  C5  UNL     1     -33.918  15.980  -6.009  1.00 20.00     0.080 C 
HETATM    6  C6  UNL     1     -33.270  16.158  -4.588  1.00 20.00     0.022 C 
HETATM    7  C7  UNL     1     -35.500  16.433  -4.243  1.00 20.00     0.072 C 
HETATM    8  C8  UNL     1     -34.302  15.565  -3.625  1.00 20.00    -0.004 C 
HETATM    9  O12 UNL     1     -36.305  15.923  -6.544  1.00 20.00    -0.298 OA
ENDROOT
BRANCH   8  10
HETATM   10  C11 UNL     1     -34.265  14.030  -3.637  1.00 20.00    -0.009 C 
HETATM   11  C9  UNL     1     -34.884  13.496  -4.924  1.00 20.00     0.011 C 
HETATM   12  C10 UNL     1     -32.831  13.536  -3.478  1.00 20.00     0.011 C 
ENDBRANCH   8  10
TORSDOF 1
ENDMDL
MODEL 9
REMARK VINA RESULT:      -4.5      2.069      3.588
REMARK  1 active torsions:
REMARK  status: ('A' for Active; 'I' for Inactive)
REMARK    1  A    between atoms: C8_8  and  C11_11 
ROOT
HETATM    1  C1  UNL     1     -35.148  14.140  -4.403  1.00 20.00    -0.079 C 
HETATM    2  C2  UNL     1     -35.465  16.811  -2.343  1.00 20.00     0.132 C 
HETATM    3  C3  UNL     1     -34.747  12.957  -4.860  1.00 20.00     0.015 C 
HETATM    4  C4  UNL     1     -36.520  14.733  -3.959  1.00 20.00     0.047 C 
HETATM    5  C5  UNL     1     -33.959  17.091  -2.350  1.00 20.00     0.080 C 
HETATM    6  C6  UNL     1     -33.372  15.856  -3.126  1.00 20.00     0.022 C 
HETATM    7  C7  UNL     1     -35.601  15.434  -2.971  1.00 20.00     0.072 C 
HETATM    8  C8  UNL     1     -34.477  15.471  -4.113  1.00 20.00    -0.004 C 
HETATM    9  O12 UNL     1     -36.318  17.568  -1.906  1.00 20.00    -0.298 OA
ENDROOT
BRANCH   8  10
HETATM   10  C11 UNL     1     -34.512  16.425  -5.317  1.00 20.00    -0.009 C 
HETATM   11  C9  UNL     1     -33.418  17.478  -5.188  1.00 20.00     0.011 C 
HETATM   12  C10 UNL     1     -34.364  15.642  -6.616  1.00 20.00     0.011 C 
ENDBRANCH   8  10
TORSDOF 1
ENDMDL
