MODEL 1
REMARK VINA RESULT:      -4.8      0.000      0.000
REMARK  1 active torsions:
REMARK  status: ('A' for Active; 'I' for Inactive)
REMARK    1  A    between atoms: C2_2  and  C3_3 
ROOT
HETATM    1  C1  UNL     1     -33.084   7.147   5.389  1.00 20.00    -0.016 C 
HETATM    2  C2  UNL     1     -32.977   6.587   4.181  1.00 20.00    -0.020 C 
HETATM    3  C4  UNL     1     -34.010   6.368   6.264  1.00 20.00     0.032 C 
HETATM    4  C5  UNL     1     -33.807   5.348   4.039  1.00 20.00     0.021 C 
HETATM    5  C6  UNL     1     -34.756   5.482   5.254  1.00 20.00    -0.007 C 
HETATM    6  C7  UNL     1     -34.582   5.249   2.730  1.00 20.00     0.015 C 
HETATM    7  C8  UNL     1     -35.165   4.140   5.847  1.00 20.00     0.011 C 
ENDROOT
BRANCH   2   8
HETATM    8  C3  UNL     1     -32.089   7.122   3.163  1.00 20.00     0.265 C 
HETATM    9  O9  UNL     1     -32.385   8.083   2.452  1.00 20.00    -0.302 OA
ENDBRANCH   2   8
TORSDOF 1
ENDMDL
MODEL 2
REMARK VINA RESULT:      -4.3      2.335      4.063
REMARK  1 active torsions:
REMARK  status: ('A' for Active; 'I' for Inactive)
REMARK    1  A    between atoms: C2_2  and  C3_3 
ROOT
HETATM    1  C1  UNL     1     -34.834   5.148   3.738  1.00 20.00    -0.016 C 
HETATM    2  C2  UNL     1     -34.495   5.324   5.018  1.00 20.00    -0.020 C 
HETATM    3  C4  UNL     1     -33.923   5.907   2.831  1.00 20.00     0.032 C 
HETATM    4  C5  UNL     1     -33.311   6.226   5.187  1.00 20.00     0.021 C 
HETATM    5  C6  UNL     1     -33.239   6.891   3.792  1.00 20.00    -0.007 C 
HETATM    6  C7  UNL     1     -33.455   7.262   6.297  1.00 20.00     0.015 C 
HETATM    7  C8  UNL     1     -31.818   7.233   3.363  1.00 20.00     0.011 C 
ENDROOT
BRANCH   2   8
HETATM    8  C3  UNL     1     -35.191   4.643   6.097  1.00 20.00     0.265 C 
HETATM    9  O9  UNL     1     -35.462   3.443   6.068  1.00 20.00    -0.302 OA
ENDBRANCH   2   8
TORSDOF 1
ENDMDL
MODEL 3
REMARK VINA RESULT:      -4.2     11.744     12.178
REMARK  1 active torsions:
REMARK  status: ('A' for Active; 'I' for Inactive)
REMARK    1  A    between atoms: C2_2  and  C3_3 
ROOT
HETATM    1  C1  UNL     1     -33.251  15.257  -3.993  1.00 20.00    -0.016 C 
HETATM    2  C2  UNL     1     -34.445  14.661  -4.054  1.00 20.00    -0.020 C 
HETATM    3  C4  UNL     1     -33.174  16.188  -2.827  1.00 20.00     0.032 C 
HETATM    4  C5  UNL     1     -35.365  15.088  -2.952  1.00 20.00     0.021 C 
HETATM    5  C6  UNL     1     -34.650  16.361  -2.439  1.00 20.00    -0.007 C 
HETATM    6  C7  UNL     1     -36.793  15.386  -3.396  1.00 20.00     0.015 C 
HETATM    7  C8  UNL     1     -34.837  16.594  -0.947  1.00 20.00     0.011 C 
ENDROOT
BRANCH   2   8
HETATM    8  C3  UNL     1     -34.754  13.664  -5.065  1.00 20.00     0.265 C 
HETATM    9  O9  UNL     1     -34.840  12.461  -4.816  1.00 20.00    -0.302 OA
ENDBRANCH   2   8
TORSDOF 1
ENDMDL
MODEL 4
REMARK VINA RESULT:      -4.2      1.496      2.751
REMARK  1 active torsions:
REMARK  status: ('A' for Active; 'I' for Inactive)
REMARK    1  A    between atoms: C2_2  and  C3_3 
ROOT
HETATM    1  C1  UNL     1     -35.132   4.752   4.861  1.00 20.00    -0.016 C 
HETATM    2  C2  UNL     1     -34.563   5.512   3.921  1.00 20.00    -0.020 C 
HETATM    3  C4  UNL     1     -34.808   5.256   6.229  1.00 20.00     0.032 C 
HETATM    4  C5  UNL     1     -33.766   6.644   4.492  1.00 20.00     0.021 C 
HETATM    5  C6  UNL     1     -33.622   6.196   5.966  1.00 20.00    -0.007 C 
HETATM    6  C7  UNL     1     -32.407   6.859   3.835  1.00 20.00     0.015 C 
HETATM    7  C8  UNL     1     -33.572   7.360   6.946  1.00 20.00     0.011 C 
ENDROOT
BRANCH   2   8
HETATM    8  C3  UNL     1     -34.774   5.266   2.504  1.00 20.00     0.265 C 
HETATM    9  O9  UNL     1     -33.946   4.698   1.792  1.00 20.00    -0.302 OA
ENDBRANCH   2   8
TORSDOF 1
ENDMDL
MODEL 5
REMARK VINA RESULT:      -4.2     11.681     13.307
REMARK  1 active torsions:
REMARK  status: ('A' for Active; 'I' for Inactive)
REMARK    1  A    between atoms: C2_2  and  C3_3 
ROOT
HETATM    1  C1  UNL     1     -34.214  15.264  -3.015  1.00 20.00    -0.016 C 
HETATM    2  C2  UNL     1     -34.791  14.892  -4.161  1.00 20.00    -0.020 C 
HETATM    3  C4  UNL     1     -33.558  16.599  -3.151  1.00 20.00     0.032 C 
HETATM    4  C5  UNL     1     -34.619  15.903  -5.253  1.00 20.00     0.021 C 
HETATM    5  C6  UNL     1     -33.483  16.779  -4.675  1.00 20.00    -0.007 C 
HETATM    6  C7  UNL     1     -34.242  15.315  -6.609  1.00 20.00     0.015 C 
HETATM    7  C8  UNL     1     -33.579  18.240  -5.095  1.00 20.00     0.011 C 
ENDROOT
BRANCH   2   8
HETATM    8  C3  UNL     1     -35.548  13.657  -4.273  1.00 20.00     0.265 C 
HETATM    9  O9  UNL     1     -35.019  12.559  -4.449  1.00 20.00    -0.302 OA
ENDBRANCH   2   8
TORSDOF 1
ENDMDL
MODEL 6
REMARK VINA RESULT:      -4.1     11.592     13.146
REMARK  1 active torsions:
REMARK  status: ('A' for Active; 'I' for Inactive)
REMARK    1  A    between atoms: C2_2  and  C3_3 
ROOT
HETATM    1  C1  UNL     1     -34.446  13.549  -4.996  1.00 20.00    -0.016 C 
HETATM    2  C2  UNL     1     -34.447  14.707  -5.662  1.00 20.00    -0.020 C 
HETATM    3  C4  UNL     1     -34.374  13.776  -3.522  1.00 20.00     0.032 C 
HETATM    4  C5  UNL     1     -34.374  15.898  -4.756  1.00 20.00     0.021 C 
HETATM    5  C6  UNL     1     -33.921  15.241  -3.431  1.00 20.00    -0.007 C 
HETATM    6  C7  UNL     1     -33.401  16.981  -5.209  1.00 20.00     0.015 C 
HETATM    7  C8  UNL     1     -34.464  15.944  -2.195  1.00 20.00     0.011 C 
ENDROOT
BRANCH   2   8
HETATM    8  C3  UNL     1     -34.570  14.760  -7.109  1.00 20.00     0.265 C 
HETATM    9  O9  UNL     1     -35.535  14.298  -7.717  1.00 20.00    -0.302 OA
ENDBRANCH   2   8
TORSDOF 1
ENDMDL
MODEL 7
REMARK VINA RESULT:      -4.0     11.857     13.666
REMARK  1 active torsions:
REMARK  status: ('A' for Active; 'I' for Inactive)
REMARK    1  A    between atoms: C2_2  and  C3_3 
ROOT
HETATM    1  C1  UNL     1     -34.526  15.006  -6.180  1.00 20.00    -0.016 C 
HETATM    2  C2  UNL     1     -34.114  14.739  -4.938  1.00 20.00    -0.020 C 
HETATM    3  C4  UNL     1     -34.438  16.467  -6.475  1.00 20.00     0.032 C 
HETATM    4  C5  UNL     1     -33.685  15.965  -4.192  1.00 20.00     0.021 C 
HETATM    5  C6  UNL     1     -34.294  17.081  -5.075  1.00 20.00    -0.007 C 
HETATM    6  C7  UNL     1     -34.191  16.045  -2.756  1.00 20.00     0.015 C 
HETATM    7  C8  UNL     1     -33.467  18.360  -5.081  1.00 20.00     0.011 C 
ENDROOT
BRANCH   2   8
HETATM    8  C3  UNL     1     -34.046  13.380  -4.426  1.00 20.00     0.265 C 
HETATM    9  O9  UNL     1     -35.032  12.650  -4.333  1.00 20.00    -0.302 OA
ENDBRANCH   2   8
TORSDOF 1
ENDMDL
MODEL 8
REMARK VINA RESULT:      -3.9      2.167      3.495
REMARK  1 active torsions:
REMARK  status: ('A' for Active; 'I' for Inactive)
REMARK    1  A    between atoms: C2_2  and  C3_3 
ROOT
HETATM    1  C1  UNL     1     -33.630   6.345   5.445  1.00 20.00    -0.016 C 
HETATM    2  C2  UNL     1     -34.299   5.693   4.490  1.00 20.00    -0.020 C 
HETATM    3  C4  UNL     1     -32.613   7.265   4.857  1.00 20.00     0.032 C 
HETATM    4  C5  UNL     1     -33.847   6.059   3.110  1.00 20.00     0.021 C 
HETATM    5  C6  UNL     1     -32.499   6.757   3.411  1.00 20.00    -0.007 C 
HETATM    6  C7  UNL     1     -33.668   4.876   2.165  1.00 20.00     0.015 C 
HETATM    7  C8  UNL     1     -32.166   7.870   2.426  1.00 20.00     0.011 C 
ENDROOT
BRANCH   2   8
HETATM    8  C3  UNL     1     -35.386   4.779   4.802  1.00 20.00     0.265 C 
HETATM    9  O9  UNL     1     -35.203   3.608   5.133  1.00 20.00    -0.302 OA
ENDBRANCH   2   8
TORSDOF 1
ENDMDL
MODEL 9
REMARK VINA RESULT:      -3.9     11.596     12.109
REMARK  1 active torsions:
REMARK  status: ('A' for Active; 'I' for Inactive)
REMARK    1  A    between atoms: C2_2  and  C3_3 
ROOT
HETATM    1  C1  UNL     1     -36.112  15.889  -2.797  1.00 20.00    -0.016 C 
HETATM    2  C2  UNL     1     -34.831  15.833  -2.424  1.00 20.00    -0.020 C 
HETATM    3  C4  UNL     1     -36.410  14.875  -3.852  1.00 20.00     0.032 C 
HETATM    4  C5  UNL     1     -34.056  14.783  -3.159  1.00 20.00     0.021 C 
HETATM    5  C6  UNL     1     -35.008  14.481  -4.341  1.00 20.00    -0.007 C 
HETATM    6  C7  UNL     1     -32.682  15.231  -3.645  1.00 20.00     0.015 C 
HETATM    7  C8  UNL     1     -34.940  13.035  -4.812  1.00 20.00     0.011 C 
ENDROOT
BRANCH   2   8
HETATM    8  C3  UNL     1     -34.302  16.678  -1.366  1.00 20.00     0.265 C 
HETATM    9  O9  UNL     1     -34.749  16.676  -0.219  1.00 20.00    -0.302 OA
ENDBRANCH   2   8
TORSDOF 1
ENDMDL
