MODEL 1
REMARK VINA RESULT:      -4.5      0.000      0.000
REMARK  3 active torsions:
REMARK  status: ('A' for Active; 'I' for Inactive)
REMARK    1  A    between atoms: C2_2  and  C6_6 
REMARK    2  A    between atoms: C3_3  and  C7_7 
REMARK    3  A    between atoms: C7_7  and  C8_8 
ROOT
HETATM    1  C1  UNL     1     -36.542  14.360  -3.870  1.00 20.00     0.100 C 
HETATM    2  C2  UNL     1     -34.427  14.224  -5.304  1.00 20.00     0.172 A 
HETATM    3  C3  UNL     1     -35.113  14.389  -3.963  1.00 20.00     0.175 A 
HETATM    4  N9  UNL     1     -37.700  14.335  -3.795  1.00 20.00    -0.194 NA
HETATM    5  O10 UNL     1     -34.551  13.134  -4.384  1.00 20.00    -0.353 OA
ENDROOT
BRANCH   3   6
HETATM    6  C7  UNL     1     -34.365  15.027  -2.835  1.00 20.00     0.056 C 
BRANCH   6   7
HETATM    7  C8  UNL     1     -35.116  16.230  -2.244  1.00 20.00    -0.000 C 
HETATM    8  C5  UNL     1     -34.606  16.608  -0.862  1.00 20.00     0.005 C 
ENDBRANCH   6   7
ENDBRANCH   3   6
BRANCH   2   9
HETATM    9  C6  UNL     1     -35.163  14.036  -6.583  1.00 20.00     0.032 C 
HETATM   10  C4  UNL     1     -34.733  15.001  -7.661  1.00 20.00     0.007 C 
ENDBRANCH   2   9
TORSDOF 3
ENDMDL
MODEL 2
REMARK VINA RESULT:      -4.4      2.275      2.385
REMARK  3 active torsions:
REMARK  status: ('A' for Active; 'I' for Inactive)
REMARK    1  A    between atoms: C2_2  and  C6_6 
REMARK    2  A    between atoms: C3_3  and  C7_7 
REMARK    3  A    between atoms: C7_7  and  C8_8 
ROOT
HETATM    1  C1  UNL     1     -33.642  14.347  -3.822  1.00 20.00     0.100 C 
HETATM    2  C2  UNL     1     -33.914  16.358  -5.381  1.00 20.00     0.172 A 
HETATM    3  C3  UNL     1     -33.607  15.765  -4.020  1.00 20.00     0.175 A 
HETATM    4  N9  UNL     1     -33.670  13.198  -3.661  1.00 20.00    -0.194 NA
HETATM    5  O10 UNL     1     -32.568  16.181  -4.924  1.00 20.00    -0.353 OA
ENDROOT
BRANCH   3   6
HETATM    6  C7  UNL     1     -33.721  16.631  -2.806  1.00 20.00     0.056 C 
BRANCH   6   7
HETATM    7  C8  UNL     1     -34.751  16.093  -1.801  1.00 20.00    -0.000 C 
HETATM    8  C5  UNL     1     -34.709  16.838  -0.475  1.00 20.00     0.005 C 
ENDBRANCH   6   7
ENDBRANCH   3   6
BRANCH   2   9
HETATM    9  C6  UNL     1     -34.272  15.538  -6.570  1.00 20.00     0.032 C 
HETATM   10  C4  UNL     1     -34.907  16.345  -7.675  1.00 20.00     0.007 C 
ENDBRANCH   2   9
TORSDOF 3
ENDMDL
MODEL 3
REMARK VINA RESULT:      -4.2      1.805      4.354
REMARK  3 active torsions:
REMARK  status: ('A' for Active; 'I' for Inactive)
REMARK    1  A    between atoms: C2_2  and  C6_6 
REMARK    2  A    between atoms: C3_3  and  C7_7 
REMARK    3  A    between atoms: C7_7  and  C8_8 
ROOT
HETATM    1  C1  UNL     1     -34.661  13.758  -4.943  1.00 20.00     0.100 C 
HETATM    2  C2  UNL     1     -33.936  16.131  -4.321  1.00 20.00     0.172 A 
HETATM    3  C3  UNL     1     -34.462  15.124  -5.323  1.00 20.00     0.175 A 
HETATM    4  N9  UNL     1     -34.822  12.650  -4.635  1.00 20.00    -0.194 NA
HETATM    5  O10 UNL     1     -35.331  16.034  -4.626  1.00 20.00    -0.353 OA
ENDROOT
BRANCH   3   6
HETATM    6  C7  UNL     1     -34.341  15.419  -6.784  1.00 20.00     0.056 C 
BRANCH   6   7
HETATM    7  C8  UNL     1     -35.254  14.526  -7.638  1.00 20.00    -0.000 C 
HETATM    8  C5  UNL     1     -36.639  15.126  -7.825  1.00 20.00     0.005 C 
ENDBRANCH   6   7
ENDBRANCH   3   6
BRANCH   2   9
HETATM    9  C6  UNL     1     -33.588  15.784  -2.916  1.00 20.00     0.032 C 
HETATM   10  C4  UNL     1     -34.642  16.209  -1.923  1.00 20.00     0.007 C 
ENDBRANCH   2   9
TORSDOF 3
ENDMDL
MODEL 4
REMARK VINA RESULT:      -4.1      1.992      4.545
REMARK  3 active torsions:
REMARK  status: ('A' for Active; 'I' for Inactive)
REMARK    1  A    between atoms: C2_2  and  C6_6 
REMARK    2  A    between atoms: C3_3  and  C7_7 
REMARK    3  A    between atoms: C7_7  and  C8_8 
ROOT
HETATM    1  C1  UNL     1     -34.092  14.079  -3.903  1.00 20.00     0.100 C 
HETATM    2  C2  UNL     1     -34.884  16.409  -3.202  1.00 20.00     0.172 A 
HETATM    3  C3  UNL     1     -34.955  15.202  -4.116  1.00 20.00     0.175 A 
HETATM    4  N9  UNL     1     -33.393  13.169  -3.731  1.00 20.00    -0.194 NA
HETATM    5  O10 UNL     1     -35.891  15.403  -3.043  1.00 20.00    -0.353 OA
ENDROOT
BRANCH   3   6
HETATM    6  C7  UNL     1     -35.565  15.351  -5.473  1.00 20.00     0.056 C 
BRANCH   6   7
HETATM    7  C8  UNL     1     -34.557  15.076  -6.600  1.00 20.00    -0.000 C 
HETATM    8  C5  UNL     1     -35.234  14.625  -7.884  1.00 20.00     0.005 C 
ENDBRANCH   6   7
ENDBRANCH   3   6
BRANCH   2   9
HETATM    9  C6  UNL     1     -33.937  16.516  -2.059  1.00 20.00     0.032 C 
HETATM   10  C4  UNL     1     -34.631  16.663  -0.727  1.00 20.00     0.007 C 
ENDBRANCH   2   9
TORSDOF 3
ENDMDL
MODEL 5
REMARK VINA RESULT:      -4.1      1.104      4.100
REMARK  3 active torsions:
REMARK  status: ('A' for Active; 'I' for Inactive)
REMARK    1  A    between atoms: C2_2  and  C6_6 
REMARK    2  A    between atoms: C3_3  and  C7_7 
REMARK    3  A    between atoms: C7_7  and  C8_8 
ROOT
HETATM    1  C1  UNL     1     -36.539  14.622  -3.820  1.00 20.00     0.100 C 
HETATM    2  C2  UNL     1     -34.312  15.616  -3.046  1.00 20.00     0.172 A 
HETATM    3  C3  UNL     1     -35.156  14.891  -4.075  1.00 20.00     0.175 A 
HETATM    4  N9  UNL     1     -37.660  14.404  -3.614  1.00 20.00    -0.194 NA
HETATM    5  O10 UNL     1     -34.865  16.296  -4.178  1.00 20.00    -0.353 OA
ENDROOT
BRANCH   3   6
HETATM    6  C7  UNL     1     -34.478  14.065  -5.121  1.00 20.00     0.056 C 
BRANCH   6   7
HETATM    7  C8  UNL     1     -35.191  14.144  -6.480  1.00 20.00    -0.000 C 
HETATM    8  C5  UNL     1     -34.469  15.054  -7.461  1.00 20.00     0.005 C 
ENDBRANCH   6   7
ENDBRANCH   3   6
BRANCH   2   9
HETATM    9  C6  UNL     1     -34.839  16.078  -1.733  1.00 20.00     0.032 C 
HETATM   10  C4  UNL     1     -33.985  17.147  -1.096  1.00 20.00     0.007 C 
ENDBRANCH   2   9
TORSDOF 3
ENDMDL
MODEL 6
REMARK VINA RESULT:      -4.0      2.467      4.840
REMARK  3 active torsions:
REMARK  status: ('A' for Active; 'I' for Inactive)
REMARK    1  A    between atoms: C2_2  and  C6_6 
REMARK    2  A    between atoms: C3_3  and  C7_7 
REMARK    3  A    between atoms: C7_7  and  C8_8 
ROOT
HETATM    1  C1  UNL     1     -33.626  17.104  -5.121  1.00 20.00     0.100 C 
HETATM    2  C2  UNL     1     -33.907  15.579  -3.086  1.00 20.00     0.172 A 
HETATM    3  C3  UNL     1     -33.848  15.795  -4.585  1.00 20.00     0.175 A 
HETATM    4  N9  UNL     1     -33.445  18.165  -5.556  1.00 20.00    -0.194 NA
HETATM    5  O10 UNL     1     -32.724  15.293  -3.841  1.00 20.00    -0.353 OA
ENDROOT
BRANCH   3   6
HETATM    6  C7  UNL     1     -34.463  14.777  -5.492  1.00 20.00     0.056 C 
BRANCH   6   7
HETATM    7  C8  UNL     1     -34.331  15.161  -6.974  1.00 20.00    -0.000 C 
HETATM    8  C5  UNL     1     -35.438  14.563  -7.828  1.00 20.00     0.005 C 
ENDBRANCH   6   7
ENDBRANCH   3   6
BRANCH   2   9
HETATM    9  C6  UNL     1     -33.753  16.676  -2.093  1.00 20.00     0.032 C 
HETATM   10  C4  UNL     1     -34.705  16.559  -0.928  1.00 20.00     0.007 C 
ENDBRANCH   2   9
TORSDOF 3
ENDMDL
MODEL 7
REMARK VINA RESULT:      -3.9      2.512      2.694
REMARK  3 active torsions:
REMARK  status: ('A' for Active; 'I' for Inactive)
REMARK    1  A    between atoms: C2_2  and  C6_6 
REMARK    2  A    between atoms: C3_3  and  C7_7 
REMARK    3  A    between atoms: C7_7  and  C8_8 
ROOT
HETATM    1  C1  UNL     1     -33.688  17.301  -4.919  1.00 20.00     0.100 C 
HETATM    2  C2  UNL     1     -34.388  14.910  -5.500  1.00 20.00     0.172 A 
HETATM    3  C3  UNL     1     -34.058  15.987  -4.486  1.00 20.00     0.175 A 
HETATM    4  N9  UNL     1     -33.388  18.366  -5.269  1.00 20.00    -0.194 NA
HETATM    5  O10 UNL     1     -35.413  15.645  -4.823  1.00 20.00    -0.353 OA
ENDROOT
BRANCH   3   6
HETATM    6  C7  UNL     1     -33.670  15.587  -3.098  1.00 20.00     0.056 C 
BRANCH   6   7
HETATM    7  C8  UNL     1     -33.728  16.764  -2.114  1.00 20.00    -0.000 C 
HETATM    8  C5  UNL     1     -34.698  16.516  -0.970  1.00 20.00     0.005 C 
ENDBRANCH   6   7
ENDBRANCH   3   6
BRANCH   2   9
HETATM    9  C6  UNL     1     -34.345  15.128  -6.971  1.00 20.00     0.032 C 
HETATM   10  C4  UNL     1     -35.485  14.463  -7.702  1.00 20.00     0.007 C 
ENDBRANCH   2   9
TORSDOF 3
ENDMDL
MODEL 8
REMARK VINA RESULT:      -3.9     11.890     12.655
REMARK  3 active torsions:
REMARK  status: ('A' for Active; 'I' for Inactive)
REMARK    1  A    between atoms: C2_2  and  C6_6 
REMARK    2  A    between atoms: C3_3  and  C7_7 
REMARK    3  A    between atoms: C7_7  and  C8_8 
ROOT
HETATM    1  C1  UNL     1     -33.713   6.642   5.649  1.00 20.00     0.100 C 
HETATM    2  C2  UNL     1     -33.236   6.237   3.168  1.00 20.00     0.172 A 
HETATM    3  C3  UNL     1     -34.097   6.053   4.401  1.00 20.00     0.175 A 
HETATM    4  N9  UNL     1     -33.403   7.120   6.660  1.00 20.00    -0.194 NA
HETATM    5  O10 UNL     1     -34.409   7.028   3.391  1.00 20.00    -0.353 OA
ENDROOT
BRANCH   3   6
HETATM    6  C7  UNL     1     -35.067   4.915   4.450  1.00 20.00     0.056 C 
BRANCH   6   7
HETATM    7  C8  UNL     1     -34.734   3.911   5.563  1.00 20.00    -0.000 C 
HETATM    8  C5  UNL     1     -35.453   4.230   6.864  1.00 20.00     0.005 C 
ENDBRANCH   6   7
ENDBRANCH   3   6
BRANCH   2   9
HETATM    9  C6  UNL     1     -31.965   7.011   3.164  1.00 20.00     0.032 C 
HETATM   10  C4  UNL     1     -31.961   8.138   2.161  1.00 20.00     0.007 C 
ENDBRANCH   2   9
TORSDOF 3
ENDMDL
MODEL 9
REMARK VINA RESULT:      -3.9      1.118      1.169
REMARK  3 active torsions:
REMARK  status: ('A' for Active; 'I' for Inactive)
REMARK    1  A    between atoms: C2_2  and  C6_6 
REMARK    2  A    between atoms: C3_3  and  C7_7 
REMARK    3  A    between atoms: C7_7  and  C8_8 
ROOT
HETATM    1  C1  UNL     1     -35.999  14.996  -3.656  1.00 20.00     0.100 C 
HETATM    2  C2  UNL     1     -34.158  15.841  -5.219  1.00 20.00     0.172 A 
HETATM    3  C3  UNL     1     -34.641  15.407  -3.850  1.00 20.00     0.175 A 
HETATM    4  N9  UNL     1     -37.100  14.663  -3.498  1.00 20.00    -0.194 NA
HETATM    5  O10 UNL     1     -33.905  14.525  -4.715  1.00 20.00    -0.353 OA
ENDROOT
BRANCH   3   6
HETATM    6  C7  UNL     1     -33.873  15.830  -2.638  1.00 20.00     0.056 C 
BRANCH   6   7
HETATM    7  C8  UNL     1     -34.788  16.341  -1.515  1.00 20.00    -0.000 C 
HETATM    8  C5  UNL     1     -34.087  17.335  -0.604  1.00 20.00     0.005 C 
ENDBRANCH   6   7
ENDBRANCH   3   6
BRANCH   2   9
HETATM    9  C6  UNL     1     -35.034  15.881  -6.422  1.00 20.00     0.032 C 
HETATM   10  C4  UNL     1     -34.651  14.862  -7.466  1.00 20.00     0.007 C 
ENDBRANCH   2   9
TORSDOF 3
ENDMDL
