MODEL 1
REMARK VINA RESULT:      -3.6      0.000      0.000
REMARK  1 active torsions:
REMARK  status: ('A' for Active; 'I' for Inactive)
REMARK    1  A    between atoms: C7_7  and  N8_8 
ROOT
HETATM    1  C1  UNL     1     -34.208  16.864  -2.581  1.00 20.00     0.137 C 
HETATM    2  C2  UNL     1     -33.540  16.267  -4.812  1.00 20.00     0.140 C 
HETATM    3  C3  UNL     1     -33.742  17.763  -4.996  1.00 20.00     0.068 C 
HETATM    4  C4  UNL     1     -35.078  18.098  -5.647  1.00 20.00     0.023 C 
HETATM    5  N8  UNL     1     -34.120  15.864  -3.540  1.00 20.00    -0.361 N 
HETATM    6  S9  UNL     1     -34.696  16.743  -0.989  1.00 20.00    -0.053 SA
HETATM    7  S10 UNL     1     -33.701  18.398  -3.295  1.00 20.00    -0.095 SA
ENDROOT
BRANCH   5   8
HETATM    8  C7  UNL     1     -34.384  14.445  -3.335  1.00 20.00     0.077 C 
HETATM    9  C5  UNL     1     -33.159  13.645  -3.752  1.00 20.00     0.032 C 
HETATM   10  C6  UNL     1     -35.614  14.051  -4.139  1.00 20.00     0.032 C 
ENDBRANCH   5   8
TORSDOF 1
ENDMDL
MODEL 2
REMARK VINA RESULT:      -3.6      1.561      3.028
REMARK  1 active torsions:
REMARK  status: ('A' for Active; 'I' for Inactive)
REMARK    1  A    between atoms: C7_7  and  N8_8 
ROOT
HETATM    1  C1  UNL     1     -34.516  17.238  -4.384  1.00 20.00     0.137 C 
HETATM    2  C2  UNL     1     -35.523  15.549  -3.000  1.00 20.00     0.140 C 
HETATM    3  C3  UNL     1     -35.586  16.733  -2.048  1.00 20.00     0.068 C 
HETATM    4  C4  UNL     1     -34.473  16.709  -1.008  1.00 20.00     0.023 C 
HETATM    5  N8  UNL     1     -34.646  15.882  -4.112  1.00 20.00    -0.361 N 
HETATM    6  S9  UNL     1     -33.705  17.976  -5.643  1.00 20.00    -0.053 SA
HETATM    7  S10 UNL     1     -35.377  18.162  -3.150  1.00 20.00    -0.095 SA
ENDROOT
BRANCH   5   8
HETATM    8  C7  UNL     1     -34.139  14.785  -4.927  1.00 20.00     0.077 C 
HETATM    9  C5  UNL     1     -35.201  14.387  -5.942  1.00 20.00     0.032 C 
HETATM   10  C6  UNL     1     -33.769  13.624  -4.016  1.00 20.00     0.032 C 
ENDBRANCH   5   8
TORSDOF 1
ENDMDL
MODEL 3
REMARK VINA RESULT:      -3.6      2.595      3.038
REMARK  1 active torsions:
REMARK  status: ('A' for Active; 'I' for Inactive)
REMARK    1  A    between atoms: C7_7  and  N8_8 
ROOT
HETATM    1  C1  UNL     1     -36.447  15.532  -4.794  1.00 20.00     0.137 C 
HETATM    2  C2  UNL     1     -34.211  16.052  -5.511  1.00 20.00     0.140 C 
HETATM    3  C3  UNL     1     -34.937  16.145  -6.844  1.00 20.00     0.068 C 
HETATM    4  C4  UNL     1     -34.759  14.897  -7.698  1.00 20.00     0.023 C 
HETATM    5  N8  UNL     1     -35.086  15.413  -4.539  1.00 20.00    -0.361 N 
HETATM    6  S9  UNL     1     -37.731  15.042  -3.848  1.00 20.00    -0.053 SA
HETATM    7  S10 UNL     1     -36.677  16.324  -6.356  1.00 20.00    -0.095 SA
ENDROOT
BRANCH   5   8
HETATM    8  C7  UNL     1     -34.478  14.878  -3.328  1.00 20.00     0.077 C 
HETATM    9  C5  UNL     1     -33.848  16.018  -2.541  1.00 20.00     0.032 C 
HETATM   10  C6  UNL     1     -33.449  13.827  -3.717  1.00 20.00     0.032 C 
ENDBRANCH   5   8
TORSDOF 1
ENDMDL
MODEL 4
REMARK VINA RESULT:      -3.5      2.141      3.671
REMARK  1 active torsions:
REMARK  status: ('A' for Active; 'I' for Inactive)
REMARK    1  A    between atoms: C7_7  and  N8_8 
ROOT
HETATM    1  C1  UNL     1     -35.092  16.680  -4.805  1.00 20.00     0.137 C 
HETATM    2  C2  UNL     1     -33.620  15.375  -3.421  1.00 20.00     0.140 C 
HETATM    3  C3  UNL     1     -33.894  14.367  -4.527  1.00 20.00     0.068 C 
HETATM    4  C4  UNL     1     -34.940  13.332  -4.132  1.00 20.00     0.023 C 
HETATM    5  N8  UNL     1     -34.569  16.471  -3.535  1.00 20.00    -0.361 N 
HETATM    6  S9  UNL     1     -36.097  17.904  -5.332  1.00 20.00    -0.053 SA
HETATM    7  S10 UNL     1     -34.522  15.401  -5.882  1.00 20.00    -0.095 SA
ENDROOT
BRANCH   5   8
HETATM    8  C7  UNL     1     -34.744  17.340  -2.377  1.00 20.00     0.077 C 
HETATM    9  C5  UNL     1     -33.675  18.422  -2.400  1.00 20.00     0.032 C 
HETATM   10  C6  UNL     1     -34.663  16.496  -1.113  1.00 20.00     0.032 C 
ENDBRANCH   5   8
TORSDOF 1
ENDMDL
MODEL 5
REMARK VINA RESULT:      -3.5      1.944      2.625
REMARK  1 active torsions:
REMARK  status: ('A' for Active; 'I' for Inactive)
REMARK    1  A    between atoms: C7_7  and  N8_8 
ROOT
HETATM    1  C1  UNL     1     -35.514  16.341  -2.459  1.00 20.00     0.137 C 
HETATM    2  C2  UNL     1     -36.176  15.390  -4.566  1.00 20.00     0.140 C 
HETATM    3  C3  UNL     1     -37.462  16.111  -4.194  1.00 20.00     0.068 C 
HETATM    4  C4  UNL     1     -38.513  15.175  -3.612  1.00 20.00     0.023 C 
HETATM    5  N8  UNL     1     -35.307  15.341  -3.400  1.00 20.00    -0.361 N 
HETATM    6  S9  UNL     1     -34.638  16.671  -1.077  1.00 20.00    -0.053 SA
HETATM    7  S10 UNL     1     -36.919  17.300  -2.933  1.00 20.00    -0.095 SA
ENDROOT
BRANCH   5   8
HETATM    8  C7  UNL     1     -34.211  14.380  -3.412  1.00 20.00     0.077 C 
HETATM    9  C5  UNL     1     -32.927  15.094  -3.805  1.00 20.00     0.032 C 
HETATM   10  C6  UNL     1     -34.551  13.257  -4.382  1.00 20.00     0.032 C 
ENDBRANCH   5   8
TORSDOF 1
ENDMDL
MODEL 6
REMARK VINA RESULT:      -3.5      2.376      3.092
REMARK  1 active torsions:
REMARK  status: ('A' for Active; 'I' for Inactive)
REMARK    1  A    between atoms: C7_7  and  N8_8 
ROOT
HETATM    1  C1  UNL     1     -34.158  16.771  -5.768  1.00 20.00     0.137 C 
HETATM    2  C2  UNL     1     -34.669  14.432  -5.998  1.00 20.00     0.140 C 
HETATM    3  C3  UNL     1     -35.491  14.990  -7.149  1.00 20.00     0.068 C 
HETATM    4  C4  UNL     1     -36.969  15.125  -6.804  1.00 20.00     0.023 C 
HETATM    5  N8  UNL     1     -34.242  15.531  -5.146  1.00 20.00    -0.361 N 
HETATM    6  S9  UNL     1     -33.594  18.214  -5.146  1.00 20.00    -0.053 SA
HETATM    7  S10 UNL     1     -34.763  16.631  -7.421  1.00 20.00    -0.095 SA
ENDROOT
BRANCH   5   8
HETATM    8  C7  UNL     1     -33.782  15.208  -3.801  1.00 20.00     0.077 C 
HETATM    9  C5  UNL     1     -33.376  13.742  -3.752  1.00 20.00     0.032 C 
HETATM   10  C6  UNL     1     -34.897  15.516  -2.812  1.00 20.00     0.032 C 
ENDBRANCH   5   8
TORSDOF 1
ENDMDL
MODEL 7
REMARK VINA RESULT:      -3.5      2.091      3.726
REMARK  1 active torsions:
REMARK  status: ('A' for Active; 'I' for Inactive)
REMARK    1  A    between atoms: C7_7  and  N8_8 
ROOT
HETATM    1  C1  UNL     1     -34.269  16.704  -4.779  1.00 20.00     0.137 C 
HETATM    2  C2  UNL     1     -35.473  14.642  -4.492  1.00 20.00     0.140 C 
HETATM    3  C3  UNL     1     -34.468  14.514  -3.357  1.00 20.00     0.068 C 
HETATM    4  C4  UNL     1     -33.297  13.606  -3.710  1.00 20.00     0.023 C 
HETATM    5  N8  UNL     1     -35.059  15.726  -5.370  1.00 20.00    -0.361 N 
HETATM    6  S9  UNL     1     -33.718  18.137  -5.435  1.00 20.00    -0.053 SA
HETATM    7  S10 UNL     1     -33.887  16.219  -3.124  1.00 20.00    -0.095 SA
ENDROOT
BRANCH   5   8
HETATM    8  C7  UNL     1     -35.642  15.777  -6.705  1.00 20.00     0.077 C 
HETATM    9  C5  UNL     1     -37.116  15.410  -6.619  1.00 20.00     0.032 C 
HETATM   10  C6  UNL     1     -34.877  14.826  -7.613  1.00 20.00     0.032 C 
ENDBRANCH   5   8
TORSDOF 1
ENDMDL
MODEL 8
REMARK VINA RESULT:      -3.4      2.532      3.615
REMARK  1 active torsions:
REMARK  status: ('A' for Active; 'I' for Inactive)
REMARK    1  A    between atoms: C7_7  and  N8_8 
ROOT
HETATM    1  C1  UNL     1     -34.729  14.823  -4.216  1.00 20.00     0.137 C 
HETATM    2  C2  UNL     1     -35.410  17.037  -3.570  1.00 20.00     0.140 C 
HETATM    3  C3  UNL     1     -34.213  16.857  -2.649  1.00 20.00     0.068 C 
HETATM    4  C4  UNL     1     -34.617  16.481  -1.229  1.00 20.00     0.023 C 
HETATM    5  N8  UNL     1     -35.763  15.748  -4.144  1.00 20.00    -0.361 N 
HETATM    6  S9  UNL     1     -34.732  13.308  -4.917  1.00 20.00    -0.053 SA
HETATM    7  S10 UNL     1     -33.300  15.489  -3.420  1.00 20.00    -0.095 SA
ENDROOT
BRANCH   5   8
HETATM    8  C7  UNL     1     -37.087  15.611  -4.739  1.00 20.00     0.077 C 
HETATM    9  C5  UNL     1     -37.605  16.988  -5.125  1.00 20.00     0.032 C 
HETATM   10  C6  UNL     1     -38.006  14.923  -3.740  1.00 20.00     0.032 C 
ENDBRANCH   5   8
TORSDOF 1
ENDMDL
MODEL 9
REMARK VINA RESULT:      -3.4      2.308      3.384
REMARK  1 active torsions:
REMARK  status: ('A' for Active; 'I' for Inactive)
REMARK    1  A    between atoms: C7_7  and  N8_8 
ROOT
HETATM    1  C1  UNL     1     -34.868  15.397  -3.051  1.00 20.00     0.137 C 
HETATM    2  C2  UNL     1     -36.081  14.223  -4.765  1.00 20.00     0.140 C 
HETATM    3  C3  UNL     1     -34.661  14.025  -5.272  1.00 20.00     0.068 C 
HETATM    4  C4  UNL     1     -34.300  14.987  -6.397  1.00 20.00     0.023 C 
HETATM    5  N8  UNL     1     -36.073  15.241  -3.725  1.00 20.00    -0.361 N 
HETATM    6  S9  UNL     1     -34.527  16.366  -1.735  1.00 20.00    -0.053 SA
HETATM    7  S10 UNL     1     -33.645  14.371  -3.806  1.00 20.00    -0.095 SA
ENDROOT
BRANCH   5   8
HETATM    8  C7  UNL     1     -37.345  15.860  -3.373  1.00 20.00     0.077 C 
HETATM    9  C5  UNL     1     -38.477  14.904  -3.718  1.00 20.00     0.032 C 
HETATM   10  C6  UNL     1     -37.474  17.178  -4.123  1.00 20.00     0.032 C 
ENDBRANCH   5   8
TORSDOF 1
ENDMDL
