MODEL 1
REMARK VINA RESULT:      -4.7      0.000      0.000
REMARK  0 active torsions:
REMARK  status: ('A' for Active; 'I' for Inactive)
ROOT
HETATM    1  C1  UNL     1     -33.150  16.297  -4.595  1.00 20.00    -0.029 A 
HETATM    2  C2  UNL     1     -34.407  16.740  -4.701  1.00 20.00    -0.023 A 
HETATM    3  C3  UNL     1     -35.207  13.780  -4.153  1.00 20.00     0.155 C 
HETATM    4  C4  UNL     1     -33.002  15.105  -3.699  1.00 20.00     0.040 A 
HETATM    5  C5  UNL     1     -35.326  15.911  -3.884  1.00 20.00     0.050 A 
HETATM    6  C6  UNL     1     -34.434  14.784  -3.276  1.00 20.00     0.071 A 
HETATM    7  C7  UNL     1     -36.226  14.860  -4.626  1.00 20.00     0.101 C 
HETATM    8  C8  UNL     1     -37.607  14.695  -3.992  1.00 20.00     0.042 C 
HETATM    9  O9  UNL     1     -35.069  12.595  -4.378  1.00 20.00    -0.295 OA
HETATM   10 CL10 UNL     1     -36.343  14.928  -6.417  1.00 20.00    -0.111 Cl
ENDROOT
TORSDOF 0
ENDMDL
MODEL 2
REMARK VINA RESULT:      -4.6      1.945      3.043
REMARK  0 active torsions:
REMARK  status: ('A' for Active; 'I' for Inactive)
ROOT
HETATM    1  C1  UNL     1     -36.204  16.139  -6.335  1.00 20.00    -0.029 A 
HETATM    2  C2  UNL     1     -35.226  16.666  -5.592  1.00 20.00    -0.023 A 
HETATM    3  C3  UNL     1     -34.637  13.720  -4.768  1.00 20.00     0.155 C 
HETATM    4  C4  UNL     1     -35.927  14.741  -6.798  1.00 20.00     0.040 A 
HETATM    5  C5  UNL     1     -34.113  15.699  -5.428  1.00 20.00     0.050 A 
HETATM    6  C6  UNL     1     -34.586  14.399  -6.151  1.00 20.00     0.071 A 
HETATM    7  C7  UNL     1     -33.988  14.945  -4.057  1.00 20.00     0.101 C 
HETATM    8  C8  UNL     1     -32.540  14.693  -3.637  1.00 20.00     0.042 C 
HETATM    9  O9  UNL     1     -35.031  12.637  -4.389  1.00 20.00    -0.295 OA
HETATM   10 CL10 UNL     1     -34.974  15.509  -2.664  1.00 20.00    -0.111 Cl
ENDROOT
TORSDOF 0
ENDMDL
MODEL 3
REMARK VINA RESULT:      -4.4      1.796      2.385
REMARK  0 active torsions:
REMARK  status: ('A' for Active; 'I' for Inactive)
ROOT
HETATM    1  C1  UNL     1     -34.024  16.168  -2.291  1.00 20.00    -0.029 A 
HETATM    2  C2  UNL     1     -33.559  15.917  -3.519  1.00 20.00    -0.023 A 
HETATM    3  C3  UNL     1     -36.418  14.814  -4.077  1.00 20.00     0.155 C 
HETATM    4  C4  UNL     1     -35.498  16.430  -2.243  1.00 20.00     0.040 A 
HETATM    5  C5  UNL     1     -34.656  15.968  -4.515  1.00 20.00     0.050 A 
HETATM    6  C6  UNL     1     -35.953  16.231  -3.687  1.00 20.00     0.071 A 
HETATM    7  C7  UNL     1     -35.224  14.609  -5.057  1.00 20.00     0.101 C 
HETATM    8  C8  UNL     1     -35.640  14.672  -6.527  1.00 20.00     0.042 C 
HETATM    9  O9  UNL     1     -37.363  14.128  -3.746  1.00 20.00    -0.295 OA
HETATM   10 CL10 UNL     1     -34.325  13.092  -4.707  1.00 20.00    -0.111 Cl
ENDROOT
TORSDOF 0
ENDMDL
MODEL 4
REMARK VINA RESULT:      -4.3      1.949      2.511
REMARK  0 active torsions:
REMARK  status: ('A' for Active; 'I' for Inactive)
ROOT
HETATM    1  C1  UNL     1     -34.480  15.225  -6.807  1.00 20.00    -0.029 A 
HETATM    2  C2  UNL     1     -33.998  16.033  -5.857  1.00 20.00    -0.023 A 
HETATM    3  C3  UNL     1     -36.010  14.574  -3.979  1.00 20.00     0.155 C 
HETATM    4  C4  UNL     1     -34.982  13.912  -6.288  1.00 20.00     0.040 A 
HETATM    5  C5  UNL     1     -34.096  15.392  -4.524  1.00 20.00     0.050 A 
HETATM    6  C6  UNL     1     -34.809  14.026  -4.775  1.00 20.00     0.071 A 
HETATM    7  C7  UNL     1     -35.242  15.864  -3.561  1.00 20.00     0.101 C 
HETATM    8  C8  UNL     1     -34.831  15.863  -2.089  1.00 20.00     0.042 C 
HETATM    9  O9  UNL     1     -37.126  14.150  -3.761  1.00 20.00    -0.295 OA
HETATM   10 CL10 UNL     1     -36.162  17.352  -3.973  1.00 20.00    -0.111 Cl
ENDROOT
TORSDOF 0
ENDMDL
MODEL 5
REMARK VINA RESULT:      -4.3      2.297      3.133
REMARK  0 active torsions:
REMARK  status: ('A' for Active; 'I' for Inactive)
ROOT
HETATM    1  C1  UNL     1     -34.424  13.512  -4.907  1.00 20.00    -0.029 A 
HETATM    2  C2  UNL     1     -34.513  14.621  -5.648  1.00 20.00    -0.023 A 
HETATM    3  C3  UNL     1     -33.861  16.117  -2.996  1.00 20.00     0.155 C 
HETATM    4  C4  UNL     1     -33.498  13.638  -3.737  1.00 20.00     0.040 A 
HETATM    5  C5  UNL     1     -33.651  15.692  -5.094  1.00 20.00     0.050 A 
HETATM    6  C6  UNL     1     -33.031  15.091  -3.793  1.00 20.00     0.071 A 
HETATM    7  C7  UNL     1     -34.339  16.848  -4.286  1.00 20.00     0.101 C 
HETATM    8  C8  UNL     1     -33.668  18.207  -4.485  1.00 20.00     0.042 C 
HETATM    9  O9  UNL     1     -34.055  16.286  -1.810  1.00 20.00    -0.295 OA
HETATM   10 CL10 UNL     1     -36.129  16.999  -4.343  1.00 20.00    -0.111 Cl
ENDROOT
TORSDOF 0
ENDMDL
MODEL 6
REMARK VINA RESULT:      -4.2      2.530      3.643
REMARK  0 active torsions:
REMARK  status: ('A' for Active; 'I' for Inactive)
ROOT
HETATM    1  C1  UNL     1     -35.278  13.570  -5.547  1.00 20.00    -0.029 A 
HETATM    2  C2  UNL     1     -34.990  13.542  -4.241  1.00 20.00    -0.023 A 
HETATM    3  C3  UNL     1     -33.967  16.450  -4.684  1.00 20.00     0.155 C 
HETATM    4  C4  UNL     1     -35.587  14.940  -6.069  1.00 20.00     0.040 A 
HETATM    5  C5  UNL     1     -35.058  14.904  -3.660  1.00 20.00     0.050 A 
HETATM    6  C6  UNL     1     -35.376  15.850  -4.861  1.00 20.00     0.071 A 
HETATM    7  C7  UNL     1     -33.707  15.651  -3.372  1.00 20.00     0.101 C 
HETATM    8  C8  UNL     1     -33.757  16.526  -2.120  1.00 20.00     0.042 C 
HETATM    9  O9  UNL     1     -33.318  17.250  -5.326  1.00 20.00    -0.295 OA
HETATM   10 CL10 UNL     1     -32.170  14.723  -3.449  1.00 20.00    -0.111 Cl
ENDROOT
TORSDOF 0
ENDMDL
MODEL 7
REMARK VINA RESULT:      -4.2      1.980      2.655
REMARK  0 active torsions:
REMARK  status: ('A' for Active; 'I' for Inactive)
ROOT
HETATM    1  C1  UNL     1     -34.423  17.231  -2.071  1.00 20.00    -0.029 A 
HETATM    2  C2  UNL     1     -34.668  15.929  -1.892  1.00 20.00    -0.023 A 
HETATM    3  C3  UNL     1     -34.740  15.796  -5.003  1.00 20.00     0.155 C 
HETATM    4  C4  UNL     1     -33.715  17.543  -3.354  1.00 20.00     0.040 A 
HETATM    5  C5  UNL     1     -34.160  15.138  -3.039  1.00 20.00     0.050 A 
HETATM    6  C6  UNL     1     -33.596  16.188  -4.047  1.00 20.00     0.071 A 
HETATM    7  C7  UNL     1     -35.200  14.617  -4.093  1.00 20.00     0.101 C 
HETATM    8  C8  UNL     1     -34.843  13.246  -4.667  1.00 20.00     0.042 C 
HETATM    9  O9  UNL     1     -35.124  16.240  -6.065  1.00 20.00    -0.295 OA
HETATM   10 CL10 UNL     1     -36.952  14.717  -3.706  1.00 20.00    -0.111 Cl
ENDROOT
TORSDOF 0
ENDMDL
MODEL 8
REMARK VINA RESULT:      -4.2      2.322      3.077
REMARK  0 active torsions:
REMARK  status: ('A' for Active; 'I' for Inactive)
ROOT
HETATM    1  C1  UNL     1     -34.930  15.753  -2.300  1.00 20.00    -0.029 A 
HETATM    2  C2  UNL     1     -35.402  14.981  -3.284  1.00 20.00    -0.023 A 
HETATM    3  C3  UNL     1     -33.679  16.779  -5.153  1.00 20.00     0.155 C 
HETATM    4  C4  UNL     1     -33.577  16.332  -2.582  1.00 20.00     0.040 A 
HETATM    5  C5  UNL     1     -34.435  14.909  -4.405  1.00 20.00     0.050 A 
HETATM    6  C6  UNL     1     -33.260  15.851  -3.996  1.00 20.00     0.071 A 
HETATM    7  C7  UNL     1     -34.732  15.762  -5.689  1.00 20.00     0.101 C 
HETATM    8  C8  UNL     1     -34.294  15.076  -6.983  1.00 20.00     0.042 C 
HETATM    9  O9  UNL     1     -33.316  17.881  -5.509  1.00 20.00    -0.295 OA
HETATM   10 CL10 UNL     1     -36.353  16.515  -5.875  1.00 20.00    -0.111 Cl
ENDROOT
TORSDOF 0
ENDMDL
MODEL 9
REMARK VINA RESULT:      -4.2      2.157      3.189
REMARK  0 active torsions:
REMARK  status: ('A' for Active; 'I' for Inactive)
ROOT
HETATM    1  C1  UNL     1     -34.072  13.421  -4.362  1.00 20.00    -0.029 A 
HETATM    2  C2  UNL     1     -33.298  14.345  -3.783  1.00 20.00    -0.023 A 
HETATM    3  C3  UNL     1     -35.715  16.257  -4.236  1.00 20.00     0.155 C 
HETATM    4  C4  UNL     1     -35.539  13.652  -4.167  1.00 20.00     0.040 A 
HETATM    5  C5  UNL     1     -34.125  15.365  -3.094  1.00 20.00     0.050 A 
HETATM    6  C6  UNL     1     -35.604  14.969  -3.397  1.00 20.00     0.071 A 
HETATM    7  C7  UNL     1     -34.308  16.759  -3.791  1.00 20.00     0.101 C 
HETATM    8  C8  UNL     1     -34.375  17.923  -2.802  1.00 20.00     0.042 C 
HETATM    9  O9  UNL     1     -36.579  16.705  -4.960  1.00 20.00    -0.295 OA
HETATM   10 CL10 UNL     1     -33.269  17.168  -5.198  1.00 20.00    -0.111 Cl
ENDROOT
TORSDOF 0
ENDMDL
