MODEL 1
REMARK VINA RESULT:      -4.6      0.000      0.000
REMARK  1 active torsions:
REMARK  status: ('A' for Active; 'I' for Inactive)
REMARK    1  A    between atoms: C6_6  and  C9_9 
ROOT
HETATM    1  C1  UNL     1     -35.144  13.369  -4.442  1.00 20.00     0.302 C 
HETATM    2  C2  UNL     1     -33.684  13.642  -4.025  1.00 20.00     0.303 C 
HETATM    3  C3  UNL     1     -35.307  15.564  -5.408  1.00 20.00     0.307 C 
HETATM    4  C4  UNL     1     -35.888  15.236  -3.123  1.00 20.00     0.308 C 
HETATM    5  C5  UNL     1     -33.819  15.771  -5.057  1.00 20.00     0.247 C 
HETATM    6  C6  UNL     1     -34.425  15.442  -2.674  1.00 20.00     0.251 C 
HETATM    7  C7  UNL     1     -33.388  17.233  -5.146  1.00 20.00     0.045 C 
HETATM    8  N10 UNL     1     -35.944  14.615  -4.467  1.00 20.00     0.094 N 
HETATM    9  N11 UNL     1     -33.480  15.097  -3.772  1.00 20.00     0.102 N 
ENDROOT
BRANCH   6  10
HETATM   10  C9  UNL     1     -34.193  16.809  -2.034  1.00 20.00     0.033 C 
HETATM   11  C8  UNL     1     -34.629  16.828  -0.607  1.00 20.00     0.007 C 
ENDBRANCH   6  10
TORSDOF 1
ENDMDL
MODEL 2
REMARK VINA RESULT:      -4.4      1.209      2.261
REMARK  1 active torsions:
REMARK  status: ('A' for Active; 'I' for Inactive)
REMARK    1  A    between atoms: C6_6  and  C9_9 
ROOT
HETATM    1  C1  UNL     1     -36.873  15.421  -5.449  1.00 20.00     0.302 C 
HETATM    2  C2  UNL     1     -36.967  14.659  -4.112  1.00 20.00     0.303 C 
HETATM    3  C3  UNL     1     -34.555  14.820  -5.661  1.00 20.00     0.307 C 
HETATM    4  C4  UNL     1     -35.153  16.835  -4.543  1.00 20.00     0.308 C 
HETATM    5  C5  UNL     1     -34.707  13.993  -4.368  1.00 20.00     0.247 C 
HETATM    6  C6  UNL     1     -35.318  16.095  -3.199  1.00 20.00     0.251 C 
HETATM    7  C7  UNL     1     -33.364  13.591  -3.762  1.00 20.00     0.045 C 
HETATM    8  N10 UNL     1     -35.509  15.952  -5.678  1.00 20.00     0.094 N 
HETATM    9  N11 UNL     1     -35.646  14.658  -3.421  1.00 20.00     0.102 N 
ENDROOT
BRANCH   6  10
HETATM   10  C9  UNL     1     -34.153  16.345  -2.242  1.00 20.00     0.033 C 
HETATM   11  C8  UNL     1     -34.631  16.622  -0.857  1.00 20.00     0.007 C 
ENDBRANCH   6  10
TORSDOF 1
ENDMDL
MODEL 3
REMARK VINA RESULT:      -4.2      1.468      2.947
REMARK  1 active torsions:
REMARK  status: ('A' for Active; 'I' for Inactive)
REMARK    1  A    between atoms: C6_6  and  C9_9 
ROOT
HETATM    1  C1  UNL     1     -35.256  16.984  -6.658  1.00 20.00     0.302 C 
HETATM    2  C2  UNL     1     -36.215  16.877  -5.455  1.00 20.00     0.303 C 
HETATM    3  C3  UNL     1     -34.437  14.763  -6.239  1.00 20.00     0.307 C 
HETATM    4  C4  UNL     1     -33.371  16.627  -5.211  1.00 20.00     0.308 C 
HETATM    5  C5  UNL     1     -35.470  14.656  -5.098  1.00 20.00     0.247 C 
HETATM    6  C6  UNL     1     -34.351  16.590  -4.020  1.00 20.00     0.251 C 
HETATM    7  C7  UNL     1     -35.196  13.481  -4.162  1.00 20.00     0.045 C 
HETATM    8  N10 UNL     1     -34.035  16.172  -6.455  1.00 20.00     0.094 N 
HETATM    9  N11 UNL     1     -35.646  15.969  -4.417  1.00 20.00     0.102 N 
ENDROOT
BRANCH   6  10
HETATM   10  C9  UNL     1     -33.721  16.004  -2.757  1.00 20.00     0.033 C 
HETATM   11  C8  UNL     1     -34.558  16.272  -1.552  1.00 20.00     0.007 C 
ENDBRANCH   6  10
TORSDOF 1
ENDMDL
MODEL 4
REMARK VINA RESULT:      -4.1      1.396      2.040
REMARK  1 active torsions:
REMARK  status: ('A' for Active; 'I' for Inactive)
REMARK    1  A    between atoms: C6_6  and  C9_9 
ROOT
HETATM    1  C1  UNL     1     -34.793  13.567  -5.548  1.00 20.00     0.302 C 
HETATM    2  C2  UNL     1     -34.504  14.978  -6.100  1.00 20.00     0.303 C 
HETATM    3  C3  UNL     1     -36.577  14.433  -4.190  1.00 20.00     0.307 C 
HETATM    4  C4  UNL     1     -34.367  14.334  -3.311  1.00 20.00     0.308 C 
HETATM    5  C5  UNL     1     -36.320  15.814  -4.828  1.00 20.00     0.247 C 
HETATM    6  C6  UNL     1     -34.020  15.718  -3.901  1.00 20.00     0.251 C 
HETATM    7  C7  UNL     1     -36.995  16.951  -4.065  1.00 20.00     0.045 C 
HETATM    8  N10 UNL     1     -35.338  13.622  -4.172  1.00 20.00     0.094 N 
HETATM    9  N11 UNL     1     -34.867  16.014  -5.090  1.00 20.00     0.102 N 
ENDROOT
BRANCH   6  10
HETATM   10  C9  UNL     1     -33.994  16.819  -2.843  1.00 20.00     0.033 C 
HETATM   11  C8  UNL     1     -34.418  16.307  -1.507  1.00 20.00     0.007 C 
ENDBRANCH   6  10
TORSDOF 1
ENDMDL
MODEL 5
REMARK VINA RESULT:      -4.1      1.461      3.366
REMARK  1 active torsions:
REMARK  status: ('A' for Active; 'I' for Inactive)
REMARK    1  A    between atoms: C6_6  and  C9_9 
ROOT
HETATM    1  C1  UNL     1     -35.116  18.007  -5.466  1.00 20.00     0.302 C 
HETATM    2  C2  UNL     1     -33.889  18.376  -4.608  1.00 20.00     0.303 C 
HETATM    3  C3  UNL     1     -36.034  16.725  -3.652  1.00 20.00     0.307 C 
HETATM    4  C4  UNL     1     -34.600  15.671  -5.232  1.00 20.00     0.308 C 
HETATM    5  C5  UNL     1     -34.839  17.187  -2.792  1.00 20.00     0.247 C 
HETATM    6  C6  UNL     1     -33.343  16.077  -4.432  1.00 20.00     0.251 C 
HETATM    7  C7  UNL     1     -34.682  16.369  -1.512  1.00 20.00     0.045 C 
HETATM    8  N10 UNL     1     -35.668  16.686  -5.086  1.00 20.00     0.094 N 
HETATM    9  N11 UNL     1     -33.604  17.297  -3.618  1.00 20.00     0.102 N 
ENDROOT
BRANCH   6  10
HETATM   10  C9  UNL     1     -32.736  14.908  -3.657  1.00 20.00     0.033 C 
HETATM   11  C8  UNL     1     -33.539  13.662  -3.825  1.00 20.00     0.007 C 
ENDBRANCH   6  10
TORSDOF 1
ENDMDL
MODEL 6
REMARK VINA RESULT:      -4.1      1.553      3.768
REMARK  1 active torsions:
REMARK  status: ('A' for Active; 'I' for Inactive)
REMARK    1  A    between atoms: C6_6  and  C9_9 
ROOT
HETATM    1  C1  UNL     1     -32.953  15.101  -3.634  1.00 20.00     0.302 C 
HETATM    2  C2  UNL     1     -33.563  13.707  -3.881  1.00 20.00     0.303 C 
HETATM    3  C3  UNL     1     -35.147  16.082  -3.585  1.00 20.00     0.307 C 
HETATM    4  C4  UNL     1     -33.972  15.924  -5.649  1.00 20.00     0.308 C 
HETATM    5  C5  UNL     1     -35.727  14.661  -3.743  1.00 20.00     0.247 C 
HETATM    6  C6  UNL     1     -34.513  14.501  -5.901  1.00 20.00     0.251 C 
HETATM    7  C7  UNL     1     -37.204  14.666  -4.132  1.00 20.00     0.045 C 
HETATM    8  N10 UNL     1     -33.803  16.174  -4.199  1.00 20.00     0.094 N 
HETATM    9  N11 UNL     1     -34.854  13.828  -4.617  1.00 20.00     0.102 N 
ENDROOT
BRANCH   6  10
HETATM   10  C9  UNL     1     -35.620  14.469  -6.954  1.00 20.00     0.033 C 
HETATM   11  C8  UNL     1     -35.870  15.824  -7.527  1.00 20.00     0.007 C 
ENDBRANCH   6  10
TORSDOF 1
ENDMDL
MODEL 7
REMARK VINA RESULT:      -4.0      1.483      3.284
REMARK  1 active torsions:
REMARK  status: ('A' for Active; 'I' for Inactive)
REMARK    1  A    between atoms: C6_6  and  C9_9 
ROOT
HETATM    1  C1  UNL     1     -34.942  18.077  -3.633  1.00 20.00     0.302 C 
HETATM    2  C2  UNL     1     -36.128  17.269  -4.197  1.00 20.00     0.303 C 
HETATM    3  C3  UNL     1     -33.461  17.079  -5.242  1.00 20.00     0.307 C 
HETATM    4  C4  UNL     1     -33.773  16.040  -3.123  1.00 20.00     0.308 C 
HETATM    5  C5  UNL     1     -34.685  16.354  -5.839  1.00 20.00     0.247 C 
HETATM    6  C6  UNL     1     -35.003  15.260  -3.635  1.00 20.00     0.251 C 
HETATM    7  C7  UNL     1     -34.296  15.217  -6.781  1.00 20.00     0.045 C 
HETATM    8  N10 UNL     1     -33.662  17.352  -3.801  1.00 20.00     0.094 N 
HETATM    9  N11 UNL     1     -35.650  15.977  -4.769  1.00 20.00     0.102 N 
ENDROOT
BRANCH   6  10
HETATM   10  C9  UNL     1     -34.698  13.787  -3.898  1.00 20.00     0.033 C 
HETATM   11  C8  UNL     1     -33.248  13.486  -3.719  1.00 20.00     0.007 C 
ENDBRANCH   6  10
TORSDOF 1
ENDMDL
MODEL 8
REMARK VINA RESULT:      -4.0      1.696      3.004
REMARK  1 active torsions:
REMARK  status: ('A' for Active; 'I' for Inactive)
REMARK    1  A    between atoms: C6_6  and  C9_9 
ROOT
HETATM    1  C1  UNL     1     -33.137  15.118  -3.639  1.00 20.00     0.302 C 
HETATM    2  C2  UNL     1     -33.308  16.218  -4.706  1.00 20.00     0.303 C 
HETATM    3  C3  UNL     1     -34.394  13.576  -4.988  1.00 20.00     0.307 C 
HETATM    4  C4  UNL     1     -35.523  14.949  -3.405  1.00 20.00     0.308 C 
HETATM    5  C5  UNL     1     -34.469  14.669  -6.073  1.00 20.00     0.247 C 
HETATM    6  C6  UNL     1     -35.658  16.097  -4.428  1.00 20.00     0.251 C 
HETATM    7  C7  UNL     1     -35.513  14.366  -7.145  1.00 20.00     0.045 C 
HETATM    8  N10 UNL     1     -34.280  14.177  -3.640  1.00 20.00     0.094 N 
HETATM    9  N11 UNL     1     -34.582  16.021  -5.455  1.00 20.00     0.102 N 
ENDROOT
BRANCH   6  10
HETATM   10  C9  UNL     1     -37.073  16.221  -4.990  1.00 20.00     0.033 C 
HETATM   11  C8  UNL     1     -37.975  15.166  -4.443  1.00 20.00     0.007 C 
ENDBRANCH   6  10
TORSDOF 1
ENDMDL
MODEL 9
REMARK VINA RESULT:      -4.0      1.539      3.700
REMARK  1 active torsions:
REMARK  status: ('A' for Active; 'I' for Inactive)
REMARK    1  A    between atoms: C6_6  and  C9_9 
ROOT
HETATM    1  C1  UNL     1     -35.170  17.657  -3.394  1.00 20.00     0.302 C 
HETATM    2  C2  UNL     1     -33.700  17.470  -3.819  1.00 20.00     0.303 C 
HETATM    3  C3  UNL     1     -35.444  15.277  -3.191  1.00 20.00     0.307 C 
HETATM    4  C4  UNL     1     -35.900  16.343  -5.270  1.00 20.00     0.308 C 
HETATM    5  C5  UNL     1     -33.946  15.130  -3.532  1.00 20.00     0.247 C 
HETATM    6  C6  UNL     1     -34.423  16.229  -5.705  1.00 20.00     0.251 C 
HETATM    7  C7  UNL     1     -33.562  13.699  -3.900  1.00 20.00     0.045 C 
HETATM    8  N10 UNL     1     -36.005  16.504  -3.801  1.00 20.00     0.094 N 
HETATM    9  N11 UNL     1     -33.524  16.164  -4.518  1.00 20.00     0.102 N 
ENDROOT
BRANCH   6  10
HETATM   10  C9  UNL     1     -34.198  15.129  -6.740  1.00 20.00     0.033 C 
HETATM   11  C8  UNL     1     -35.465  14.411  -7.062  1.00 20.00     0.007 C 
ENDBRANCH   6  10
TORSDOF 1
ENDMDL
