MODEL 1
REMARK VINA RESULT:      -4.3      0.000      0.000
REMARK  3 active torsions:
REMARK  status: ('A' for Active; 'I' for Inactive)
REMARK    1  A    between atoms: C1_1  and  C2_2 
REMARK    2  A    between atoms: C1_1  and  O11_11 
REMARK    3  A    between atoms: C8_8  and  N9_9 
ROOT
HETATM    1  C2  UNL     1     -35.356  15.143  -4.592  1.00 20.00     0.355 A 
HETATM    2  C3  UNL     1     -34.918  15.505  -5.997  1.00 20.00     0.264 A 
HETATM    3  C4  UNL     1     -35.109  14.578  -7.147  1.00 20.00     0.046 C 
HETATM    4  N9  UNL     1     -33.943  15.162  -4.972  1.00 20.00     0.115 N 
ENDROOT
BRANCH   1   5
HETATM    5  C1  UNL     1     -35.821  13.798  -4.253  1.00 20.00     0.294 C 
HETATM    6  O10 UNL     1     -35.107  12.804  -4.258  1.00 20.00    -0.263 OA
BRANCH   5   7
HETATM    7  O11 UNL     1     -37.147  13.840  -3.939  1.00 20.00    -0.325 OA
HETATM    8  C7  UNL     1     -37.667  15.141  -3.641  1.00 20.00     0.213 C 
ENDBRANCH   5   7
ENDBRANCH   1   5
BRANCH   4   9
HETATM    9  C8  UNL     1     -33.226  16.321  -4.452  1.00 20.00     0.216 C 
HETATM   10  C5  UNL     1     -33.676  16.585  -3.023  1.00 20.00     0.042 C 
HETATM   11  C6  UNL     1     -33.496  17.514  -5.357  1.00 20.00     0.042 C 
ENDBRANCH   4   9
TORSDOF 3
ENDMDL
MODEL 2
REMARK VINA RESULT:      -4.2      1.540      2.600
REMARK  3 active torsions:
REMARK  status: ('A' for Active; 'I' for Inactive)
REMARK    1  A    between atoms: C1_1  and  C2_2 
REMARK    2  A    between atoms: C1_1  and  O11_11 
REMARK    3  A    between atoms: C8_8  and  N9_9 
ROOT
HETATM    1  C2  UNL     1     -34.609  14.464  -3.500  1.00 20.00     0.355 A 
HETATM    2  C3  UNL     1     -35.831  15.240  -3.054  1.00 20.00     0.264 A 
HETATM    3  C4  UNL     1     -37.135  15.140  -3.769  1.00 20.00     0.046 C 
HETATM    4  N9  UNL     1     -34.719  15.907  -3.712  1.00 20.00     0.115 N 
ENDROOT
BRANCH   1   5
HETATM    5  C1  UNL     1     -34.587  13.718  -4.759  1.00 20.00     0.294 C 
HETATM    6  O10 UNL     1     -34.817  12.519  -4.849  1.00 20.00    -0.263 OA
BRANCH   5   7
HETATM    7  O11 UNL     1     -34.275  14.562  -5.783  1.00 20.00    -0.325 OA
HETATM    8  C7  UNL     1     -35.105  14.450  -6.945  1.00 20.00     0.213 C 
ENDBRANCH   5   7
ENDBRANCH   1   5
BRANCH   4   9
HETATM    9  C8  UNL     1     -33.893  16.685  -2.795  1.00 20.00     0.216 C 
HETATM   10  C5  UNL     1     -34.441  16.537  -1.383  1.00 20.00     0.042 C 
HETATM   11  C6  UNL     1     -33.887  18.137  -3.248  1.00 20.00     0.042 C 
ENDBRANCH   4   9
TORSDOF 3
ENDMDL
MODEL 3
REMARK VINA RESULT:      -4.2      1.605      2.178
REMARK  3 active torsions:
REMARK  status: ('A' for Active; 'I' for Inactive)
REMARK    1  A    between atoms: C1_1  and  C2_2 
REMARK    2  A    between atoms: C1_1  and  O11_11 
REMARK    3  A    between atoms: C8_8  and  N9_9 
ROOT
HETATM    1  C2  UNL     1     -34.882  15.600  -3.279  1.00 20.00     0.355 A 
HETATM    2  C3  UNL     1     -34.114  16.631  -4.081  1.00 20.00     0.264 A 
HETATM    3  C4  UNL     1     -33.470  16.300  -5.384  1.00 20.00     0.046 C 
HETATM    4  N9  UNL     1     -33.560  16.067  -2.860  1.00 20.00     0.115 N 
ENDROOT
BRANCH   1   5
HETATM    5  C1  UNL     1     -34.880  14.183  -3.644  1.00 20.00     0.294 C 
HETATM    6  O10 UNL     1     -33.959  13.414  -3.404  1.00 20.00    -0.263 OA
BRANCH   5   7
HETATM    7  O11 UNL     1     -36.048  13.875  -4.277  1.00 20.00    -0.325 OA
HETATM    8  C7  UNL     1     -37.178  14.672  -3.906  1.00 20.00     0.213 C 
ENDBRANCH   5   7
ENDBRANCH   1   5
BRANCH   4   9
HETATM    9  C8  UNL     1     -33.609  16.987  -1.729  1.00 20.00     0.216 C 
HETATM   10  C5  UNL     1     -34.755  16.588  -0.812  1.00 20.00     0.042 C 
HETATM   11  C6  UNL     1     -33.775  18.405  -2.255  1.00 20.00     0.042 C 
ENDBRANCH   4   9
TORSDOF 3
ENDMDL
MODEL 4
REMARK VINA RESULT:      -4.1      1.711      2.891
REMARK  3 active torsions:
REMARK  status: ('A' for Active; 'I' for Inactive)
REMARK    1  A    between atoms: C1_1  and  C2_2 
REMARK    2  A    between atoms: C1_1  and  O11_11 
REMARK    3  A    between atoms: C8_8  and  N9_9 
ROOT
HETATM    1  C2  UNL     1     -34.816  15.114  -4.338  1.00 20.00     0.355 A 
HETATM    2  C3  UNL     1     -33.532  15.535  -3.651  1.00 20.00     0.264 A 
HETATM    3  C4  UNL     1     -32.315  14.675  -3.655  1.00 20.00     0.046 C 
HETATM    4  N9  UNL     1     -34.691  15.109  -2.881  1.00 20.00     0.115 N 
ENDROOT
BRANCH   1   5
HETATM    5  C1  UNL     1     -34.991  13.768  -4.885  1.00 20.00     0.294 C 
HETATM    6  O10 UNL     1     -35.069  12.755  -4.201  1.00 20.00    -0.263 OA
BRANCH   5   7
HETATM    7  O11 UNL     1     -35.053  13.833  -6.245  1.00 20.00    -0.325 OA
HETATM    8  C7  UNL     1     -35.737  14.974  -6.776  1.00 20.00     0.213 C 
ENDBRANCH   5   7
ENDBRANCH   1   5
BRANCH   4   9
HETATM    9  C8  UNL     1     -35.393  16.217  -2.243  1.00 20.00     0.216 C 
HETATM   10  C5  UNL     1     -35.496  17.374  -3.225  1.00 20.00     0.042 C 
HETATM   11  C6  UNL     1     -34.642  16.615  -0.981  1.00 20.00     0.042 C 
ENDBRANCH   4   9
TORSDOF 3
ENDMDL
MODEL 5
REMARK VINA RESULT:      -3.9      2.221      3.335
REMARK  3 active torsions:
REMARK  status: ('A' for Active; 'I' for Inactive)
REMARK    1  A    between atoms: C1_1  and  C2_2 
REMARK    2  A    between atoms: C1_1  and  O11_11 
REMARK    3  A    between atoms: C8_8  and  N9_9 
ROOT
HETATM    1  C2  UNL     1     -33.603  16.283  -4.291  1.00 20.00     0.355 A 
HETATM    2  C3  UNL     1     -33.146  15.096  -3.468  1.00 20.00     0.264 A 
HETATM    3  C4  UNL     1     -33.509  13.697  -3.830  1.00 20.00     0.046 C 
HETATM    4  N9  UNL     1     -34.188  15.989  -2.983  1.00 20.00     0.115 N 
ENDROOT
BRANCH   1   5
HETATM    5  C1  UNL     1     -34.572  16.140  -5.378  1.00 20.00     0.294 C 
HETATM    6  O10 UNL     1     -35.782  16.257  -5.237  1.00 20.00    -0.263 OA
BRANCH   5   7
HETATM    7  O11 UNL     1     -33.916  15.864  -6.541  1.00 20.00    -0.325 OA
HETATM    8  C7  UNL     1     -34.553  14.908  -7.395  1.00 20.00     0.213 C 
ENDBRANCH   5   7
ENDBRANCH   1   5
BRANCH   4   9
HETATM    9  C8  UNL     1     -33.726  16.891  -1.934  1.00 20.00     0.216 C 
HETATM   10  C5  UNL     1     -34.596  16.706  -0.699  1.00 20.00     0.042 C 
HETATM   11  C6  UNL     1     -33.781  18.319  -2.453  1.00 20.00     0.042 C 
ENDBRANCH   4   9
TORSDOF 3
ENDMDL
MODEL 6
REMARK VINA RESULT:      -3.9      1.704      2.838
REMARK  3 active torsions:
REMARK  status: ('A' for Active; 'I' for Inactive)
REMARK    1  A    between atoms: C1_1  and  C2_2 
REMARK    2  A    between atoms: C1_1  and  O11_11 
REMARK    3  A    between atoms: C8_8  and  N9_9 
ROOT
HETATM    1  C2  UNL     1     -33.471  15.497  -3.826  1.00 20.00     0.355 A 
HETATM    2  C3  UNL     1     -33.713  16.493  -2.710  1.00 20.00     0.264 A 
HETATM    3  C4  UNL     1     -34.667  16.220  -1.599  1.00 20.00     0.046 C 
HETATM    4  N9  UNL     1     -34.238  16.722  -4.048  1.00 20.00     0.115 N 
ENDROOT
BRANCH   1   5
HETATM    5  C1  UNL     1     -34.290  14.293  -3.975  1.00 20.00     0.294 C 
HETATM    6  O10 UNL     1     -34.065  13.236  -3.401  1.00 20.00    -0.263 OA
BRANCH   5   7
HETATM    7  O11 UNL     1     -35.317  14.545  -4.836  1.00 20.00    -0.325 OA
HETATM    8  C7  UNL     1     -35.109  14.111  -6.184  1.00 20.00     0.213 C 
ENDBRANCH   5   7
ENDBRANCH   1   5
BRANCH   4   9
HETATM    9  C8  UNL     1     -33.497  17.735  -4.790  1.00 20.00     0.216 C 
HETATM   10  C5  UNL     1     -33.657  19.079  -4.095  1.00 20.00     0.042 C 
HETATM   11  C6  UNL     1     -34.013  17.775  -6.220  1.00 20.00     0.042 C 
ENDBRANCH   4   9
TORSDOF 3
ENDMDL
MODEL 7
REMARK VINA RESULT:      -3.9      1.780      2.569
REMARK  3 active torsions:
REMARK  status: ('A' for Active; 'I' for Inactive)
REMARK    1  A    between atoms: C1_1  and  C2_2 
REMARK    2  A    between atoms: C1_1  and  O11_11 
REMARK    3  A    between atoms: C8_8  and  N9_9 
ROOT
HETATM    1  C2  UNL     1     -35.761  14.601  -5.110  1.00 20.00     0.355 A 
HETATM    2  C3  UNL     1     -34.402  13.931  -5.067  1.00 20.00     0.264 A 
HETATM    3  C4  UNL     1     -33.801  13.445  -3.793  1.00 20.00     0.046 C 
HETATM    4  N9  UNL     1     -34.525  15.365  -5.284  1.00 20.00     0.115 N 
ENDROOT
BRANCH   1   5
HETATM    5  C1  UNL     1     -36.476  14.973  -3.889  1.00 20.00     0.294 C 
HETATM    6  O10 UNL     1     -36.134  15.883  -3.145  1.00 20.00    -0.263 OA
BRANCH   5   7
HETATM    7  O11 UNL     1     -37.556  14.157  -3.726  1.00 20.00    -0.325 OA
HETATM    8  C7  UNL     1     -38.822  14.741  -4.051  1.00 20.00     0.213 C 
ENDBRANCH   5   7
ENDBRANCH   1   5
BRANCH   4   9
HETATM    9  C8  UNL     1     -34.285  15.757  -6.669  1.00 20.00     0.216 C 
HETATM   10  C5  UNL     1     -34.856  17.149  -6.898  1.00 20.00     0.042 C 
HETATM   11  C6  UNL     1     -34.922  14.728  -7.590  1.00 20.00     0.042 C 
ENDBRANCH   4   9
TORSDOF 3
ENDMDL
MODEL 8
REMARK VINA RESULT:      -3.8      2.098      3.685
REMARK  3 active torsions:
REMARK  status: ('A' for Active; 'I' for Inactive)
REMARK    1  A    between atoms: C1_1  and  C2_2 
REMARK    2  A    between atoms: C1_1  and  O11_11 
REMARK    3  A    between atoms: C8_8  and  N9_9 
ROOT
HETATM    1  C2  UNL     1     -33.965  15.620  -3.625  1.00 20.00     0.355 A 
HETATM    2  C3  UNL     1     -33.450  16.434  -4.795  1.00 20.00     0.264 A 
HETATM    3  C4  UNL     1     -33.583  17.917  -4.846  1.00 20.00     0.046 C 
HETATM    4  N9  UNL     1     -34.647  15.616  -4.919  1.00 20.00     0.115 N 
ENDROOT
BRANCH   1   5
HETATM    5  C1  UNL     1     -34.780  16.221  -2.569  1.00 20.00     0.294 C 
HETATM    6  O10 UNL     1     -35.985  16.413  -2.659  1.00 20.00    -0.263 OA
BRANCH   5   7
HETATM    7  O11 UNL     1     -33.991  16.519  -1.498  1.00 20.00    -0.325 OA
HETATM    8  C7  UNL     1     -34.682  17.000  -0.340  1.00 20.00     0.213 C 
ENDBRANCH   5   7
ENDBRANCH   1   5
BRANCH   4   9
HETATM    9  C8  UNL     1     -34.429  14.390  -5.678  1.00 20.00     0.216 C 
HETATM   10  C5  UNL     1     -35.294  14.416  -6.928  1.00 20.00     0.042 C 
HETATM   11  C6  UNL     1     -34.754  13.197  -4.791  1.00 20.00     0.042 C 
ENDBRANCH   4   9
TORSDOF 3
ENDMDL
MODEL 9
REMARK VINA RESULT:      -3.8      2.093      3.293
REMARK  3 active torsions:
REMARK  status: ('A' for Active; 'I' for Inactive)
REMARK    1  A    between atoms: C1_1  and  C2_2 
REMARK    2  A    between atoms: C1_1  and  O11_11 
REMARK    3  A    between atoms: C8_8  and  N9_9 
ROOT
HETATM    1  C2  UNL     1     -34.340  15.840  -4.804  1.00 20.00     0.355 A 
HETATM    2  C3  UNL     1     -35.450  14.834  -5.036  1.00 20.00     0.264 A 
HETATM    3  C4  UNL     1     -35.760  13.759  -4.052  1.00 20.00     0.046 C 
HETATM    4  N9  UNL     1     -34.205  14.763  -5.786  1.00 20.00     0.115 N 
ENDROOT
BRANCH   1   5
HETATM    5  C1  UNL     1     -33.395  15.702  -3.695  1.00 20.00     0.294 C 
HETATM    6  O10 UNL     1     -32.518  14.850  -3.644  1.00 20.00    -0.263 OA
BRANCH   5   7
HETATM    7  O11 UNL     1     -33.650  16.659  -2.758  1.00 20.00    -0.325 OA
HETATM    8  C7  UNL     1     -34.521  16.260  -1.694  1.00 20.00     0.213 C 
ENDBRANCH   5   7
ENDBRANCH   1   5
BRANCH   4   9
HETATM    9  C8  UNL     1     -34.338  15.225  -7.163  1.00 20.00     0.216 C 
HETATM   10  C5  UNL     1     -34.535  16.733  -7.167  1.00 20.00     0.042 C 
HETATM   11  C6  UNL     1     -35.507  14.501  -7.814  1.00 20.00     0.042 C 
ENDBRANCH   4   9
TORSDOF 3
ENDMDL
