MODEL 1
REMARK VINA RESULT:      -5.2      0.000      0.000
REMARK  1 active torsions:
REMARK  status: ('A' for Active; 'I' for Inactive)
REMARK    1  A    between atoms: C5_5  and  C9_9 
ROOT
HETATM    1  C1  UNL     1     -34.009   6.303   6.273  1.00 20.00     0.049 C 
HETATM    2  C2  UNL     1     -33.422   7.074   5.350  1.00 20.00    -0.018 C 
HETATM    3  C3  UNL     1     -34.817   5.132   5.852  1.00 20.00     0.182 C 
HETATM    4  C4  UNL     1     -33.894   5.377   3.552  1.00 20.00     0.054 C 
HETATM    5  C5  UNL     1     -33.468   6.818   3.865  1.00 20.00     0.014 C 
HETATM    6  C6  UNL     1     -35.102   4.964   4.378  1.00 20.00     0.244 C 
HETATM    7  O10 UNL     1     -35.274   4.365   6.696  1.00 20.00    -0.290 OA
HETATM    8  F11 UNL     1     -35.398   3.667   4.089  1.00 20.00    -0.241 F 
ENDROOT
BRANCH   5   9
HETATM    9  C9  UNL     1     -32.116   7.116   3.217  1.00 20.00    -0.015 C 
HETATM   10  C7  UNL     1     -32.289   8.048   2.021  1.00 20.00     0.010 C 
HETATM   11  C8  UNL     1     -31.156   7.721   4.238  1.00 20.00     0.010 C 
ENDBRANCH   5   9
TORSDOF 1
ENDMDL
MODEL 2
REMARK VINA RESULT:      -5.2     11.694     12.476
REMARK  1 active torsions:
REMARK  status: ('A' for Active; 'I' for Inactive)
REMARK    1  A    between atoms: C5_5  and  C9_9 
ROOT
HETATM    1  C1  UNL     1     -36.134  14.659  -3.884  1.00 20.00     0.049 C 
HETATM    2  C2  UNL     1     -35.970  15.932  -3.504  1.00 20.00    -0.018 C 
HETATM    3  C3  UNL     1     -34.950  13.783  -4.059  1.00 20.00     0.182 C 
HETATM    4  C4  UNL     1     -33.560  15.504  -2.916  1.00 20.00     0.054 C 
HETATM    5  C5  UNL     1     -34.640  16.562  -3.173  1.00 20.00     0.014 C 
HETATM    6  C6  UNL     1     -33.582  14.419  -3.981  1.00 20.00     0.244 C 
HETATM    7  O10 UNL     1     -35.101  12.590  -4.311  1.00 20.00    -0.290 OA
HETATM    8  F11 UNL     1     -32.636  13.490  -3.669  1.00 20.00    -0.241 F 
ENDROOT
BRANCH   5   9
HETATM    9  C9  UNL     1     -34.762  17.491  -1.964  1.00 20.00    -0.015 C 
HETATM   10  C7  UNL     1     -34.629  16.700  -0.666  1.00 20.00     0.010 C 
HETATM   11  C8  UNL     1     -33.710  18.595  -2.032  1.00 20.00     0.010 C 
ENDBRANCH   5   9
TORSDOF 1
ENDMDL
MODEL 3
REMARK VINA RESULT:      -5.0     12.002     13.008
REMARK  1 active torsions:
REMARK  status: ('A' for Active; 'I' for Inactive)
REMARK    1  A    between atoms: C5_5  and  C9_9 
ROOT
HETATM    1  C1  UNL     1     -33.881  15.851  -5.740  1.00 20.00     0.049 C 
HETATM    2  C2  UNL     1     -33.329  16.378  -4.641  1.00 20.00    -0.018 C 
HETATM    3  C3  UNL     1     -34.576  14.543  -5.662  1.00 20.00     0.182 C 
HETATM    4  C4  UNL     1     -34.503  14.701  -3.178  1.00 20.00     0.054 C 
HETATM    5  C5  UNL     1     -33.398  15.761  -3.268  1.00 20.00     0.014 C 
HETATM    6  C6  UNL     1     -34.468  13.762  -4.374  1.00 20.00     0.244 C 
HETATM    7  O10 UNL     1     -35.170  14.103  -6.644  1.00 20.00    -0.290 OA
HETATM    8  F11 UNL     1     -35.499  12.880  -4.258  1.00 20.00    -0.241 F 
ENDROOT
BRANCH   5   9
HETATM    9  C9  UNL     1     -33.612  16.832  -2.198  1.00 20.00    -0.015 C 
HETATM   10  C7  UNL     1     -33.941  18.175  -2.843  1.00 20.00     0.010 C 
HETATM   11  C8  UNL     1     -34.720  16.411  -1.235  1.00 20.00     0.010 C 
ENDBRANCH   5   9
TORSDOF 1
ENDMDL
MODEL 4
REMARK VINA RESULT:      -4.7     11.856     12.606
REMARK  1 active torsions:
REMARK  status: ('A' for Active; 'I' for Inactive)
REMARK    1  A    between atoms: C5_5  and  C9_9 
ROOT
HETATM    1  C1  UNL     1     -37.157  16.237  -3.284  1.00 20.00     0.049 C 
HETATM    2  C2  UNL     1     -36.088  16.985  -2.990  1.00 20.00    -0.018 C 
HETATM    3  C3  UNL     1     -36.975  14.844  -3.761  1.00 20.00     0.182 C 
HETATM    4  C4  UNL     1     -34.583  14.970  -3.084  1.00 20.00     0.054 C 
HETATM    5  C5  UNL     1     -34.661  16.502  -3.054  1.00 20.00     0.014 C 
HETATM    6  C6  UNL     1     -35.572  14.384  -4.078  1.00 20.00     0.244 C 
HETATM    7  O10 UNL     1     -37.954  14.122  -3.937  1.00 20.00    -0.290 OA
HETATM    8  F11 UNL     1     -35.486  13.026  -4.021  1.00 20.00    -0.241 F 
ENDROOT
BRANCH   5   9
HETATM    9  C9  UNL     1     -33.847  17.045  -1.878  1.00 20.00    -0.015 C 
HETATM   10  C7  UNL     1     -33.560  18.532  -2.067  1.00 20.00     0.010 C 
HETATM   11  C8  UNL     1     -34.582  16.800  -0.563  1.00 20.00     0.010 C 
ENDBRANCH   5   9
TORSDOF 1
ENDMDL
MODEL 5
REMARK VINA RESULT:      -4.7     11.806     13.567
REMARK  1 active torsions:
REMARK  status: ('A' for Active; 'I' for Inactive)
REMARK    1  A    between atoms: C5_5  and  C9_9 
ROOT
HETATM    1  C1  UNL     1     -34.622  14.536  -6.213  1.00 20.00     0.049 C 
HETATM    2  C2  UNL     1     -34.070  15.754  -6.267  1.00 20.00    -0.018 C 
HETATM    3  C3  UNL     1     -34.414  13.684  -5.016  1.00 20.00     0.182 C 
HETATM    4  C4  UNL     1     -33.501  15.665  -3.817  1.00 20.00     0.054 C 
HETATM    5  C5  UNL     1     -33.270  16.382  -5.154  1.00 20.00     0.014 C 
HETATM    6  C6  UNL     1     -33.425  14.155  -3.976  1.00 20.00     0.244 C 
HETATM    7  O10 UNL     1     -34.999  12.607  -4.920  1.00 20.00    -0.290 OA
HETATM    8  F11 UNL     1     -33.685  13.582  -2.769  1.00 20.00    -0.241 F 
ENDROOT
BRANCH   5   9
HETATM    9  C9  UNL     1     -33.600  17.868  -5.015  1.00 20.00    -0.015 C 
HETATM   10  C7  UNL     1     -33.880  18.485  -6.382  1.00 20.00     0.010 C 
HETATM   11  C8  UNL     1     -34.791  18.066  -4.080  1.00 20.00     0.010 C 
ENDBRANCH   5   9
TORSDOF 1
ENDMDL
MODEL 6
REMARK VINA RESULT:      -4.7     12.028     13.069
REMARK  1 active torsions:
REMARK  status: ('A' for Active; 'I' for Inactive)
REMARK    1  A    between atoms: C5_5  and  C9_9 
ROOT
HETATM    1  C1  UNL     1     -33.822  16.312  -5.313  1.00 20.00     0.049 C 
HETATM    2  C2  UNL     1     -33.575  16.964  -4.171  1.00 20.00    -0.018 C 
HETATM    3  C3  UNL     1     -34.284  14.903  -5.273  1.00 20.00     0.182 C 
HETATM    4  C4  UNL     1     -34.687  15.148  -2.828  1.00 20.00     0.054 C 
HETATM    5  C5  UNL     1     -33.782  16.387  -2.793  1.00 20.00     0.014 C 
HETATM    6  C6  UNL     1     -34.277  14.194  -3.939  1.00 20.00     0.244 C 
HETATM    7  O10 UNL     1     -34.607  14.332  -6.313  1.00 20.00    -0.290 OA
HETATM    8  F11 UNL     1     -35.144  13.145  -3.946  1.00 20.00    -0.241 F 
ENDROOT
BRANCH   5   9
HETATM    9  C9  UNL     1     -34.367  17.435  -1.845  1.00 20.00    -0.015 C 
HETATM   10  C7  UNL     1     -34.664  16.817  -0.482  1.00 20.00     0.010 C 
HETATM   11  C8  UNL     1     -33.413  18.618  -1.704  1.00 20.00     0.010 C 
ENDBRANCH   5   9
TORSDOF 1
ENDMDL
MODEL 7
REMARK VINA RESULT:      -4.6     11.737     13.024
REMARK  1 active torsions:
REMARK  status: ('A' for Active; 'I' for Inactive)
REMARK    1  A    between atoms: C5_5  and  C9_9 
ROOT
HETATM    1  C1  UNL     1     -33.435  14.104  -3.840  1.00 20.00     0.049 C 
HETATM    2  C2  UNL     1     -33.161  15.380  -3.544  1.00 20.00    -0.018 C 
HETATM    3  C3  UNL     1     -34.842  13.679  -4.042  1.00 20.00     0.182 C 
HETATM    4  C4  UNL     1     -35.510  16.076  -4.121  1.00 20.00     0.054 C 
HETATM    5  C5  UNL     1     -34.191  16.477  -3.446  1.00 20.00     0.014 C 
HETATM    6  C6  UNL     1     -35.933  14.672  -3.719  1.00 20.00     0.244 C 
HETATM    7  O10 UNL     1     -35.090  12.533  -4.411  1.00 20.00    -0.290 OA
HETATM    8  F11 UNL     1     -37.079  14.362  -4.386  1.00 20.00    -0.241 F 
ENDROOT
BRANCH   5   9
HETATM    9  C9  UNL     1     -33.665  17.776  -4.057  1.00 20.00    -0.015 C 
HETATM   10  C7  UNL     1     -33.639  17.680  -5.580  1.00 20.00     0.010 C 
HETATM   11  C8  UNL     1     -34.516  18.961  -3.606  1.00 20.00     0.010 C 
ENDBRANCH   5   9
TORSDOF 1
ENDMDL
MODEL 8
REMARK VINA RESULT:      -4.5     12.247     12.792
REMARK  1 active torsions:
REMARK  status: ('A' for Active; 'I' for Inactive)
REMARK    1  A    between atoms: C5_5  and  C9_9 
ROOT
HETATM    1  C1  UNL     1     -33.344  15.361  -4.158  1.00 20.00     0.049 C 
HETATM    2  C2  UNL     1     -33.424  15.923  -2.947  1.00 20.00    -0.018 C 
HETATM    3  C3  UNL     1     -34.528  14.677  -4.734  1.00 20.00     0.182 C 
HETATM    4  C4  UNL     1     -35.929  15.686  -2.940  1.00 20.00     0.054 C 
HETATM    5  C5  UNL     1     -34.674  15.972  -2.105  1.00 20.00     0.014 C 
HETATM    6  C6  UNL     1     -35.732  14.478  -3.843  1.00 20.00     0.244 C 
HETATM    7  O10 UNL     1     -34.490  14.246  -5.884  1.00 20.00    -0.290 OA
HETATM    8  F11 UNL     1     -36.859  14.309  -4.587  1.00 20.00    -0.241 F 
ENDROOT
BRANCH   5   9
HETATM    9  C9  UNL     1     -34.808  17.324  -1.404  1.00 20.00    -0.015 C 
HETATM   10  C7  UNL     1     -34.856  17.140   0.110  1.00 20.00     0.010 C 
HETATM   11  C8  UNL     1     -33.658  18.247  -1.799  1.00 20.00     0.010 C 
ENDBRANCH   5   9
TORSDOF 1
ENDMDL
MODEL 9
REMARK VINA RESULT:      -4.5     11.690     13.478
REMARK  1 active torsions:
REMARK  status: ('A' for Active; 'I' for Inactive)
REMARK    1  A    between atoms: C5_5  and  C9_9 
ROOT
HETATM    1  C1  UNL     1     -33.098  15.341  -3.579  1.00 20.00     0.049 C 
HETATM    2  C2  UNL     1     -33.733  16.404  -4.087  1.00 20.00    -0.018 C 
HETATM    3  C3  UNL     1     -33.561  13.973  -3.919  1.00 20.00     0.182 C 
HETATM    4  C4  UNL     1     -34.992  14.947  -5.709  1.00 20.00     0.054 C 
HETATM    5  C5  UNL     1     -34.889  16.330  -5.052  1.00 20.00     0.014 C 
HETATM    6  C6  UNL     1     -34.858  13.835  -4.681  1.00 20.00     0.244 C 
HETATM    7  O10 UNL     1     -32.923  12.995  -3.536  1.00 20.00    -0.290 OA
HETATM    8  F11 UNL     1     -34.909  12.640  -5.332  1.00 20.00    -0.241 F 
ENDROOT
BRANCH   5   9
HETATM    9  C9  UNL     1     -34.773  17.412  -6.126  1.00 20.00    -0.015 C 
HETATM   10  C7  UNL     1     -33.612  18.353  -5.816  1.00 20.00     0.010 C 
HETATM   11  C8  UNL     1     -34.600  16.779  -7.505  1.00 20.00     0.010 C 
ENDBRANCH   5   9
TORSDOF 1
ENDMDL
