MODEL 1
REMARK VINA RESULT:      -4.8      0.000      0.000
REMARK  1 active torsions:
REMARK  status: ('A' for Active; 'I' for Inactive)
REMARK    1  A    between atoms: C8_8  and  C11_11 
ROOT
HETATM    1  C1  UNL     1     -34.120  16.911  -1.973  1.00 20.00    -0.079 C 
HETATM    2  C2  UNL     1     -35.250  14.261  -3.756  1.00 20.00     0.132 C 
HETATM    3  C3  UNL     1     -33.387  17.619  -1.115  1.00 20.00     0.015 C 
HETATM    4  C4  UNL     1     -35.620  16.491  -2.042  1.00 20.00     0.047 C 
HETATM    5  C5  UNL     1     -33.882  14.013  -4.398  1.00 20.00     0.080 C 
HETATM    6  C6  UNL     1     -32.944  15.016  -3.633  1.00 20.00     0.022 C 
HETATM    7  C7  UNL     1     -34.972  15.248  -2.634  1.00 20.00     0.072 C 
HETATM    8  C8  UNL     1     -33.856  16.196  -3.286  1.00 20.00    -0.004 C 
HETATM    9  O12 UNL     1     -36.296  13.742  -4.110  1.00 20.00    -0.298 OA
ENDROOT
BRANCH   8  10
HETATM   10  C11 UNL     1     -34.105  17.093  -4.507  1.00 20.00    -0.009 C 
HETATM   11  C9  UNL     1     -33.593  18.503  -4.241  1.00 20.00     0.011 C 
HETATM   12  C10 UNL     1     -33.444  16.498  -5.744  1.00 20.00     0.011 C 
ENDBRANCH   8  10
TORSDOF 1
ENDMDL
MODEL 2
REMARK VINA RESULT:      -4.8      1.550      2.220
REMARK  1 active torsions:
REMARK  status: ('A' for Active; 'I' for Inactive)
REMARK    1  A    between atoms: C8_8  and  C11_11 
ROOT
HETATM    1  C1  UNL     1     -36.723  16.288  -3.564  1.00 20.00    -0.079 C 
HETATM    2  C2  UNL     1     -34.837  13.542  -4.181  1.00 20.00     0.132 C 
HETATM    3  C3  UNL     1     -37.311  17.274  -2.889  1.00 20.00     0.015 C 
HETATM    4  C4  UNL     1     -37.238  15.044  -4.351  1.00 20.00     0.047 C 
HETATM    5  C5  UNL     1     -33.570  14.194  -3.620  1.00 20.00     0.080 C 
HETATM    6  C6  UNL     1     -34.103  15.541  -3.012  1.00 20.00     0.022 C 
HETATM    7  C7  UNL     1     -35.964  14.467  -3.751  1.00 20.00     0.072 C 
HETATM    8  C8  UNL     1     -35.291  15.914  -3.903  1.00 20.00    -0.004 C 
HETATM    9  O12 UNL     1     -34.869  12.502  -4.820  1.00 20.00    -0.298 OA
ENDROOT
BRANCH   8  10
HETATM   10  C11 UNL     1     -34.828  16.503  -5.242  1.00 20.00    -0.009 C 
HETATM   11  C9  UNL     1     -35.556  17.811  -5.525  1.00 20.00     0.011 C 
HETATM   12  C10 UNL     1     -33.318  16.712  -5.234  1.00 20.00     0.011 C 
ENDBRANCH   8  10
TORSDOF 1
ENDMDL
MODEL 3
REMARK VINA RESULT:      -4.7      1.806      3.601
REMARK  1 active torsions:
REMARK  status: ('A' for Active; 'I' for Inactive)
REMARK    1  A    between atoms: C8_8  and  C11_11 
ROOT
HETATM    1  C1  UNL     1     -35.073  16.333  -6.993  1.00 20.00    -0.079 C 
HETATM    2  C2  UNL     1     -35.166  13.688  -4.877  1.00 20.00     0.132 C 
HETATM    3  C3  UNL     1     -35.498  17.345  -7.746  1.00 20.00     0.015 C 
HETATM    4  C4  UNL     1     -34.384  14.965  -7.287  1.00 20.00     0.047 C 
HETATM    5  C5  UNL     1     -35.843  14.501  -3.771  1.00 20.00     0.080 C 
HETATM    6  C6  UNL     1     -36.164  15.867  -4.478  1.00 20.00     0.022 C 
HETATM    7  C7  UNL     1     -35.267  14.568  -6.113  1.00 20.00     0.072 C 
HETATM    8  C8  UNL     1     -35.040  16.033  -5.505  1.00 20.00    -0.004 C 
HETATM    9  O12 UNL     1     -34.677  12.578  -4.736  1.00 20.00    -0.298 OA
ENDROOT
BRANCH   8  10
HETATM   10  C11 UNL     1     -33.733  16.488  -4.840  1.00 20.00    -0.009 C 
HETATM   11  C9  UNL     1     -33.400  17.917  -5.251  1.00 20.00     0.011 C 
HETATM   12  C10 UNL     1     -33.841  16.369  -3.325  1.00 20.00     0.011 C 
ENDBRANCH   8  10
TORSDOF 1
ENDMDL
MODEL 4
REMARK VINA RESULT:      -4.7      1.652      3.571
REMARK  1 active torsions:
REMARK  status: ('A' for Active; 'I' for Inactive)
REMARK    1  A    between atoms: C8_8  and  C11_11 
ROOT
HETATM    1  C1  UNL     1     -34.595  15.629  -5.642  1.00 20.00    -0.079 C 
HETATM    2  C2  UNL     1     -37.491  15.043  -3.982  1.00 20.00     0.132 C 
HETATM    3  C3  UNL     1     -33.697  16.246  -6.407  1.00 20.00     0.015 C 
HETATM    4  C4  UNL     1     -35.411  14.305  -5.765  1.00 20.00     0.047 C 
HETATM    5  C5  UNL     1     -37.368  16.330  -3.162  1.00 20.00     0.080 C 
HETATM    6  C6  UNL     1     -36.132  17.049  -3.812  1.00 20.00     0.022 C 
HETATM    7  C7  UNL     1     -36.441  15.185  -5.073  1.00 20.00     0.072 C 
HETATM    8  C8  UNL     1     -35.239  15.903  -4.295  1.00 20.00    -0.004 C 
HETATM    9  O12 UNL     1     -38.283  14.141  -3.761  1.00 20.00    -0.298 OA
ENDROOT
BRANCH   8  10
HETATM   10  C11 UNL     1     -34.470  15.260  -3.132  1.00 20.00    -0.009 C 
HETATM   11  C9  UNL     1     -33.015  15.029  -3.522  1.00 20.00     0.011 C 
HETATM   12  C10 UNL     1     -34.567  16.133  -1.886  1.00 20.00     0.011 C 
ENDBRANCH   8  10
TORSDOF 1
ENDMDL
MODEL 5
REMARK VINA RESULT:      -4.6      2.077      3.559
REMARK  1 active torsions:
REMARK  status: ('A' for Active; 'I' for Inactive)
REMARK    1  A    between atoms: C8_8  and  C11_11 
ROOT
HETATM    1  C1  UNL     1     -36.079  15.254  -6.302  1.00 20.00    -0.079 C 
HETATM    2  C2  UNL     1     -34.046  14.011  -3.893  1.00 20.00     0.132 C 
HETATM    3  C3  UNL     1     -37.184  15.702  -6.896  1.00 20.00     0.015 C 
HETATM    4  C4  UNL     1     -35.156  14.013  -6.504  1.00 20.00     0.047 C 
HETATM    5  C5  UNL     1     -34.335  15.177  -2.943  1.00 20.00     0.080 C 
HETATM    6  C6  UNL     1     -35.475  15.965  -3.683  1.00 20.00     0.022 C 
HETATM    7  C7  UNL     1     -35.091  14.146  -4.989  1.00 20.00     0.072 C 
HETATM    8  C8  UNL     1     -35.190  15.735  -5.170  1.00 20.00    -0.004 C 
HETATM    9  O12 UNL     1     -33.161  13.184  -3.742  1.00 20.00    -0.298 OA
ENDROOT
BRANCH   8  10
HETATM   10  C11 UNL     1     -34.030  16.612  -5.663  1.00 20.00    -0.009 C 
HETATM   11  C9  UNL     1     -34.404  17.299  -6.970  1.00 20.00     0.011 C 
HETATM   12  C10 UNL     1     -33.652  17.635  -4.599  1.00 20.00     0.011 C 
ENDBRANCH   8  10
TORSDOF 1
ENDMDL
MODEL 6
REMARK VINA RESULT:      -4.5      1.851      2.371
REMARK  1 active torsions:
REMARK  status: ('A' for Active; 'I' for Inactive)
REMARK    1  A    between atoms: C8_8  and  C11_11 
ROOT
HETATM    1  C1  UNL     1     -34.285  16.844  -3.607  1.00 20.00    -0.079 C 
HETATM    2  C2  UNL     1     -34.639  13.739  -4.918  1.00 20.00     0.132 C 
HETATM    3  C3  UNL     1     -33.779  18.055  -3.382  1.00 20.00     0.015 C 
HETATM    4  C4  UNL     1     -34.462  15.556  -2.745  1.00 20.00     0.047 C 
HETATM    5  C5  UNL     1     -34.733  14.273  -6.350  1.00 20.00     0.080 C 
HETATM    6  C6  UNL     1     -34.410  15.802  -6.181  1.00 20.00     0.022 C 
HETATM    7  C7  UNL     1     -34.162  14.927  -4.099  1.00 20.00     0.072 C 
HETATM    8  C8  UNL     1     -34.940  16.148  -4.787  1.00 20.00    -0.004 C 
HETATM    9  O12 UNL     1     -34.897  12.596  -4.575  1.00 20.00    -0.298 OA
ENDROOT
BRANCH   8  10
HETATM   10  C11 UNL     1     -36.468  16.295  -4.785  1.00 20.00    -0.009 C 
HETATM   11  C9  UNL     1     -36.872  17.622  -4.156  1.00 20.00     0.011 C 
HETATM   12  C10 UNL     1     -37.012  16.177  -6.204  1.00 20.00     0.011 C 
ENDBRANCH   8  10
TORSDOF 1
ENDMDL
MODEL 7
REMARK VINA RESULT:      -4.5      1.716      3.249
REMARK  1 active torsions:
REMARK  status: ('A' for Active; 'I' for Inactive)
REMARK    1  A    between atoms: C8_8  and  C11_11 
ROOT
HETATM    1  C1  UNL     1     -33.771  14.038  -4.078  1.00 20.00    -0.079 C 
HETATM    2  C2  UNL     1     -35.634  15.042  -6.724  1.00 20.00     0.132 C 
HETATM    3  C3  UNL     1     -32.702  13.706  -3.357  1.00 20.00     0.015 C 
HETATM    4  C4  UNL     1     -35.021  13.265  -4.599  1.00 20.00     0.047 C 
HETATM    5  C5  UNL     1     -34.879  16.369  -6.848  1.00 20.00     0.080 C 
HETATM    6  C6  UNL     1     -33.706  16.208  -5.814  1.00 20.00     0.022 C 
HETATM    7  C7  UNL     1     -34.793  14.213  -5.767  1.00 20.00     0.072 C 
HETATM    8  C8  UNL     1     -34.289  15.314  -4.717  1.00 20.00    -0.004 C 
HETATM    9  O12 UNL     1     -36.675  14.769  -7.300  1.00 20.00    -0.298 OA
ENDROOT
BRANCH   8  10
HETATM   10  C11 UNL     1     -35.227  16.100  -3.789  1.00 20.00    -0.009 C 
HETATM   11  C9  UNL     1     -34.831  15.889  -2.333  1.00 20.00     0.011 C 
HETATM   12  C10 UNL     1     -35.208  17.580  -4.150  1.00 20.00     0.011 C 
ENDBRANCH   8  10
TORSDOF 1
ENDMDL
MODEL 8
REMARK VINA RESULT:      -4.5      1.196      2.929
REMARK  1 active torsions:
REMARK  status: ('A' for Active; 'I' for Inactive)
REMARK    1  A    between atoms: C8_8  and  C11_11 
ROOT
HETATM    1  C1  UNL     1     -33.809  16.975  -4.460  1.00 20.00    -0.079 C 
HETATM    2  C2  UNL     1     -35.254  13.913  -4.326  1.00 20.00     0.132 C 
HETATM    3  C3  UNL     1     -33.505  18.194  -4.899  1.00 20.00     0.015 C 
HETATM    4  C4  UNL     1     -33.010  15.648  -4.275  1.00 20.00     0.047 C 
HETATM    5  C5  UNL     1     -36.669  14.498  -4.312  1.00 20.00     0.080 C 
HETATM    6  C6  UNL     1     -36.422  16.031  -4.559  1.00 20.00     0.022 C 
HETATM    7  C7  UNL     1     -34.360  15.086  -4.695  1.00 20.00     0.072 C 
HETATM    8  C8  UNL     1     -35.058  16.302  -3.919  1.00 20.00    -0.004 C 
HETATM    9  O12 UNL     1     -34.973  12.749  -4.091  1.00 20.00    -0.298 OA
ENDROOT
BRANCH   8  10
HETATM   10  C11 UNL     1     -35.162  16.391  -2.390  1.00 20.00    -0.009 C 
HETATM   11  C9  UNL     1     -33.820  16.794  -1.791  1.00 20.00     0.011 C 
HETATM   12  C10 UNL     1     -36.254  17.375  -1.990  1.00 20.00     0.011 C 
ENDBRANCH   8  10
TORSDOF 1
ENDMDL
MODEL 9
REMARK VINA RESULT:      -4.4      2.090      3.568
REMARK  1 active torsions:
REMARK  status: ('A' for Active; 'I' for Inactive)
REMARK    1  A    between atoms: C8_8  and  C11_11 
ROOT
HETATM    1  C1  UNL     1     -36.472  14.589  -4.395  1.00 20.00    -0.079 C 
HETATM    2  C2  UNL     1     -33.205  15.256  -3.789  1.00 20.00     0.132 C 
HETATM    3  C3  UNL     1     -37.799  14.666  -4.313  1.00 20.00     0.015 C 
HETATM    4  C4  UNL     1     -35.416  13.497  -4.044  1.00 20.00     0.047 C 
HETATM    5  C5  UNL     1     -33.354  16.727  -4.189  1.00 20.00     0.080 C 
HETATM    6  C6  UNL     1     -34.904  16.885  -4.392  1.00 20.00     0.022 C 
HETATM    7  C7  UNL     1     -34.633  14.747  -3.672  1.00 20.00     0.072 C 
HETATM    8  C8  UNL     1     -35.364  15.508  -4.878  1.00 20.00    -0.004 C 
HETATM    9  O12 UNL     1     -32.144  14.680  -3.610  1.00 20.00    -0.298 OA
ENDROOT
BRANCH   8  10
HETATM   10  C11 UNL     1     -35.019  15.290  -6.359  1.00 20.00    -0.009 C 
HETATM   11  C9  UNL     1     -36.259  14.859  -7.133  1.00 20.00     0.011 C 
HETATM   12  C10 UNL     1     -34.418  16.557  -6.954  1.00 20.00     0.011 C 
ENDBRANCH   8  10
TORSDOF 1
ENDMDL
