MODEL 1
REMARK VINA RESULT:      -4.6      0.000      0.000
REMARK  1 active torsions:
REMARK  status: ('A' for Active; 'I' for Inactive)
REMARK    1  A    between atoms: C7_7  and  C10_10 
ROOT
HETATM    1  C1  UNL     1     -34.416  13.733  -5.108  1.00 20.00     0.003 C 
HETATM    2  C2  UNL     1     -34.004  13.593  -3.843  1.00 20.00     0.004 C 
HETATM    3  C3  UNL     1     -34.521  16.235  -5.450  1.00 20.00     0.036 C 
HETATM    4  C4  UNL     1     -33.371  16.450  -4.441  1.00 20.00     0.010 C 
HETATM    5  C5  UNL     1     -35.297  14.939  -5.177  1.00 20.00     0.145 C 
HETATM    6  C6  UNL     1     -34.600  14.703  -3.035  1.00 20.00     0.149 C 
HETATM    7  C7  UNL     1     -33.704  15.964  -3.003  1.00 20.00     0.022 C 
HETATM    8  O11 UNL     1     -35.771  15.039  -3.814  1.00 20.00    -0.373 OA
ENDROOT
BRANCH   7   9
HETATM    9  C10 UNL     1     -34.392  17.086  -2.218  1.00 20.00    -0.016 C 
HETATM   10  C8  UNL     1     -34.638  16.651  -0.777  1.00 20.00     0.010 C 
HETATM   11  C9  UNL     1     -33.552  18.358  -2.263  1.00 20.00     0.010 C 
ENDBRANCH   7   9
TORSDOF 1
ENDMDL
MODEL 2
REMARK VINA RESULT:      -4.5      1.212      2.402
REMARK  1 active torsions:
REMARK  status: ('A' for Active; 'I' for Inactive)
REMARK    1  A    between atoms: C7_7  and  C10_10 
ROOT
HETATM    1  C1  UNL     1     -34.384  15.178  -5.724  1.00 20.00     0.003 C 
HETATM    2  C2  UNL     1     -34.343  16.506  -5.576  1.00 20.00     0.004 C 
HETATM    3  C3  UNL     1     -34.673  14.300  -3.371  1.00 20.00     0.036 C 
HETATM    4  C4  UNL     1     -35.449  15.572  -2.963  1.00 20.00     0.010 C 
HETATM    5  C5  UNL     1     -33.712  14.559  -4.540  1.00 20.00     0.145 C 
HETATM    6  C6  UNL     1     -33.644  16.808  -4.287  1.00 20.00     0.149 C 
HETATM    7  C7  UNL     1     -34.614  16.878  -3.085  1.00 20.00     0.022 C 
HETATM    8  O11 UNL     1     -32.834  15.623  -4.106  1.00 20.00    -0.373 OA
ENDROOT
BRANCH   7   9
HETATM    9  C10 UNL     1     -33.837  17.125  -1.787  1.00 20.00    -0.016 C 
HETATM   10  C8  UNL     1     -33.399  18.584  -1.701  1.00 20.00     0.010 C 
HETATM   11  C9  UNL     1     -34.685  16.742  -0.579  1.00 20.00     0.010 C 
ENDBRANCH   7   9
TORSDOF 1
ENDMDL
MODEL 3
REMARK VINA RESULT:      -4.2      1.767      2.978
REMARK  1 active torsions:
REMARK  status: ('A' for Active; 'I' for Inactive)
REMARK    1  A    between atoms: C7_7  and  C10_10 
ROOT
HETATM    1  C1  UNL     1     -34.008  13.736  -3.705  1.00 20.00     0.003 C 
HETATM    2  C2  UNL     1     -33.048  14.666  -3.702  1.00 20.00     0.004 C 
HETATM    3  C3  UNL     1     -35.523  14.414  -5.611  1.00 20.00     0.036 C 
HETATM    4  C4  UNL     1     -34.331  15.033  -6.374  1.00 20.00     0.010 C 
HETATM    5  C5  UNL     1     -35.292  14.396  -4.093  1.00 20.00     0.145 C 
HETATM    6  C6  UNL     1     -33.667  15.973  -4.090  1.00 20.00     0.149 C 
HETATM    7  C7  UNL     1     -33.650  16.209  -5.619  1.00 20.00     0.022 C 
HETATM    8  O11 UNL     1     -35.047  15.769  -3.711  1.00 20.00    -0.373 OA
ENDROOT
BRANCH   7   9
HETATM    9  C10 UNL     1     -34.352  17.527  -5.961  1.00 20.00    -0.016 C 
HETATM   10  C8  UNL     1     -33.577  18.707  -5.383  1.00 20.00     0.010 C 
HETATM   11  C9  UNL     1     -34.508  17.670  -7.472  1.00 20.00     0.010 C 
ENDBRANCH   7   9
TORSDOF 1
ENDMDL
MODEL 4
REMARK VINA RESULT:      -4.2      1.529      4.043
REMARK  1 active torsions:
REMARK  status: ('A' for Active; 'I' for Inactive)
REMARK    1  A    between atoms: C7_7  and  C10_10 
ROOT
HETATM    1  C1  UNL     1     -34.340  15.477  -2.723  1.00 20.00     0.003 C 
HETATM    2  C2  UNL     1     -33.617  16.205  -3.581  1.00 20.00     0.004 C 
HETATM    3  C3  UNL     1     -35.768  14.011  -4.206  1.00 20.00     0.036 C 
HETATM    4  C4  UNL     1     -34.675  14.001  -5.297  1.00 20.00     0.010 C 
HETATM    5  C5  UNL     1     -35.693  15.264  -3.322  1.00 20.00     0.145 C 
HETATM    6  C6  UNL     1     -34.471  16.496  -4.776  1.00 20.00     0.149 C 
HETATM    7  C7  UNL     1     -34.354  15.410  -5.870  1.00 20.00     0.022 C 
HETATM    8  O11 UNL     1     -35.802  16.392  -4.220  1.00 20.00    -0.373 OA
ENDROOT
BRANCH   7   9
HETATM    9  C10 UNL     1     -35.295  15.727  -7.037  1.00 20.00    -0.016 C 
HETATM   10  C8  UNL     1     -34.753  16.897  -7.853  1.00 20.00     0.010 C 
HETATM   11  C9  UNL     1     -35.484  14.495  -7.917  1.00 20.00     0.010 C 
ENDBRANCH   7   9
TORSDOF 1
ENDMDL
MODEL 5
REMARK VINA RESULT:      -4.2      1.805      2.798
REMARK  1 active torsions:
REMARK  status: ('A' for Active; 'I' for Inactive)
REMARK    1  A    between atoms: C7_7  and  C10_10 
ROOT
HETATM    1  C1  UNL     1     -33.455  13.738  -3.755  1.00 20.00     0.003 C 
HETATM    2  C2  UNL     1     -34.727  13.447  -4.048  1.00 20.00     0.004 C 
HETATM    3  C3  UNL     1     -33.561  16.071  -2.787  1.00 20.00     0.036 C 
HETATM    4  C4  UNL     1     -34.979  15.807  -2.235  1.00 20.00     0.010 C 
HETATM    5  C5  UNL     1     -33.243  15.197  -4.008  1.00 20.00     0.145 C 
HETATM    6  C6  UNL     1     -35.398  14.705  -4.504  1.00 20.00     0.149 C 
HETATM    7  C7  UNL     1     -36.030  15.500  -3.337  1.00 20.00     0.022 C 
HETATM    8  O11 UNL     1     -34.275  15.482  -4.981  1.00 20.00    -0.373 OA
ENDROOT
BRANCH   7   9
HETATM    9  C10 UNL     1     -36.644  16.806  -3.854  1.00 20.00    -0.016 C 
HETATM   10  C8  UNL     1     -37.686  16.513  -4.929  1.00 20.00     0.010 C 
HETATM   11  C9  UNL     1     -37.261  17.594  -2.703  1.00 20.00     0.010 C 
ENDBRANCH   7   9
TORSDOF 1
ENDMDL
MODEL 6
REMARK VINA RESULT:      -4.2      1.076      1.513
REMARK  1 active torsions:
REMARK  status: ('A' for Active; 'I' for Inactive)
REMARK    1  A    between atoms: C7_7  and  C10_10 
ROOT
HETATM    1  C1  UNL     1     -34.754  13.968  -5.414  1.00 20.00     0.003 C 
HETATM    2  C2  UNL     1     -35.500  13.773  -4.320  1.00 20.00     0.004 C 
HETATM    3  C3  UNL     1     -33.208  15.865  -4.779  1.00 20.00     0.036 C 
HETATM    4  C4  UNL     1     -33.228  15.422  -3.299  1.00 20.00     0.010 C 
HETATM    5  C5  UNL     1     -34.476  15.433  -5.529  1.00 20.00     0.145 C 
HETATM    6  C6  UNL     1     -35.737  15.104  -3.677  1.00 20.00     0.149 C 
HETATM    7  C7  UNL     1     -34.640  15.474  -2.652  1.00 20.00     0.022 C 
HETATM    8  O11 UNL     1     -35.585  16.005  -4.799  1.00 20.00    -0.373 OA
ENDROOT
BRANCH   7   9
HETATM    9  C10 UNL     1     -34.900  16.870  -2.075  1.00 20.00    -0.016 C 
HETATM   10  C8  UNL     1     -36.363  17.259  -2.265  1.00 20.00     0.010 C 
HETATM   11  C9  UNL     1     -34.515  16.915  -0.600  1.00 20.00     0.010 C 
ENDBRANCH   7   9
TORSDOF 1
ENDMDL
MODEL 7
REMARK VINA RESULT:      -4.2      1.641      3.791
REMARK  1 active torsions:
REMARK  status: ('A' for Active; 'I' for Inactive)
REMARK    1  A    between atoms: C7_7  and  C10_10 
ROOT
HETATM    1  C1  UNL     1     -35.517  17.895  -1.292  1.00 20.00     0.003 C 
HETATM    2  C2  UNL     1     -34.700  16.929  -0.860  1.00 20.00     0.004 C 
HETATM    3  C3  UNL     1     -36.257  17.105  -3.576  1.00 20.00     0.036 C 
HETATM    4  C4  UNL     1     -36.132  15.630  -3.137  1.00 20.00     0.010 C 
HETATM    5  C5  UNL     1     -35.334  18.030  -2.770  1.00 20.00     0.145 C 
HETATM    6  C6  UNL     1     -33.951  16.392  -2.040  1.00 20.00     0.149 C 
HETATM    7  C7  UNL     1     -34.688  15.221  -2.731  1.00 20.00     0.022 C 
HETATM    8  O11 UNL     1     -33.996  17.514  -2.952  1.00 20.00    -0.373 OA
ENDROOT
BRANCH   7   9
HETATM    9  C10 UNL     1     -33.909  14.756  -3.966  1.00 20.00    -0.016 C 
HETATM   10  C8  UNL     1     -32.435  14.565  -3.622  1.00 20.00     0.010 C 
HETATM   11  C9  UNL     1     -34.508  13.467  -4.518  1.00 20.00     0.010 C 
ENDBRANCH   7   9
TORSDOF 1
ENDMDL
MODEL 8
REMARK VINA RESULT:      -4.1      1.224      4.030
REMARK  1 active torsions:
REMARK  status: ('A' for Active; 'I' for Inactive)
REMARK    1  A    between atoms: C7_7  and  C10_10 
ROOT
HETATM    1  C1  UNL     1     -33.946  18.278  -3.098  1.00 20.00     0.003 C 
HETATM    2  C2  UNL     1     -33.631  18.122  -4.388  1.00 20.00     0.004 C 
HETATM    3  C3  UNL     1     -34.533  15.947  -2.318  1.00 20.00     0.036 C 
HETATM    4  C4  UNL     1     -33.548  15.329  -3.335  1.00 20.00     0.010 C 
HETATM    5  C5  UNL     1     -35.047  17.320  -2.772  1.00 20.00     0.145 C 
HETATM    6  C6  UNL     1     -34.513  17.055  -4.956  1.00 20.00     0.149 C 
HETATM    7  C7  UNL     1     -33.903  15.640  -4.816  1.00 20.00     0.022 C 
HETATM    8  O11 UNL     1     -35.653  17.111  -4.068  1.00 20.00    -0.373 OA
ENDROOT
BRANCH   7   9
HETATM    9  C10 UNL     1     -34.875  14.585  -5.354  1.00 20.00    -0.016 C 
HETATM   10  C8  UNL     1     -34.873  14.591  -6.880  1.00 20.00     0.010 C 
HETATM   11  C9  UNL     1     -34.511  13.205  -4.817  1.00 20.00     0.010 C 
ENDBRANCH   7   9
TORSDOF 1
ENDMDL
MODEL 9
REMARK VINA RESULT:      -4.1      1.697      3.600
REMARK  1 active torsions:
REMARK  status: ('A' for Active; 'I' for Inactive)
REMARK    1  A    between atoms: C7_7  and  C10_10 
ROOT
HETATM    1  C1  UNL     1     -32.960  14.786  -3.695  1.00 20.00     0.003 C 
HETATM    2  C2  UNL     1     -33.322  16.013  -4.084  1.00 20.00     0.004 C 
HETATM    3  C3  UNL     1     -34.620  13.259  -4.837  1.00 20.00     0.036 C 
HETATM    4  C4  UNL     1     -34.755  14.245  -6.019  1.00 20.00     0.010 C 
HETATM    5  C5  UNL     1     -34.200  13.964  -3.540  1.00 20.00     0.145 C 
HETATM    6  C6  UNL     1     -34.815  16.042  -4.200  1.00 20.00     0.149 C 
HETATM    7  C7  UNL     1     -35.311  15.638  -5.608  1.00 20.00     0.022 C 
HETATM    8  O11 UNL     1     -35.201  14.979  -3.297  1.00 20.00    -0.373 OA
ENDROOT
BRANCH   7   9
HETATM    9  C10 UNL     1     -36.843  15.623  -5.649  1.00 20.00    -0.016 C 
HETATM   10  C8  UNL     1     -37.398  16.982  -5.233  1.00 20.00     0.010 C 
HETATM   11  C9  UNL     1     -37.333  15.240  -7.041  1.00 20.00     0.010 C 
ENDBRANCH   7   9
TORSDOF 1
ENDMDL
