MODEL 1
REMARK VINA RESULT:      -4.6      0.000      0.000
REMARK  1 active torsions:
REMARK  status: ('A' for Active; 'I' for Inactive)
REMARK    1  A    between atoms: C6_6  and  C8_8 
ROOT
HETATM    1  C1  UNL     1     -35.951  14.802  -5.642  1.00 20.00     0.061 C 
HETATM    2  C2  UNL     1     -33.523  14.215  -3.399  1.00 20.00     0.066 C 
HETATM    3  C3  UNL     1     -35.823  16.016  -4.687  1.00 20.00     0.170 C 
HETATM    4  C4  UNL     1     -34.803  13.905  -5.428  1.00 20.00     0.153 A 
HETATM    5  C5  UNL     1     -34.717  13.548  -3.958  1.00 20.00     0.153 A 
HETATM    6  C6  UNL     1     -33.824  15.737  -3.240  1.00 20.00     0.123 C 
HETATM    7  O9  UNL     1     -34.457  16.362  -4.383  1.00 20.00    -0.386 OA
HETATM    8  O10 UNL     1     -34.786  12.564  -4.976  1.00 20.00    -0.375 OA
ENDROOT
BRANCH   6   9
HETATM    9  C8  UNL     1     -34.550  16.062  -1.934  1.00 20.00     0.027 C 
HETATM   10  C7  UNL     1     -33.897  17.189  -1.202  1.00 20.00     0.007 C 
ENDBRANCH   6   9
TORSDOF 1
ENDMDL
MODEL 2
REMARK VINA RESULT:      -4.3     11.629     12.769
REMARK  1 active torsions:
REMARK  status: ('A' for Active; 'I' for Inactive)
REMARK    1  A    between atoms: C6_6  and  C8_8 
ROOT
HETATM    1  C1  UNL     1     -34.469   5.454   6.562  1.00 20.00     0.061 C 
HETATM    2  C2  UNL     1     -34.529   5.244   3.212  1.00 20.00     0.066 C 
HETATM    3  C3  UNL     1     -33.559   6.553   5.958  1.00 20.00     0.170 C 
HETATM    4  C4  UNL     1     -35.266   4.848   5.481  1.00 20.00     0.153 A 
HETATM    5  C5  UNL     1     -34.336   4.369   4.386  1.00 20.00     0.153 A 
HETATM    6  C6  UNL     1     -33.851   6.620   3.492  1.00 20.00     0.123 C 
HETATM    7  O9  UNL     1     -34.127   7.189   4.795  1.00 20.00    -0.386 OA
HETATM    8  O10 UNL     1     -35.273   3.511   5.016  1.00 20.00    -0.375 OA
ENDROOT
BRANCH   6   9
HETATM    9  C8  UNL     1     -32.355   6.616   3.175  1.00 20.00     0.027 C 
HETATM   10  C7  UNL     1     -31.946   7.839   2.419  1.00 20.00     0.007 C 
ENDBRANCH   6   9
TORSDOF 1
ENDMDL
MODEL 3
REMARK VINA RESULT:      -4.2      1.513      3.354
REMARK  1 active torsions:
REMARK  status: ('A' for Active; 'I' for Inactive)
REMARK    1  A    between atoms: C6_6  and  C8_8 
ROOT
HETATM    1  C1  UNL     1     -33.195  14.181  -3.574  1.00 20.00     0.061 C 
HETATM    2  C2  UNL     1     -35.783  14.825  -5.613  1.00 20.00     0.066 C 
HETATM    3  C3  UNL     1     -33.033  15.595  -4.186  1.00 20.00     0.170 C 
HETATM    4  C4  UNL     1     -34.549  13.685  -3.872  1.00 20.00     0.153 A 
HETATM    5  C5  UNL     1     -34.789  13.760  -5.366  1.00 20.00     0.153 A 
HETATM    6  C6  UNL     1     -35.093  16.211  -5.429  1.00 20.00     0.123 C 
HETATM    7  O9  UNL     1     -34.268  16.336  -4.245  1.00 20.00    -0.386 OA
HETATM    8  O10 UNL     1     -34.943  12.557  -4.631  1.00 20.00    -0.375 OA
ENDROOT
BRANCH   6   9
HETATM    9  C8  UNL     1     -34.361  16.677  -6.689  1.00 20.00     0.027 C 
HETATM   10  C7  UNL     1     -35.186  16.468  -7.917  1.00 20.00     0.007 C 
ENDBRANCH   6   9
TORSDOF 1
ENDMDL
MODEL 4
REMARK VINA RESULT:      -4.2      1.490      2.216
REMARK  1 active torsions:
REMARK  status: ('A' for Active; 'I' for Inactive)
REMARK    1  A    between atoms: C6_6  and  C8_8 
ROOT
HETATM    1  C1  UNL     1     -34.671  13.417  -5.199  1.00 20.00     0.061 C 
HETATM    2  C2  UNL     1     -34.739  16.735  -4.691  1.00 20.00     0.066 C 
HETATM    3  C3  UNL     1     -34.748  13.708  -3.678  1.00 20.00     0.170 C 
HETATM    4  C4  UNL     1     -34.917  14.669  -5.936  1.00 20.00     0.153 A 
HETATM    5  C5  UNL     1     -33.958  15.733  -5.444  1.00 20.00     0.153 A 
HETATM    6  C6  UNL     1     -35.130  16.133  -3.307  1.00 20.00     0.123 C 
HETATM    7  O9  UNL     1     -35.650  14.782  -3.348  1.00 20.00    -0.386 OA
HETATM    8  O10 UNL     1     -34.060  15.375  -6.812  1.00 20.00    -0.375 OA
ENDROOT
BRANCH   6   9
HETATM    9  C8  UNL     1     -34.025  16.290  -2.262  1.00 20.00     0.027 C 
HETATM   10  C7  UNL     1     -34.578  16.641  -0.919  1.00 20.00     0.007 C 
ENDBRANCH   6   9
TORSDOF 1
ENDMDL
MODEL 5
REMARK VINA RESULT:      -4.2      1.435      1.635
REMARK  1 active torsions:
REMARK  status: ('A' for Active; 'I' for Inactive)
REMARK    1  A    between atoms: C6_6  and  C8_8 
ROOT
HETATM    1  C1  UNL     1     -34.012  16.211  -6.293  1.00 20.00     0.061 C 
HETATM    2  C2  UNL     1     -34.995  14.031  -3.937  1.00 20.00     0.066 C 
HETATM    3  C3  UNL     1     -33.805  16.836  -4.890  1.00 20.00     0.170 C 
HETATM    4  C4  UNL     1     -34.320  14.779  -6.136  1.00 20.00     0.153 A 
HETATM    5  C5  UNL     1     -35.496  14.624  -5.194  1.00 20.00     0.153 A 
HETATM    6  C6  UNL     1     -34.215  15.122  -3.141  1.00 20.00     0.123 C 
HETATM    7  O9  UNL     1     -33.281  15.905  -3.922  1.00 20.00    -0.386 OA
HETATM    8  O10 UNL     1     -35.490  14.070  -6.499  1.00 20.00    -0.375 OA
ENDROOT
BRANCH   6   9
HETATM    9  C8  UNL     1     -35.134  16.003  -2.294  1.00 20.00     0.027 C 
HETATM   10  C7  UNL     1     -34.409  16.608  -1.136  1.00 20.00     0.007 C 
ENDBRANCH   6   9
TORSDOF 1
ENDMDL
MODEL 6
REMARK VINA RESULT:      -4.1      1.353      1.408
REMARK  1 active torsions:
REMARK  status: ('A' for Active; 'I' for Inactive)
REMARK    1  A    between atoms: C6_6  and  C8_8 
ROOT
HETATM    1  C1  UNL     1     -34.889  14.385  -6.312  1.00 20.00     0.061 C 
HETATM    2  C2  UNL     1     -33.953  14.738  -3.107  1.00 20.00     0.066 C 
HETATM    3  C3  UNL     1     -34.577  15.876  -6.025  1.00 20.00     0.170 C 
HETATM    4  C4  UNL     1     -34.425  13.573  -5.174  1.00 20.00     0.153 A 
HETATM    5  C5  UNL     1     -35.034  14.113  -3.897  1.00 20.00     0.153 A 
HETATM    6  C6  UNL     1     -33.573  16.100  -3.764  1.00 20.00     0.123 C 
HETATM    7  O9  UNL     1     -33.408  16.066  -5.203  1.00 20.00    -0.386 OA
HETATM    8  O10 UNL     1     -35.173  12.759  -4.291  1.00 20.00    -0.375 OA
ENDROOT
BRANCH   6   9
HETATM    9  C8  UNL     1     -34.484  17.245  -3.320  1.00 20.00     0.027 C 
HETATM   10  C7  UNL     1     -33.823  18.575  -3.482  1.00 20.00     0.007 C 
ENDBRANCH   6   9
TORSDOF 1
ENDMDL
MODEL 7
REMARK VINA RESULT:      -4.0      1.422      2.458
REMARK  1 active torsions:
REMARK  status: ('A' for Active; 'I' for Inactive)
REMARK    1  A    between atoms: C6_6  and  C8_8 
ROOT
HETATM    1  C1  UNL     1     -33.102  14.228  -3.678  1.00 20.00     0.061 C 
HETATM    2  C2  UNL     1     -36.442  14.481  -3.894  1.00 20.00     0.066 C 
HETATM    3  C3  UNL     1     -33.536  15.674  -3.325  1.00 20.00     0.170 C 
HETATM    4  C4  UNL     1     -34.299  13.372  -3.735  1.00 20.00     0.153 A 
HETATM    5  C5  UNL     1     -35.303  13.982  -4.691  1.00 20.00     0.153 A 
HETATM    6  C6  UNL     1     -36.012  15.788  -3.161  1.00 20.00     0.123 C 
HETATM    7  O9  UNL     1     -34.721  15.730  -2.506  1.00 20.00    -0.386 OA
HETATM    8  O10 UNL     1     -34.834  12.652  -4.830  1.00 20.00    -0.375 OA
ENDROOT
BRANCH   6   9
HETATM    9  C8  UNL     1     -36.153  17.031  -4.040  1.00 20.00     0.027 C 
HETATM   10  C7  UNL     1     -36.259  18.278  -3.223  1.00 20.00     0.007 C 
ENDBRANCH   6   9
TORSDOF 1
ENDMDL
MODEL 8
REMARK VINA RESULT:      -4.0      1.634      3.440
REMARK  1 active torsions:
REMARK  status: ('A' for Active; 'I' for Inactive)
REMARK    1  A    between atoms: C6_6  and  C8_8 
ROOT
HETATM    1  C1  UNL     1     -33.517  15.617  -3.128  1.00 20.00     0.061 C 
HETATM    2  C2  UNL     1     -35.331  14.116  -5.520  1.00 20.00     0.066 C 
HETATM    3  C3  UNL     1     -33.678  16.576  -4.335  1.00 20.00     0.170 C 
HETATM    4  C4  UNL     1     -34.424  14.471  -3.306  1.00 20.00     0.153 A 
HETATM    5  C5  UNL     1     -34.165  13.837  -4.657  1.00 20.00     0.153 A 
HETATM    6  C6  UNL     1     -35.284  15.610  -5.964  1.00 20.00     0.123 C 
HETATM    7  O9  UNL     1     -35.001  16.558  -4.906  1.00 20.00    -0.386 OA
HETATM    8  O10 UNL     1     -34.114  13.097  -3.449  1.00 20.00    -0.375 OA
ENDROOT
BRANCH   6   9
HETATM    9  C8  UNL     1     -34.394  15.835  -7.187  1.00 20.00     0.027 C 
HETATM   10  C7  UNL     1     -34.760  17.086  -7.916  1.00 20.00     0.007 C 
ENDBRANCH   6   9
TORSDOF 1
ENDMDL
MODEL 9
REMARK VINA RESULT:      -3.8      1.778      3.922
REMARK  1 active torsions:
REMARK  status: ('A' for Active; 'I' for Inactive)
REMARK    1  A    between atoms: C6_6  and  C8_8 
ROOT
HETATM    1  C1  UNL     1     -33.681  18.177  -4.237  1.00 20.00     0.061 C 
HETATM    2  C2  UNL     1     -34.789  16.079  -1.862  1.00 20.00     0.066 C 
HETATM    3  C3  UNL     1     -34.049  16.815  -4.879  1.00 20.00     0.170 C 
HETATM    4  C4  UNL     1     -34.179  18.200  -2.851  1.00 20.00     0.153 A 
HETATM    5  C5  UNL     1     -33.652  16.988  -2.112  1.00 20.00     0.153 A 
HETATM    6  C6  UNL     1     -35.174  15.373  -3.198  1.00 20.00     0.123 C 
HETATM    7  O9  UNL     1     -35.264  16.245  -4.351  1.00 20.00    -0.386 OA
HETATM    8  O10 UNL     1     -33.455  18.311  -1.640  1.00 20.00    -0.375 OA
ENDROOT
BRANCH   6   9
HETATM    9  C8  UNL     1     -34.318  14.138  -3.479  1.00 20.00     0.027 C 
HETATM   10  C7  UNL     1     -34.968  13.228  -4.471  1.00 20.00     0.007 C 
ENDBRANCH   6   9
TORSDOF 1
ENDMDL
