MODEL 1
REMARK VINA RESULT:      -4.7      0.000      0.000
REMARK  1 active torsions:
REMARK  status: ('A' for Active; 'I' for Inactive)
REMARK    1  A    between atoms: C4_4  and  C10_10 
ROOT
HETATM    1  C1  UNL     1     -34.538  13.699  -4.724  1.00 20.00     0.132 C 
HETATM    2  C2  UNL     1     -34.293  14.134  -3.303  1.00 20.00     0.087 C 
HETATM    3  C3  UNL     1     -34.216  16.051  -4.789  1.00 20.00     0.021 C 
HETATM    4  C4  UNL     1     -34.490  14.848  -5.700  1.00 20.00     0.059 C 
HETATM    5  C5  UNL     1     -34.609  15.636  -3.355  1.00 20.00    -0.041 C 
HETATM    6  C6  UNL     1     -36.099  15.889  -3.077  1.00 20.00     0.015 C 
HETATM    7  C7  UNL     1     -33.780  16.407  -2.321  1.00 20.00     0.015 C 
HETATM    8  O11 UNL     1     -34.729  12.533  -5.050  1.00 20.00    -0.298 OA
ENDROOT
BRANCH   4   9
HETATM    9  C10 UNL     1     -35.755  15.020  -6.524  1.00 20.00    -0.011 C 
HETATM   10  C8  UNL     1     -36.140  16.498  -6.635  1.00 20.00     0.010 C 
HETATM   11  C9  UNL     1     -35.590  14.411  -7.918  1.00 20.00     0.010 C 
ENDBRANCH   4   9
TORSDOF 1
ENDMDL
MODEL 2
REMARK VINA RESULT:      -4.6      1.287      3.694
REMARK  1 active torsions:
REMARK  status: ('A' for Active; 'I' for Inactive)
REMARK    1  A    between atoms: C4_4  and  C10_10 
ROOT
HETATM    1  C1  UNL     1     -34.659  13.923  -4.047  1.00 20.00     0.132 C 
HETATM    2  C2  UNL     1     -34.842  13.600  -5.508  1.00 20.00     0.087 C 
HETATM    3  C3  UNL     1     -36.044  15.631  -4.944  1.00 20.00     0.021 C 
HETATM    4  C4  UNL     1     -35.396  15.172  -3.632  1.00 20.00     0.059 C 
HETATM    5  C5  UNL     1     -35.274  14.951  -6.096  1.00 20.00    -0.041 C 
HETATM    6  C6  UNL     1     -34.050  15.775  -6.526  1.00 20.00     0.015 C 
HETATM    7  C7  UNL     1     -36.184  14.754  -7.314  1.00 20.00     0.015 C 
HETATM    8  O11 UNL     1     -34.004  13.229  -3.279  1.00 20.00    -0.298 OA
ENDROOT
BRANCH   4   9
HETATM    9  C10 UNL     1     -34.511  16.243  -3.016  1.00 20.00    -0.011 C 
HETATM   10  C8  UNL     1     -34.863  17.628  -3.565  1.00 20.00     0.010 C 
HETATM   11  C9  UNL     1     -34.622  16.235  -1.490  1.00 20.00     0.010 C 
ENDBRANCH   4   9
TORSDOF 1
ENDMDL
MODEL 3
REMARK VINA RESULT:      -4.5      2.243      4.295
REMARK  1 active torsions:
REMARK  status: ('A' for Active; 'I' for Inactive)
REMARK    1  A    between atoms: C4_4  and  C10_10 
ROOT
HETATM    1  C1  UNL     1     -33.687  16.744  -4.543  1.00 20.00     0.132 C 
HETATM    2  C2  UNL     1     -34.243  15.596  -5.345  1.00 20.00     0.087 C 
HETATM    3  C3  UNL     1     -33.991  14.948  -3.020  1.00 20.00     0.021 C 
HETATM    4  C4  UNL     1     -33.496  16.398  -3.087  1.00 20.00     0.059 C 
HETATM    5  C5  UNL     1     -34.876  14.709  -4.262  1.00 20.00    -0.041 C 
HETATM    6  C6  UNL     1     -36.335  15.118  -4.009  1.00 20.00     0.015 C 
HETATM    7  C7  UNL     1     -34.845  13.233  -4.675  1.00 20.00     0.015 C 
HETATM    8  O11 UNL     1     -33.399  17.831  -5.030  1.00 20.00    -0.298 OA
ENDROOT
BRANCH   4   9
HETATM    9  C10 UNL     1     -34.238  17.311  -2.126  1.00 20.00    -0.011 C 
HETATM   10  C8  UNL     1     -34.718  16.537  -0.895  1.00 20.00     0.010 C 
HETATM   11  C9  UNL     1     -33.360  18.489  -1.699  1.00 20.00     0.010 C 
ENDBRANCH   4   9
TORSDOF 1
ENDMDL
MODEL 4
REMARK VINA RESULT:      -4.2      1.267      1.379
REMARK  1 active torsions:
REMARK  status: ('A' for Active; 'I' for Inactive)
REMARK    1  A    between atoms: C4_4  and  C10_10 
ROOT
HETATM    1  C1  UNL     1     -34.871  14.538  -3.942  1.00 20.00     0.132 C 
HETATM    2  C2  UNL     1     -34.916  15.113  -2.550  1.00 20.00     0.087 C 
HETATM    3  C3  UNL     1     -33.505  16.480  -3.975  1.00 20.00     0.021 C 
HETATM    4  C4  UNL     1     -33.997  15.339  -4.875  1.00 20.00     0.059 C 
HETATM    5  C5  UNL     1     -34.474  16.567  -2.776  1.00 20.00    -0.041 C 
HETATM    6  C6  UNL     1     -35.684  17.462  -3.086  1.00 20.00     0.015 C 
HETATM    7  C7  UNL     1     -33.758  17.121  -1.539  1.00 20.00     0.015 C 
HETATM    8  O11 UNL     1     -35.462  13.515  -4.270  1.00 20.00    -0.298 OA
ENDROOT
BRANCH   4   9
HETATM    9  C10 UNL     1     -34.710  15.846  -6.117  1.00 20.00    -0.011 C 
HETATM   10  C8  UNL     1     -34.232  17.252  -6.488  1.00 20.00     0.010 C 
HETATM   11  C9  UNL     1     -34.505  14.890  -7.295  1.00 20.00     0.010 C 
ENDBRANCH   4   9
TORSDOF 1
ENDMDL
MODEL 5
REMARK VINA RESULT:      -4.2      1.480      3.359
REMARK  1 active torsions:
REMARK  status: ('A' for Active; 'I' for Inactive)
REMARK    1  A    between atoms: C4_4  and  C10_10 
ROOT
HETATM    1  C1  UNL     1     -34.356  13.964  -3.657  1.00 20.00     0.132 C 
HETATM    2  C2  UNL     1     -35.693  13.599  -4.247  1.00 20.00     0.087 C 
HETATM    3  C3  UNL     1     -35.881  15.642  -2.952  1.00 20.00     0.021 C 
HETATM    4  C4  UNL     1     -34.411  15.223  -2.827  1.00 20.00     0.059 C 
HETATM    5  C5  UNL     1     -36.455  14.931  -4.196  1.00 20.00    -0.041 C 
HETATM    6  C6  UNL     1     -36.216  15.744  -5.477  1.00 20.00     0.015 C 
HETATM    7  C7  UNL     1     -37.962  14.696  -4.040  1.00 20.00     0.015 C 
HETATM    8  O11 UNL     1     -33.342  13.294  -3.814  1.00 20.00    -0.298 OA
ENDROOT
BRANCH   4   9
HETATM    9  C10 UNL     1     -33.456  16.313  -3.284  1.00 20.00    -0.011 C 
HETATM   10  C8  UNL     1     -33.082  16.131  -4.757  1.00 20.00     0.010 C 
HETATM   11  C9  UNL     1     -34.060  17.701  -3.060  1.00 20.00     0.010 C 
ENDBRANCH   4   9
TORSDOF 1
ENDMDL
MODEL 6
REMARK VINA RESULT:      -4.1      1.703      4.098
REMARK  1 active torsions:
REMARK  status: ('A' for Active; 'I' for Inactive)
REMARK    1  A    between atoms: C4_4  and  C10_10 
ROOT
HETATM    1  C1  UNL     1     -36.233  15.833  -4.247  1.00 20.00     0.132 C 
HETATM    2  C2  UNL     1     -36.605  15.133  -5.528  1.00 20.00     0.087 C 
HETATM    3  C3  UNL     1     -34.252  15.723  -5.552  1.00 20.00     0.021 C 
HETATM    4  C4  UNL     1     -34.779  16.237  -4.207  1.00 20.00     0.059 C 
HETATM    5  C5  UNL     1     -35.245  14.652  -6.054  1.00 20.00    -0.041 C 
HETATM    6  C6  UNL     1     -34.908  13.260  -5.499  1.00 20.00     0.015 C 
HETATM    7  C7  UNL     1     -35.241  14.583  -7.585  1.00 20.00     0.015 C 
HETATM    8  O11 UNL     1     -37.032  16.070  -3.349  1.00 20.00    -0.298 OA
ENDROOT
BRANCH   4   9
HETATM    9  C10 UNL     1     -34.007  15.674  -3.026  1.00 20.00    -0.011 C 
HETATM   10  C8  UNL     1     -32.638  15.148  -3.467  1.00 20.00     0.010 C 
HETATM   11  C9  UNL     1     -33.840  16.726  -1.927  1.00 20.00     0.010 C 
ENDBRANCH   4   9
TORSDOF 1
ENDMDL
MODEL 7
REMARK VINA RESULT:      -4.0      2.109      3.355
REMARK  1 active torsions:
REMARK  status: ('A' for Active; 'I' for Inactive)
REMARK    1  A    between atoms: C4_4  and  C10_10 
ROOT
HETATM    1  C1  UNL     1     -34.197  15.983  -6.289  1.00 20.00     0.132 C 
HETATM    2  C2  UNL     1     -34.438  14.566  -5.835  1.00 20.00     0.087 C 
HETATM    3  C3  UNL     1     -33.150  15.771  -4.168  1.00 20.00     0.021 C 
HETATM    4  C4  UNL     1     -33.389  16.781  -5.297  1.00 20.00     0.059 C 
HETATM    5  C5  UNL     1     -34.210  14.658  -4.319  1.00 20.00    -0.041 C 
HETATM    6  C6  UNL     1     -35.517  15.015  -3.593  1.00 20.00     0.015 C 
HETATM    7  C7  UNL     1     -33.686  13.330  -3.761  1.00 20.00     0.015 C 
HETATM    8  O11 UNL     1     -34.595  16.425  -7.360  1.00 20.00    -0.298 OA
ENDROOT
BRANCH   4   9
HETATM    9  C10 UNL     1     -34.074  18.046  -4.809  1.00 20.00    -0.011 C 
HETATM   10  C8  UNL     1     -33.804  18.276  -3.319  1.00 20.00     0.010 C 
HETATM   11  C9  UNL     1     -33.622  19.263  -5.620  1.00 20.00     0.010 C 
ENDBRANCH   4   9
TORSDOF 1
ENDMDL
MODEL 8
REMARK VINA RESULT:      -4.0      2.212      3.606
REMARK  1 active torsions:
REMARK  status: ('A' for Active; 'I' for Inactive)
REMARK    1  A    between atoms: C4_4  and  C10_10 
ROOT
HETATM    1  C1  UNL     1     -36.071  16.998  -3.299  1.00 20.00     0.132 C 
HETATM    2  C2  UNL     1     -36.084  17.768  -2.004  1.00 20.00     0.087 C 
HETATM    3  C3  UNL     1     -34.647  15.823  -1.805  1.00 20.00     0.021 C 
HETATM    4  C4  UNL     1     -35.202  15.766  -3.234  1.00 20.00     0.059 C 
HETATM    5  C5  UNL     1     -34.804  17.277  -1.311  1.00 20.00    -0.041 C 
HETATM    6  C6  UNL     1     -33.602  18.146  -1.709  1.00 20.00     0.015 C 
HETATM    7  C7  UNL     1     -34.955  17.318   0.214  1.00 20.00     0.015 C 
HETATM    8  O11 UNL     1     -36.719  17.326  -4.286  1.00 20.00    -0.298 OA
ENDROOT
BRANCH   4   9
HETATM    9  C10 UNL     1     -34.104  15.722  -4.283  1.00 20.00    -0.011 C 
HETATM   10  C8  UNL     1     -32.823  15.110  -3.709  1.00 20.00     0.010 C 
HETATM   11  C9  UNL     1     -34.556  14.940  -5.518  1.00 20.00     0.010 C 
ENDBRANCH   4   9
TORSDOF 1
ENDMDL
MODEL 9
REMARK VINA RESULT:      -4.0      1.698      2.388
REMARK  1 active torsions:
REMARK  status: ('A' for Active; 'I' for Inactive)
REMARK    1  A    between atoms: C4_4  and  C10_10 
ROOT
HETATM    1  C1  UNL     1     -36.090  15.200  -3.955  1.00 20.00     0.132 C 
HETATM    2  C2  UNL     1     -34.865  15.158  -3.079  1.00 20.00     0.087 C 
HETATM    3  C3  UNL     1     -34.445  13.987  -5.163  1.00 20.00     0.021 C 
HETATM    4  C4  UNL     1     -35.895  14.476  -5.264  1.00 20.00     0.059 C 
HETATM    5  C5  UNL     1     -33.747  14.844  -4.085  1.00 20.00    -0.041 C 
HETATM    6  C6  UNL     1     -33.167  16.139  -4.675  1.00 20.00     0.015 C 
HETATM    7  C7  UNL     1     -32.613  14.059  -3.418  1.00 20.00     0.015 C 
HETATM    8  O11 UNL     1     -37.138  15.743  -3.624  1.00 20.00    -0.298 OA
ENDROOT
BRANCH   4   9
HETATM    9  C10 UNL     1     -36.134  15.336  -6.494  1.00 20.00    -0.011 C 
HETATM   10  C8  UNL     1     -35.162  14.966  -7.617  1.00 20.00     0.010 C 
HETATM   11  C9  UNL     1     -37.579  15.206  -6.981  1.00 20.00     0.010 C 
ENDBRANCH   4   9
TORSDOF 1
ENDMDL
