MODEL 1
REMARK VINA RESULT:      -4.6      0.000      0.000
REMARK  4 active torsions:
REMARK  status: ('A' for Active; 'I' for Inactive)
REMARK    1  A    between atoms: C3_3  and  C4_4 
REMARK    2  A    between atoms: C4_4  and  C5_5 
REMARK    3  A    between atoms: C5_5  and  C6_6 
REMARK    4  A    between atoms: C6_6  and  C7_7 
ROOT
HETATM    1  C1  UNL     1     -32.163   8.714   1.772  1.00 20.00     0.087 C 
HETATM    2  C2  UNL     1     -32.189   7.554   2.591  1.00 20.00     0.089 C 
HETATM    3  C3  UNL     1     -33.335   6.922   2.877  1.00 20.00    -0.016 C 
HETATM    4  N8  UNL     1     -32.138   9.663   1.105  1.00 20.00    -0.192 NA
ENDROOT
BRANCH   3   5
HETATM    5  C4  UNL     1     -33.414   5.696   3.740  1.00 20.00     0.028 C 
BRANCH   5   6
HETATM    6  C5  UNL     1     -34.853   5.184   3.848  1.00 20.00     0.005 C 
BRANCH   6   7
HETATM    7  C6  UNL     1     -35.204   4.818   5.294  1.00 20.00     0.015 C 
BRANCH   7   8
HETATM    8  C7  UNL     1     -34.085   5.130   6.282  1.00 20.00     0.114 C 
HETATM    9 CL9  UNL     1     -34.017   6.859   6.691  1.00 20.00    -0.130 Cl
ENDBRANCH   7   8
ENDBRANCH   6   7
ENDBRANCH   5   6
ENDBRANCH   3   5
TORSDOF 4
ENDMDL
MODEL 2
REMARK VINA RESULT:      -4.3     10.956     11.769
REMARK  4 active torsions:
REMARK  status: ('A' for Active; 'I' for Inactive)
REMARK    1  A    between atoms: C3_3  and  C4_4 
REMARK    2  A    between atoms: C4_4  and  C5_5 
REMARK    3  A    between atoms: C5_5  and  C6_6 
REMARK    4  A    between atoms: C6_6  and  C7_7 
ROOT
HETATM    1  C1  UNL     1     -34.804  13.621  -3.988  1.00 20.00     0.087 C 
HETATM    2  C2  UNL     1     -34.819  14.753  -3.130  1.00 20.00     0.089 C 
HETATM    3  C3  UNL     1     -33.823  15.649  -3.132  1.00 20.00    -0.016 C 
HETATM    4  N8  UNL     1     -34.795  12.694  -4.686  1.00 20.00    -0.192 NA
ENDROOT
BRANCH   3   5
HETATM    5  C4  UNL     1     -33.790  16.858  -2.241  1.00 20.00     0.028 C 
BRANCH   5   6
HETATM    6  C5  UNL     1     -34.528  16.598  -0.925  1.00 20.00     0.005 C 
BRANCH   6   7
HETATM    7  C6  UNL     1     -34.323  17.754   0.060  1.00 20.00     0.015 C 
BRANCH   7   8
HETATM    8  C7  UNL     1     -33.351  18.814  -0.448  1.00 20.00     0.114 C 
HETATM    9 CL9  UNL     1     -31.810  18.787   0.438  1.00 20.00    -0.130 Cl
ENDBRANCH   7   8
ENDBRANCH   6   7
ENDBRANCH   5   6
ENDBRANCH   3   5
TORSDOF 4
ENDMDL
MODEL 3
REMARK VINA RESULT:      -4.2     10.735     11.260
REMARK  4 active torsions:
REMARK  status: ('A' for Active; 'I' for Inactive)
REMARK    1  A    between atoms: C3_3  and  C4_4 
REMARK    2  A    between atoms: C4_4  and  C5_5 
REMARK    3  A    between atoms: C5_5  and  C6_6 
REMARK    4  A    between atoms: C6_6  and  C7_7 
ROOT
HETATM    1  C1  UNL     1     -34.823  13.681  -4.005  1.00 20.00     0.087 C 
HETATM    2  C2  UNL     1     -34.881  14.823  -3.163  1.00 20.00     0.089 C 
HETATM    3  C3  UNL     1     -33.812  15.605  -2.965  1.00 20.00    -0.016 C 
HETATM    4  N8  UNL     1     -34.780  12.746  -4.691  1.00 20.00    -0.192 NA
ENDROOT
BRANCH   3   5
HETATM    5  C4  UNL     1     -33.822  16.819  -2.081  1.00 20.00     0.028 C 
BRANCH   5   6
HETATM    6  C5  UNL     1     -34.683  16.592  -0.835  1.00 20.00     0.005 C 
BRANCH   6   7
HETATM    7  C6  UNL     1     -34.425  17.674   0.219  1.00 20.00     0.015 C 
BRANCH   7   8
HETATM    8  C7  UNL     1     -35.528  17.768   1.268  1.00 20.00     0.114 C 
HETATM    9 CL9  UNL     1     -34.878  17.791   2.923  1.00 20.00    -0.130 Cl
ENDBRANCH   7   8
ENDBRANCH   6   7
ENDBRANCH   5   6
ENDBRANCH   3   5
TORSDOF 4
ENDMDL
MODEL 4
REMARK VINA RESULT:      -4.1      3.593      5.179
REMARK  4 active torsions:
REMARK  status: ('A' for Active; 'I' for Inactive)
REMARK    1  A    between atoms: C3_3  and  C4_4 
REMARK    2  A    between atoms: C4_4  and  C5_5 
REMARK    3  A    between atoms: C5_5  and  C6_6 
REMARK    4  A    between atoms: C6_6  and  C7_7 
ROOT
HETATM    1  C1  UNL     1     -34.917   4.830   6.051  1.00 20.00     0.087 C 
HETATM    2  C2  UNL     1     -34.156   5.484   5.046  1.00 20.00     0.089 C 
HETATM    3  C3  UNL     1     -34.437   5.337   3.745  1.00 20.00    -0.016 C 
HETATM    4  N8  UNL     1     -35.536   4.297   6.875  1.00 20.00    -0.192 NA
ENDROOT
BRANCH   3   5
HETATM    5  C4  UNL     1     -33.659   6.002   2.646  1.00 20.00     0.028 C 
BRANCH   5   6
HETATM    6  C5  UNL     1     -32.201   6.230   3.056  1.00 20.00     0.005 C 
BRANCH   6   7
HETATM    7  C6  UNL     1     -31.848   7.721   3.036  1.00 20.00     0.015 C 
BRANCH   7   8
HETATM    8  C7  UNL     1     -31.921   8.339   1.643  1.00 20.00     0.114 C 
HETATM    9 CL9  UNL     1     -32.647   9.962   1.669  1.00 20.00    -0.130 Cl
ENDBRANCH   7   8
ENDBRANCH   6   7
ENDBRANCH   5   6
ENDBRANCH   3   5
TORSDOF 4
ENDMDL
MODEL 5
REMARK VINA RESULT:      -4.1     10.954     11.864
REMARK  4 active torsions:
REMARK  status: ('A' for Active; 'I' for Inactive)
REMARK    1  A    between atoms: C3_3  and  C4_4 
REMARK    2  A    between atoms: C4_4  and  C5_5 
REMARK    3  A    between atoms: C5_5  and  C6_6 
REMARK    4  A    between atoms: C6_6  and  C7_7 
ROOT
HETATM    1  C1  UNL     1     -32.475  18.630   0.047  1.00 20.00     0.087 C 
HETATM    2  C2  UNL     1     -33.622  17.858  -0.279  1.00 20.00     0.089 C 
HETATM    3  C3  UNL     1     -33.674  17.112  -1.390  1.00 20.00    -0.016 C 
HETATM    4  N8  UNL     1     -31.540  19.263   0.316  1.00 20.00    -0.192 NA
ENDROOT
BRANCH   3   5
HETATM    5  C4  UNL     1     -34.865  16.284  -1.780  1.00 20.00     0.028 C 
BRANCH   5   6
HETATM    6  C5  UNL     1     -34.741  15.777  -3.220  1.00 20.00     0.005 C 
BRANCH   6   7
HETATM    7  C6  UNL     1     -33.415  15.040  -3.434  1.00 20.00     0.015 C 
BRANCH   7   8
HETATM    8  C7  UNL     1     -33.595  13.590  -3.875  1.00 20.00     0.114 C 
HETATM    9 CL9  UNL     1     -35.230  13.281  -4.502  1.00 20.00    -0.130 Cl
ENDBRANCH   7   8
ENDBRANCH   6   7
ENDBRANCH   5   6
ENDBRANCH   3   5
TORSDOF 4
ENDMDL
MODEL 6
REMARK VINA RESULT:      -4.1     11.359     11.995
REMARK  4 active torsions:
REMARK  status: ('A' for Active; 'I' for Inactive)
REMARK    1  A    between atoms: C3_3  and  C4_4 
REMARK    2  A    between atoms: C4_4  and  C5_5 
REMARK    3  A    between atoms: C5_5  and  C6_6 
REMARK    4  A    between atoms: C6_6  and  C7_7 
ROOT
HETATM    1  C1  UNL     1     -34.731  16.709  -0.735  1.00 20.00     0.087 C 
HETATM    2  C2  UNL     1     -34.641  16.013  -1.970  1.00 20.00     0.089 C 
HETATM    3  C3  UNL     1     -33.540  16.071  -2.730  1.00 20.00    -0.016 C 
HETATM    4  N8  UNL     1     -34.810  17.277   0.274  1.00 20.00    -0.192 NA
ENDROOT
BRANCH   3   5
HETATM    5  C4  UNL     1     -33.398  15.358  -4.044  1.00 20.00     0.028 C 
BRANCH   5   6
HETATM    6  C5  UNL     1     -33.522  13.842  -3.870  1.00 20.00     0.005 C 
BRANCH   6   7
HETATM    7  C6  UNL     1     -34.667  13.280  -4.718  1.00 20.00     0.015 C 
BRANCH   7   8
HETATM    8  C7  UNL     1     -35.431  14.354  -5.487  1.00 20.00     0.114 C 
HETATM    9 CL9  UNL     1     -34.929  14.441  -7.190  1.00 20.00    -0.130 Cl
ENDBRANCH   7   8
ENDBRANCH   6   7
ENDBRANCH   5   6
ENDBRANCH   3   5
TORSDOF 4
ENDMDL
MODEL 7
REMARK VINA RESULT:      -4.0     11.094     11.828
REMARK  4 active torsions:
REMARK  status: ('A' for Active; 'I' for Inactive)
REMARK    1  A    between atoms: C3_3  and  C4_4 
REMARK    2  A    between atoms: C4_4  and  C5_5 
REMARK    3  A    between atoms: C5_5  and  C6_6 
REMARK    4  A    between atoms: C6_6  and  C7_7 
ROOT
HETATM    1  C1  UNL     1     -34.849  17.351   0.403  1.00 20.00     0.087 C 
HETATM    2  C2  UNL     1     -34.773  16.641  -0.825  1.00 20.00     0.089 C 
HETATM    3  C3  UNL     1     -33.768  16.837  -1.688  1.00 20.00    -0.016 C 
HETATM    4  N8  UNL     1     -34.916  17.930   1.406  1.00 20.00    -0.192 NA
ENDROOT
BRANCH   3   5
HETATM    5  C4  UNL     1     -33.646  16.115  -3.000  1.00 20.00     0.028 C 
BRANCH   5   6
HETATM    6  C5  UNL     1     -34.758  15.077  -3.168  1.00 20.00     0.005 C 
BRANCH   6   7
HETATM    7  C6  UNL     1     -34.189  13.722  -3.603  1.00 20.00     0.015 C 
BRANCH   7   8
HETATM    8  C7  UNL     1     -34.696  13.265  -4.967  1.00 20.00     0.114 C 
HETATM    9 CL9  UNL     1     -34.566  14.546  -6.192  1.00 20.00    -0.130 Cl
ENDBRANCH   7   8
ENDBRANCH   6   7
ENDBRANCH   5   6
ENDBRANCH   3   5
TORSDOF 4
ENDMDL
MODEL 8
REMARK VINA RESULT:      -4.0     11.108     11.756
REMARK  4 active torsions:
REMARK  status: ('A' for Active; 'I' for Inactive)
REMARK    1  A    between atoms: C3_3  and  C4_4 
REMARK    2  A    between atoms: C4_4  and  C5_5 
REMARK    3  A    between atoms: C5_5  and  C6_6 
REMARK    4  A    between atoms: C6_6  and  C7_7 
ROOT
HETATM    1  C1  UNL     1     -34.825  13.636  -4.117  1.00 20.00     0.087 C 
HETATM    2  C2  UNL     1     -34.889  14.802  -3.308  1.00 20.00     0.089 C 
HETATM    3  C3  UNL     1     -33.787  15.486  -2.974  1.00 20.00    -0.016 C 
HETATM    4  N8  UNL     1     -34.778  12.683  -4.776  1.00 20.00    -0.192 NA
ENDROOT
BRANCH   3   5
HETATM    5  C4  UNL     1     -33.802  16.720  -2.119  1.00 20.00     0.028 C 
BRANCH   5   6
HETATM    6  C5  UNL     1     -34.715  16.542  -0.903  1.00 20.00     0.005 C 
BRANCH   6   7
HETATM    7  C6  UNL     1     -34.453  17.626   0.149  1.00 20.00     0.015 C 
BRANCH   7   8
HETATM    8  C7  UNL     1     -35.450  18.778   0.088  1.00 20.00     0.114 C 
HETATM    9 CL9  UNL     1     -36.848  18.399  -0.943  1.00 20.00    -0.130 Cl
ENDBRANCH   7   8
ENDBRANCH   6   7
ENDBRANCH   5   6
ENDBRANCH   3   5
TORSDOF 4
ENDMDL
MODEL 9
REMARK VINA RESULT:      -4.0      3.330      5.323
REMARK  4 active torsions:
REMARK  status: ('A' for Active; 'I' for Inactive)
REMARK    1  A    between atoms: C3_3  and  C4_4 
REMARK    2  A    between atoms: C4_4  and  C5_5 
REMARK    3  A    between atoms: C5_5  and  C6_6 
REMARK    4  A    between atoms: C6_6  and  C7_7 
ROOT
HETATM    1  C1  UNL     1     -34.815   5.039   5.373  1.00 20.00     0.087 C 
HETATM    2  C2  UNL     1     -34.281   5.363   4.097  1.00 20.00     0.089 C 
HETATM    3  C3  UNL     1     -33.108   5.997   3.967  1.00 20.00    -0.016 C 
HETATM    4  N8  UNL     1     -35.256   4.774   6.413  1.00 20.00    -0.192 NA
ENDROOT
BRANCH   3   5
HETATM    5  C4  UNL     1     -32.505   6.365   2.642  1.00 20.00     0.028 C 
BRANCH   5   6
HETATM    6  C5  UNL     1     -32.104   7.842   2.605  1.00 20.00     0.005 C 
BRANCH   6   7
HETATM    7  C6  UNL     1     -31.843   8.308   1.169  1.00 20.00     0.015 C 
BRANCH   7   8
HETATM    8  C7  UNL     1     -32.258   9.754   0.920  1.00 20.00     0.114 C 
HETATM    9 CL9  UNL     1     -32.795  10.562   2.410  1.00 20.00    -0.130 Cl
ENDBRANCH   7   8
ENDBRANCH   6   7
ENDBRANCH   5   6
ENDBRANCH   3   5
TORSDOF 4
ENDMDL
