MODEL 1
REMARK VINA RESULT:      -4.0      0.000      0.000
REMARK  1 active torsions:
REMARK  status: ('A' for Active; 'I' for Inactive)
REMARK    1  A    between atoms: C2_2  and  C4_4 
ROOT
HETATM    1  C1  UNL     1     -33.167   6.186   3.444  1.00 20.00     0.171 A 
HETATM    2  C2  UNL     1     -34.137   5.994   4.591  1.00 20.00     0.175 A 
HETATM    3  C3  UNL     1     -31.941   7.023   3.530  1.00 20.00     0.044 C 
HETATM    4  O5  UNL     1     -34.391   6.925   3.526  1.00 20.00    -0.352 OA
HETATM    5 CL6  UNL     1     -33.753   6.649   6.180  1.00 20.00    -0.084 Cl
ENDROOT
BRANCH   2   6
HETATM    6  C4  UNL     1     -35.057   4.818   4.583  1.00 20.00     0.172 C 
HETATM    7 CL7  UNL     1     -35.189   4.094   6.208  1.00 20.00    -0.126 Cl
ENDBRANCH   2   6
TORSDOF 1
ENDMDL
MODEL 2
REMARK VINA RESULT:      -3.6      2.363      3.667
REMARK  1 active torsions:
REMARK  status: ('A' for Active; 'I' for Inactive)
REMARK    1  A    between atoms: C2_2  and  C4_4 
ROOT
HETATM    1  C1  UNL     1     -33.954   5.739   5.003  1.00 20.00     0.171 A 
HETATM    2  C2  UNL     1     -33.491   6.006   3.586  1.00 20.00     0.175 A 
HETATM    3  C3  UNL     1     -35.054   4.800   5.349  1.00 20.00     0.044 C 
HETATM    4  O5  UNL     1     -34.378   6.899   4.278  1.00 20.00    -0.352 OA
HETATM    5 CL6  UNL     1     -34.151   5.059   2.257  1.00 20.00    -0.084 Cl
ENDROOT
BRANCH   2   6
HETATM    6  C4  UNL     1     -32.130   6.580   3.357  1.00 20.00     0.172 C 
HETATM    7 CL7  UNL     1     -32.202   7.977   2.249  1.00 20.00    -0.126 Cl
ENDBRANCH   2   6
TORSDOF 1
ENDMDL
MODEL 3
REMARK VINA RESULT:      -3.6      2.094      3.404
REMARK  1 active torsions:
REMARK  status: ('A' for Active; 'I' for Inactive)
REMARK    1  A    between atoms: C2_2  and  C4_4 
ROOT
HETATM    1  C1  UNL     1     -33.930   5.068   5.400  1.00 20.00     0.171 A 
HETATM    2  C2  UNL     1     -34.097   5.772   4.071  1.00 20.00     0.175 A 
HETATM    3  C3  UNL     1     -35.062   4.501   6.182  1.00 20.00     0.044 C 
HETATM    4  O5  UNL     1     -33.941   6.497   5.302  1.00 20.00    -0.352 OA
HETATM    5 CL6  UNL     1     -35.675   5.808   3.290  1.00 20.00    -0.084 Cl
ENDROOT
BRANCH   2   6
HETATM    6  C4  UNL     1     -32.922   5.897   3.156  1.00 20.00     0.172 C 
HETATM    7 CL7  UNL     1     -31.931   7.321   3.574  1.00 20.00    -0.126 Cl
ENDBRANCH   2   6
TORSDOF 1
ENDMDL
MODEL 4
REMARK VINA RESULT:      -3.4      1.994      2.182
REMARK  1 active torsions:
REMARK  status: ('A' for Active; 'I' for Inactive)
REMARK    1  A    between atoms: C2_2  and  C4_4 
ROOT
HETATM    1  C1  UNL     1     -32.411   7.282   3.391  1.00 20.00     0.171 A 
HETATM    2  C2  UNL     1     -33.356   6.142   3.707  1.00 20.00     0.175 A 
HETATM    3  C3  UNL     1     -32.179   7.806   2.018  1.00 20.00     0.044 C 
HETATM    4  O5  UNL     1     -31.937   5.946   3.598  1.00 20.00    -0.352 OA
HETATM    5 CL6  UNL     1     -34.378   5.475   2.438  1.00 20.00    -0.084 Cl
ENDROOT
BRANCH   2   6
HETATM    6  C4  UNL     1     -33.872   5.984   5.101  1.00 20.00     0.172 C 
HETATM    7 CL7  UNL     1     -35.089   4.683   5.192  1.00 20.00    -0.126 Cl
ENDBRANCH   2   6
TORSDOF 1
ENDMDL
MODEL 5
REMARK VINA RESULT:      -3.2     12.838     13.305
REMARK  1 active torsions:
REMARK  status: ('A' for Active; 'I' for Inactive)
REMARK    1  A    between atoms: C2_2  and  C4_4 
ROOT
HETATM    1  C1  UNL     1     -33.912  16.452  -5.217  1.00 20.00     0.171 A 
HETATM    2  C2  UNL     1     -33.795  15.997  -3.778  1.00 20.00     0.175 A 
HETATM    3  C3  UNL     1     -34.271  15.548  -6.343  1.00 20.00     0.044 C 
HETATM    4  O5  UNL     1     -32.642  16.171  -4.618  1.00 20.00    -0.352 OA
HETATM    5 CL6  UNL     1     -34.252  14.355  -3.339  1.00 20.00    -0.084 Cl
ENDROOT
BRANCH   2   6
HETATM    6  C4  UNL     1     -33.887  17.008  -2.681  1.00 20.00     0.172 C 
HETATM    7 CL7  UNL     1     -34.623  16.301  -1.217  1.00 20.00    -0.126 Cl
ENDBRANCH   2   6
TORSDOF 1
ENDMDL
MODEL 6
REMARK VINA RESULT:      -3.2      2.877      4.108
REMARK  1 active torsions:
REMARK  status: ('A' for Active; 'I' for Inactive)
REMARK    1  A    between atoms: C2_2  and  C4_4 
ROOT
HETATM    1  C1  UNL     1     -33.367   6.571   3.365  1.00 20.00     0.171 A 
HETATM    2  C2  UNL     1     -32.105   7.345   3.048  1.00 20.00     0.175 A 
HETATM    3  C3  UNL     1     -33.799   6.226   4.746  1.00 20.00     0.044 C 
HETATM    4  O5  UNL     1     -32.167   5.913   2.943  1.00 20.00    -0.352 OA
HETATM    5 CL6  UNL     1     -31.148   8.033   4.356  1.00 20.00    -0.084 Cl
ENDROOT
BRANCH   2   6
HETATM    6  C4  UNL     1     -31.980   8.032   1.727  1.00 20.00     0.172 C 
HETATM    7 CL7  UNL     1     -32.562   9.716   1.821  1.00 20.00    -0.126 Cl
ENDBRANCH   2   6
TORSDOF 1
ENDMDL
MODEL 7
REMARK VINA RESULT:      -3.2     11.881     12.640
REMARK  1 active torsions:
REMARK  status: ('A' for Active; 'I' for Inactive)
REMARK    1  A    between atoms: C2_2  and  C4_4 
ROOT
HETATM    1  C1  UNL     1     -34.648  14.122  -5.801  1.00 20.00     0.171 A 
HETATM    2  C2  UNL     1     -35.166  14.043  -4.381  1.00 20.00     0.175 A 
HETATM    3  C3  UNL     1     -35.516  14.370  -6.984  1.00 20.00     0.044 C 
HETATM    4  O5  UNL     1     -34.881  12.866  -5.154  1.00 20.00    -0.352 OA
HETATM    5 CL6  UNL     1     -36.854  14.413  -4.042  1.00 20.00    -0.084 Cl
ENDROOT
BRANCH   2   6
HETATM    6  C4  UNL     1     -34.220  14.250  -3.243  1.00 20.00     0.172 C 
HETATM    7 CL7  UNL     1     -34.642  15.713  -2.315  1.00 20.00    -0.126 Cl
ENDBRANCH   2   6
TORSDOF 1
ENDMDL
MODEL 8
REMARK VINA RESULT:      -3.2     12.306     12.657
REMARK  1 active torsions:
REMARK  status: ('A' for Active; 'I' for Inactive)
REMARK    1  A    between atoms: C2_2  and  C4_4 
ROOT
HETATM    1  C1  UNL     1     -34.452  13.796  -3.548  1.00 20.00     0.171 A 
HETATM    2  C2  UNL     1     -35.377  14.065  -4.717  1.00 20.00     0.175 A 
HETATM    3  C3  UNL     1     -32.968  13.798  -3.652  1.00 20.00     0.044 C 
HETATM    4  O5  UNL     1     -35.090  12.732  -4.264  1.00 20.00    -0.352 OA
HETATM    5 CL6  UNL     1     -34.707  14.568  -6.266  1.00 20.00    -0.084 Cl
ENDROOT
BRANCH   2   6
HETATM    6  C4  UNL     1     -36.784  14.492  -4.454  1.00 20.00     0.172 C 
HETATM    7 CL7  UNL     1     -36.975  16.251  -4.680  1.00 20.00    -0.126 Cl
ENDBRANCH   2   6
TORSDOF 1
ENDMDL
MODEL 9
REMARK VINA RESULT:      -3.1     12.811     13.232
REMARK  1 active torsions:
REMARK  status: ('A' for Active; 'I' for Inactive)
REMARK    1  A    between atoms: C2_2  and  C4_4 
ROOT
HETATM    1  C1  UNL     1     -34.847  14.955  -3.234  1.00 20.00     0.171 A 
HETATM    2  C2  UNL     1     -34.158  14.965  -4.582  1.00 20.00     0.175 A 
HETATM    3  C3  UNL     1     -34.608  15.974  -2.177  1.00 20.00     0.044 C 
HETATM    4  O5  UNL     1     -33.717  14.118  -3.508  1.00 20.00    -0.352 OA
HETATM    5 CL6  UNL     1     -33.131  16.324  -5.030  1.00 20.00    -0.084 Cl
ENDROOT
BRANCH   2   6
HETATM    6  C4  UNL     1     -34.766  14.213  -5.721  1.00 20.00     0.172 C 
HETATM    7 CL7  UNL     1     -34.351  14.967  -7.283  1.00 20.00    -0.126 Cl
ENDBRANCH   2   6
TORSDOF 1
ENDMDL
