MODEL 1
REMARK VINA RESULT:      -4.4      0.000      0.000
REMARK  2 active torsions:
REMARK  status: ('A' for Active; 'I' for Inactive)
REMARK    1  A    between atoms: C3_3  and  C5_5 
REMARK    2  A    between atoms: C3_3  and  O9_9 
ROOT
HETATM    1  C1  UNL     1     -34.530   5.303   5.917  1.00 20.00    -0.002 A 
HETATM    2  C2  UNL     1     -33.891   6.388   5.490  1.00 20.00     0.013 A 
HETATM    3  C4  UNL     1     -35.113   4.577   4.765  1.00 20.00     0.196 A 
HETATM    4  C5  UNL     1     -33.996   6.480   4.016  1.00 20.00     0.244 A 
HETATM    5  O8  UNL     1     -34.775   5.352   3.596  1.00 20.00    -0.368 OA
ENDROOT
BRANCH   4   6
HETATM    6  C3  UNL     1     -32.636   6.345   3.412  1.00 20.00     0.291 C 
HETATM    7  O7  UNL     1     -32.155   5.285   3.036  1.00 20.00    -0.262 OA
BRANCH   6   8
HETATM    8  O9  UNL     1     -32.041   7.571   3.355  1.00 20.00    -0.324 OA
HETATM    9  C6  UNL     1     -32.067   8.206   2.072  1.00 20.00     0.213 C 
ENDBRANCH   6   8
ENDBRANCH   4   6
TORSDOF 2
ENDMDL
MODEL 2
REMARK VINA RESULT:      -3.8     11.253     12.414
REMARK  2 active torsions:
REMARK  status: ('A' for Active; 'I' for Inactive)
REMARK    1  A    between atoms: C3_3  and  C5_5 
REMARK    2  A    between atoms: C3_3  and  O9_9 
ROOT
HETATM    1  C1  UNL     1     -34.564  16.515  -2.910  1.00 20.00    -0.002 A 
HETATM    2  C2  UNL     1     -34.576  15.193  -2.768  1.00 20.00     0.013 A 
HETATM    3  C4  UNL     1     -33.616  16.895  -3.983  1.00 20.00     0.196 A 
HETATM    4  C5  UNL     1     -33.634  14.580  -3.732  1.00 20.00     0.244 A 
HETATM    5  O8  UNL     1     -33.040  15.662  -4.459  1.00 20.00    -0.368 OA
ENDROOT
BRANCH   4   6
HETATM    6  C3  UNL     1     -34.397  13.740  -4.704  1.00 20.00     0.291 C 
HETATM    7  O7  UNL     1     -34.971  12.701  -4.409  1.00 20.00    -0.262 OA
BRANCH   6   8
HETATM    8  O9  UNL     1     -34.346  14.315  -5.940  1.00 20.00    -0.324 OA
HETATM    9  C6  UNL     1     -35.615  14.577  -6.548  1.00 20.00     0.213 C 
ENDBRANCH   6   8
ENDBRANCH   4   6
TORSDOF 2
ENDMDL
MODEL 3
REMARK VINA RESULT:      -3.8     11.147     12.588
REMARK  2 active torsions:
REMARK  status: ('A' for Active; 'I' for Inactive)
REMARK    1  A    between atoms: C3_3  and  C5_5 
REMARK    2  A    between atoms: C3_3  and  O9_9 
ROOT
HETATM    1  C1  UNL     1     -36.604  15.150  -6.231  1.00 20.00    -0.002 A 
HETATM    2  C2  UNL     1     -35.990  15.183  -5.051  1.00 20.00     0.013 A 
HETATM    3  C4  UNL     1     -35.665  14.674  -7.272  1.00 20.00     0.196 A 
HETATM    4  C5  UNL     1     -34.588  14.734  -5.207  1.00 20.00     0.244 A 
HETATM    5  O8  UNL     1     -34.411  14.442  -6.599  1.00 20.00    -0.368 OA
ENDROOT
BRANCH   4   6
HETATM    6  C3  UNL     1     -34.387  13.465  -4.445  1.00 20.00     0.291 C 
HETATM    7  O7  UNL     1     -35.196  12.549  -4.413  1.00 20.00    -0.262 OA
BRANCH   6   8
HETATM    8  O9  UNL     1     -33.180  13.503  -3.810  1.00 20.00    -0.324 OA
HETATM    9  C6  UNL     1     -32.639  14.811  -3.598  1.00 20.00     0.213 C 
ENDBRANCH   6   8
ENDBRANCH   4   6
TORSDOF 2
ENDMDL
MODEL 4
REMARK VINA RESULT:      -3.7     11.428     12.095
REMARK  2 active torsions:
REMARK  status: ('A' for Active; 'I' for Inactive)
REMARK    1  A    between atoms: C3_3  and  C5_5 
REMARK    2  A    between atoms: C3_3  and  O9_9 
ROOT
HETATM    1  C1  UNL     1     -34.804  13.289  -4.466  1.00 20.00    -0.002 A 
HETATM    2  C2  UNL     1     -33.796  13.830  -3.786  1.00 20.00     0.013 A 
HETATM    3  C4  UNL     1     -36.032  14.093  -4.266  1.00 20.00     0.196 A 
HETATM    4  C5  UNL     1     -34.268  15.040  -3.075  1.00 20.00     0.244 A 
HETATM    5  O8  UNL     1     -35.663  15.166  -3.377  1.00 20.00    -0.368 OA
ENDROOT
BRANCH   4   6
HETATM    6  C3  UNL     1     -33.571  16.242  -3.624  1.00 20.00     0.291 C 
HETATM    7  O7  UNL     1     -32.810  16.215  -4.581  1.00 20.00    -0.262 OA
BRANCH   6   8
HETATM    8  O9  UNL     1     -33.918  17.341  -2.895  1.00 20.00    -0.324 OA
HETATM    9  C6  UNL     1     -33.697  17.238  -1.484  1.00 20.00     0.213 C 
ENDBRANCH   6   8
ENDBRANCH   4   6
TORSDOF 2
ENDMDL
MODEL 5
REMARK VINA RESULT:      -3.7     10.835     11.935
REMARK  2 active torsions:
REMARK  status: ('A' for Active; 'I' for Inactive)
REMARK    1  A    between atoms: C3_3  and  C5_5 
REMARK    2  A    between atoms: C3_3  and  O9_9 
ROOT
HETATM    1  C1  UNL     1     -36.362  15.077  -5.807  1.00 20.00    -0.002 A 
HETATM    2  C2  UNL     1     -35.321  14.250  -5.757  1.00 20.00     0.013 A 
HETATM    3  C4  UNL     1     -37.198  14.905  -4.597  1.00 20.00     0.196 A 
HETATM    4  C5  UNL     1     -35.378  13.455  -4.509  1.00 20.00     0.244 A 
HETATM    5  O8  UNL     1     -36.563  13.871  -3.819  1.00 20.00    -0.368 OA
ENDROOT
BRANCH   4   6
HETATM    6  C3  UNL     1     -34.204  13.799  -3.649  1.00 20.00     0.291 C 
HETATM    7  O7  UNL     1     -33.134  13.208  -3.683  1.00 20.00    -0.262 OA
BRANCH   6   8
HETATM    8  O9  UNL     1     -34.523  14.853  -2.845  1.00 20.00    -0.324 OA
HETATM    9  C6  UNL     1     -33.653  15.986  -2.945  1.00 20.00     0.213 C 
ENDBRANCH   6   8
ENDBRANCH   4   6
TORSDOF 2
ENDMDL
MODEL 6
REMARK VINA RESULT:      -3.7     11.368     12.390
REMARK  2 active torsions:
REMARK  status: ('A' for Active; 'I' for Inactive)
REMARK    1  A    between atoms: C3_3  and  C5_5 
REMARK    2  A    between atoms: C3_3  and  O9_9 
ROOT
HETATM    1  C1  UNL     1     -34.487  15.662  -2.360  1.00 20.00    -0.002 A 
HETATM    2  C2  UNL     1     -33.798  15.155  -3.379  1.00 20.00     0.013 A 
HETATM    3  C4  UNL     1     -35.817  16.115  -2.831  1.00 20.00     0.196 A 
HETATM    4  C5  UNL     1     -34.609  15.229  -4.615  1.00 20.00     0.244 A 
HETATM    5  O8  UNL     1     -35.849  15.845  -4.247  1.00 20.00    -0.368 OA
ENDROOT
BRANCH   4   6
HETATM    6  C3  UNL     1     -34.911  13.845  -5.093  1.00 20.00     0.291 C 
HETATM    7  O7  UNL     1     -34.890  12.853  -4.378  1.00 20.00    -0.262 OA
BRANCH   6   8
HETATM    8  O9  UNL     1     -35.205  13.879  -6.424  1.00 20.00    -0.324 OA
HETATM    9  C6  UNL     1     -34.487  14.854  -7.188  1.00 20.00     0.213 C 
ENDBRANCH   6   8
ENDBRANCH   4   6
TORSDOF 2
ENDMDL
MODEL 7
REMARK VINA RESULT:      -3.6     11.299     12.237
REMARK  2 active torsions:
REMARK  status: ('A' for Active; 'I' for Inactive)
REMARK    1  A    between atoms: C3_3  and  C5_5 
REMARK    2  A    between atoms: C3_3  and  O9_9 
ROOT
HETATM    1  C1  UNL     1     -33.675  16.097  -2.878  1.00 20.00    -0.002 A 
HETATM    2  C2  UNL     1     -34.799  15.433  -2.621  1.00 20.00     0.013 A 
HETATM    3  C4  UNL     1     -32.895  15.380  -3.913  1.00 20.00     0.196 A 
HETATM    4  C5  UNL     1     -34.860  14.215  -3.460  1.00 20.00     0.244 A 
HETATM    5  O8  UNL     1     -33.657  14.200  -4.238  1.00 20.00    -0.368 OA
ENDROOT
BRANCH   4   6
HETATM    6  C3  UNL     1     -36.013  14.322  -4.405  1.00 20.00     0.291 C 
HETATM    7  O7  UNL     1     -35.909  14.646  -5.580  1.00 20.00    -0.262 OA
BRANCH   6   8
HETATM    8  O9  UNL     1     -37.167  14.005  -3.751  1.00 20.00    -0.324 OA
HETATM    9  C6  UNL     1     -38.282  14.861  -4.023  1.00 20.00     0.213 C 
ENDBRANCH   6   8
ENDBRANCH   4   6
TORSDOF 2
ENDMDL
MODEL 8
REMARK VINA RESULT:      -3.5     11.467     12.836
REMARK  2 active torsions:
REMARK  status: ('A' for Active; 'I' for Inactive)
REMARK    1  A    between atoms: C3_3  and  C5_5 
REMARK    2  A    between atoms: C3_3  and  O9_9 
ROOT
HETATM    1  C1  UNL     1     -33.820  15.795  -5.979  1.00 20.00    -0.002 A 
HETATM    2  C2  UNL     1     -35.099  15.431  -5.941  1.00 20.00     0.013 A 
HETATM    3  C4  UNL     1     -33.310  15.980  -4.601  1.00 20.00     0.196 A 
HETATM    4  C5  UNL     1     -35.550  15.345  -4.534  1.00 20.00     0.244 A 
HETATM    5  O8  UNL     1     -34.424  15.709  -3.726  1.00 20.00    -0.368 OA
ENDROOT
BRANCH   4   6
HETATM    6  C3  UNL     1     -35.905  13.929  -4.212  1.00 20.00     0.291 C 
HETATM    7  O7  UNL     1     -35.127  12.990  -4.304  1.00 20.00    -0.262 OA
BRANCH   6   8
HETATM    8  O9  UNL     1     -37.206  13.867  -3.809  1.00 20.00    -0.324 OA
HETATM    9  C6  UNL     1     -37.868  15.129  -3.675  1.00 20.00     0.213 C 
ENDBRANCH   6   8
ENDBRANCH   4   6
TORSDOF 2
ENDMDL
MODEL 9
REMARK VINA RESULT:      -3.4      1.361      1.839
REMARK  2 active torsions:
REMARK  status: ('A' for Active; 'I' for Inactive)
REMARK    1  A    between atoms: C3_3  and  C5_5 
REMARK    2  A    between atoms: C3_3  and  O9_9 
ROOT
HETATM    1  C1  UNL     1     -35.106   4.997   6.285  1.00 20.00    -0.002 A 
HETATM    2  C2  UNL     1     -34.545   4.479   5.196  1.00 20.00     0.013 A 
HETATM    3  C4  UNL     1     -34.435   6.268   6.639  1.00 20.00     0.196 A 
HETATM    4  C5  UNL     1     -33.450   5.361   4.733  1.00 20.00     0.244 A 
HETATM    5  O8  UNL     1     -33.393   6.453   5.659  1.00 20.00    -0.368 OA
ENDROOT
BRANCH   4   6
HETATM    6  C3  UNL     1     -33.795   5.917   3.390  1.00 20.00     0.291 C 
HETATM    7  O7  UNL     1     -34.354   5.281   2.508  1.00 20.00    -0.262 OA
BRANCH   6   8
HETATM    8  O9  UNL     1     -33.391   7.218   3.320  1.00 20.00    -0.324 OA
HETATM    9  C6  UNL     1     -32.183   7.447   2.587  1.00 20.00     0.213 C 
ENDBRANCH   6   8
ENDBRANCH   4   6
TORSDOF 2
ENDMDL
