MODEL 1
REMARK VINA RESULT:      -4.6      0.000      0.000
REMARK  2 active torsions:
REMARK  status: ('A' for Active; 'I' for Inactive)
REMARK    1  A    between atoms: C5_5  and  O12_12 
REMARK    2  A    between atoms: C6_6  and  C11_11 
ROOT
HETATM    1  C1  UNL     1     -33.896  17.614  -5.033  1.00 20.00    -0.021 C 
HETATM    2  C2  UNL     1     -33.975  16.325  -5.409  1.00 20.00    -0.059 C 
HETATM    3  C3  UNL     1     -33.775  18.061  -3.606  1.00 20.00     0.032 C 
HETATM    4  C4  UNL     1     -33.423  15.639  -3.018  1.00 20.00     0.042 C 
HETATM    5  C5  UNL     1     -33.902  15.196  -4.409  1.00 20.00     0.149 C 
HETATM    6  C6  UNL     1     -34.092  16.952  -2.591  1.00 20.00    -0.005 C 
HETATM    7  C7  UNL     1     -34.114  15.939  -6.854  1.00 20.00     0.046 C 
ENDROOT
BRANCH   6   8
HETATM    8  C11 UNL     1     -33.654  17.362  -1.187  1.00 20.00    -0.018 C 
HETATM    9  C8  UNL     1     -33.249  18.834  -1.159  1.00 20.00     0.010 C 
HETATM   10  C9  UNL     1     -34.765  17.092  -0.176  1.00 20.00     0.010 C 
ENDBRANCH   6   8
BRANCH   5  11
HETATM   11  O12 UNL     1     -35.195  14.607  -4.269  1.00 20.00    -0.386 OA
HETATM   12  C10 UNL     1     -35.134  13.194  -4.388  1.00 20.00     0.202 C 
ENDBRANCH   5  11
TORSDOF 2
ENDMDL
MODEL 2
REMARK VINA RESULT:      -4.6      1.649      4.537
REMARK  2 active torsions:
REMARK  status: ('A' for Active; 'I' for Inactive)
REMARK    1  A    between atoms: C5_5  and  O12_12 
REMARK    2  A    between atoms: C6_6  and  C11_11 
ROOT
HETATM    1  C1  UNL     1     -33.441  16.069  -3.196  1.00 20.00    -0.021 C 
HETATM    2  C2  UNL     1     -34.647  16.190  -2.613  1.00 20.00    -0.059 C 
HETATM    3  C3  UNL     1     -33.244  15.817  -4.662  1.00 20.00     0.032 C 
HETATM    4  C4  UNL     1     -35.714  16.228  -4.926  1.00 20.00     0.042 C 
HETATM    5  C5  UNL     1     -35.928  16.124  -3.410  1.00 20.00     0.149 C 
HETATM    6  C6  UNL     1     -34.526  15.369  -5.380  1.00 20.00    -0.005 C 
HETATM    7  C7  UNL     1     -34.782  16.424  -1.135  1.00 20.00     0.046 C 
ENDROOT
BRANCH   6   8
HETATM    8  C11 UNL     1     -34.347  15.432  -6.896  1.00 20.00    -0.018 C 
HETATM    9  C8  UNL     1     -35.321  14.484  -7.591  1.00 20.00     0.010 C 
HETATM   10  C9  UNL     1     -34.534  16.861  -7.400  1.00 20.00     0.010 C 
ENDBRANCH   6   8
BRANCH   5  11
HETATM   11  O12 UNL     1     -36.591  14.889  -3.136  1.00 20.00    -0.386 OA
HETATM   12  C10 UNL     1     -37.839  14.813  -3.807  1.00 20.00     0.202 C 
ENDBRANCH   5  11
TORSDOF 2
ENDMDL
MODEL 3
REMARK VINA RESULT:      -4.5      1.569      1.700
REMARK  2 active torsions:
REMARK  status: ('A' for Active; 'I' for Inactive)
REMARK    1  A    between atoms: C5_5  and  O12_12 
REMARK    2  A    between atoms: C6_6  and  C11_11 
ROOT
HETATM    1  C1  UNL     1     -33.717  15.918  -5.646  1.00 20.00    -0.021 C 
HETATM    2  C2  UNL     1     -34.779  15.098  -5.741  1.00 20.00    -0.059 C 
HETATM    3  C3  UNL     1     -33.298  16.597  -4.376  1.00 20.00     0.032 C 
HETATM    4  C4  UNL     1     -34.992  15.151  -3.202  1.00 20.00     0.042 C 
HETATM    5  C5  UNL     1     -35.629  14.751  -4.541  1.00 20.00     0.149 C 
HETATM    6  C6  UNL     1     -34.372  16.552  -3.278  1.00 20.00    -0.005 C 
HETATM    7  C7  UNL     1     -35.162  14.461  -7.047  1.00 20.00     0.046 C 
ENDROOT
BRANCH   6   8
HETATM    8  C11 UNL     1     -33.786  16.969  -1.930  1.00 20.00    -0.018 C 
HETATM    9  C8  UNL     1     -33.515  18.471  -1.904  1.00 20.00     0.010 C 
HETATM   10  C9  UNL     1     -34.721  16.571  -0.791  1.00 20.00     0.010 C 
ENDBRANCH   6   8
BRANCH   5  11
HETATM   11  O12 UNL     1     -36.890  15.410  -4.650  1.00 20.00    -0.386 OA
HETATM   12  C10 UNL     1     -37.858  14.819  -3.797  1.00 20.00     0.202 C 
ENDBRANCH   5  11
TORSDOF 2
ENDMDL
MODEL 4
REMARK VINA RESULT:      -4.4      1.659      4.660
REMARK  2 active torsions:
REMARK  status: ('A' for Active; 'I' for Inactive)
REMARK    1  A    between atoms: C5_5  and  O12_12 
REMARK    2  A    between atoms: C6_6  and  C11_11 
ROOT
HETATM    1  C1  UNL     1     -34.748  15.926  -1.950  1.00 20.00    -0.021 C 
HETATM    2  C2  UNL     1     -34.003  17.030  -2.136  1.00 20.00    -0.059 C 
HETATM    3  C3  UNL     1     -35.201  15.027  -3.062  1.00 20.00     0.032 C 
HETATM    4  C4  UNL     1     -33.670  16.343  -4.566  1.00 20.00     0.042 C 
HETATM    5  C5  UNL     1     -33.513  17.441  -3.504  1.00 20.00     0.149 C 
HETATM    6  C6  UNL     1     -35.035  15.653  -4.456  1.00 20.00    -0.005 C 
HETATM    7  C7  UNL     1     -33.596  17.903  -0.982  1.00 20.00     0.046 C 
ENDROOT
BRANCH   6   8
HETATM    8  C11 UNL     1     -35.210  14.598  -5.546  1.00 20.00    -0.018 C 
HETATM    9  C8  UNL     1     -34.444  14.996  -6.806  1.00 20.00     0.010 C 
HETATM   10  C9  UNL     1     -34.751  13.229  -5.049  1.00 20.00     0.010 C 
ENDBRANCH   6   8
BRANCH   5  11
HETATM   11  O12 UNL     1     -34.239  18.590  -3.939  1.00 20.00    -0.386 OA
HETATM   12  C10 UNL     1     -33.647  19.170  -5.091  1.00 20.00     0.202 C 
ENDBRANCH   5  11
TORSDOF 2
ENDMDL
MODEL 5
REMARK VINA RESULT:      -4.3      1.460      2.629
REMARK  2 active torsions:
REMARK  status: ('A' for Active; 'I' for Inactive)
REMARK    1  A    between atoms: C5_5  and  O12_12 
REMARK    2  A    between atoms: C6_6  and  C11_11 
ROOT
HETATM    1  C1  UNL     1     -34.434  14.392  -4.265  1.00 20.00    -0.021 C 
HETATM    2  C2  UNL     1     -34.756  15.115  -5.353  1.00 20.00    -0.059 C 
HETATM    3  C3  UNL     1     -34.046  14.995  -2.947  1.00 20.00     0.032 C 
HETATM    4  C4  UNL     1     -34.756  17.212  -3.907  1.00 20.00     0.042 C 
HETATM    5  C5  UNL     1     -34.798  16.624  -5.325  1.00 20.00     0.149 C 
HETATM    6  C6  UNL     1     -33.717  16.493  -3.037  1.00 20.00    -0.005 C 
HETATM    7  C7  UNL     1     -35.118  14.453  -6.653  1.00 20.00     0.046 C 
ENDROOT
BRANCH   6   8
HETATM    8  C11 UNL     1     -33.639  17.114  -1.644  1.00 20.00    -0.018 C 
HETATM    9  C8  UNL     1     -33.694  18.638  -1.731  1.00 20.00     0.010 C 
HETATM   10  C9  UNL     1     -34.764  16.586  -0.757  1.00 20.00     0.010 C 
ENDBRANCH   6   8
BRANCH   5  11
HETATM   11  O12 UNL     1     -33.686  17.140  -6.055  1.00 20.00    -0.386 OA
HETATM   12  C10 UNL     1     -33.849  18.521  -6.337  1.00 20.00     0.202 C 
ENDBRANCH   5  11
TORSDOF 2
ENDMDL
MODEL 6
REMARK VINA RESULT:      -4.3      1.215      4.228
REMARK  2 active torsions:
REMARK  status: ('A' for Active; 'I' for Inactive)
REMARK    1  A    between atoms: C5_5  and  O12_12 
REMARK    2  A    between atoms: C6_6  and  C11_11 
ROOT
HETATM    1  C1  UNL     1     -33.769  17.371  -3.399  1.00 20.00    -0.021 C 
HETATM    2  C2  UNL     1     -34.478  16.443  -2.732  1.00 20.00    -0.059 C 
HETATM    3  C3  UNL     1     -33.640  17.407  -4.893  1.00 20.00     0.032 C 
HETATM    4  C4  UNL     1     -35.412  15.620  -4.955  1.00 20.00     0.042 C 
HETATM    5  C5  UNL     1     -35.255  15.365  -3.448  1.00 20.00     0.149 C 
HETATM    6  C6  UNL     1     -34.097  16.109  -5.576  1.00 20.00    -0.005 C 
HETATM    7  C7  UNL     1     -34.556  16.447  -1.231  1.00 20.00     0.046 C 
ENDROOT
BRANCH   6   8
HETATM    8  C11 UNL     1     -34.240  16.311  -7.083  1.00 20.00    -0.018 C 
HETATM    9  C8  UNL     1     -34.850  15.072  -7.735  1.00 20.00     0.010 C 
HETATM   10  C9  UNL     1     -35.086  17.546  -7.381  1.00 20.00     0.010 C 
ENDBRANCH   6   8
BRANCH   5  11
HETATM   11  O12 UNL     1     -34.594  14.112  -3.274  1.00 20.00    -0.386 OA
HETATM   12  C10 UNL     1     -35.024  13.162  -4.237  1.00 20.00     0.202 C 
ENDBRANCH   5  11
TORSDOF 2
ENDMDL
MODEL 7
REMARK VINA RESULT:      -4.3      1.472      1.582
REMARK  2 active torsions:
REMARK  status: ('A' for Active; 'I' for Inactive)
REMARK    1  A    between atoms: C5_5  and  O12_12 
REMARK    2  A    between atoms: C6_6  and  C11_11 
ROOT
HETATM    1  C1  UNL     1     -36.209  17.550  -3.755  1.00 20.00    -0.021 C 
HETATM    2  C2  UNL     1     -35.786  16.505  -4.488  1.00 20.00    -0.059 C 
HETATM    3  C3  UNL     1     -35.770  17.813  -2.344  1.00 20.00     0.032 C 
HETATM    4  C4  UNL     1     -34.075  15.981  -2.674  1.00 20.00     0.042 C 
HETATM    5  C5  UNL     1     -34.779  15.513  -3.956  1.00 20.00     0.149 C 
HETATM    6  C6  UNL     1     -35.070  16.612  -1.691  1.00 20.00    -0.005 C 
HETATM    7  C7  UNL     1     -36.275  16.284  -5.891  1.00 20.00     0.046 C 
ENDROOT
BRANCH   6   8
HETATM    8  C11 UNL     1     -34.376  17.029  -0.396  1.00 20.00    -0.018 C 
HETATM    9  C8  UNL     1     -33.273  18.045  -0.681  1.00 20.00     0.010 C 
HETATM   10  C9  UNL     1     -35.387  17.597   0.597  1.00 20.00     0.010 C 
ENDBRANCH   6   8
BRANCH   5  11
HETATM   11  O12 UNL     1     -35.437  14.277  -3.678  1.00 20.00    -0.386 OA
HETATM   12  C10 UNL     1     -34.884  13.215  -4.438  1.00 20.00     0.202 C 
ENDBRANCH   5  11
TORSDOF 2
ENDMDL
MODEL 8
REMARK VINA RESULT:      -4.2      2.109      5.011
REMARK  2 active torsions:
REMARK  status: ('A' for Active; 'I' for Inactive)
REMARK    1  A    between atoms: C5_5  and  O12_12 
REMARK    2  A    between atoms: C6_6  and  C11_11 
ROOT
HETATM    1  C1  UNL     1     -34.270  14.806  -3.029  1.00 20.00    -0.021 C 
HETATM    2  C2  UNL     1     -34.841  15.940  -2.587  1.00 20.00    -0.059 C 
HETATM    3  C3  UNL     1     -34.481  14.245  -4.404  1.00 20.00     0.032 C 
HETATM    4  C4  UNL     1     -35.648  16.406  -4.958  1.00 20.00     0.042 C 
HETATM    5  C5  UNL     1     -35.727  16.784  -3.472  1.00 20.00     0.149 C 
HETATM    6  C6  UNL     1     -35.665  14.883  -5.146  1.00 20.00    -0.005 C 
HETATM    7  C7  UNL     1     -34.607  16.443  -1.190  1.00 20.00     0.046 C 
ENDROOT
BRANCH   6   8
HETATM    8  C11 UNL     1     -35.640  14.510  -6.627  1.00 20.00    -0.018 C 
HETATM    9  C8  UNL     1     -36.881  15.046  -7.337  1.00 20.00     0.010 C 
HETATM   10  C9  UNL     1     -34.371  15.036  -7.293  1.00 20.00     0.010 C 
ENDBRANCH   6   8
BRANCH   5  11
HETATM   11  O12 UNL     1     -37.083  16.650  -3.049  1.00 20.00    -0.386 OA
HETATM   12  C10 UNL     1     -37.700  17.917  -2.881  1.00 20.00     0.202 C 
ENDBRANCH   5  11
TORSDOF 2
ENDMDL
MODEL 9
REMARK VINA RESULT:      -4.0      1.833      2.572
REMARK  2 active torsions:
REMARK  status: ('A' for Active; 'I' for Inactive)
REMARK    1  A    between atoms: C5_5  and  O12_12 
REMARK    2  A    between atoms: C6_6  and  C11_11 
ROOT
HETATM    1  C1  UNL     1     -33.608  14.673  -3.615  1.00 20.00    -0.021 C 
HETATM    2  C2  UNL     1     -34.689  14.172  -4.238  1.00 20.00    -0.059 C 
HETATM    3  C3  UNL     1     -33.646  15.866  -2.706  1.00 20.00     0.032 C 
HETATM    4  C4  UNL     1     -36.156  15.723  -2.847  1.00 20.00     0.042 C 
HETATM    5  C5  UNL     1     -36.068  14.754  -4.035  1.00 20.00     0.149 C 
HETATM    6  C6  UNL     1     -34.950  16.671  -2.813  1.00 20.00    -0.005 C 
HETATM    7  C7  UNL     1     -34.586  12.985  -5.154  1.00 20.00     0.046 C 
ENDROOT
BRANCH   6   8
HETATM    8  C11 UNL     1     -35.065  17.669  -1.662  1.00 20.00    -0.018 C 
HETATM    9  C8  UNL     1     -36.477  18.247  -1.592  1.00 20.00     0.010 C 
HETATM   10  C9  UNL     1     -34.690  17.008  -0.338  1.00 20.00     0.010 C 
ENDBRANCH   6   8
BRANCH   5  11
HETATM   11  O12 UNL     1     -36.462  15.456  -5.214  1.00 20.00    -0.386 OA
HETATM   12  C10 UNL     1     -37.836  15.810  -5.169  1.00 20.00     0.202 C 
ENDBRANCH   5  11
TORSDOF 2
ENDMDL
