MODEL 1
REMARK VINA RESULT:      -5.3      0.000      0.000
REMARK  1 active torsions:
REMARK  status: ('A' for Active; 'I' for Inactive)
REMARK    1  A    between atoms: C3_3  and  C6_6 
ROOT
HETATM    1  C1  UNL     1     -34.894  15.175  -2.694  1.00 20.00    -0.009 C 
HETATM    2  C2  UNL     1     -34.487  16.372  -2.233  1.00 20.00    -0.086 C 
HETATM    3  C4  UNL     1     -33.965  17.446  -3.154  1.00 20.00     0.037 C 
HETATM    4  C5  UNL     1     -34.008  15.735  -5.005  1.00 20.00     0.023 C 
HETATM    5  C6  UNL     1     -34.845  14.789  -4.141  1.00 20.00     0.110 C 
HETATM    6  C7  UNL     1     -34.290  17.196  -4.638  1.00 20.00    -0.014 C 
HETATM    7  C8  UNL     1     -34.519  16.712  -0.771  1.00 20.00     0.043 C 
HETATM    8  C9  UNL     1     -33.503  18.150  -5.534  1.00 20.00     0.010 C 
ENDROOT
BRANCH   5   9
HETATM    9  C3  UNL     1     -34.187  13.427  -4.222  1.00 20.00     0.180 C 
HETATM   10  O10 UNL     1     -33.052  13.343  -3.677  1.00 20.00    -0.647 OA
HETATM   11  O11 UNL     1     -34.864  12.548  -4.826  1.00 20.00    -0.647 OA
ENDBRANCH   5   9
TORSDOF 1
ENDMDL
MODEL 2
REMARK VINA RESULT:      -5.3      0.857      2.849
REMARK  1 active torsions:
REMARK  status: ('A' for Active; 'I' for Inactive)
REMARK    1  A    between atoms: C3_3  and  C6_6 
ROOT
HETATM    1  C1  UNL     1     -33.544  15.916  -5.096  1.00 20.00    -0.009 C 
HETATM    2  C2  UNL     1     -33.715  17.182  -4.674  1.00 20.00    -0.086 C 
HETATM    3  C4  UNL     1     -34.112  17.503  -3.254  1.00 20.00     0.037 C 
HETATM    4  C5  UNL     1     -34.478  15.032  -2.909  1.00 20.00     0.023 C 
HETATM    5  C6  UNL     1     -33.753  14.720  -4.220  1.00 20.00     0.110 C 
HETATM    6  C7  UNL     1     -33.933  16.321  -2.284  1.00 20.00    -0.014 C 
HETATM    7  C8  UNL     1     -33.528  18.356  -5.590  1.00 20.00     0.043 C 
HETATM    8  C9  UNL     1     -34.609  16.612  -0.946  1.00 20.00     0.010 C 
ENDROOT
BRANCH   5   9
HETATM    9  C3  UNL     1     -34.632  13.750  -4.983  1.00 20.00     0.180 C 
HETATM   10  O10 UNL     1     -34.947  12.701  -4.358  1.00 20.00    -0.647 OA
HETATM   11  O11 UNL     1     -34.937  14.121  -6.152  1.00 20.00    -0.647 OA
ENDBRANCH   5   9
TORSDOF 1
ENDMDL
MODEL 3
REMARK VINA RESULT:      -4.7      1.415      2.597
REMARK  1 active torsions:
REMARK  status: ('A' for Active; 'I' for Inactive)
REMARK    1  A    between atoms: C3_3  and  C6_6 
ROOT
HETATM    1  C1  UNL     1     -35.823  14.907  -4.323  1.00 20.00    -0.009 C 
HETATM    2  C2  UNL     1     -36.546  15.671  -3.485  1.00 20.00    -0.086 C 
HETATM    3  C4  UNL     1     -35.899  16.506  -2.407  1.00 20.00     0.037 C 
HETATM    4  C5  UNL     1     -33.727  15.353  -2.965  1.00 20.00     0.023 C 
HETATM    5  C6  UNL     1     -34.331  14.790  -4.253  1.00 20.00     0.110 C 
HETATM    6  C7  UNL     1     -34.382  16.689  -2.599  1.00 20.00    -0.014 C 
HETATM    7  C8  UNL     1     -38.043  15.738  -3.564  1.00 20.00     0.043 C 
HETATM    8  C9  UNL     1     -33.747  17.290  -1.347  1.00 20.00     0.010 C 
ENDROOT
BRANCH   5   9
HETATM    9  C3  UNL     1     -33.993  13.313  -4.284  1.00 20.00     0.180 C 
HETATM   10  O10 UNL     1     -34.847  12.577  -4.850  1.00 20.00    -0.647 OA
HETATM   11  O11 UNL     1     -32.895  13.010  -3.736  1.00 20.00    -0.647 OA
ENDBRANCH   5   9
TORSDOF 1
ENDMDL
MODEL 4
REMARK VINA RESULT:      -4.6      2.475      3.702
REMARK  1 active torsions:
REMARK  status: ('A' for Active; 'I' for Inactive)
REMARK    1  A    between atoms: C3_3  and  C6_6 
ROOT
HETATM    1  C1  UNL     1     -33.613  17.020  -3.317  1.00 20.00    -0.009 C 
HETATM    2  C2  UNL     1     -34.285  16.173  -2.516  1.00 20.00    -0.086 C 
HETATM    3  C4  UNL     1     -34.738  14.816  -2.993  1.00 20.00     0.037 C 
HETATM    4  C5  UNL     1     -34.029  15.508  -5.311  1.00 20.00     0.023 C 
HETATM    5  C6  UNL     1     -33.279  16.715  -4.745  1.00 20.00     0.110 C 
HETATM    6  C7  UNL     1     -34.055  14.361  -4.295  1.00 20.00    -0.014 C 
HETATM    7  C8  UNL     1     -34.632  16.527  -1.099  1.00 20.00     0.043 C 
HETATM    8  C9  UNL     1     -34.751  13.130  -4.871  1.00 20.00     0.010 C 
ENDROOT
BRANCH   5   9
HETATM    9  C3  UNL     1     -33.694  17.914  -5.571  1.00 20.00     0.180 C 
HETATM   10  O10 UNL     1     -34.309  17.646  -6.640  1.00 20.00    -0.647 OA
HETATM   11  O11 UNL     1     -33.370  19.033  -5.081  1.00 20.00    -0.647 OA
ENDBRANCH   5   9
TORSDOF 1
ENDMDL
MODEL 5
REMARK VINA RESULT:      -4.6      1.441      2.702
REMARK  1 active torsions:
REMARK  status: ('A' for Active; 'I' for Inactive)
REMARK    1  A    between atoms: C3_3  and  C6_6 
ROOT
HETATM    1  C1  UNL     1     -33.733  15.802  -4.032  1.00 20.00    -0.009 C 
HETATM    2  C2  UNL     1     -34.282  16.900  -4.582  1.00 20.00    -0.086 C 
HETATM    3  C4  UNL     1     -35.758  17.194  -4.470  1.00 20.00     0.037 C 
HETATM    4  C5  UNL     1     -36.036  14.892  -3.479  1.00 20.00     0.023 C 
HETATM    5  C6  UNL     1     -34.523  14.767  -3.292  1.00 20.00     0.110 C 
HETATM    6  C7  UNL     1     -36.472  16.359  -3.392  1.00 20.00    -0.014 C 
HETATM    7  C8  UNL     1     -33.465  17.900  -5.346  1.00 20.00     0.043 C 
HETATM    8  C9  UNL     1     -37.988  16.491  -3.520  1.00 20.00     0.010 C 
ENDROOT
BRANCH   5   9
HETATM    9  C3  UNL     1     -34.125  13.415  -3.847  1.00 20.00     0.180 C 
HETATM   10  O10 UNL     1     -32.899  13.132  -3.751  1.00 20.00    -0.647 OA
HETATM   11  O11 UNL     1     -35.077  12.742  -4.334  1.00 20.00    -0.647 OA
ENDBRANCH   5   9
TORSDOF 1
ENDMDL
MODEL 6
REMARK VINA RESULT:      -4.4      1.819      3.282
REMARK  1 active torsions:
REMARK  status: ('A' for Active; 'I' for Inactive)
REMARK    1  A    between atoms: C3_3  and  C6_6 
ROOT
HETATM    1  C1  UNL     1     -34.685  15.987  -4.967  1.00 20.00    -0.009 C 
HETATM    2  C2  UNL     1     -34.090  17.121  -4.556  1.00 20.00    -0.086 C 
HETATM    3  C4  UNL     1     -33.996  17.489  -3.096  1.00 20.00     0.037 C 
HETATM    4  C5  UNL     1     -35.529  15.547  -2.615  1.00 20.00     0.023 C 
HETATM    5  C6  UNL     1     -35.327  15.007  -4.032  1.00 20.00     0.110 C 
HETATM    6  C7  UNL     1     -34.289  16.314  -2.145  1.00 20.00    -0.014 C 
HETATM    7  C8  UNL     1     -33.487  18.096  -5.524  1.00 20.00     0.043 C 
HETATM    8  C9  UNL     1     -34.457  16.808  -0.710  1.00 20.00     0.010 C 
ENDROOT
BRANCH   5   9
HETATM    9  C3  UNL     1     -36.704  14.696  -4.581  1.00 20.00     0.180 C 
HETATM   10  O10 UNL     1     -37.499  14.152  -3.766  1.00 20.00    -0.647 OA
HETATM   11  O11 UNL     1     -36.878  15.024  -5.789  1.00 20.00    -0.647 OA
ENDBRANCH   5   9
TORSDOF 1
ENDMDL
MODEL 7
REMARK VINA RESULT:      -4.4      1.877      2.342
REMARK  1 active torsions:
REMARK  status: ('A' for Active; 'I' for Inactive)
REMARK    1  A    between atoms: C3_3  and  C6_6 
ROOT
HETATM    1  C1  UNL     1     -34.772  15.066  -2.788  1.00 20.00    -0.009 C 
HETATM    2  C2  UNL     1     -34.943  16.318  -2.326  1.00 20.00    -0.086 C 
HETATM    3  C4  UNL     1     -36.098  17.182  -2.770  1.00 20.00     0.037 C 
HETATM    4  C5  UNL     1     -36.626  15.411  -4.486  1.00 20.00     0.023 C 
HETATM    5  C6  UNL     1     -35.681  14.428  -3.794  1.00 20.00     0.110 C 
HETATM    6  C7  UNL     1     -37.220  16.395  -3.472  1.00 20.00    -0.014 C 
HETATM    7  C8  UNL     1     -33.993  16.938  -1.343  1.00 20.00     0.043 C 
HETATM    8  C9  UNL     1     -38.210  17.345  -4.142  1.00 20.00     0.010 C 
ENDROOT
BRANCH   5   9
HETATM    9  C3  UNL     1     -34.805  13.829  -4.876  1.00 20.00     0.180 C 
HETATM   10  O10 UNL     1     -34.694  12.573  -4.846  1.00 20.00    -0.647 OA
HETATM   11  O11 UNL     1     -34.299  14.670  -5.671  1.00 20.00    -0.647 OA
ENDBRANCH   5   9
TORSDOF 1
ENDMDL
MODEL 8
REMARK VINA RESULT:      -4.4      2.756      3.647
REMARK  1 active torsions:
REMARK  status: ('A' for Active; 'I' for Inactive)
REMARK    1  A    between atoms: C3_3  and  C6_6 
ROOT
HETATM    1  C1  UNL     1     -36.230  16.457  -2.771  1.00 20.00    -0.009 C 
HETATM    2  C2  UNL     1     -35.039  16.072  -2.278  1.00 20.00    -0.086 C 
HETATM    3  C4  UNL     1     -34.256  14.934  -2.884  1.00 20.00     0.037 C 
HETATM    4  C5  UNL     1     -36.274  14.443  -4.313  1.00 20.00     0.023 C 
HETATM    5  C6  UNL     1     -36.897  15.787  -3.933  1.00 20.00     0.110 C 
HETATM    6  C7  UNL     1     -34.744  14.528  -4.287  1.00 20.00    -0.014 C 
HETATM    7  C8  UNL     1     -34.416  16.746  -1.091  1.00 20.00     0.043 C 
HETATM    8  C9  UNL     1     -34.111  13.208  -4.720  1.00 20.00     0.010 C 
ENDROOT
BRANCH   5   9
HETATM    9  C3  UNL     1     -38.330  15.506  -3.529  1.00 20.00     0.180 C 
HETATM   10  O10 UNL     1     -38.713  14.315  -3.696  1.00 20.00    -0.647 OA
HETATM   11  O11 UNL     1     -38.957  16.504  -3.074  1.00 20.00    -0.647 OA
ENDBRANCH   5   9
TORSDOF 1
ENDMDL
MODEL 9
REMARK VINA RESULT:      -4.3      2.581      3.902
REMARK  1 active torsions:
REMARK  status: ('A' for Active; 'I' for Inactive)
REMARK    1  A    between atoms: C3_3  and  C6_6 
ROOT
HETATM    1  C1  UNL     1     -35.820  14.561  -5.460  1.00 20.00    -0.009 C 
HETATM    2  C2  UNL     1     -34.683  15.241  -5.697  1.00 20.00    -0.086 C 
HETATM    3  C4  UNL     1     -33.945  15.967  -4.600  1.00 20.00     0.037 C 
HETATM    4  C5  UNL     1     -35.914  15.487  -3.099  1.00 20.00     0.023 C 
HETATM    5  C6  UNL     1     -36.468  14.482  -4.111  1.00 20.00     0.110 C 
HETATM    6  C7  UNL     1     -34.385  15.553  -3.183  1.00 20.00    -0.014 C 
HETATM    7  C8  UNL     1     -34.081  15.326  -7.069  1.00 20.00     0.043 C 
HETATM    8  C9  UNL     1     -33.817  16.510  -2.138  1.00 20.00     0.010 C 
ENDROOT
BRANCH   5   9
HETATM    9  C3  UNL     1     -37.934  14.812  -4.296  1.00 20.00     0.180 C 
HETATM   10  O10 UNL     1     -38.214  15.460  -5.342  1.00 20.00    -0.647 OA
HETATM   11  O11 UNL     1     -38.691  14.394  -3.375  1.00 20.00    -0.647 OA
ENDBRANCH   5   9
TORSDOF 1
ENDMDL
