MODEL 1
REMARK VINA RESULT:      -4.0      0.000      0.000
REMARK  0 active torsions:
REMARK  status: ('A' for Active; 'I' for Inactive)
ROOT
HETATM    1  C1  UNL     1     -32.939  15.480  -3.690  1.00 20.00     0.013 C 
HETATM    2  C2  UNL     1     -33.139  13.949  -3.622  1.00 20.00     0.035 C 
HETATM    3  C3  UNL     1     -33.431  16.181  -4.978  1.00 20.00     0.074 C 
HETATM    4  C4  UNL     1     -35.897  14.765  -5.638  1.00 20.00     0.108 C 
HETATM    5  C5  UNL     1     -34.565  13.654  -3.870  1.00 20.00     0.152 A 
HETATM    6  C6  UNL     1     -34.871  13.755  -5.341  1.00 20.00     0.160 A 
HETATM    7  O7  UNL     1     -35.078  12.552  -4.606  1.00 20.00    -0.375 OA
HETATM    8  S8  UNL     1     -35.263  16.432  -5.142  1.00 20.00    -0.166 SA
ENDROOT
TORSDOF 0
ENDMDL
MODEL 2
REMARK VINA RESULT:      -3.8      1.308      1.308
REMARK  0 active torsions:
REMARK  status: ('A' for Active; 'I' for Inactive)
ROOT
HETATM    1  C1  UNL     1     -33.507  16.062  -3.451  1.00 20.00     0.013 C 
HETATM    2  C2  UNL     1     -33.264  14.580  -3.817  1.00 20.00     0.035 C 
HETATM    3  C3  UNL     1     -34.758  16.727  -4.070  1.00 20.00     0.074 C 
HETATM    4  C4  UNL     1     -36.770  14.613  -3.999  1.00 20.00     0.108 C 
HETATM    5  C5  UNL     1     -34.483  13.814  -3.490  1.00 20.00     0.152 A 
HETATM    6  C6  UNL     1     -35.536  14.032  -4.544  1.00 20.00     0.160 A 
HETATM    7  O7  UNL     1     -35.025  12.737  -4.243  1.00 20.00    -0.375 OA
HETATM    8  S8  UNL     1     -36.396  16.291  -3.310  1.00 20.00    -0.166 SA
ENDROOT
TORSDOF 0
ENDMDL
MODEL 3
REMARK VINA RESULT:      -3.8      1.339      2.297
REMARK  0 active torsions:
REMARK  status: ('A' for Active; 'I' for Inactive)
ROOT
HETATM    1  C1  UNL     1     -34.493  15.522  -6.686  1.00 20.00     0.013 C 
HETATM    2  C2  UNL     1     -35.059  14.101  -6.467  1.00 20.00     0.035 C 
HETATM    3  C3  UNL     1     -34.675  16.522  -5.520  1.00 20.00     0.074 C 
HETATM    4  C4  UNL     1     -34.270  14.886  -3.137  1.00 20.00     0.108 C 
HETATM    5  C5  UNL     1     -34.490  13.560  -5.216  1.00 20.00     0.152 A 
HETATM    6  C6  UNL     1     -35.188  14.158  -4.023  1.00 20.00     0.160 A 
HETATM    7  O7  UNL     1     -35.171  12.754  -4.263  1.00 20.00    -0.375 OA
HETATM    8  S8  UNL     1     -33.544  16.316  -4.062  1.00 20.00    -0.166 SA
ENDROOT
TORSDOF 0
ENDMDL
MODEL 4
REMARK VINA RESULT:      -3.7      1.705      2.643
REMARK  0 active torsions:
REMARK  status: ('A' for Active; 'I' for Inactive)
ROOT
HETATM    1  C1  UNL     1     -36.563  15.903  -3.574  1.00 20.00     0.013 C 
HETATM    2  C2  UNL     1     -36.737  14.425  -3.992  1.00 20.00     0.035 C 
HETATM    3  C3  UNL     1     -35.333  16.228  -2.695  1.00 20.00     0.074 C 
HETATM    4  C4  UNL     1     -33.232  14.519  -3.785  1.00 20.00     0.108 C 
HETATM    5  C5  UNL     1     -35.490  13.976  -4.645  1.00 20.00     0.152 A 
HETATM    6  C6  UNL     1     -34.433  13.690  -3.611  1.00 20.00     0.160 A 
HETATM    7  O7  UNL     1     -34.892  12.693  -4.519  1.00 20.00    -0.375 OA
HETATM    8  S8  UNL     1     -33.689  16.299  -3.556  1.00 20.00    -0.166 SA
ENDROOT
TORSDOF 0
ENDMDL
MODEL 5
REMARK VINA RESULT:      -3.5      2.379      2.941
REMARK  0 active torsions:
REMARK  status: ('A' for Active; 'I' for Inactive)
ROOT
HETATM    1  C1  UNL     1     -34.971  15.810  -2.243  1.00 20.00     0.013 C 
HETATM    2  C2  UNL     1     -33.869  16.704  -2.857  1.00 20.00     0.035 C 
HETATM    3  C3  UNL     1     -36.035  15.260  -3.221  1.00 20.00     0.074 C 
HETATM    4  C4  UNL     1     -34.507  14.648  -5.632  1.00 20.00     0.108 C 
HETATM    5  C5  UNL     1     -33.233  15.963  -3.965  1.00 20.00     0.152 A 
HETATM    6  C6  UNL     1     -34.113  15.992  -5.187  1.00 20.00     0.160 A 
HETATM    7  O7  UNL     1     -32.788  16.515  -5.198  1.00 20.00    -0.375 OA
HETATM    8  S8  UNL     1     -35.517  13.843  -4.305  1.00 20.00    -0.166 SA
ENDROOT
TORSDOF 0
ENDMDL
MODEL 6
REMARK VINA RESULT:      -3.5      1.253      1.267
REMARK  0 active torsions:
REMARK  status: ('A' for Active; 'I' for Inactive)
ROOT
HETATM    1  C1  UNL     1     -34.680  16.423  -3.657  1.00 20.00     0.013 C 
HETATM    2  C2  UNL     1     -34.684  14.981  -3.103  1.00 20.00     0.035 C 
HETATM    3  C3  UNL     1     -34.207  16.597  -5.119  1.00 20.00     0.074 C 
HETATM    4  C4  UNL     1     -35.304  14.262  -6.484  1.00 20.00     0.108 C 
HETATM    5  C5  UNL     1     -35.476  14.132  -4.017  1.00 20.00     0.152 A 
HETATM    6  C6  UNL     1     -34.670  13.793  -5.244  1.00 20.00     0.160 A 
HETATM    7  O7  UNL     1     -35.186  12.788  -4.376  1.00 20.00    -0.375 OA
HETATM    8  S8  UNL     1     -35.409  16.110  -6.448  1.00 20.00    -0.166 SA
ENDROOT
TORSDOF 0
ENDMDL
MODEL 7
REMARK VINA RESULT:      -3.5      1.531      2.102
REMARK  0 active torsions:
REMARK  status: ('A' for Active; 'I' for Inactive)
ROOT
HETATM    1  C1  UNL     1     -34.085  13.954  -3.537  1.00 20.00     0.013 C 
HETATM    2  C2  UNL     1     -34.771  13.243  -4.726  1.00 20.00     0.035 C 
HETATM    3  C3  UNL     1     -33.033  15.030  -3.894  1.00 20.00     0.074 C 
HETATM    4  C4  UNL     1     -34.167  16.357  -6.233  1.00 20.00     0.108 C 
HETATM    5  C5  UNL     1     -35.351  14.273  -5.612  1.00 20.00     0.152 A 
HETATM    6  C6  UNL     1     -34.274  14.908  -6.451  1.00 20.00     0.160 A 
HETATM    7  O7  UNL     1     -35.386  14.235  -7.033  1.00 20.00    -0.375 OA
HETATM    8  S8  UNL     1     -33.683  16.670  -4.474  1.00 20.00    -0.166 SA
ENDROOT
TORSDOF 0
ENDMDL
MODEL 8
REMARK VINA RESULT:      -3.5      1.808      2.762
REMARK  0 active torsions:
REMARK  status: ('A' for Active; 'I' for Inactive)
ROOT
HETATM    1  C1  UNL     1     -34.732  13.278  -4.992  1.00 20.00     0.013 C 
HETATM    2  C2  UNL     1     -34.267  13.757  -3.599  1.00 20.00     0.035 C 
HETATM    3  C3  UNL     1     -35.374  14.346  -5.908  1.00 20.00     0.074 C 
HETATM    4  C4  UNL     1     -33.798  16.746  -5.382  1.00 20.00     0.108 C 
HETATM    5  C5  UNL     1     -33.360  14.909  -3.781  1.00 20.00     0.152 A 
HETATM    6  C6  UNL     1     -34.151  16.154  -4.084  1.00 20.00     0.160 A 
HETATM    7  O7  UNL     1     -33.291  16.062  -2.952  1.00 20.00    -0.375 OA
HETATM    8  S8  UNL     1     -34.217  15.545  -6.728  1.00 20.00    -0.166 SA
ENDROOT
TORSDOF 0
ENDMDL
MODEL 9
REMARK VINA RESULT:      -3.4      1.892      2.607
REMARK  0 active torsions:
REMARK  status: ('A' for Active; 'I' for Inactive)
ROOT
HETATM    1  C1  UNL     1     -33.295  16.534  -5.170  1.00 20.00     0.013 C 
HETATM    2  C2  UNL     1     -34.163  16.347  -6.435  1.00 20.00     0.035 C 
HETATM    3  C3  UNL     1     -33.777  15.811  -3.891  1.00 20.00     0.074 C 
HETATM    4  C4  UNL     1     -34.799  13.263  -4.882  1.00 20.00     0.108 C 
HETATM    5  C5  UNL     1     -34.325  14.900  -6.678  1.00 20.00     0.152 A 
HETATM    6  C6  UNL     1     -35.350  14.323  -5.737  1.00 20.00     0.160 A 
HETATM    7  O7  UNL     1     -35.501  14.255  -7.152  1.00 20.00    -0.375 OA
HETATM    8  S8  UNL     1     -33.475  13.981  -3.805  1.00 20.00    -0.166 SA
ENDROOT
TORSDOF 0
ENDMDL
