MODEL 1
REMARK VINA RESULT:      -5.2      0.000      0.000
REMARK  1 active torsions:
REMARK  status: ('A' for Active; 'I' for Inactive)
REMARK    1  A    between atoms: C6_6  and  C8_8 
ROOT
HETATM    1  C1  UNL     1     -34.182   5.000   6.607  1.00 20.00     0.061 C 
HETATM    2  C2  UNL     1     -34.828   5.688   3.577  1.00 20.00     0.066 C 
HETATM    3  C3  UNL     1     -34.022   6.474   6.261  1.00 20.00     0.170 C 
HETATM    4  C4  UNL     1     -35.301   4.367   5.839  1.00 20.00     0.153 A 
HETATM    5  C5  UNL     1     -35.596   4.692   4.393  1.00 20.00     0.153 A 
HETATM    6  C6  UNL     1     -33.363   5.881   3.987  1.00 20.00     0.123 C 
HETATM    7  O9  UNL     1     -33.199   6.727   5.127  1.00 20.00    -0.386 OA
HETATM    8  O10 UNL     1     -34.879   3.509   4.766  1.00 20.00    -0.375 OA
ENDROOT
BRANCH   6   9
HETATM    9  C8  UNL     1     -32.585   6.550   2.854  1.00 20.00     0.027 C 
HETATM   10  C7  UNL     1     -31.640   7.585   3.369  1.00 20.00     0.007 C 
ENDBRANCH   6   9
TORSDOF 1
ENDMDL
MODEL 2
REMARK VINA RESULT:      -4.7     11.979     12.695
REMARK  1 active torsions:
REMARK  status: ('A' for Active; 'I' for Inactive)
REMARK    1  A    between atoms: C6_6  and  C8_8 
ROOT
HETATM    1  C1  UNL     1     -36.287  14.237  -4.086  1.00 20.00     0.061 C 
HETATM    2  C2  UNL     1     -33.391  15.374  -3.460  1.00 20.00     0.066 C 
HETATM    3  C3  UNL     1     -36.171  15.748  -4.237  1.00 20.00     0.170 C 
HETATM    4  C4  UNL     1     -35.023  13.541  -4.487  1.00 20.00     0.153 A 
HETATM    5  C5  UNL     1     -33.648  14.083  -4.176  1.00 20.00     0.153 A 
HETATM    6  C6  UNL     1     -34.484  15.806  -2.474  1.00 20.00     0.123 C 
HETATM    7  O9  UNL     1     -35.613  16.412  -3.106  1.00 20.00    -0.386 OA
HETATM    8  O10 UNL     1     -34.240  13.044  -3.389  1.00 20.00    -0.375 OA
ENDROOT
BRANCH   6   9
HETATM    9  C8  UNL     1     -33.934  16.855  -1.507  1.00 20.00     0.027 C 
HETATM   10  C7  UNL     1     -34.779  16.973  -0.281  1.00 20.00     0.007 C 
ENDBRANCH   6   9
TORSDOF 1
ENDMDL
MODEL 3
REMARK VINA RESULT:      -4.5     12.022     13.053
REMARK  1 active torsions:
REMARK  status: ('A' for Active; 'I' for Inactive)
REMARK    1  A    between atoms: C6_6  and  C8_8 
ROOT
HETATM    1  C1  UNL     1     -35.854  14.732  -5.621  1.00 20.00     0.061 C 
HETATM    2  C2  UNL     1     -33.712  14.634  -3.281  1.00 20.00     0.066 C 
HETATM    3  C3  UNL     1     -35.217  16.080  -5.310  1.00 20.00     0.170 C 
HETATM    4  C4  UNL     1     -34.886  13.605  -5.436  1.00 20.00     0.153 A 
HETATM    5  C5  UNL     1     -33.876  13.560  -4.314  1.00 20.00     0.153 A 
HETATM    6  C6  UNL     1     -34.978  15.440  -2.966  1.00 20.00     0.123 C 
HETATM    7  O9  UNL     1     -35.264  16.451  -3.936  1.00 20.00    -0.386 OA
HETATM    8  O10 UNL     1     -35.100  12.820  -4.252  1.00 20.00    -0.375 OA
ENDROOT
BRANCH   6   9
HETATM    9  C8  UNL     1     -34.817  16.172  -1.634  1.00 20.00     0.027 C 
HETATM   10  C7  UNL     1     -33.709  17.173  -1.684  1.00 20.00     0.007 C 
ENDBRANCH   6   9
TORSDOF 1
ENDMDL
MODEL 4
REMARK VINA RESULT:      -4.3     12.223     13.729
REMARK  1 active torsions:
REMARK  status: ('A' for Active; 'I' for Inactive)
REMARK    1  A    between atoms: C6_6  and  C8_8 
ROOT
HETATM    1  C1  UNL     1     -33.144  14.645  -3.794  1.00 20.00     0.061 C 
HETATM    2  C2  UNL     1     -35.808  14.659  -5.518  1.00 20.00     0.066 C 
HETATM    3  C3  UNL     1     -33.457  15.991  -4.436  1.00 20.00     0.170 C 
HETATM    4  C4  UNL     1     -34.390  13.918  -3.392  1.00 20.00     0.153 A 
HETATM    5  C5  UNL     1     -35.651  13.920  -4.223  1.00 20.00     0.153 A 
HETATM    6  C6  UNL     1     -34.517  14.858  -6.321  1.00 20.00     0.123 C 
HETATM    7  O9  UNL     1     -33.707  15.931  -5.837  1.00 20.00    -0.386 OA
HETATM    8  O10 UNL     1     -34.740  12.816  -4.244  1.00 20.00    -0.375 OA
ENDROOT
BRANCH   6   9
HETATM    9  C8  UNL     1     -34.849  15.206  -7.772  1.00 20.00     0.027 C 
HETATM   10  C7  UNL     1     -35.260  16.634  -7.917  1.00 20.00     0.007 C 
ENDBRANCH   6   9
TORSDOF 1
ENDMDL
MODEL 5
REMARK VINA RESULT:      -4.1     12.573     13.673
REMARK  1 active torsions:
REMARK  status: ('A' for Active; 'I' for Inactive)
REMARK    1  A    between atoms: C6_6  and  C8_8 
ROOT
HETATM    1  C1  UNL     1     -34.602  14.711  -4.189  1.00 20.00     0.061 C 
HETATM    2  C2  UNL     1     -33.935  17.707  -3.382  1.00 20.00     0.066 C 
HETATM    3  C3  UNL     1     -35.637  15.348  -3.270  1.00 20.00     0.170 C 
HETATM    4  C4  UNL     1     -34.014  15.708  -5.138  1.00 20.00     0.153 A 
HETATM    5  C5  UNL     1     -33.688  17.130  -4.743  1.00 20.00     0.153 A 
HETATM    6  C6  UNL     1     -33.893  16.700  -2.226  1.00 20.00     0.123 C 
HETATM    7  O9  UNL     1     -35.095  15.938  -2.092  1.00 20.00    -0.386 OA
HETATM    8  O10 UNL     1     -32.675  16.121  -4.816  1.00 20.00    -0.375 OA
ENDROOT
BRANCH   6   9
HETATM    9  C8  UNL     1     -33.714  17.434  -0.897  1.00 20.00     0.027 C 
HETATM   10  C7  UNL     1     -34.863  17.194   0.026  1.00 20.00     0.007 C 
ENDBRANCH   6   9
TORSDOF 1
ENDMDL
MODEL 6
REMARK VINA RESULT:      -4.0     12.204     13.328
REMARK  1 active torsions:
REMARK  status: ('A' for Active; 'I' for Inactive)
REMARK    1  A    between atoms: C6_6  and  C8_8 
ROOT
HETATM    1  C1  UNL     1     -36.721  16.201  -4.959  1.00 20.00     0.061 C 
HETATM    2  C2  UNL     1     -34.630  14.791  -3.034  1.00 20.00     0.066 C 
HETATM    3  C3  UNL     1     -35.473  17.031  -4.689  1.00 20.00     0.170 C 
HETATM    4  C4  UNL     1     -36.414  14.737  -5.008  1.00 20.00     0.153 A 
HETATM    5  C5  UNL     1     -35.425  14.070  -4.080  1.00 20.00     0.153 A 
HETATM    6  C6  UNL     1     -35.290  16.051  -2.461  1.00 20.00     0.123 C 
HETATM    7  O9  UNL     1     -35.162  17.195  -3.309  1.00 20.00    -0.386 OA
HETATM    8  O10 UNL     1     -36.836  13.998  -3.849  1.00 20.00    -0.375 OA
ENDROOT
BRANCH   6   9
HETATM    9  C8  UNL     1     -34.627  16.435  -1.138  1.00 20.00     0.027 C 
HETATM   10  C7  UNL     1     -33.645  17.547  -1.314  1.00 20.00     0.007 C 
ENDBRANCH   6   9
TORSDOF 1
ENDMDL
MODEL 7
REMARK VINA RESULT:      -3.9     11.927     13.256
REMARK  1 active torsions:
REMARK  status: ('A' for Active; 'I' for Inactive)
REMARK    1  A    between atoms: C6_6  and  C8_8 
ROOT
HETATM    1  C1  UNL     1     -33.378  13.720  -3.681  1.00 20.00     0.061 C 
HETATM    2  C2  UNL     1     -35.413  16.059  -4.356  1.00 20.00     0.066 C 
HETATM    3  C3  UNL     1     -34.405  13.357  -4.746  1.00 20.00     0.170 C 
HETATM    4  C4  UNL     1     -32.979  15.161  -3.762  1.00 20.00     0.153 A 
HETATM    5  C5  UNL     1     -33.956  16.271  -4.073  1.00 20.00     0.153 A 
HETATM    6  C6  UNL     1     -36.039  14.829  -3.688  1.00 20.00     0.123 C 
HETATM    7  O9  UNL     1     -35.756  13.606  -4.370  1.00 20.00    -0.386 OA
HETATM    8  O10 UNL     1     -33.537  15.994  -2.733  1.00 20.00    -0.375 OA
ENDROOT
BRANCH   6   9
HETATM    9  C8  UNL     1     -37.562  14.957  -3.674  1.00 20.00     0.027 C 
HETATM   10  C7  UNL     1     -38.109  15.197  -5.043  1.00 20.00     0.007 C 
ENDBRANCH   6   9
TORSDOF 1
ENDMDL
MODEL 8
REMARK VINA RESULT:      -3.9     12.331     14.050
REMARK  1 active torsions:
REMARK  status: ('A' for Active; 'I' for Inactive)
REMARK    1  A    between atoms: C6_6  and  C8_8 
ROOT
HETATM    1  C1  UNL     1     -34.772  15.068  -2.877  1.00 20.00     0.061 C 
HETATM    2  C2  UNL     1     -33.365  16.483  -5.346  1.00 20.00     0.066 C 
HETATM    3  C3  UNL     1     -33.910  14.133  -3.716  1.00 20.00     0.170 C 
HETATM    4  C4  UNL     1     -34.196  16.449  -2.818  1.00 20.00     0.153 A 
HETATM    5  C5  UNL     1     -33.537  17.120  -4.000  1.00 20.00     0.153 A 
HETATM    6  C6  UNL     1     -34.423  15.436  -5.716  1.00 20.00     0.123 C 
HETATM    7  O9  UNL     1     -34.197  14.161  -5.111  1.00 20.00    -0.386 OA
HETATM    8  O10 UNL     1     -34.885  17.420  -3.623  1.00 20.00    -0.375 OA
ENDROOT
BRANCH   6   9
HETATM    9  C8  UNL     1     -34.413  15.191  -7.225  1.00 20.00     0.027 C 
HETATM   10  C7  UNL     1     -35.588  14.378  -7.660  1.00 20.00     0.007 C 
ENDBRANCH   6   9
TORSDOF 1
ENDMDL
MODEL 9
REMARK VINA RESULT:      -3.9      9.665     11.227
REMARK  1 active torsions:
REMARK  status: ('A' for Active; 'I' for Inactive)
REMARK    1  A    between atoms: C6_6  and  C8_8 
ROOT
HETATM    1  C1  UNL     1     -41.933   6.970  -2.690  1.00 20.00     0.061 C 
HETATM    2  C2  UNL     1     -42.453   4.255  -1.130  1.00 20.00     0.066 C 
HETATM    3  C3  UNL     1     -43.256   6.301  -3.038  1.00 20.00     0.170 C 
HETATM    4  C4  UNL     1     -41.567   6.762  -1.252  1.00 20.00     0.153 A 
HETATM    5  C5  UNL     1     -41.808   5.462  -0.519  1.00 20.00     0.153 A 
HETATM    6  C6  UNL     1     -42.263   4.105  -2.645  1.00 20.00     0.123 C 
HETATM    7  O9  UNL     1     -43.143   4.931  -3.411  1.00 20.00    -0.386 OA
HETATM    8  O10 UNL     1     -40.517   5.805  -1.035  1.00 20.00    -0.375 OA
ENDROOT
BRANCH   6   9
HETATM    9  C8  UNL     1     -42.560   2.668  -3.072  1.00 20.00     0.027 C 
HETATM   10  C7  UNL     1     -41.371   2.023  -3.704  1.00 20.00     0.007 C 
ENDBRANCH   6   9
TORSDOF 1
ENDMDL
