MODEL 1
REMARK VINA RESULT:      -5.6      0.000      0.000
REMARK  0 active torsions:
REMARK  status: ('A' for Active; 'I' for Inactive)
ROOT
HETATM    1  C1  UNL     1     -38.148  15.364  -5.557  1.00 20.00    -0.004 C 
HETATM    2  C2  UNL     1     -37.962  14.746  -4.272  1.00 20.00    -0.003 C 
HETATM    3  C3  UNL     1     -37.118  15.537  -6.395  1.00 20.00    -0.025 C 
HETATM    4  C4  UNL     1     -36.740  14.515  -3.775  1.00 20.00    -0.009 C 
HETATM    5  C5  UNL     1     -34.580  13.603  -4.406  1.00 20.00     0.140 C 
HETATM    6  C6  UNL     1     -35.715  15.122  -6.045  1.00 20.00     0.048 C 
HETATM    7  C7  UNL     1     -33.348  13.652  -3.533  1.00 20.00     0.079 C 
HETATM    8  C8  UNL     1     -32.496  14.894  -3.752  1.00 20.00     0.008 C 
HETATM    9  C9  UNL     1     -33.256  16.122  -4.247  1.00 20.00     0.006 C 
HETATM   10  C10 UNL     1     -34.750  16.116  -3.887  1.00 20.00     0.001 C 
HETATM   11  C11 UNL     1     -35.457  14.866  -4.513  1.00 20.00     0.044 C 
HETATM   12  C12 UNL     1     -34.933  16.310  -2.373  1.00 20.00     0.011 C 
HETATM   13  O13 UNL     1     -34.908  12.538  -4.938  1.00 20.00    -0.297 OA
ENDROOT
TORSDOF 0
ENDMDL
MODEL 2
REMARK VINA RESULT:      -5.4      1.820      3.813
REMARK  0 active torsions:
REMARK  status: ('A' for Active; 'I' for Inactive)
ROOT
HETATM    1  C1  UNL     1     -35.212  17.719  -1.252  1.00 20.00    -0.004 C 
HETATM    2  C2  UNL     1     -35.730  18.125  -2.530  1.00 20.00    -0.003 C 
HETATM    3  C3  UNL     1     -34.425  16.643  -1.136  1.00 20.00    -0.025 C 
HETATM    4  C4  UNL     1     -35.627  17.340  -3.610  1.00 20.00    -0.009 C 
HETATM    5  C5  UNL     1     -34.020  15.977  -4.814  1.00 20.00     0.140 C 
HETATM    6  C6  UNL     1     -34.052  15.787  -2.315  1.00 20.00     0.048 C 
HETATM    7  C7  UNL     1     -34.365  15.091  -5.988  1.00 20.00     0.079 C 
HETATM    8  C8  UNL     1     -34.743  13.672  -5.590  1.00 20.00     0.008 C 
HETATM    9  C9  UNL     1     -35.340  13.529  -4.191  1.00 20.00     0.006 C 
HETATM   10  C10 UNL     1     -36.002  14.812  -3.664  1.00 20.00     0.001 C 
HETATM   11  C11 UNL     1     -34.956  15.975  -3.591  1.00 20.00     0.044 C 
HETATM   12  C12 UNL     1     -37.290  15.107  -4.450  1.00 20.00     0.011 C 
HETATM   13  O13 UNL     1     -33.055  16.745  -4.893  1.00 20.00    -0.297 OA
ENDROOT
TORSDOF 0
ENDMDL
MODEL 3
REMARK VINA RESULT:      -5.4      2.177      4.309
REMARK  0 active torsions:
REMARK  status: ('A' for Active; 'I' for Inactive)
ROOT
HETATM    1  C1  UNL     1     -33.783  17.817  -0.492  1.00 20.00    -0.004 C 
HETATM    2  C2  UNL     1     -34.603  16.647  -0.652  1.00 20.00    -0.003 C 
HETATM    3  C3  UNL     1     -33.462  18.583  -1.541  1.00 20.00    -0.025 C 
HETATM    4  C4  UNL     1     -34.900  16.159  -1.863  1.00 20.00    -0.009 C 
HETATM    5  C5  UNL     1     -35.671  16.867  -4.053  1.00 20.00     0.140 C 
HETATM    6  C6  UNL     1     -33.913  18.265  -2.941  1.00 20.00     0.048 C 
HETATM    7  C7  UNL     1     -35.753  15.961  -5.260  1.00 20.00     0.079 C 
HETATM    8  C8  UNL     1     -34.484  15.946  -6.098  1.00 20.00     0.008 C 
HETATM    9  C9  UNL     1     -33.198  16.254  -5.333  1.00 20.00     0.006 C 
HETATM   10  C10 UNL     1     -33.281  15.944  -3.830  1.00 20.00     0.001 C 
HETATM   11  C11 UNL     1     -34.418  16.789  -3.160  1.00 20.00     0.044 C 
HETATM   12  C12 UNL     1     -33.342  14.425  -3.602  1.00 20.00     0.011 C 
HETATM   13  O13 UNL     1     -36.636  17.577  -3.757  1.00 20.00    -0.297 OA
ENDROOT
TORSDOF 0
ENDMDL
MODEL 4
REMARK VINA RESULT:      -5.3      1.089      1.409
REMARK  0 active torsions:
REMARK  status: ('A' for Active; 'I' for Inactive)
ROOT
HETATM    1  C1  UNL     1     -37.346  15.064  -7.594  1.00 20.00    -0.004 C 
HETATM    2  C2  UNL     1     -37.764  15.154  -6.222  1.00 20.00    -0.003 C 
HETATM    3  C3  UNL     1     -36.089  14.733  -7.913  1.00 20.00    -0.025 C 
HETATM    4  C4  UNL     1     -36.881  15.123  -5.216  1.00 20.00    -0.009 C 
HETATM    5  C5  UNL     1     -34.946  13.883  -4.433  1.00 20.00     0.140 C 
HETATM    6  C6  UNL     1     -35.039  14.458  -6.870  1.00 20.00     0.048 C 
HETATM    7  C7  UNL     1     -34.106  14.280  -3.241  1.00 20.00     0.079 C 
HETATM    8  C8  UNL     1     -32.941  15.192  -3.595  1.00 20.00     0.008 C 
HETATM    9  C9  UNL     1     -33.149  16.058  -4.835  1.00 20.00     0.006 C 
HETATM   10  C10 UNL     1     -34.626  16.327  -5.164  1.00 20.00     0.001 C 
HETATM   11  C11 UNL     1     -35.381  14.979  -5.424  1.00 20.00     0.044 C 
HETATM   12  C12 UNL     1     -35.246  17.258  -4.109  1.00 20.00     0.011 C 
HETATM   13  O13 UNL     1     -35.341  12.717  -4.539  1.00 20.00    -0.297 OA
ENDROOT
TORSDOF 0
ENDMDL
MODEL 5
REMARK VINA RESULT:      -5.3      2.047      3.659
REMARK  0 active torsions:
REMARK  status: ('A' for Active; 'I' for Inactive)
ROOT
HETATM    1  C1  UNL     1     -34.559  13.324  -4.395  1.00 20.00    -0.004 C 
HETATM    2  C2  UNL     1     -33.431  13.894  -3.710  1.00 20.00    -0.003 C 
HETATM    3  C3  UNL     1     -35.527  14.101  -4.894  1.00 20.00    -0.025 C 
HETATM    4  C4  UNL     1     -33.403  15.186  -3.358  1.00 20.00    -0.009 C 
HETATM    5  C5  UNL     1     -33.845  17.401  -4.247  1.00 20.00     0.140 C 
HETATM    6  C6  UNL     1     -35.511  15.599  -4.756  1.00 20.00     0.048 C 
HETATM    7  C7  UNL     1     -33.814  18.670  -3.427  1.00 20.00     0.079 C 
HETATM    8  C8  UNL     1     -35.158  19.030  -2.813  1.00 20.00     0.008 C 
HETATM    9  C9  UNL     1     -36.086  17.848  -2.544  1.00 20.00     0.006 C 
HETATM   10  C10 UNL     1     -35.351  16.510  -2.364  1.00 20.00     0.001 C 
HETATM   11  C11 UNL     1     -34.535  16.158  -3.654  1.00 20.00     0.044 C 
HETATM   12  C12 UNL     1     -34.565  16.508  -1.043  1.00 20.00     0.011 C 
HETATM   13  O13 UNL     1     -33.244  17.358  -5.326  1.00 20.00    -0.297 OA
ENDROOT
TORSDOF 0
ENDMDL
MODEL 6
REMARK VINA RESULT:      -5.3      1.792      3.392
REMARK  0 active torsions:
REMARK  status: ('A' for Active; 'I' for Inactive)
ROOT
HETATM    1  C1  UNL     1     -35.132  18.271  -1.591  1.00 20.00    -0.004 C 
HETATM    2  C2  UNL     1     -34.818  16.956  -1.101  1.00 20.00    -0.003 C 
HETATM    3  C3  UNL     1     -35.600  18.452  -2.831  1.00 20.00    -0.025 C 
HETATM    4  C4  UNL     1     -34.777  15.895  -1.918  1.00 20.00    -0.009 C 
HETATM    5  C5  UNL     1     -36.041  14.818  -3.689  1.00 20.00     0.140 C 
HETATM    6  C6  UNL     1     -35.807  17.311  -3.790  1.00 20.00     0.048 C 
HETATM    7  C7  UNL     1     -35.548  13.634  -4.488  1.00 20.00     0.079 C 
HETATM    8  C8  UNL     1     -34.787  14.024  -5.746  1.00 20.00     0.008 C 
HETATM    9  C9  UNL     1     -34.089  15.381  -5.688  1.00 20.00     0.006 C 
HETATM   10  C10 UNL     1     -33.756  15.847  -4.261  1.00 20.00     0.001 C 
HETATM   11  C11 UNL     1     -35.064  15.976  -3.410  1.00 20.00     0.044 C 
HETATM   12  C12 UNL     1     -32.641  14.973  -3.663  1.00 20.00     0.011 C 
HETATM   13  O13 UNL     1     -37.176  14.794  -3.202  1.00 20.00    -0.297 OA
ENDROOT
TORSDOF 0
ENDMDL
MODEL 7
REMARK VINA RESULT:      -5.2      1.897      2.967
REMARK  0 active torsions:
REMARK  status: ('A' for Active; 'I' for Inactive)
ROOT
HETATM    1  C1  UNL     1     -36.905  14.900  -7.918  1.00 20.00    -0.004 C 
HETATM    2  C2  UNL     1     -35.528  14.488  -7.918  1.00 20.00    -0.003 C 
HETATM    3  C3  UNL     1     -37.385  15.706  -6.963  1.00 20.00    -0.025 C 
HETATM    4  C4  UNL     1     -34.730  14.712  -6.866  1.00 20.00    -0.009 C 
HETATM    5  C5  UNL     1     -34.095  16.463  -5.309  1.00 20.00     0.140 C 
HETATM    6  C6  UNL     1     -36.533  16.210  -5.831  1.00 20.00     0.048 C 
HETATM    7  C7  UNL     1     -33.200  16.252  -4.109  1.00 20.00     0.079 C 
HETATM    8  C8  UNL     1     -33.957  15.883  -2.842  1.00 20.00     0.008 C 
HETATM    9  C9  UNL     1     -35.287  15.167  -3.067  1.00 20.00     0.006 C 
HETATM   10  C10 UNL     1     -35.371  14.420  -4.408  1.00 20.00     0.001 C 
HETATM   11  C11 UNL     1     -35.191  15.420  -5.601  1.00 20.00     0.044 C 
HETATM   12  C12 UNL     1     -34.436  13.201  -4.399  1.00 20.00     0.011 C 
HETATM   13  O13 UNL     1     -33.876  17.407  -6.075  1.00 20.00    -0.297 OA
ENDROOT
TORSDOF 0
ENDMDL
MODEL 8
REMARK VINA RESULT:      -5.1      1.975      4.193
REMARK  0 active torsions:
REMARK  status: ('A' for Active; 'I' for Inactive)
ROOT
HETATM    1  C1  UNL     1     -33.368  13.712  -3.700  1.00 20.00    -0.004 C 
HETATM    2  C2  UNL     1     -34.643  13.353  -4.258  1.00 20.00    -0.003 C 
HETATM    3  C3  UNL     1     -32.923  14.973  -3.750  1.00 20.00    -0.025 C 
HETATM    4  C4  UNL     1     -35.336  14.202  -5.028  1.00 20.00    -0.009 C 
HETATM    5  C5  UNL     1     -36.070  16.514  -5.112  1.00 20.00     0.140 C 
HETATM    6  C6  UNL     1     -33.706  16.079  -4.403  1.00 20.00     0.048 C 
HETATM    7  C7  UNL     1     -36.764  17.144  -6.297  1.00 20.00     0.079 C 
HETATM    8  C8  UNL     1     -35.808  17.778  -7.296  1.00 20.00     0.008 C 
HETATM    9  C9  UNL     1     -34.411  17.162  -7.337  1.00 20.00     0.006 C 
HETATM   10  C10 UNL     1     -34.361  15.704  -6.854  1.00 20.00     0.001 C 
HETATM   11  C11 UNL     1     -34.854  15.604  -5.370  1.00 20.00     0.044 C 
HETATM   12  C12 UNL     1     -35.064  14.783  -7.865  1.00 20.00     0.011 C 
HETATM   13  O13 UNL     1     -36.540  16.664  -3.980  1.00 20.00    -0.297 OA
ENDROOT
TORSDOF 0
ENDMDL
MODEL 9
REMARK VINA RESULT:      -5.0      1.362      3.714
REMARK  0 active torsions:
REMARK  status: ('A' for Active; 'I' for Inactive)
ROOT
HETATM    1  C1  UNL     1     -34.249  16.084  -2.197  1.00 20.00    -0.004 C 
HETATM    2  C2  UNL     1     -33.252  15.833  -3.202  1.00 20.00    -0.003 C 
HETATM    3  C3  UNL     1     -35.540  15.811  -2.422  1.00 20.00    -0.025 C 
HETATM    4  C4  UNL     1     -33.588  15.521  -4.461  1.00 20.00    -0.009 C 
HETATM    5  C5  UNL     1     -35.071  14.069  -5.721  1.00 20.00     0.140 C 
HETATM    6  C6  UNL     1     -36.030  15.250  -3.729  1.00 20.00     0.048 C 
HETATM    7  C7  UNL     1     -35.245  14.125  -7.220  1.00 20.00     0.079 C 
HETATM    8  C8  UNL     1     -36.354  15.065  -7.670  1.00 20.00     0.008 C 
HETATM    9  C9  UNL     1     -36.645  16.224  -6.720  1.00 20.00     0.006 C 
HETATM   10  C10 UNL     1     -35.456  16.609  -5.826  1.00 20.00     0.001 C 
HETATM   11  C11 UNL     1     -35.028  15.394  -4.935  1.00 20.00     0.044 C 
HETATM   12  C12 UNL     1     -34.344  17.256  -6.668  1.00 20.00     0.011 C 
HETATM   13  O13 UNL     1     -34.877  12.981  -5.170  1.00 20.00    -0.297 OA
ENDROOT
TORSDOF 0
ENDMDL
