MODEL 1
REMARK VINA RESULT:      -4.4      0.000      0.000
REMARK  0 active torsions:
REMARK  status: ('A' for Active; 'I' for Inactive)
ROOT
HETATM    1  C1  UNL     1     -33.975   6.231   5.969  1.00 20.00     0.146 C 
HETATM    2  C2  UNL     1     -35.039   5.256   6.466  1.00 20.00     0.084 C 
HETATM    3  C3  UNL     1     -35.414   5.587   4.002  1.00 20.00     0.034 C 
HETATM    4  C4  UNL     1     -33.926   4.203   4.473  1.00 20.00     0.034 C 
HETATM    5  C5  UNL     1     -35.326   4.497   5.139  1.00 20.00    -0.004 C 
HETATM    6  C6  UNL     1     -33.916   5.777   4.450  1.00 20.00     0.079 C 
HETATM    7  O7  UNL     1     -33.401   7.073   6.630  1.00 20.00    -0.296 OA
HETATM    8 BR8  UNL     1     -32.706   6.699   3.340  1.00 20.00    -0.077 Br
ENDROOT
TORSDOF 0
ENDMDL
MODEL 2
REMARK VINA RESULT:      -4.2     12.372     12.989
REMARK  0 active torsions:
REMARK  status: ('A' for Active; 'I' for Inactive)
ROOT
HETATM    1  C1  UNL     1     -34.669  13.689  -3.973  1.00 20.00     0.146 C 
HETATM    2  C2  UNL     1     -33.223  14.109  -3.724  1.00 20.00     0.084 C 
HETATM    3  C3  UNL     1     -34.505  16.174  -4.364  1.00 20.00     0.034 C 
HETATM    4  C4  UNL     1     -34.691  15.626  -2.360  1.00 20.00     0.034 C 
HETATM    5  C5  UNL     1     -33.454  15.597  -3.339  1.00 20.00    -0.004 C 
HETATM    6  C6  UNL     1     -35.383  15.071  -3.661  1.00 20.00     0.079 C 
HETATM    7  O7  UNL     1     -35.055  12.588  -4.310  1.00 20.00    -0.296 OA
HETATM    8 BR8  UNL     1     -37.258  15.109  -3.824  1.00 20.00    -0.077 Br
ENDROOT
TORSDOF 0
ENDMDL
MODEL 3
REMARK VINA RESULT:      -3.9     12.946     13.617
REMARK  0 active torsions:
REMARK  status: ('A' for Active; 'I' for Inactive)
ROOT
HETATM    1  C1  UNL     1     -33.595  15.801  -4.664  1.00 20.00     0.146 C 
HETATM    2  C2  UNL     1     -33.759  15.322  -3.224  1.00 20.00     0.084 C 
HETATM    3  C3  UNL     1     -35.839  14.669  -4.475  1.00 20.00     0.034 C 
HETATM    4  C4  UNL     1     -34.232  13.363  -4.727  1.00 20.00     0.034 C 
HETATM    5  C5  UNL     1     -34.750  14.148  -3.460  1.00 20.00    -0.004 C 
HETATM    6  C6  UNL     1     -34.554  14.760  -5.380  1.00 20.00     0.079 C 
HETATM    7  O7  UNL     1     -32.905  16.726  -5.045  1.00 20.00    -0.296 OA
HETATM    8 BR8  UNL     1     -34.721  14.913  -7.249  1.00 20.00    -0.077 Br
ENDROOT
TORSDOF 0
ENDMDL
MODEL 4
REMARK VINA RESULT:      -3.9     12.899     13.665
REMARK  0 active torsions:
REMARK  status: ('A' for Active; 'I' for Inactive)
ROOT
HETATM    1  C1  UNL     1     -34.486  14.485  -5.748  1.00 20.00     0.146 C 
HETATM    2  C2  UNL     1     -34.715  13.234  -4.906  1.00 20.00     0.084 C 
HETATM    3  C3  UNL     1     -32.992  14.630  -3.724  1.00 20.00     0.034 C 
HETATM    4  C4  UNL     1     -34.964  15.219  -3.385  1.00 20.00     0.034 C 
HETATM    5  C5  UNL     1     -34.310  13.789  -3.512  1.00 20.00    -0.004 C 
HETATM    6  C6  UNL     1     -33.996  15.466  -4.602  1.00 20.00     0.079 C 
HETATM    7  O7  UNL     1     -34.659  14.593  -6.946  1.00 20.00    -0.296 OA
HETATM    8 BR8  UNL     1     -33.561  17.223  -5.123  1.00 20.00    -0.077 Br
ENDROOT
TORSDOF 0
ENDMDL
MODEL 5
REMARK VINA RESULT:      -3.9     13.028     13.788
REMARK  0 active torsions:
REMARK  status: ('A' for Active; 'I' for Inactive)
ROOT
HETATM    1  C1  UNL     1     -34.551  13.838  -4.603  1.00 20.00     0.146 C 
HETATM    2  C2  UNL     1     -34.336  14.476  -3.233  1.00 20.00     0.084 C 
HETATM    3  C3  UNL     1     -33.331  16.016  -4.947  1.00 20.00     0.034 C 
HETATM    4  C4  UNL     1     -35.395  16.210  -4.713  1.00 20.00     0.034 C 
HETATM    5  C5  UNL     1     -34.244  15.968  -3.661  1.00 20.00    -0.004 C 
HETATM    6  C6  UNL     1     -34.528  15.151  -5.492  1.00 20.00     0.079 C 
HETATM    7  O7  UNL     1     -34.688  12.653  -4.835  1.00 20.00    -0.296 OA
HETATM    8 BR8  UNL     1     -34.761  14.919  -7.347  1.00 20.00    -0.077 Br
ENDROOT
TORSDOF 0
ENDMDL
MODEL 6
REMARK VINA RESULT:      -3.8      9.620     10.308
REMARK  0 active torsions:
REMARK  status: ('A' for Active; 'I' for Inactive)
ROOT
HETATM    1  C1  UNL     1     -41.766   6.687  -2.104  1.00 20.00     0.146 C 
HETATM    2  C2  UNL     1     -41.013   7.140  -0.856  1.00 20.00     0.084 C 
HETATM    3  C3  UNL     1     -42.520   5.245  -0.179  1.00 20.00     0.034 C 
HETATM    4  C4  UNL     1     -40.719   4.651  -1.050  1.00 20.00     0.034 C 
HETATM    5  C5  UNL     1     -41.056   5.817  -0.041  1.00 20.00    -0.004 C 
HETATM    6  C6  UNL     1     -42.058   5.186  -1.684  1.00 20.00     0.079 C 
HETATM    7  O7  UNL     1     -42.017   7.362  -3.083  1.00 20.00    -0.296 OA
HETATM    8 BR8  UNL     1     -43.004   4.130  -2.923  1.00 20.00    -0.077 Br
ENDROOT
TORSDOF 0
ENDMDL
MODEL 7
REMARK VINA RESULT:      -3.8     12.734     13.528
REMARK  0 active torsions:
REMARK  status: ('A' for Active; 'I' for Inactive)
ROOT
HETATM    1  C1  UNL     1     -34.153  15.731  -5.150  1.00 20.00     0.146 C 
HETATM    2  C2  UNL     1     -34.463  14.526  -6.033  1.00 20.00     0.084 C 
HETATM    3  C3  UNL     1     -33.854  13.653  -3.755  1.00 20.00     0.034 C 
HETATM    4  C4  UNL     1     -35.831  14.295  -3.936  1.00 20.00     0.034 C 
HETATM    5  C5  UNL     1     -34.893  13.512  -4.935  1.00 20.00    -0.004 C 
HETATM    6  C6  UNL     1     -34.489  15.095  -3.737  1.00 20.00     0.079 C 
HETATM    7  O7  UNL     1     -33.764  16.820  -5.524  1.00 20.00    -0.296 OA
HETATM    8 BR8  UNL     1     -34.266  16.208  -2.235  1.00 20.00    -0.077 Br
ENDROOT
TORSDOF 0
ENDMDL
MODEL 8
REMARK VINA RESULT:      -3.7     13.138     13.978
REMARK  0 active torsions:
REMARK  status: ('A' for Active; 'I' for Inactive)
ROOT
HETATM    1  C1  UNL     1     -34.944  13.841  -4.925  1.00 20.00     0.146 C 
HETATM    2  C2  UNL     1     -35.019  14.066  -6.433  1.00 20.00     0.084 C 
HETATM    3  C3  UNL     1     -35.819  16.172  -5.318  1.00 20.00     0.034 C 
HETATM    4  C4  UNL     1     -33.744  15.995  -5.447  1.00 20.00     0.034 C 
HETATM    5  C5  UNL     1     -34.889  15.615  -6.464  1.00 20.00    -0.004 C 
HETATM    6  C6  UNL     1     -34.787  15.349  -4.459  1.00 20.00     0.079 C 
HETATM    7  O7  UNL     1     -35.000  12.773  -4.349  1.00 20.00    -0.296 OA
HETATM    8 BR8  UNL     1     -34.645  15.650  -2.606  1.00 20.00    -0.077 Br
ENDROOT
TORSDOF 0
ENDMDL
MODEL 9
REMARK VINA RESULT:      -3.7     12.614     13.331
REMARK  0 active torsions:
REMARK  status: ('A' for Active; 'I' for Inactive)
ROOT
HETATM    1  C1  UNL     1     -36.272  14.359  -3.998  1.00 20.00     0.146 C 
HETATM    2  C2  UNL     1     -35.180  13.315  -4.218  1.00 20.00     0.084 C 
HETATM    3  C3  UNL     1     -34.342  15.490  -5.160  1.00 20.00     0.034 C 
HETATM    4  C4  UNL     1     -34.112  15.295  -3.095  1.00 20.00     0.034 C 
HETATM    5  C5  UNL     1     -33.940  14.252  -4.267  1.00 20.00    -0.004 C 
HETATM    6  C6  UNL     1     -35.366  15.661  -3.976  1.00 20.00     0.079 C 
HETATM    7  O7  UNL     1     -37.463  14.147  -3.887  1.00 20.00    -0.296 OA
HETATM    8 BR8  UNL     1     -36.253  17.302  -3.722  1.00 20.00    -0.077 Br
ENDROOT
TORSDOF 0
ENDMDL
