MODEL 1
REMARK VINA RESULT:      -4.8      0.000      0.000
REMARK  0 active torsions:
REMARK  status: ('A' for Active; 'I' for Inactive)
ROOT
HETATM    1  C1  UNL     1     -34.777  13.278  -4.496  1.00 20.00     0.001 C 
HETATM    2  C2  UNL     1     -36.134  13.917  -4.211  1.00 20.00     0.001 C 
HETATM    3  C3  UNL     1     -34.237  17.680  -2.281  1.00 20.00     0.004 C 
HETATM    4  C4  UNL     1     -33.717  18.478  -3.473  1.00 20.00     0.034 C 
HETATM    5  C5  UNL     1     -33.757  14.079  -3.695  1.00 20.00     0.012 C 
HETATM    6  C6  UNL     1     -35.860  15.144  -3.341  1.00 20.00     0.012 C 
HETATM    7  C7  UNL     1     -33.777  16.225  -2.340  1.00 20.00     0.012 C 
HETATM    8  C8  UNL     1     -33.919  17.765  -4.771  1.00 20.00     0.152 A 
HETATM    9  C9  UNL     1     -34.198  16.284  -4.829  1.00 20.00     0.159 A 
HETATM   10  C10 UNL     1     -34.372  15.481  -3.555  1.00 20.00    -0.012 C 
HETATM   11  O11 UNL     1     -32.885  16.804  -5.058  1.00 20.00    -0.375 OA
ENDROOT
TORSDOF 0
ENDMDL
MODEL 2
REMARK VINA RESULT:      -4.8      1.707      3.612
REMARK  0 active torsions:
REMARK  status: ('A' for Active; 'I' for Inactive)
ROOT
HETATM    1  C1  UNL     1     -34.638  16.739  -1.250  1.00 20.00     0.001 C 
HETATM    2  C2  UNL     1     -35.852  17.247  -2.024  1.00 20.00     0.001 C 
HETATM    3  C3  UNL     1     -34.407  15.380  -6.013  1.00 20.00     0.004 C 
HETATM    4  C4  UNL     1     -34.695  13.891  -5.844  1.00 20.00     0.034 C 
HETATM    5  C5  UNL     1     -33.631  16.281  -2.300  1.00 20.00     0.012 C 
HETATM    6  C6  UNL     1     -35.572  16.968  -3.501  1.00 20.00     0.012 C 
HETATM    7  C7  UNL     1     -33.642  15.940  -4.815  1.00 20.00     0.012 C 
HETATM    8  C8  UNL     1     -35.239  13.563  -4.491  1.00 20.00     0.152 A 
HETATM    9  C9  UNL     1     -35.102  14.513  -3.328  1.00 20.00     0.159 A 
HETATM   10  C10 UNL     1     -34.479  15.882  -3.519  1.00 20.00    -0.012 C 
HETATM   11  O11 UNL     1     -34.216  13.402  -3.491  1.00 20.00    -0.375 OA
ENDROOT
TORSDOF 0
ENDMDL
MODEL 3
REMARK VINA RESULT:      -4.7      2.340      3.777
REMARK  0 active torsions:
REMARK  status: ('A' for Active; 'I' for Inactive)
ROOT
HETATM    1  C1  UNL     1     -33.362  13.649  -3.701  1.00 20.00     0.001 C 
HETATM    2  C2  UNL     1     -33.097  15.152  -3.751  1.00 20.00     0.001 C 
HETATM    3  C3  UNL     1     -36.873  15.990  -6.305  1.00 20.00     0.004 C 
HETATM    4  C4  UNL     1     -38.021  15.869  -5.307  1.00 20.00     0.034 C 
HETATM    5  C5  UNL     1     -34.433  13.376  -4.752  1.00 20.00     0.012 C 
HETATM    6  C6  UNL     1     -34.098  15.736  -4.748  1.00 20.00     0.012 C 
HETATM    7  C7  UNL     1     -35.941  14.782  -6.232  1.00 20.00     0.012 C 
HETATM    8  C8  UNL     1     -37.557  15.465  -3.946  1.00 20.00     0.152 A 
HETATM    9  C9  UNL     1     -36.202  14.843  -3.720  1.00 20.00     0.159 A 
HETATM   10  C10 UNL     1     -35.223  14.690  -4.868  1.00 20.00    -0.012 C 
HETATM   11  O11 UNL     1     -37.383  14.042  -3.804  1.00 20.00    -0.375 OA
ENDROOT
TORSDOF 0
ENDMDL
MODEL 4
REMARK VINA RESULT:      -4.7      2.214      3.393
REMARK  0 active torsions:
REMARK  status: ('A' for Active; 'I' for Inactive)
ROOT
HETATM    1  C1  UNL     1     -38.280  15.199  -5.079  1.00 20.00     0.001 C 
HETATM    2  C2  UNL     1     -37.413  16.190  -5.851  1.00 20.00     0.001 C 
HETATM    3  C3  UNL     1     -33.696  15.391  -3.199  1.00 20.00     0.004 C 
HETATM    4  C4  UNL     1     -33.191  14.035  -3.680  1.00 20.00     0.034 C 
HETATM    5  C5  UNL     1     -37.513  14.874  -3.802  1.00 20.00     0.012 C 
HETATM    6  C6  UNL     1     -36.112  16.333  -5.062  1.00 20.00     0.012 C 
HETATM    7  C7  UNL     1     -35.192  15.353  -2.893  1.00 20.00     0.012 C 
HETATM    8  C8  UNL     1     -34.072  13.433  -4.727  1.00 20.00     0.152 A 
HETATM    9  C9  UNL     1     -35.486  13.910  -4.945  1.00 20.00     0.159 A 
HETATM   10  C10 UNL     1     -36.033  15.086  -4.160  1.00 20.00    -0.012 C 
HETATM   11  O11 UNL     1     -35.207  12.733  -4.181  1.00 20.00    -0.375 OA
ENDROOT
TORSDOF 0
ENDMDL
MODEL 5
REMARK VINA RESULT:      -4.7      1.594      1.949
REMARK  0 active torsions:
REMARK  status: ('A' for Active; 'I' for Inactive)
ROOT
HETATM    1  C1  UNL     1     -35.485  14.443  -7.130  1.00 20.00     0.001 C 
HETATM    2  C2  UNL     1     -36.690  15.214  -6.597  1.00 20.00     0.001 C 
HETATM    3  C3  UNL     1     -34.830  15.702  -2.379  1.00 20.00     0.004 C 
HETATM    4  C4  UNL     1     -33.775  16.787  -2.569  1.00 20.00     0.034 C 
HETATM    5  C5  UNL     1     -34.660  14.054  -5.908  1.00 20.00     0.012 C 
HETATM    6  C6  UNL     1     -36.481  15.354  -5.088  1.00 20.00     0.012 C 
HETATM    7  C7  UNL     1     -34.695  14.602  -3.430  1.00 20.00     0.012 C 
HETATM    8  C8  UNL     1     -33.661  17.232  -3.992  1.00 20.00     0.152 A 
HETATM    9  C9  UNL     1     -34.208  16.406  -5.129  1.00 20.00     0.159 A 
HETATM   10  C10 UNL     1     -34.975  15.128  -4.854  1.00 20.00    -0.012 C 
HETATM   11  O11 UNL     1     -32.819  16.378  -4.789  1.00 20.00    -0.375 OA
ENDROOT
TORSDOF 0
ENDMDL
MODEL 6
REMARK VINA RESULT:      -4.6      1.145      3.716
REMARK  0 active torsions:
REMARK  status: ('A' for Active; 'I' for Inactive)
ROOT
HETATM    1  C1  UNL     1     -33.527  18.427  -1.729  1.00 20.00     0.001 C 
HETATM    2  C2  UNL     1     -33.913  17.429  -0.640  1.00 20.00     0.001 C 
HETATM    3  C3  UNL     1     -35.929  14.539  -3.652  1.00 20.00     0.004 C 
HETATM    4  C4  UNL     1     -34.754  13.862  -4.350  1.00 20.00     0.034 C 
HETATM    5  C5  UNL     1     -34.315  18.022  -2.970  1.00 20.00     0.012 C 
HETATM    6  C6  UNL     1     -34.828  16.398  -1.303  1.00 20.00     0.012 C 
HETATM    7  C7  UNL     1     -35.775  16.059  -3.647  1.00 20.00     0.012 C 
HETATM    8  C8  UNL     1     -33.434  14.398  -3.898  1.00 20.00     0.152 A 
HETATM    9  C9  UNL     1     -33.315  15.720  -3.181  1.00 20.00     0.159 A 
HETATM   10  C10 UNL     1     -34.555  16.512  -2.815  1.00 20.00    -0.012 C 
HETATM   11  O11 UNL     1     -33.047  15.605  -4.581  1.00 20.00    -0.375 OA
ENDROOT
TORSDOF 0
ENDMDL
MODEL 7
REMARK VINA RESULT:      -4.5      1.482      3.887
REMARK  0 active torsions:
REMARK  status: ('A' for Active; 'I' for Inactive)
ROOT
HETATM    1  C1  UNL     1     -34.016  18.538  -3.489  1.00 20.00     0.001 C 
HETATM    2  C2  UNL     1     -33.563  18.220  -4.912  1.00 20.00     0.001 C 
HETATM    3  C3  UNL     1     -33.768  13.640  -4.221  1.00 20.00     0.004 C 
HETATM    4  C4  UNL     1     -35.262  13.334  -4.253  1.00 20.00     0.034 C 
HETATM    5  C5  UNL     1     -33.908  17.232  -2.710  1.00 20.00     0.012 C 
HETATM    6  C6  UNL     1     -33.310  16.713  -4.958  1.00 20.00     0.012 C 
HETATM    7  C7  UNL     1     -33.456  14.800  -3.277  1.00 20.00     0.012 C 
HETATM    8  C8  UNL     1     -36.096  14.565  -4.406  1.00 20.00     0.152 A 
HETATM    9  C9  UNL     1     -35.543  15.940  -4.126  1.00 20.00     0.159 A 
HETATM   10  C10 UNL     1     -34.083  16.124  -3.762  1.00 20.00    -0.012 C 
HETATM   11  O11 UNL     1     -36.338  15.247  -3.160  1.00 20.00    -0.375 OA
ENDROOT
TORSDOF 0
ENDMDL
MODEL 8
REMARK VINA RESULT:      -4.5      1.626      2.139
REMARK  0 active torsions:
REMARK  status: ('A' for Active; 'I' for Inactive)
ROOT
HETATM    1  C1  UNL     1     -34.571  14.280  -5.874  1.00 20.00     0.001 C 
HETATM    2  C2  UNL     1     -34.869  13.317  -4.728  1.00 20.00     0.001 C 
HETATM    3  C3  UNL     1     -34.267  16.583  -1.493  1.00 20.00     0.004 C 
HETATM    4  C4  UNL     1     -35.537  17.424  -1.584  1.00 20.00     0.034 C 
HETATM    5  C5  UNL     1     -33.963  15.523  -5.233  1.00 20.00     0.012 C 
HETATM    6  C6  UNL     1     -34.534  14.064  -3.437  1.00 20.00     0.012 C 
HETATM    7  C7  UNL     1     -33.631  16.382  -2.868  1.00 20.00     0.012 C 
HETATM    8  C8  UNL     1     -36.446  16.972  -2.682  1.00 20.00     0.152 A 
HETATM    9  C9  UNL     1     -35.959  16.091  -3.805  1.00 20.00     0.159 A 
HETATM   10  C10 UNL     1     -34.539  15.560  -3.808  1.00 20.00    -0.012 C 
HETATM   11  O11 UNL     1     -36.089  17.506  -3.971  1.00 20.00    -0.375 OA
ENDROOT
TORSDOF 0
ENDMDL
MODEL 9
REMARK VINA RESULT:      -4.5      1.950      2.922
REMARK  0 active torsions:
REMARK  status: ('A' for Active; 'I' for Inactive)
ROOT
HETATM    1  C1  UNL     1     -35.884  15.625  -7.863  1.00 20.00     0.001 C 
HETATM    2  C2  UNL     1     -37.003  15.737  -6.831  1.00 20.00     0.001 C 
HETATM    3  C3  UNL     1     -34.348  14.095  -3.404  1.00 20.00     0.004 C 
HETATM    4  C4  UNL     1     -33.434  15.266  -3.059  1.00 20.00     0.034 C 
HETATM    5  C5  UNL     1     -34.799  14.771  -7.217  1.00 20.00     0.012 C 
HETATM    6  C6  UNL     1     -36.497  15.042  -5.567  1.00 20.00     0.012 C 
HETATM    7  C7  UNL     1     -34.358  13.819  -4.906  1.00 20.00     0.012 C 
HETATM    8  C8  UNL     1     -33.648  16.444  -3.954  1.00 20.00     0.152 A 
HETATM    9  C9  UNL     1     -34.360  16.317  -5.278  1.00 20.00     0.159 A 
HETATM   10  C10 UNL     1     -34.963  14.993  -5.705  1.00 20.00    -0.012 C 
HETATM   11  O11 UNL     1     -32.932  16.349  -5.200  1.00 20.00    -0.375 OA
ENDROOT
TORSDOF 0
ENDMDL
