MODEL 1
REMARK VINA RESULT:      -5.3      0.000      0.000
REMARK  0 active torsions:
REMARK  status: ('A' for Active; 'I' for Inactive)
ROOT
HETATM    1  C1  UNL     1     -33.680  17.748  -5.768  1.00 20.00     0.154 A 
HETATM    2  C2  UNL     1     -33.920  16.500  -5.245  1.00 20.00     0.005 A 
HETATM    3  C3  UNL     1     -33.778  16.621  -3.870  1.00 20.00     0.013 A 
HETATM    4  C4  UNL     1     -33.594  17.939  -3.587  1.00 20.00     0.062 A 
HETATM    5  C5  UNL     1     -34.804  14.333  -4.844  1.00 20.00     0.143 C 
HETATM    6  C6  UNL     1     -34.365  15.249  -5.742  1.00 20.00    -0.027 C 
HETATM    7  C7  UNL     1     -33.687  18.556  -2.249  1.00 20.00     0.066 C 
HETATM    8  C8  UNL     1     -33.826  17.430  -1.178  1.00 20.00     0.009 C 
HETATM    9  C9  UNL     1     -34.635  16.177  -1.639  1.00 20.00     0.038 C 
HETATM   10  C10 UNL     1     -34.014  15.540  -2.905  1.00 20.00     0.164 C 
HETATM   11  C11 UNL     1     -34.381  15.061  -7.221  1.00 20.00     0.051 C 
HETATM   12  O12 UNL     1     -33.494  18.656  -4.741  1.00 20.00    -0.326 OA
HETATM   13  O13 UNL     1     -34.833  14.477  -3.456  1.00 20.00    -0.352 OA
ENDROOT
TORSDOF 0
ENDMDL
MODEL 2
REMARK VINA RESULT:      -5.0      4.606      7.242
REMARK  0 active torsions:
REMARK  status: ('A' for Active; 'I' for Inactive)
ROOT
HETATM    1  C1  UNL     1     -31.267  19.263   2.064  1.00 20.00     0.154 A 
HETATM    2  C2  UNL     1     -32.480  18.914   2.605  1.00 20.00     0.005 A 
HETATM    3  C3  UNL     1     -33.342  18.719   1.534  1.00 20.00     0.013 A 
HETATM    4  C4  UNL     1     -32.610  18.819   0.391  1.00 20.00     0.062 A 
HETATM    5  C5  UNL     1     -34.172  17.977   3.982  1.00 20.00     0.143 C 
HETATM    6  C6  UNL     1     -32.978  18.611   3.897  1.00 20.00    -0.027 C 
HETATM    7  C7  UNL     1     -33.049  18.401  -0.955  1.00 20.00     0.066 C 
HETATM    8  C8  UNL     1     -34.561  18.017  -0.901  1.00 20.00     0.009 C 
HETATM    9  C9  UNL     1     -35.025  17.354   0.434  1.00 20.00     0.038 C 
HETATM   10  C10 UNL     1     -34.733  18.266   1.648  1.00 20.00     0.164 C 
HETATM   11  C11 UNL     1     -32.116  18.954   5.065  1.00 20.00     0.051 C 
HETATM   12  O12 UNL     1     -31.332  19.189   0.684  1.00 20.00    -0.326 OA
HETATM   13  O13 UNL     1     -34.998  17.613   2.917  1.00 20.00    -0.352 OA
ENDROOT
TORSDOF 0
ENDMDL
MODEL 3
REMARK VINA RESULT:      -4.9      0.949      4.613
REMARK  0 active torsions:
REMARK  status: ('A' for Active; 'I' for Inactive)
ROOT
HETATM    1  C1  UNL     1     -34.797  14.411  -3.070  1.00 20.00     0.154 A 
HETATM    2  C2  UNL     1     -34.268  15.621  -3.445  1.00 20.00     0.005 A 
HETATM    3  C3  UNL     1     -34.147  15.580  -4.828  1.00 20.00     0.013 A 
HETATM    4  C4  UNL     1     -34.720  14.424  -5.259  1.00 20.00     0.062 A 
HETATM    5  C5  UNL     1     -33.759  17.936  -3.589  1.00 20.00     0.143 C 
HETATM    6  C6  UNL     1     -33.958  16.848  -2.806  1.00 20.00    -0.027 C 
HETATM    7  C7  UNL     1     -35.074  14.105  -6.656  1.00 20.00     0.066 C 
HETATM    8  C8  UNL     1     -34.501  15.214  -7.593  1.00 20.00     0.009 C 
HETATM    9  C9  UNL     1     -34.489  16.650  -6.983  1.00 20.00     0.038 C 
HETATM   10  C10 UNL     1     -33.685  16.696  -5.662  1.00 20.00     0.164 C 
HETATM   11  C11 UNL     1     -33.942  16.863  -1.314  1.00 20.00     0.051 C 
HETATM   12  O12 UNL     1     -35.100  13.664  -4.194  1.00 20.00    -0.326 OA
HETATM   13  O13 UNL     1     -33.792  17.974  -4.984  1.00 20.00    -0.352 OA
ENDROOT
TORSDOF 0
ENDMDL
MODEL 4
REMARK VINA RESULT:      -4.9      2.166      4.319
REMARK  0 active torsions:
REMARK  status: ('A' for Active; 'I' for Inactive)
ROOT
HETATM    1  C1  UNL     1     -37.528  15.458  -3.656  1.00 20.00     0.154 A 
HETATM    2  C2  UNL     1     -36.511  16.230  -3.149  1.00 20.00     0.005 A 
HETATM    3  C3  UNL     1     -35.374  15.434  -3.165  1.00 20.00     0.013 A 
HETATM    4  C4  UNL     1     -35.692  14.270  -3.793  1.00 20.00     0.062 A 
HETATM    5  C5  UNL     1     -35.082  18.053  -2.626  1.00 20.00     0.143 C 
HETATM    6  C6  UNL     1     -36.346  17.584  -2.762  1.00 20.00    -0.027 C 
HETATM    7  C7  UNL     1     -34.731  13.264  -4.287  1.00 20.00     0.066 C 
HETATM    8  C8  UNL     1     -33.300  13.642  -3.793  1.00 20.00     0.009 C 
HETATM    9  C9  UNL     1     -33.018  15.174  -3.702  1.00 20.00     0.038 C 
HETATM   10  C10 UNL     1     -34.032  15.881  -2.772  1.00 20.00     0.164 C 
HETATM   11  C11 UNL     1     -37.578  18.409  -2.600  1.00 20.00     0.051 C 
HETATM   12  O12 UNL     1     -37.024  14.241  -4.077  1.00 20.00    -0.326 OA
HETATM   13  O13 UNL     1     -33.902  17.326  -2.795  1.00 20.00    -0.352 OA
ENDROOT
TORSDOF 0
ENDMDL
MODEL 5
REMARK VINA RESULT:      -4.9      1.844      4.562
REMARK  0 active torsions:
REMARK  status: ('A' for Active; 'I' for Inactive)
ROOT
HETATM    1  C1  UNL     1     -37.058  15.821  -3.366  1.00 20.00     0.154 A 
HETATM    2  C2  UNL     1     -35.699  15.671  -3.497  1.00 20.00     0.005 A 
HETATM    3  C3  UNL     1     -35.483  15.192  -4.782  1.00 20.00     0.013 A 
HETATM    4  C4  UNL     1     -36.680  15.194  -5.430  1.00 20.00     0.062 A 
HETATM    5  C5  UNL     1     -33.350  15.985  -3.349  1.00 20.00     0.143 C 
HETATM    6  C6  UNL     1     -34.553  15.985  -2.725  1.00 20.00    -0.027 C 
HETATM    7  C7  UNL     1     -36.873  15.043  -6.886  1.00 20.00     0.066 C 
HETATM    8  C8  UNL     1     -35.508  14.673  -7.546  1.00 20.00     0.009 C 
HETATM    9  C9  UNL     1     -34.257  15.322  -6.876  1.00 20.00     0.038 C 
HETATM   10  C10 UNL     1     -34.163  14.952  -5.377  1.00 20.00     0.164 C 
HETATM   11  C11 UNL     1     -34.766  16.360  -1.296  1.00 20.00     0.051 C 
HETATM   12  O12 UNL     1     -37.677  15.544  -4.571  1.00 20.00    -0.326 OA
HETATM   13  O13 UNL     1     -33.108  15.670  -4.687  1.00 20.00    -0.352 OA
ENDROOT
TORSDOF 0
ENDMDL
MODEL 6
REMARK VINA RESULT:      -4.8      4.333      6.634
REMARK  0 active torsions:
REMARK  status: ('A' for Active; 'I' for Inactive)
ROOT
HETATM    1  C1  UNL     1     -35.314  17.576   1.291  1.00 20.00     0.154 A 
HETATM    2  C2  UNL     1     -34.161  18.172   0.842  1.00 20.00     0.005 A 
HETATM    3  C3  UNL     1     -33.490  18.621   1.971  1.00 20.00     0.013 A 
HETATM    4  C4  UNL     1     -34.170  18.174   3.061  1.00 20.00     0.062 A 
HETATM    5  C5  UNL     1     -32.195  18.687  -0.385  1.00 20.00     0.143 C 
HETATM    6  C6  UNL     1     -33.497  18.313  -0.403  1.00 20.00    -0.027 C 
HETATM    7  C7  UNL     1     -33.668  18.167   4.449  1.00 20.00     0.066 C 
HETATM    8  C8  UNL     1     -32.314  18.941   4.505  1.00 20.00     0.009 C 
HETATM    9  C9  UNL     1     -31.421  18.798   3.233  1.00 20.00     0.038 C 
HETATM   10  C10 UNL     1     -32.170  19.263   1.962  1.00 20.00     0.164 C 
HETATM   11  C11 UNL     1     -34.264  17.971  -1.636  1.00 20.00     0.051 C 
HETATM   12  O12 UNL     1     -35.320  17.555   2.674  1.00 20.00    -0.326 OA
HETATM   13  O13 UNL     1     -31.431  18.989   0.744  1.00 20.00    -0.352 OA
ENDROOT
TORSDOF 0
ENDMDL
MODEL 7
REMARK VINA RESULT:      -4.7      0.973      3.679
REMARK  0 active torsions:
REMARK  status: ('A' for Active; 'I' for Inactive)
ROOT
HETATM    1  C1  UNL     1     -33.499  18.366  -4.871  1.00 20.00     0.154 A 
HETATM    2  C2  UNL     1     -33.991  17.472  -3.952  1.00 20.00     0.005 A 
HETATM    3  C3  UNL     1     -34.509  16.410  -4.680  1.00 20.00     0.013 A 
HETATM    4  C4  UNL     1     -34.202  16.618  -5.989  1.00 20.00     0.062 A 
HETATM    5  C5  UNL     1     -34.287  16.132  -2.014  1.00 20.00     0.143 C 
HETATM    6  C6  UNL     1     -33.980  17.342  -2.540  1.00 20.00    -0.027 C 
HETATM    7  C7  UNL     1     -34.300  15.616  -7.068  1.00 20.00     0.066 C 
HETATM    8  C8  UNL     1     -35.006  14.339  -6.515  1.00 20.00     0.009 C 
HETATM    9  C9  UNL     1     -34.698  14.012  -5.020  1.00 20.00     0.038 C 
HETATM   10  C10 UNL     1     -35.079  15.191  -4.095  1.00 20.00     0.164 C 
HETATM   11  C11 UNL     1     -33.563  18.532  -1.742  1.00 20.00     0.051 C 
HETATM   12  O12 UNL     1     -33.609  17.835  -6.144  1.00 20.00    -0.326 OA
HETATM   13  O13 UNL     1     -34.654  14.987  -2.723  1.00 20.00    -0.352 OA
ENDROOT
TORSDOF 0
ENDMDL
MODEL 8
REMARK VINA RESULT:      -4.6      1.960      3.004
REMARK  0 active torsions:
REMARK  status: ('A' for Active; 'I' for Inactive)
ROOT
HETATM    1  C1  UNL     1     -34.226  17.938  -5.383  1.00 20.00     0.154 A 
HETATM    2  C2  UNL     1     -34.729  16.915  -6.149  1.00 20.00     0.005 A 
HETATM    3  C3  UNL     1     -34.245  15.738  -5.593  1.00 20.00     0.013 A 
HETATM    4  C4  UNL     1     -33.587  16.063  -4.447  1.00 20.00     0.062 A 
HETATM    5  C5  UNL     1     -36.147  15.559  -7.487  1.00 20.00     0.143 C 
HETATM    6  C6  UNL     1     -35.654  16.792  -7.216  1.00 20.00    -0.027 C 
HETATM    7  C7  UNL     1     -33.169  15.116  -3.395  1.00 20.00     0.066 C 
HETATM    8  C8  UNL     1     -33.414  13.658  -3.894  1.00 20.00     0.009 C 
HETATM    9  C9  UNL     1     -34.666  13.477  -4.809  1.00 20.00     0.038 C 
HETATM   10  C10 UNL     1     -34.590  14.389  -6.056  1.00 20.00     0.164 C 
HETATM   11  C11 UNL     1     -36.068  18.042  -7.917  1.00 20.00     0.051 C 
HETATM   12  O12 UNL     1     -33.528  17.416  -4.309  1.00 20.00    -0.326 OA
HETATM   13  O13 UNL     1     -35.811  14.369  -6.840  1.00 20.00    -0.352 OA
ENDROOT
TORSDOF 0
ENDMDL
MODEL 9
REMARK VINA RESULT:      -4.6      1.938      4.538
REMARK  0 active torsions:
REMARK  status: ('A' for Active; 'I' for Inactive)
ROOT
HETATM    1  C1  UNL     1     -33.798  14.588  -3.276  1.00 20.00     0.154 A 
HETATM    2  C2  UNL     1     -34.687  15.635  -3.281  1.00 20.00     0.005 A 
HETATM    3  C3  UNL     1     -35.190  15.711  -4.572  1.00 20.00     0.013 A 
HETATM    4  C4  UNL     1     -34.708  14.645  -5.267  1.00 20.00     0.062 A 
HETATM    5  C5  UNL     1     -36.361  17.201  -2.664  1.00 20.00     0.143 C 
HETATM    6  C6  UNL     1     -35.252  16.505  -2.315  1.00 20.00    -0.027 C 
HETATM    7  C7  UNL     1     -35.205  14.170  -6.574  1.00 20.00     0.066 C 
HETATM    8  C8  UNL     1     -36.233  15.202  -7.134  1.00 20.00     0.009 C 
HETATM    9  C9  UNL     1     -37.106  15.914  -6.054  1.00 20.00     0.038 C 
HETATM   10  C10 UNL     1     -36.229  16.649  -5.013  1.00 20.00     0.164 C 
HETATM   11  C11 UNL     1     -34.621  16.538  -0.964  1.00 20.00     0.051 C 
HETATM   12  O12 UNL     1     -33.817  13.953  -4.504  1.00 20.00    -0.326 OA
HETATM   13  O13 UNL     1     -37.000  17.180  -3.905  1.00 20.00    -0.352 OA
ENDROOT
TORSDOF 0
ENDMDL
