MODEL 1
REMARK VINA RESULT:      -4.2      0.000      0.000
REMARK  1 active torsions:
REMARK  status: ('A' for Active; 'I' for Inactive)
REMARK    1  A    between atoms: C4_4  and  C9_9 
ROOT
HETATM    1  C1  UNL     1     -33.887  14.480  -3.175  1.00 20.00     0.174 C 
HETATM    2  C2  UNL     1     -36.072  15.332  -4.246  1.00 20.00     0.083 C 
HETATM    3  C3  UNL     1     -35.164  14.128  -3.954  1.00 20.00     0.015 C 
HETATM    4  C4  UNL     1     -34.169  16.867  -2.986  1.00 20.00     0.108 C 
HETATM    5  C5  UNL     1     -34.812  13.435  -5.275  1.00 20.00     0.012 C 
HETATM    6  C6  UNL     1     -33.891  18.071  -3.888  1.00 20.00     0.058 C 
HETATM    7  O10 UNL     1     -33.411  15.773  -3.534  1.00 20.00    -0.369 OA
HETATM    8  S11 UNL     1     -35.984  16.588  -2.943  1.00 20.00    -0.131 SA
ENDROOT
BRANCH   4   9
HETATM    9  C9  UNL     1     -33.678  17.165  -1.566  1.00 20.00     0.022 C 
HETATM   10  C7  UNL     1     -33.305  18.638  -1.432  1.00 20.00     0.013 C 
HETATM   11  C8  UNL     1     -34.742  16.780  -0.545  1.00 20.00     0.013 C 
ENDBRANCH   4   9
TORSDOF 1
ENDMDL
MODEL 2
REMARK VINA RESULT:      -4.2      1.884      4.193
REMARK  1 active torsions:
REMARK  status: ('A' for Active; 'I' for Inactive)
REMARK    1  A    between atoms: C4_4  and  C9_9 
ROOT
HETATM    1  C1  UNL     1     -36.016  15.977  -3.029  1.00 20.00     0.174 C 
HETATM    2  C2  UNL     1     -33.561  16.387  -2.361  1.00 20.00     0.083 C 
HETATM    3  C3  UNL     1     -35.023  16.297  -1.901  1.00 20.00     0.015 C 
HETATM    4  C4  UNL     1     -34.496  15.892  -4.899  1.00 20.00     0.108 C 
HETATM    5  C5  UNL     1     -35.410  17.606  -1.203  1.00 20.00     0.012 C 
HETATM    6  C6  UNL     1     -33.852  16.925  -5.827  1.00 20.00     0.058 C 
HETATM    7  O10 UNL     1     -35.598  16.562  -4.259  1.00 20.00    -0.369 OA
HETATM    8  S11 UNL     1     -33.208  15.273  -3.746  1.00 20.00    -0.131 SA
ENDROOT
BRANCH   4   9
HETATM    9  C9  UNL     1     -35.028  14.718  -5.728  1.00 20.00     0.022 C 
HETATM   10  C7  UNL     1     -34.554  14.832  -7.173  1.00 20.00     0.013 C 
HETATM   11  C8  UNL     1     -34.586  13.394  -5.116  1.00 20.00     0.013 C 
ENDBRANCH   4   9
TORSDOF 1
ENDMDL
MODEL 3
REMARK VINA RESULT:      -4.1      1.471      4.152
REMARK  1 active torsions:
REMARK  status: ('A' for Active; 'I' for Inactive)
REMARK    1  A    between atoms: C4_4  and  C9_9 
ROOT
HETATM    1  C1  UNL     1     -33.683  16.135  -2.578  1.00 20.00     0.174 C 
HETATM    2  C2  UNL     1     -35.943  17.373  -2.491  1.00 20.00     0.083 C 
HETATM    3  C3  UNL     1     -34.539  17.211  -1.890  1.00 20.00     0.015 C 
HETATM    4  C4  UNL     1     -35.268  15.335  -4.209  1.00 20.00     0.108 C 
HETATM    5  C5  UNL     1     -34.667  16.915  -0.391  1.00 20.00     0.012 C 
HETATM    6  C6  UNL     1     -36.429  14.336  -4.201  1.00 20.00     0.058 C 
HETATM    7  O10 UNL     1     -34.491  15.053  -3.030  1.00 20.00    -0.369 OA
HETATM    8  S11 UNL     1     -35.970  17.031  -4.270  1.00 20.00    -0.131 SA
ENDROOT
BRANCH   4   9
HETATM    9  C9  UNL     1     -34.404  15.108  -5.454  1.00 20.00     0.022 C 
HETATM   10  C7  UNL     1     -35.113  14.173  -6.427  1.00 20.00     0.013 C 
HETATM   11  C8  UNL     1     -34.077  16.439  -6.120  1.00 20.00     0.013 C 
ENDBRANCH   4   9
TORSDOF 1
ENDMDL
MODEL 4
REMARK VINA RESULT:      -4.1      1.427      4.168
REMARK  1 active torsions:
REMARK  status: ('A' for Active; 'I' for Inactive)
REMARK    1  A    between atoms: C4_4  and  C9_9 
ROOT
HETATM    1  C1  UNL     1     -34.562  16.335  -1.447  1.00 20.00     0.174 C 
HETATM    2  C2  UNL     1     -33.843  17.999  -3.280  1.00 20.00     0.083 C 
HETATM    3  C3  UNL     1     -33.994  17.725  -1.776  1.00 20.00     0.015 C 
HETATM    4  C4  UNL     1     -34.915  15.499  -3.681  1.00 20.00     0.108 C 
HETATM    5  C5  UNL     1     -34.865  18.821  -1.152  1.00 20.00     0.012 C 
HETATM    6  C6  UNL     1     -36.014  15.643  -4.737  1.00 20.00     0.058 C 
HETATM    7  O10 UNL     1     -35.501  15.921  -2.435  1.00 20.00    -0.369 OA
HETATM    8  S11 UNL     1     -33.468  16.494  -4.217  1.00 20.00    -0.131 SA
ENDROOT
BRANCH   4   9
HETATM    9  C9  UNL     1     -34.496  14.029  -3.574  1.00 20.00     0.022 C 
HETATM   10  C7  UNL     1     -35.113  13.218  -4.709  1.00 20.00     0.013 C 
HETATM   11  C8  UNL     1     -32.977  13.910  -3.585  1.00 20.00     0.013 C 
ENDBRANCH   4   9
TORSDOF 1
ENDMDL
MODEL 5
REMARK VINA RESULT:      -4.1      1.757      4.241
REMARK  1 active torsions:
REMARK  status: ('A' for Active; 'I' for Inactive)
REMARK    1  A    between atoms: C4_4  and  C9_9 
ROOT
HETATM    1  C1  UNL     1     -34.265  15.317  -2.679  1.00 20.00     0.174 C 
HETATM    2  C2  UNL     1     -34.002  17.873  -2.884  1.00 20.00     0.083 C 
HETATM    3  C3  UNL     1     -33.876  16.633  -1.987  1.00 20.00     0.015 C 
HETATM    4  C4  UNL     1     -34.917  16.169  -4.839  1.00 20.00     0.108 C 
HETATM    5  C5  UNL     1     -34.717  16.841  -0.723  1.00 20.00     0.012 C 
HETATM    6  C6  UNL     1     -36.185  16.795  -5.425  1.00 20.00     0.058 C 
HETATM    7  O10 UNL     1     -35.318  15.525  -3.615  1.00 20.00    -0.369 OA
HETATM    8  S11 UNL     1     -33.667  17.498  -4.625  1.00 20.00    -0.131 SA
ENDROOT
BRANCH   4   9
HETATM    9  C9  UNL     1     -34.367  15.120  -5.810  1.00 20.00     0.022 C 
HETATM   10  C7  UNL     1     -35.146  13.815  -5.677  1.00 20.00     0.013 C 
HETATM   11  C8  UNL     1     -34.421  15.641  -7.240  1.00 20.00     0.013 C 
ENDBRANCH   4   9
TORSDOF 1
ENDMDL
MODEL 6
REMARK VINA RESULT:      -4.0      1.093      1.111
REMARK  1 active torsions:
REMARK  status: ('A' for Active; 'I' for Inactive)
REMARK    1  A    between atoms: C4_4  and  C9_9 
ROOT
HETATM    1  C1  UNL     1     -33.675  15.255  -4.229  1.00 20.00     0.174 C 
HETATM    2  C2  UNL     1     -35.852  16.395  -5.010  1.00 20.00     0.083 C 
HETATM    3  C3  UNL     1     -34.907  15.192  -5.147  1.00 20.00     0.015 C 
HETATM    4  C4  UNL     1     -34.064  17.386  -3.171  1.00 20.00     0.108 C 
HETATM    5  C5  UNL     1     -34.476  15.058  -6.612  1.00 20.00     0.012 C 
HETATM    6  C6  UNL     1     -33.802  18.849  -3.538  1.00 20.00     0.058 C 
HETATM    7  O10 UNL     1     -33.240  16.599  -4.051  1.00 20.00    -0.369 OA
HETATM    8  S11 UNL     1     -35.866  17.068  -3.327  1.00 20.00    -0.131 SA
ENDROOT
BRANCH   4   9
HETATM    9  C9  UNL     1     -33.639  17.138  -1.720  1.00 20.00     0.022 C 
HETATM   10  C7  UNL     1     -33.233  18.449  -1.055  1.00 20.00     0.013 C 
HETATM   11  C8  UNL     1     -34.765  16.463  -0.946  1.00 20.00     0.013 C 
ENDBRANCH   4   9
TORSDOF 1
ENDMDL
MODEL 7
REMARK VINA RESULT:      -4.0      1.813      4.232
REMARK  1 active torsions:
REMARK  status: ('A' for Active; 'I' for Inactive)
REMARK    1  A    between atoms: C4_4  and  C9_9 
ROOT
HETATM    1  C1  UNL     1     -33.702  16.788  -3.550  1.00 20.00     0.174 C 
HETATM    2  C2  UNL     1     -36.163  16.232  -3.019  1.00 20.00     0.083 C 
HETATM    3  C3  UNL     1     -34.887  16.972  -2.589  1.00 20.00     0.015 C 
HETATM    4  C4  UNL     1     -34.710  15.302  -5.160  1.00 20.00     0.108 C 
HETATM    5  C5  UNL     1     -34.503  16.526  -1.174  1.00 20.00     0.012 C 
HETATM    6  C6  UNL     1     -34.951  13.793  -5.248  1.00 20.00     0.058 C 
HETATM    7  O10 UNL     1     -33.717  15.489  -4.135  1.00 20.00    -0.369 OA
HETATM    8  S11 UNL     1     -36.318  16.122  -4.821  1.00 20.00    -0.131 SA
ENDROOT
BRANCH   4   9
HETATM    9  C9  UNL     1     -34.163  15.813  -6.497  1.00 20.00     0.022 C 
HETATM   10  C7  UNL     1     -34.550  14.863  -7.625  1.00 20.00     0.013 C 
HETATM   11  C8  UNL     1     -34.675  17.221  -6.775  1.00 20.00     0.013 C 
ENDBRANCH   4   9
TORSDOF 1
ENDMDL
MODEL 8
REMARK VINA RESULT:      -4.0      1.536      3.672
REMARK  1 active torsions:
REMARK  status: ('A' for Active; 'I' for Inactive)
REMARK    1  A    between atoms: C4_4  and  C9_9 
ROOT
HETATM    1  C1  UNL     1     -33.374  16.449  -5.270  1.00 20.00     0.174 C 
HETATM    2  C2  UNL     1     -35.596  17.692  -4.871  1.00 20.00     0.083 C 
HETATM    3  C3  UNL     1     -34.329  17.562  -5.729  1.00 20.00     0.015 C 
HETATM    4  C4  UNL     1     -34.574  15.651  -3.337  1.00 20.00     0.108 C 
HETATM    5  C5  UNL     1     -33.603  18.912  -5.758  1.00 20.00     0.012 C 
HETATM    6  C6  UNL     1     -34.692  16.084  -1.874  1.00 20.00     0.058 C 
HETATM    7  O10 UNL     1     -33.400  16.305  -3.854  1.00 20.00    -0.369 OA
HETATM    8  S11 UNL     1     -36.134  16.099  -4.197  1.00 20.00    -0.131 SA
ENDROOT
BRANCH   4   9
HETATM    9  C9  UNL     1     -34.384  14.133  -3.410  1.00 20.00     0.022 C 
HETATM   10  C7  UNL     1     -35.185  13.553  -4.570  1.00 20.00     0.013 C 
HETATM   11  C8  UNL     1     -32.905  13.790  -3.547  1.00 20.00     0.013 C 
ENDBRANCH   4   9
TORSDOF 1
ENDMDL
MODEL 9
REMARK VINA RESULT:      -4.0      1.666      4.107
REMARK  1 active torsions:
REMARK  status: ('A' for Active; 'I' for Inactive)
REMARK    1  A    between atoms: C4_4  and  C9_9 
ROOT
HETATM    1  C1  UNL     1     -34.156  17.063  -0.851  1.00 20.00     0.174 C 
HETATM    2  C2  UNL     1     -36.050  18.328  -2.059  1.00 20.00     0.083 C 
HETATM    3  C3  UNL     1     -35.137  18.246  -0.827  1.00 20.00     0.015 C 
HETATM    4  C4  UNL     1     -34.812  16.032  -2.929  1.00 20.00     0.108 C 
HETATM    5  C5  UNL     1     -36.005  18.196   0.436  1.00 20.00     0.012 C 
HETATM    6  C6  UNL     1     -35.915  15.063  -3.364  1.00 20.00     0.058 C 
HETATM    7  O10 UNL     1     -34.736  15.933  -1.495  1.00 20.00    -0.369 OA
HETATM    8  S11 UNL     1     -35.239  17.705  -3.555  1.00 20.00    -0.131 SA
ENDROOT
BRANCH   4   9
HETATM    9  C9  UNL     1     -33.476  15.597  -3.541  1.00 20.00     0.022 C 
HETATM   10  C7  UNL     1     -33.466  14.090  -3.774  1.00 20.00     0.013 C 
HETATM   11  C8  UNL     1     -33.220  16.349  -4.841  1.00 20.00     0.013 C 
ENDBRANCH   4   9
TORSDOF 1
ENDMDL
