MODEL 1
REMARK VINA RESULT:      -3.4      0.000      0.000
REMARK  1 active torsions:
REMARK  status: ('A' for Active; 'I' for Inactive)
REMARK    1  A    between atoms: C2_2  and  C4_4 
ROOT
HETATM    1  C1  UNL     1     -34.637  13.686  -5.377  1.00 20.00     0.171 A 
HETATM    2  C2  UNL     1     -34.295  13.954  -3.924  1.00 20.00     0.175 A 
HETATM    3  C3  UNL     1     -35.712  14.407  -6.108  1.00 20.00     0.044 C 
HETATM    4  O5  UNL     1     -35.096  12.830  -4.324  1.00 20.00    -0.352 OA
HETATM    5 CL6  UNL     1     -32.631  13.637  -3.420  1.00 20.00    -0.084 Cl
ENDROOT
BRANCH   2   6
HETATM    6  C4  UNL     1     -35.033  14.967  -3.112  1.00 20.00     0.172 C 
HETATM    7 CL7  UNL     1     -33.914  16.156  -2.393  1.00 20.00    -0.126 Cl
ENDBRANCH   2   6
TORSDOF 1
ENDMDL
MODEL 2
REMARK VINA RESULT:      -3.3      2.282      3.055
REMARK  1 active torsions:
REMARK  status: ('A' for Active; 'I' for Inactive)
REMARK    1  A    between atoms: C2_2  and  C4_4 
ROOT
HETATM    1  C1  UNL     1     -34.485  13.787  -3.591  1.00 20.00     0.171 A 
HETATM    2  C2  UNL     1     -35.381  14.022  -4.792  1.00 20.00     0.175 A 
HETATM    3  C3  UNL     1     -33.001  13.830  -3.660  1.00 20.00     0.044 C 
HETATM    4  O5  UNL     1     -35.090  12.702  -4.304  1.00 20.00    -0.352 OA
HETATM    5 CL6  UNL     1     -36.992  14.675  -4.476  1.00 20.00    -0.084 Cl
ENDROOT
BRANCH   2   6
HETATM    6  C4  UNL     1     -34.825  14.304  -6.150  1.00 20.00     0.172 C 
HETATM    7 CL7  UNL     1     -34.352  16.017  -6.309  1.00 20.00    -0.126 Cl
ENDBRANCH   2   6
TORSDOF 1
ENDMDL
MODEL 3
REMARK VINA RESULT:      -3.3     11.688     12.464
REMARK  1 active torsions:
REMARK  status: ('A' for Active; 'I' for Inactive)
REMARK    1  A    between atoms: C2_2  and  C4_4 
ROOT
HETATM    1  C1  UNL     1     -34.418   6.092   6.008  1.00 20.00     0.171 A 
HETATM    2  C2  UNL     1     -34.364   5.965   4.497  1.00 20.00     0.175 A 
HETATM    3  C3  UNL     1     -33.573   7.043   6.777  1.00 20.00     0.044 C 
HETATM    4  O5  UNL     1     -33.698   5.033   5.365  1.00 20.00    -0.352 OA
HETATM    5 CL6  UNL     1     -35.836   5.421   3.686  1.00 20.00    -0.084 Cl
ENDROOT
BRANCH   2   6
HETATM    6  C4  UNL     1     -33.437   6.791   3.668  1.00 20.00     0.172 C 
HETATM    7 CL7  UNL     1     -32.057   5.821   3.085  1.00 20.00    -0.126 Cl
ENDBRANCH   2   6
TORSDOF 1
ENDMDL
MODEL 4
REMARK VINA RESULT:      -3.3     10.755     11.415
REMARK  1 active torsions:
REMARK  status: ('A' for Active; 'I' for Inactive)
REMARK    1  A    between atoms: C2_2  and  C4_4 
ROOT
HETATM    1  C1  UNL     1     -32.179   7.337   3.432  1.00 20.00     0.171 A 
HETATM    2  C2  UNL     1     -33.205   6.349   3.953  1.00 20.00     0.175 A 
HETATM    3  C3  UNL     1     -32.175   7.847   2.036  1.00 20.00     0.044 C 
HETATM    4  O5  UNL     1     -31.883   5.941   3.563  1.00 20.00    -0.352 OA
HETATM    5 CL6  UNL     1     -33.568   6.406   5.681  1.00 20.00    -0.084 Cl
ENDROOT
BRANCH   2   6
HETATM    6  C4  UNL     1     -34.290   5.803   3.083  1.00 20.00     0.172 C 
HETATM    7 CL7  UNL     1     -35.617   5.120   4.061  1.00 20.00    -0.126 Cl
ENDBRANCH   2   6
TORSDOF 1
ENDMDL
MODEL 5
REMARK VINA RESULT:      -3.3      2.173      2.936
REMARK  1 active torsions:
REMARK  status: ('A' for Active; 'I' for Inactive)
REMARK    1  A    between atoms: C2_2  and  C4_4 
ROOT
HETATM    1  C1  UNL     1     -33.413  16.367  -4.018  1.00 20.00     0.171 A 
HETATM    2  C2  UNL     1     -34.361  15.623  -3.096  1.00 20.00     0.175 A 
HETATM    3  C3  UNL     1     -33.585  16.418  -5.494  1.00 20.00     0.044 C 
HETATM    4  O5  UNL     1     -33.094  15.072  -3.495  1.00 20.00    -0.352 OA
HETATM    5 CL6  UNL     1     -34.507  16.225  -1.442  1.00 20.00    -0.084 Cl
ENDROOT
BRANCH   2   6
HETATM    6  C4  UNL     1     -35.540  14.869  -3.617  1.00 20.00     0.172 C 
HETATM    7 CL7  UNL     1     -35.067  13.245  -4.185  1.00 20.00    -0.126 Cl
ENDBRANCH   2   6
TORSDOF 1
ENDMDL
MODEL 6
REMARK VINA RESULT:      -3.3     11.381     11.951
REMARK  1 active torsions:
REMARK  status: ('A' for Active; 'I' for Inactive)
REMARK    1  A    between atoms: C2_2  and  C4_4 
ROOT
HETATM    1  C1  UNL     1     -32.931   6.525   3.206  1.00 20.00     0.171 A 
HETATM    2  C2  UNL     1     -33.976   6.138   4.235  1.00 20.00     0.175 A 
HETATM    3  C3  UNL     1     -31.653   7.199   3.557  1.00 20.00     0.044 C 
HETATM    4  O5  UNL     1     -34.106   7.316   3.422  1.00 20.00    -0.352 OA
HETATM    5 CL6  UNL     1     -35.009   4.758   3.848  1.00 20.00    -0.084 Cl
ENDROOT
BRANCH   2   6
HETATM    6  C4  UNL     1     -33.796   6.422   5.691  1.00 20.00     0.172 C 
HETATM    7 CL7  UNL     1     -34.721   5.270   6.690  1.00 20.00    -0.126 Cl
ENDBRANCH   2   6
TORSDOF 1
ENDMDL
MODEL 7
REMARK VINA RESULT:      -3.2     11.732     12.283
REMARK  1 active torsions:
REMARK  status: ('A' for Active; 'I' for Inactive)
REMARK    1  A    between atoms: C2_2  and  C4_4 
ROOT
HETATM    1  C1  UNL     1     -33.531   5.969   3.481  1.00 20.00     0.171 A 
HETATM    2  C2  UNL     1     -34.207   5.511   4.760  1.00 20.00     0.175 A 
HETATM    3  C3  UNL     1     -32.187   6.602   3.451  1.00 20.00     0.044 C 
HETATM    4  O5  UNL     1     -34.550   6.750   4.117  1.00 20.00    -0.352 OA
HETATM    5 CL6  UNL     1     -35.354   4.175   4.627  1.00 20.00    -0.084 Cl
ENDROOT
BRANCH   2   6
HETATM    6  C4  UNL     1     -33.563   5.680   6.097  1.00 20.00     0.172 C 
HETATM    7 CL7  UNL     1     -33.864   7.311   6.756  1.00 20.00    -0.126 Cl
ENDBRANCH   2   6
TORSDOF 1
ENDMDL
MODEL 8
REMARK VINA RESULT:      -3.1     12.283     12.400
REMARK  1 active torsions:
REMARK  status: ('A' for Active; 'I' for Inactive)
REMARK    1  A    between atoms: C2_2  and  C4_4 
ROOT
HETATM    1  C1  UNL     1     -41.616   4.569  -2.105  1.00 20.00     0.171 A 
HETATM    2  C2  UNL     1     -41.380   5.156  -0.726  1.00 20.00     0.175 A 
HETATM    3  C3  UNL     1     -42.467   3.373  -2.347  1.00 20.00     0.044 C 
HETATM    4  O5  UNL     1     -40.413   4.311  -1.371  1.00 20.00    -0.352 OA
HETATM    5 CL6  UNL     1     -41.030   6.885  -0.641  1.00 20.00    -0.084 Cl
ENDROOT
BRANCH   2   6
HETATM    6  C4  UNL     1     -41.985   4.557   0.502  1.00 20.00     0.172 C 
HETATM    7 CL7  UNL     1     -43.259   5.612   1.171  1.00 20.00    -0.126 Cl
ENDBRANCH   2   6
TORSDOF 1
ENDMDL
MODEL 9
REMARK VINA RESULT:      -3.1      1.973      2.535
REMARK  1 active torsions:
REMARK  status: ('A' for Active; 'I' for Inactive)
REMARK    1  A    between atoms: C2_2  and  C4_4 
ROOT
HETATM    1  C1  UNL     1     -35.074  14.116  -3.684  1.00 20.00     0.171 A 
HETATM    2  C2  UNL     1     -34.328  15.384  -3.313  1.00 20.00     0.175 A 
HETATM    3  C3  UNL     1     -34.576  13.142  -4.691  1.00 20.00     0.044 C 
HETATM    4  O5  UNL     1     -35.446  15.393  -4.216  1.00 20.00    -0.352 OA
HETATM    5 CL6  UNL     1     -34.585  16.018  -1.684  1.00 20.00    -0.084 Cl
ENDROOT
BRANCH   2   6
HETATM    6  C4  UNL     1     -33.029  15.752  -3.952  1.00 20.00     0.172 C 
HETATM    7 CL7  UNL     1     -33.288  16.739  -5.415  1.00 20.00    -0.126 Cl
ENDBRANCH   2   6
TORSDOF 1
ENDMDL
