MODEL 1
REMARK VINA RESULT:      -5.1      0.000      0.000
REMARK  1 active torsions:
REMARK  status: ('A' for Active; 'I' for Inactive)
REMARK    1  A    between atoms: C2_2  and  C9_9 
ROOT
HETATM    1  C1  UNL     1     -34.160  14.225  -3.359  1.00 20.00     0.057 A 
HETATM    2  C2  UNL     1     -34.249  15.556  -3.438  1.00 20.00    -0.069 A 
HETATM    3  C3  UNL     1     -34.725  13.708  -4.611  1.00 20.00     0.189 A 
HETATM    4  C4  UNL     1     -34.842  16.078  -4.714  1.00 20.00     0.086 A 
HETATM    5  C5  UNL     1     -35.225  14.821  -5.496  1.00 20.00     0.167 A 
HETATM    6  C6  UNL     1     -34.618  14.761  -6.884  1.00 20.00     0.061 C 
HETATM    7  O10 UNL     1     -34.802  12.515  -4.864  1.00 20.00    -0.290 OA
HETATM    8  F11 UNL     1     -36.579  14.762  -5.611  1.00 20.00    -0.234 F 
ENDROOT
BRANCH   2   9
HETATM    9  C9  UNL     1     -33.799  16.511  -2.386  1.00 20.00     0.006 C 
HETATM   10  C7  UNL     1     -33.778  17.938  -2.932  1.00 20.00     0.014 C 
HETATM   11  C8  UNL     1     -34.689  16.423  -1.145  1.00 20.00     0.014 C 
ENDBRANCH   2   9
TORSDOF 1
ENDMDL
MODEL 2
REMARK VINA RESULT:      -5.0      1.945      4.035
REMARK  1 active torsions:
REMARK  status: ('A' for Active; 'I' for Inactive)
REMARK    1  A    between atoms: C2_2  and  C9_9 
ROOT
HETATM    1  C1  UNL     1     -34.624  13.833  -5.508  1.00 20.00     0.057 A 
HETATM    2  C2  UNL     1     -34.329  14.993  -6.102  1.00 20.00    -0.069 A 
HETATM    3  C3  UNL     1     -34.077  13.926  -4.149  1.00 20.00     0.189 A 
HETATM    4  C4  UNL     1     -33.595  15.979  -5.242  1.00 20.00     0.086 A 
HETATM    5  C5  UNL     1     -33.365  15.236  -3.925  1.00 20.00     0.167 A 
HETATM    6  C6  UNL     1     -33.898  15.973  -2.711  1.00 20.00     0.061 C 
HETATM    7  O10 UNL     1     -34.169  13.023  -3.331  1.00 20.00    -0.290 OA
HETATM    8  F11 UNL     1     -32.032  15.027  -3.757  1.00 20.00    -0.234 F 
ENDROOT
BRANCH   2   9
HETATM    9  C9  UNL     1     -34.685  15.355  -7.503  1.00 20.00     0.006 C 
HETATM   10  C7  UNL     1     -35.994  14.683  -7.915  1.00 20.00     0.014 C 
HETATM   11  C8  UNL     1     -34.783  16.872  -7.671  1.00 20.00     0.014 C 
ENDBRANCH   2   9
TORSDOF 1
ENDMDL
MODEL 3
REMARK VINA RESULT:      -5.0     11.547     12.712
REMARK  1 active torsions:
REMARK  status: ('A' for Active; 'I' for Inactive)
REMARK    1  A    between atoms: C2_2  and  C9_9 
ROOT
HETATM    1  C1  UNL     1     -33.250   6.727   5.226  1.00 20.00     0.057 A 
HETATM    2  C2  UNL     1     -33.009   6.499   3.932  1.00 20.00    -0.069 A 
HETATM    3  C3  UNL     1     -34.388   5.870   5.581  1.00 20.00     0.189 A 
HETATM    4  C4  UNL     1     -33.906   5.483   3.288  1.00 20.00     0.086 A 
HETATM    5  C5  UNL     1     -34.890   5.093   4.392  1.00 20.00     0.167 A 
HETATM    6  C6  UNL     1     -34.936   3.602   4.664  1.00 20.00     0.061 C 
HETATM    7  O10 UNL     1     -34.873   5.838   6.702  1.00 20.00    -0.290 OA
HETATM    8  F11 UNL     1     -36.138   5.510   4.045  1.00 20.00    -0.234 F 
ENDROOT
BRANCH   2   9
HETATM    9  C9  UNL     1     -31.938   7.153   3.129  1.00 20.00     0.006 C 
HETATM   10  C7  UNL     1     -32.543   8.112   2.105  1.00 20.00     0.014 C 
HETATM   11  C8  UNL     1     -30.945   7.888   4.031  1.00 20.00     0.014 C 
ENDBRANCH   2   9
TORSDOF 1
ENDMDL
MODEL 4
REMARK VINA RESULT:      -4.8      1.685      2.007
REMARK  1 active torsions:
REMARK  status: ('A' for Active; 'I' for Inactive)
REMARK    1  A    between atoms: C2_2  and  C9_9 
ROOT
HETATM    1  C1  UNL     1     -35.634  15.898  -2.590  1.00 20.00     0.057 A 
HETATM    2  C2  UNL     1     -34.343  16.181  -2.396  1.00 20.00    -0.069 A 
HETATM    3  C3  UNL     1     -35.680  14.995  -3.747  1.00 20.00     0.189 A 
HETATM    4  C4  UNL     1     -33.396  15.510  -3.348  1.00 20.00     0.086 A 
HETATM    5  C5  UNL     1     -34.305  14.747  -4.311  1.00 20.00     0.167 A 
HETATM    6  C6  UNL     1     -33.986  13.267  -4.402  1.00 20.00     0.061 C 
HETATM    7  O10 UNL     1     -36.722  14.545  -4.199  1.00 20.00    -0.290 OA
HETATM    8  F11 UNL     1     -34.197  15.292  -5.553  1.00 20.00    -0.234 F 
ENDROOT
BRANCH   2   9
HETATM    9  C9  UNL     1     -33.810  17.070  -1.326  1.00 20.00     0.006 C 
HETATM   10  C7  UNL     1     -33.579  18.481  -1.866  1.00 20.00     0.014 C 
HETATM   11  C8  UNL     1     -34.748  17.104  -0.119  1.00 20.00     0.014 C 
ENDBRANCH   2   9
TORSDOF 1
ENDMDL
MODEL 5
REMARK VINA RESULT:      -4.5     11.925     13.482
REMARK  1 active torsions:
REMARK  status: ('A' for Active; 'I' for Inactive)
REMARK    1  A    between atoms: C2_2  and  C9_9 
ROOT
HETATM    1  C1  UNL     1     -41.177   4.093  -1.599  1.00 20.00     0.057 A 
HETATM    2  C2  UNL     1     -42.108   3.998  -2.552  1.00 20.00    -0.069 A 
HETATM    3  C3  UNL     1     -41.156   5.505  -1.196  1.00 20.00     0.189 A 
HETATM    4  C4  UNL     1     -42.816   5.280  -2.880  1.00 20.00     0.086 A 
HETATM    5  C5  UNL     1     -42.130   6.326  -2.000  1.00 20.00     0.167 A 
HETATM    6  C6  UNL     1     -43.090   7.099  -1.116  1.00 20.00     0.061 C 
HETATM    7  O10 UNL     1     -40.405   5.940  -0.336  1.00 20.00    -0.290 OA
HETATM    8  F11 UNL     1     -41.464   7.208  -2.793  1.00 20.00    -0.234 F 
ENDROOT
BRANCH   2   9
HETATM    9  C9  UNL     1     -42.480   2.745  -3.267  1.00 20.00     0.006 C 
HETATM   10  C7  UNL     1     -41.230   2.007  -3.744  1.00 20.00     0.014 C 
HETATM   11  C8  UNL     1     -43.334   1.837  -2.380  1.00 20.00     0.014 C 
ENDBRANCH   2   9
TORSDOF 1
ENDMDL
MODEL 6
REMARK VINA RESULT:      -4.5      2.145      2.980
REMARK  1 active torsions:
REMARK  status: ('A' for Active; 'I' for Inactive)
REMARK    1  A    between atoms: C2_2  and  C9_9 
ROOT
HETATM    1  C1  UNL     1     -33.682  17.459  -3.608  1.00 20.00     0.057 A 
HETATM    2  C2  UNL     1     -34.063  17.037  -2.399  1.00 20.00    -0.069 A 
HETATM    3  C3  UNL     1     -33.606  16.257  -4.448  1.00 20.00     0.189 A 
HETATM    4  C4  UNL     1     -34.302  15.560  -2.287  1.00 20.00     0.086 A 
HETATM    5  C5  UNL     1     -33.934  15.012  -3.666  1.00 20.00     0.167 A 
HETATM    6  C6  UNL     1     -35.044  14.207  -4.315  1.00 20.00     0.061 C 
HETATM    7  O10 UNL     1     -33.279  16.287  -5.625  1.00 20.00    -0.290 OA
HETATM    8  F11 UNL     1     -32.833  14.220  -3.553  1.00 20.00    -0.234 F 
ENDROOT
BRANCH   2   9
HETATM    9  C9  UNL     1     -34.271  17.912  -1.211  1.00 20.00     0.006 C 
HETATM   10  C7  UNL     1     -34.848  17.107  -0.046  1.00 20.00     0.014 C 
HETATM   11  C8  UNL     1     -32.968  18.598  -0.797  1.00 20.00     0.014 C 
ENDBRANCH   2   9
TORSDOF 1
ENDMDL
MODEL 7
REMARK VINA RESULT:      -4.4      2.522      4.439
REMARK  1 active torsions:
REMARK  status: ('A' for Active; 'I' for Inactive)
REMARK    1  A    between atoms: C2_2  and  C9_9 
ROOT
HETATM    1  C1  UNL     1     -33.550  16.659  -4.098  1.00 20.00     0.057 A 
HETATM    2  C2  UNL     1     -34.244  15.524  -3.972  1.00 20.00    -0.069 A 
HETATM    3  C3  UNL     1     -33.952  17.505  -2.968  1.00 20.00     0.189 A 
HETATM    4  C4  UNL     1     -35.146  15.461  -2.774  1.00 20.00     0.086 A 
HETATM    5  C5  UNL     1     -34.998  16.833  -2.116  1.00 20.00     0.167 A 
HETATM    6  C6  UNL     1     -34.588  16.765  -0.658  1.00 20.00     0.061 C 
HETATM    7  O10 UNL     1     -33.505  18.627  -2.784  1.00 20.00    -0.290 OA
HETATM    8  F11 UNL     1     -36.181  17.500  -2.205  1.00 20.00    -0.234 F 
ENDROOT
BRANCH   2   9
HETATM    9  C9  UNL     1     -34.165  14.361  -4.900  1.00 20.00     0.006 C 
HETATM   10  C7  UNL     1     -35.057  13.221  -4.410  1.00 20.00     0.014 C 
HETATM   11  C8  UNL     1     -34.545  14.767  -6.325  1.00 20.00     0.014 C 
ENDBRANCH   2   9
TORSDOF 1
ENDMDL
MODEL 8
REMARK VINA RESULT:      -4.4      2.662      4.464
REMARK  1 active torsions:
REMARK  status: ('A' for Active; 'I' for Inactive)
REMARK    1  A    between atoms: C2_2  and  C9_9 
ROOT
HETATM    1  C1  UNL     1     -35.772  16.148  -3.786  1.00 20.00     0.057 A 
HETATM    2  C2  UNL     1     -34.599  15.511  -3.832  1.00 20.00    -0.069 A 
HETATM    3  C3  UNL     1     -35.747  16.949  -2.556  1.00 20.00     0.189 A 
HETATM    4  C4  UNL     1     -33.667  15.812  -2.696  1.00 20.00     0.086 A 
HETATM    5  C5  UNL     1     -34.467  16.747  -1.788  1.00 20.00     0.167 A 
HETATM    6  C6  UNL     1     -33.764  18.059  -1.497  1.00 20.00     0.061 C 
HETATM    7  O10 UNL     1     -36.679  17.657  -2.204  1.00 20.00    -0.290 OA
HETATM    8  F11 UNL     1     -34.717  16.118  -0.608  1.00 20.00    -0.234 F 
ENDROOT
BRANCH   2   9
HETATM    9  C9  UNL     1     -34.172  14.573  -4.909  1.00 20.00     0.006 C 
HETATM   10  C7  UNL     1     -34.844  13.212  -4.732  1.00 20.00     0.014 C 
HETATM   11  C8  UNL     1     -34.478  15.148  -6.293  1.00 20.00     0.014 C 
ENDBRANCH   2   9
TORSDOF 1
ENDMDL
MODEL 9
REMARK VINA RESULT:      -4.2      4.838      6.116
REMARK  1 active torsions:
REMARK  status: ('A' for Active; 'I' for Inactive)
REMARK    1  A    between atoms: C2_2  and  C9_9 
ROOT
HETATM    1  C1  UNL     1     -32.783  18.819   0.233  1.00 20.00     0.057 A 
HETATM    2  C2  UNL     1     -33.431  18.545   1.368  1.00 20.00    -0.069 A 
HETATM    3  C3  UNL     1     -33.610  18.266  -0.847  1.00 20.00     0.189 A 
HETATM    4  C4  UNL     1     -34.735  17.822   1.198  1.00 20.00     0.086 A 
HETATM    5  C5  UNL     1     -34.835  17.574  -0.308  1.00 20.00     0.167 A 
HETATM    6  C6  UNL     1     -36.112  18.111  -0.928  1.00 20.00     0.061 C 
HETATM    7  O10 UNL     1     -33.301  18.340  -2.027  1.00 20.00    -0.290 OA
HETATM    8  F11 UNL     1     -34.767  16.236  -0.546  1.00 20.00    -0.234 F 
ENDROOT
BRANCH   2   9
HETATM    9  C9  UNL     1     -32.965  18.915   2.735  1.00 20.00     0.006 C 
HETATM   10  C7  UNL     1     -33.731  18.126   3.795  1.00 20.00     0.014 C 
HETATM   11  C8  UNL     1     -31.459  18.690   2.881  1.00 20.00     0.014 C 
ENDBRANCH   2   9
TORSDOF 1
ENDMDL
