MODEL 1
REMARK VINA RESULT:      -4.3      0.000      0.000
REMARK  1 active torsions:
REMARK  status: ('A' for Active; 'I' for Inactive)
REMARK    1  A    between atoms: C7_7  and  N9_9 
ROOT
HETATM    1  C1  UNL     1     -34.855  13.304  -4.242  1.00 20.00     0.004 A 
HETATM    2  C2  UNL     1     -35.884  14.157  -4.191  1.00 20.00     0.042 A 
HETATM    3  C3  UNL     1     -33.528  13.723  -3.891  1.00 20.00     0.018 A 
HETATM    4  C4  UNL     1     -33.308  14.985  -3.507  1.00 20.00     0.097 A 
HETATM    5  C5  UNL     1     -35.671  15.585  -3.761  1.00 20.00     0.106 A 
HETATM    6  N9  UNL     1     -34.336  15.918  -3.435  1.00 20.00    -0.324 N 
HETATM    7  S10 UNL     1     -36.996  16.640  -3.706  1.00 20.00    -0.060 SA
ENDROOT
BRANCH   6   8
HETATM    8  C7  UNL     1     -33.915  17.163  -3.020  1.00 20.00     0.093 C 
HETATM    9  C6  UNL     1     -34.006  17.573  -1.749  1.00 20.00    -0.013 C 
HETATM   10  C8  UNL     1     -34.568  16.735  -0.649  1.00 20.00     0.037 C 
ENDBRANCH   6   8
TORSDOF 1
ENDMDL
MODEL 2
REMARK VINA RESULT:      -4.0      1.815      3.690
REMARK  1 active torsions:
REMARK  status: ('A' for Active; 'I' for Inactive)
REMARK    1  A    between atoms: C7_7  and  N9_9 
ROOT
HETATM    1  C1  UNL     1     -34.386  18.617  -4.777  1.00 20.00     0.004 A 
HETATM    2  C2  UNL     1     -34.657  18.269  -3.513  1.00 20.00     0.042 A 
HETATM    3  C3  UNL     1     -33.664  17.736  -5.649  1.00 20.00     0.018 A 
HETATM    4  C4  UNL     1     -33.251  16.545  -5.199  1.00 20.00     0.097 A 
HETATM    5  C5  UNL     1     -34.207  16.935  -2.976  1.00 20.00     0.106 A 
HETATM    6  N9  UNL     1     -33.501  16.128  -3.898  1.00 20.00    -0.324 N 
HETATM    7  S10 UNL     1     -34.567  16.524  -1.373  1.00 20.00    -0.060 SA
ENDROOT
BRANCH   6   8
HETATM    8  C7  UNL     1     -32.998  14.875  -3.620  1.00 20.00     0.093 C 
HETATM    9  C6  UNL     1     -33.721  13.757  -3.754  1.00 20.00    -0.013 C 
HETATM   10  C8  UNL     1     -35.141  13.743  -4.216  1.00 20.00     0.037 C 
ENDBRANCH   6   8
TORSDOF 1
ENDMDL
MODEL 3
REMARK VINA RESULT:      -3.9      1.993      2.107
REMARK  1 active torsions:
REMARK  status: ('A' for Active; 'I' for Inactive)
REMARK    1  A    between atoms: C7_7  and  N9_9 
ROOT
HETATM    1  C1  UNL     1     -35.013  13.996  -6.221  1.00 20.00     0.004 A 
HETATM    2  C2  UNL     1     -34.700  15.284  -6.402  1.00 20.00     0.042 A 
HETATM    3  C3  UNL     1     -34.763  13.342  -4.968  1.00 20.00     0.018 A 
HETATM    4  C4  UNL     1     -34.208  14.025  -3.960  1.00 20.00     0.097 A 
HETATM    5  C5  UNL     1     -34.075  16.081  -5.287  1.00 20.00     0.106 A 
HETATM    6  N9  UNL     1     -33.860  15.364  -4.088  1.00 20.00    -0.324 N 
HETATM    7  S10 UNL     1     -33.692  17.711  -5.548  1.00 20.00    -0.060 SA
ENDROOT
BRANCH   6   8
HETATM    8  C7  UNL     1     -33.302  15.894  -2.944  1.00 20.00     0.093 C 
HETATM    9  C6  UNL     1     -34.024  16.517  -2.006  1.00 20.00    -0.013 C 
HETATM   10  C8  UNL     1     -35.503  16.704  -2.091  1.00 20.00     0.037 C 
ENDBRANCH   6   8
TORSDOF 1
ENDMDL
MODEL 4
REMARK VINA RESULT:      -3.9      1.287      3.826
REMARK  1 active torsions:
REMARK  status: ('A' for Active; 'I' for Inactive)
REMARK    1  A    between atoms: C7_7  and  N9_9 
ROOT
HETATM    1  C1  UNL     1     -33.628  18.291  -1.566  1.00 20.00     0.004 A 
HETATM    2  C2  UNL     1     -33.674  18.343  -2.902  1.00 20.00     0.042 A 
HETATM    3  C3  UNL     1     -34.177  17.175  -0.850  1.00 20.00     0.018 A 
HETATM    4  C4  UNL     1     -34.745  16.167  -1.522  1.00 20.00     0.097 A 
HETATM    5  C5  UNL     1     -34.305  17.225  -3.689  1.00 20.00     0.106 A 
HETATM    6  N9  UNL     1     -34.823  16.165  -2.909  1.00 20.00    -0.324 N 
HETATM    7  S10 UNL     1     -34.345  17.322  -5.380  1.00 20.00    -0.060 SA
ENDROOT
BRANCH   6   8
HETATM    8  C7  UNL     1     -35.442  15.044  -3.420  1.00 20.00     0.093 C 
HETATM    9  C6  UNL     1     -34.767  13.952  -3.799  1.00 20.00    -0.013 C 
HETATM   10  C8  UNL     1     -33.282  13.827  -3.711  1.00 20.00     0.037 C 
ENDBRANCH   6   8
TORSDOF 1
ENDMDL
MODEL 5
REMARK VINA RESULT:      -3.9      2.645      2.998
REMARK  1 active torsions:
REMARK  status: ('A' for Active; 'I' for Inactive)
REMARK    1  A    between atoms: C7_7  and  N9_9 
ROOT
HETATM    1  C1  UNL     1     -34.666  16.270  -7.340  1.00 20.00     0.004 A 
HETATM    2  C2  UNL     1     -34.852  15.058  -6.805  1.00 20.00     0.042 A 
HETATM    3  C3  UNL     1     -34.038  17.321  -6.590  1.00 20.00     0.018 A 
HETATM    4  C4  UNL     1     -33.630  17.092  -5.337  1.00 20.00     0.097 A 
HETATM    5  C5  UNL     1     -34.403  14.767  -5.397  1.00 20.00     0.106 A 
HETATM    6  N9  UNL     1     -33.796  15.855  -4.727  1.00 20.00    -0.324 N 
HETATM    7  S10 UNL     1     -34.653  13.221  -4.751  1.00 20.00    -0.060 SA
ENDROOT
BRANCH   6   8
HETATM    8  C7  UNL     1     -33.314  15.811  -3.437  1.00 20.00     0.093 C 
HETATM    9  C6  UNL     1     -34.071  16.090  -2.369  1.00 20.00    -0.013 C 
HETATM   10  C8  UNL     1     -35.510  16.475  -2.456  1.00 20.00     0.037 C 
ENDBRANCH   6   8
TORSDOF 1
ENDMDL
MODEL 6
REMARK VINA RESULT:      -3.9      2.608      4.085
REMARK  1 active torsions:
REMARK  status: ('A' for Active; 'I' for Inactive)
REMARK    1  A    between atoms: C7_7  and  N9_9 
ROOT
HETATM    1  C1  UNL     1     -34.205  14.875  -3.068  1.00 20.00     0.004 A 
HETATM    2  C2  UNL     1     -34.023  16.060  -3.662  1.00 20.00     0.042 A 
HETATM    3  C3  UNL     1     -34.466  13.693  -3.839  1.00 20.00     0.018 A 
HETATM    4  C4  UNL     1     -34.530  13.768  -5.173  1.00 20.00     0.097 A 
HETATM    5  C5  UNL     1     -34.088  16.179  -5.162  1.00 20.00     0.106 A 
HETATM    6  N9  UNL     1     -34.350  14.970  -5.847  1.00 20.00    -0.324 N 
HETATM    7  S10 UNL     1     -33.851  17.694  -5.883  1.00 20.00    -0.060 SA
ENDROOT
BRANCH   6   8
HETATM    8  C7  UNL     1     -34.452  14.849  -7.216  1.00 20.00     0.093 C 
HETATM    9  C6  UNL     1     -35.620  14.907  -7.865  1.00 20.00    -0.013 C 
HETATM   10  C8  UNL     1     -36.933  15.108  -7.184  1.00 20.00     0.037 C 
ENDBRANCH   6   8
TORSDOF 1
ENDMDL
MODEL 7
REMARK VINA RESULT:      -3.8      1.864      3.590
REMARK  1 active torsions:
REMARK  status: ('A' for Active; 'I' for Inactive)
REMARK    1  A    between atoms: C7_7  and  N9_9 
ROOT
HETATM    1  C1  UNL     1     -34.383  16.256  -2.226  1.00 20.00     0.004 A 
HETATM    2  C2  UNL     1     -35.654  15.976  -2.533  1.00 20.00     0.042 A 
HETATM    3  C3  UNL     1     -33.303  15.792  -3.050  1.00 20.00     0.018 A 
HETATM    4  C4  UNL     1     -33.564  15.066  -4.143  1.00 20.00     0.097 A 
HETATM    5  C5  UNL     1     -35.983  15.162  -3.758  1.00 20.00     0.106 A 
HETATM    6  N9  UNL     1     -34.863  14.742  -4.513  1.00 20.00    -0.324 N 
HETATM    7  S10 UNL     1     -37.604  14.826  -4.119  1.00 20.00    -0.060 SA
ENDROOT
BRANCH   6   8
HETATM    8  C7  UNL     1     -34.932  13.989  -5.666  1.00 20.00     0.093 C 
HETATM    9  C6  UNL     1     -34.916  14.533  -6.889  1.00 20.00    -0.013 C 
HETATM   10  C8  UNL     1     -34.823  16.001  -7.138  1.00 20.00     0.037 C 
ENDBRANCH   6   8
TORSDOF 1
ENDMDL
MODEL 8
REMARK VINA RESULT:      -3.8      1.576      3.370
REMARK  1 active torsions:
REMARK  status: ('A' for Active; 'I' for Inactive)
REMARK    1  A    between atoms: C7_7  and  N9_9 
ROOT
HETATM    1  C1  UNL     1     -33.113  14.690  -3.594  1.00 20.00     0.004 A 
HETATM    2  C2  UNL     1     -33.717  15.779  -3.104  1.00 20.00     0.042 A 
HETATM    3  C3  UNL     1     -33.874  13.614  -4.162  1.00 20.00     0.018 A 
HETATM    4  C4  UNL     1     -35.208  13.692  -4.205  1.00 20.00     0.097 A 
HETATM    5  C5  UNL     1     -35.218  15.899  -3.138  1.00 20.00     0.106 A 
HETATM    6  N9  UNL     1     -35.893  14.796  -3.711  1.00 20.00    -0.324 N 
HETATM    7  S10 UNL     1     -35.952  17.291  -2.511  1.00 20.00    -0.060 SA
ENDROOT
BRANCH   6   8
HETATM    8  C7  UNL     1     -37.261  14.695  -3.843  1.00 20.00     0.093 C 
HETATM    9  C6  UNL     1     -37.924  15.167  -4.905  1.00 20.00    -0.013 C 
HETATM   10  C8  UNL     1     -37.262  15.850  -6.055  1.00 20.00     0.037 C 
ENDBRANCH   6   8
TORSDOF 1
ENDMDL
MODEL 9
REMARK VINA RESULT:      -3.8      2.505      3.059
REMARK  1 active torsions:
REMARK  status: ('A' for Active; 'I' for Inactive)
REMARK    1  A    between atoms: C7_7  and  N9_9 
ROOT
HETATM    1  C1  UNL     1     -33.645  13.736  -3.894  1.00 20.00     0.004 A 
HETATM    2  C2  UNL     1     -34.386  13.590  -4.999  1.00 20.00     0.042 A 
HETATM    3  C3  UNL     1     -33.031  14.994  -3.577  1.00 20.00     0.018 A 
HETATM    4  C4  UNL     1     -33.197  16.041  -4.393  1.00 20.00     0.097 A 
HETATM    5  C5  UNL     1     -34.593  14.749  -5.938  1.00 20.00     0.106 A 
HETATM    6  N9  UNL     1     -33.954  15.951  -5.554  1.00 20.00    -0.324 N 
HETATM    7  S10 UNL     1     -35.539  14.530  -7.327  1.00 20.00    -0.060 SA
ENDROOT
BRANCH   6   8
HETATM    8  C7  UNL     1     -34.009  17.131  -6.264  1.00 20.00     0.093 C 
HETATM    9  C6  UNL     1     -34.969  18.045  -6.078  1.00 20.00    -0.013 C 
HETATM   10  C8  UNL     1     -36.077  17.890  -5.090  1.00 20.00     0.037 C 
ENDBRANCH   6   8
TORSDOF 1
ENDMDL
