MODEL 1
REMARK VINA RESULT:      -4.0      0.000      0.000
REMARK  3 active torsions:
REMARK  status: ('A' for Active; 'I' for Inactive)
REMARK    1  A    between atoms: C1_1  and  C7_7 
REMARK    2  A    between atoms: C1_1  and  N9_9 
REMARK    3  A    between atoms: C7_7  and  C8_8 
ROOT
HETATM    1  C2  UNL     1     -34.811  14.282  -6.012  1.00 20.00     0.021 C 
HETATM    2  C3  UNL     1     -34.511  13.296  -4.895  1.00 20.00     0.021 C 
HETATM    3  C4  UNL     1     -34.269  15.597  -5.459  1.00 20.00     0.123 C 
HETATM    4  C5  UNL     1     -34.791  14.110  -3.636  1.00 20.00     0.123 C 
HETATM    5  N9  UNL     1     -34.453  15.477  -4.017  1.00 20.00    -0.375 N 
ENDROOT
BRANCH   5   6
HETATM    6  C1  UNL     1     -34.325  16.507  -3.141  1.00 20.00     0.075 C 
HETATM    7  S10 UNL     1     -33.922  18.052  -3.633  1.00 20.00    -0.066 SA
BRANCH   6   8
HETATM    8  C7  UNL     1     -34.593  16.158  -1.692  1.00 20.00     0.069 C 
BRANCH   8   9
HETATM    9  C8  UNL     1     -34.107  17.271  -0.763  1.00 20.00     0.002 C 
HETATM   10  C6  UNL     1     -34.981  17.384   0.475  1.00 20.00     0.005 C 
ENDBRANCH   8   9
ENDBRANCH   6   8
ENDBRANCH   5   6
TORSDOF 3
ENDMDL
MODEL 2
REMARK VINA RESULT:      -3.9      1.332      4.489
REMARK  3 active torsions:
REMARK  status: ('A' for Active; 'I' for Inactive)
REMARK    1  A    between atoms: C1_1  and  C7_7 
REMARK    2  A    between atoms: C1_1  and  N9_9 
REMARK    3  A    between atoms: C7_7  and  C8_8 
ROOT
HETATM    1  C2  UNL     1     -34.866  17.109  -0.291  1.00 20.00     0.021 C 
HETATM    2  C3  UNL     1     -33.703  18.087  -0.300  1.00 20.00     0.021 C 
HETATM    3  C4  UNL     1     -34.565  16.211  -1.487  1.00 20.00     0.123 C 
HETATM    4  C5  UNL     1     -33.484  18.344  -1.787  1.00 20.00     0.123 C 
HETATM    5  N9  UNL     1     -33.872  17.089  -2.423  1.00 20.00    -0.375 N 
ENDROOT
BRANCH   5   6
HETATM    6  C1  UNL     1     -33.619  16.778  -3.720  1.00 20.00     0.075 C 
HETATM    7  S10 UNL     1     -33.723  17.910  -4.945  1.00 20.00    -0.066 SA
BRANCH   6   8
HETATM    8  C7  UNL     1     -33.218  15.341  -3.973  1.00 20.00     0.069 C 
BRANCH   8   9
HETATM    9  C8  UNL     1     -34.238  14.639  -4.871  1.00 20.00     0.002 C 
HETATM   10  C6  UNL     1     -34.876  13.453  -4.167  1.00 20.00     0.005 C 
ENDBRANCH   8   9
ENDBRANCH   6   8
ENDBRANCH   5   6
TORSDOF 3
ENDMDL
MODEL 3
REMARK VINA RESULT:      -3.8      1.406      4.269
REMARK  3 active torsions:
REMARK  status: ('A' for Active; 'I' for Inactive)
REMARK    1  A    between atoms: C1_1  and  C7_7 
REMARK    2  A    between atoms: C1_1  and  N9_9 
REMARK    3  A    between atoms: C7_7  and  C8_8 
ROOT
HETATM    1  C2  UNL     1     -34.827  17.157  -0.498  1.00 20.00     0.021 C 
HETATM    2  C3  UNL     1     -35.897  17.793  -1.371  1.00 20.00     0.021 C 
HETATM    3  C4  UNL     1     -33.667  16.962  -1.470  1.00 20.00     0.123 C 
HETATM    4  C5  UNL     1     -35.740  17.055  -2.696  1.00 20.00     0.123 C 
HETATM    5  N9  UNL     1     -34.318  16.735  -2.756  1.00 20.00    -0.375 N 
ENDROOT
BRANCH   5   6
HETATM    6  C1  UNL     1     -33.680  16.285  -3.868  1.00 20.00     0.075 C 
HETATM    7  S10 UNL     1     -33.590  17.187  -5.271  1.00 20.00    -0.066 SA
BRANCH   6   8
HETATM    8  C7  UNL     1     -33.042  14.919  -3.737  1.00 20.00     0.069 C 
BRANCH   8   9
HETATM    9  C8  UNL     1     -34.103  13.837  -3.529  1.00 20.00     0.002 C 
HETATM   10  C6  UNL     1     -34.624  13.307  -4.855  1.00 20.00     0.005 C 
ENDBRANCH   8   9
ENDBRANCH   6   8
ENDBRANCH   5   6
TORSDOF 3
ENDMDL
MODEL 4
REMARK VINA RESULT:      -3.8      1.986      2.649
REMARK  3 active torsions:
REMARK  status: ('A' for Active; 'I' for Inactive)
REMARK    1  A    between atoms: C1_1  and  C7_7 
REMARK    2  A    between atoms: C1_1  and  N9_9 
REMARK    3  A    between atoms: C7_7  and  C8_8 
ROOT
HETATM    1  C2  UNL     1     -34.365  17.750  -6.621  1.00 20.00     0.021 C 
HETATM    2  C3  UNL     1     -34.499  16.429  -7.359  1.00 20.00     0.021 C 
HETATM    3  C4  UNL     1     -33.609  17.358  -5.355  1.00 20.00     0.123 C 
HETATM    4  C5  UNL     1     -34.765  15.434  -6.234  1.00 20.00     0.123 C 
HETATM    5  N9  UNL     1     -34.043  15.990  -5.094  1.00 20.00    -0.375 N 
ENDROOT
BRANCH   5   6
HETATM    6  C1  UNL     1     -33.805  15.318  -3.938  1.00 20.00     0.075 C 
HETATM    7  S10 UNL     1     -33.730  13.650  -3.874  1.00 20.00    -0.066 SA
BRANCH   6   8
HETATM    8  C7  UNL     1     -33.592  16.189  -2.718  1.00 20.00     0.069 C 
BRANCH   8   9
HETATM    9  C8  UNL     1     -34.825  16.173  -1.813  1.00 20.00     0.002 C 
HETATM   10  C6  UNL     1     -34.573  16.922  -0.515  1.00 20.00     0.005 C 
ENDBRANCH   8   9
ENDBRANCH   6   8
ENDBRANCH   5   6
TORSDOF 3
ENDMDL
MODEL 5
REMARK VINA RESULT:      -3.8      2.047      2.825
REMARK  3 active torsions:
REMARK  status: ('A' for Active; 'I' for Inactive)
REMARK    1  A    between atoms: C1_1  and  C7_7 
REMARK    2  A    between atoms: C1_1  and  N9_9 
REMARK    3  A    between atoms: C7_7  and  C8_8 
ROOT
HETATM    1  C2  UNL     1     -34.620  16.783  -7.309  1.00 20.00     0.021 C 
HETATM    2  C3  UNL     1     -34.209  17.996  -6.489  1.00 20.00     0.021 C 
HETATM    3  C4  UNL     1     -34.989  15.759  -6.240  1.00 20.00     0.123 C 
HETATM    4  C5  UNL     1     -33.460  17.376  -5.314  1.00 20.00     0.123 C 
HETATM    5  N9  UNL     1     -34.113  16.086  -5.120  1.00 20.00    -0.375 N 
ENDROOT
BRANCH   5   6
HETATM    6  C1  UNL     1     -33.930  15.292  -4.034  1.00 20.00     0.075 C 
HETATM    7  S10 UNL     1     -34.027  13.626  -4.120  1.00 20.00    -0.066 SA
BRANCH   6   8
HETATM    8  C7  UNL     1     -33.614  16.022  -2.746  1.00 20.00     0.069 C 
BRANCH   8   9
HETATM    9  C8  UNL     1     -34.842  16.088  -1.838  1.00 20.00     0.002 C 
HETATM   10  C6  UNL     1     -34.562  16.893  -0.580  1.00 20.00     0.005 C 
ENDBRANCH   8   9
ENDBRANCH   6   8
ENDBRANCH   5   6
TORSDOF 3
ENDMDL
MODEL 6
REMARK VINA RESULT:      -3.6     10.992     11.882
REMARK  3 active torsions:
REMARK  status: ('A' for Active; 'I' for Inactive)
REMARK    1  A    between atoms: C1_1  and  C7_7 
REMARK    2  A    between atoms: C1_1  and  N9_9 
REMARK    3  A    between atoms: C7_7  and  C8_8 
ROOT
HETATM    1  C2  UNL     1     -34.658   5.124   5.627  1.00 20.00     0.021 C 
HETATM    2  C3  UNL     1     -35.380   5.038   4.292  1.00 20.00     0.021 C 
HETATM    3  C4  UNL     1     -33.758   6.344   5.450  1.00 20.00     0.123 C 
HETATM    4  C5  UNL     1     -34.292   5.414   3.291  1.00 20.00     0.123 C 
HETATM    5  N9  UNL     1     -33.444   6.347   4.025  1.00 20.00    -0.375 N 
ENDROOT
BRANCH   5   6
HETATM    6  C1  UNL     1     -32.484   7.120   3.455  1.00 20.00     0.075 C 
HETATM    7  S10 UNL     1     -31.261   7.828   4.347  1.00 20.00    -0.066 SA
BRANCH   6   8
HETATM    8  C7  UNL     1     -32.590   7.277   1.953  1.00 20.00     0.069 C 
BRANCH   8   9
HETATM    9  C8  UNL     1     -31.701   8.420   1.458  1.00 20.00     0.002 C 
HETATM   10  C6  UNL     1     -32.488   9.711   1.307  1.00 20.00     0.005 C 
ENDBRANCH   8   9
ENDBRANCH   6   8
ENDBRANCH   5   6
TORSDOF 3
ENDMDL
MODEL 7
REMARK VINA RESULT:      -3.6      1.474      4.490
REMARK  3 active torsions:
REMARK  status: ('A' for Active; 'I' for Inactive)
REMARK    1  A    between atoms: C1_1  and  C7_7 
REMARK    2  A    between atoms: C1_1  and  N9_9 
REMARK    3  A    between atoms: C7_7  and  C8_8 
ROOT
HETATM    1  C2  UNL     1     -34.682  16.591  -1.001  1.00 20.00     0.021 C 
HETATM    2  C3  UNL     1     -33.504  17.494  -1.328  1.00 20.00     0.021 C 
HETATM    3  C4  UNL     1     -34.954  15.892  -2.329  1.00 20.00     0.123 C 
HETATM    4  C5  UNL     1     -33.830  17.985  -2.735  1.00 20.00     0.123 C 
HETATM    5  N9  UNL     1     -34.567  16.877  -3.333  1.00 20.00    -0.375 N 
ENDROOT
BRANCH   5   6
HETATM    6  C1  UNL     1     -34.855  16.775  -4.656  1.00 20.00     0.075 C 
HETATM    7  S10 UNL     1     -36.257  17.401  -5.315  1.00 20.00    -0.066 SA
BRANCH   6   8
HETATM    8  C7  UNL     1     -33.807  16.072  -5.492  1.00 20.00     0.069 C 
BRANCH   8   9
HETATM    9  C8  UNL     1     -34.426  14.932  -6.301  1.00 20.00     0.002 C 
HETATM   10  C6  UNL     1     -34.850  13.781  -5.405  1.00 20.00     0.005 C 
ENDBRANCH   8   9
ENDBRANCH   6   8
ENDBRANCH   5   6
TORSDOF 3
ENDMDL
MODEL 8
REMARK VINA RESULT:      -3.5      1.663      2.552
REMARK  3 active torsions:
REMARK  status: ('A' for Active; 'I' for Inactive)
REMARK    1  A    between atoms: C1_1  and  C7_7 
REMARK    2  A    between atoms: C1_1  and  N9_9 
REMARK    3  A    between atoms: C7_7  and  C8_8 
ROOT
HETATM    1  C2  UNL     1     -36.872  15.158  -6.691  1.00 20.00     0.021 C 
HETATM    2  C3  UNL     1     -35.740  14.629  -7.557  1.00 20.00     0.021 C 
HETATM    3  C4  UNL     1     -36.223  16.330  -5.961  1.00 20.00     0.123 C 
HETATM    4  C5  UNL     1     -34.522  14.767  -6.649  1.00 20.00     0.123 C 
HETATM    5  N9  UNL     1     -34.826  15.933  -5.826  1.00 20.00    -0.375 N 
ENDROOT
BRANCH   5   6
HETATM    6  C1  UNL     1     -33.922  16.567  -5.035  1.00 20.00     0.075 C 
HETATM    7  S10 UNL     1     -33.613  18.204  -5.171  1.00 20.00    -0.066 SA
BRANCH   6   8
HETATM    8  C7  UNL     1     -33.232  15.691  -4.012  1.00 20.00     0.069 C 
BRANCH   8   9
HETATM    9  C8  UNL     1     -34.245  15.086  -3.039  1.00 20.00     0.002 C 
HETATM   10  C6  UNL     1     -34.670  16.091  -1.982  1.00 20.00     0.005 C 
ENDBRANCH   8   9
ENDBRANCH   6   8
ENDBRANCH   5   6
TORSDOF 3
ENDMDL
MODEL 9
REMARK VINA RESULT:      -3.5      2.222      2.963
REMARK  3 active torsions:
REMARK  status: ('A' for Active; 'I' for Inactive)
REMARK    1  A    between atoms: C1_1  and  C7_7 
REMARK    2  A    between atoms: C1_1  and  N9_9 
REMARK    3  A    between atoms: C7_7  and  C8_8 
ROOT
HETATM    1  C2  UNL     1     -35.947  14.684  -7.910  1.00 20.00     0.021 C 
HETATM    2  C3  UNL     1     -34.508  15.005  -7.537  1.00 20.00     0.021 C 
HETATM    3  C4  UNL     1     -36.721  15.095  -6.661  1.00 20.00     0.123 C 
HETATM    4  C5  UNL     1     -34.438  14.601  -6.068  1.00 20.00     0.123 C 
HETATM    5  N9  UNL     1     -35.786  14.851  -5.569  1.00 20.00    -0.375 N 
ENDROOT
BRANCH   5   6
HETATM    6  C1  UNL     1     -36.126  14.856  -4.254  1.00 20.00     0.075 C 
HETATM    7  S10 UNL     1     -37.691  15.134  -3.738  1.00 20.00    -0.066 SA
BRANCH   6   8
HETATM    8  C7  UNL     1     -34.992  14.573  -3.293  1.00 20.00     0.069 C 
BRANCH   8   9
HETATM    9  C8  UNL     1     -34.747  15.766  -2.368  1.00 20.00     0.002 C 
HETATM   10  C6  UNL     1     -33.815  16.782  -3.006  1.00 20.00     0.005 C 
ENDBRANCH   8   9
ENDBRANCH   6   8
ENDBRANCH   5   6
TORSDOF 3
ENDMDL
