MODEL 1
REMARK VINA RESULT:      -4.3      0.000      0.000
REMARK  1 active torsions:
REMARK  status: ('A' for Active; 'I' for Inactive)
REMARK    1  A    between atoms: C4_4  and  C7_7 
ROOT
HETATM    1  C1  UNL     1     -34.830  13.789  -4.712  1.00 20.00     0.075 C 
HETATM    2  C2  UNL     1     -33.520  15.877  -4.724  1.00 20.00     0.105 C 
HETATM    3  C3  UNL     1     -34.900  15.250  -4.591  1.00 20.00     0.164 C 
HETATM    4  C4  UNL     1     -34.735  17.347  -2.822  1.00 20.00     0.113 C 
HETATM    5  N8  UNL     1     -34.774  12.634  -4.808  1.00 20.00    -0.196 NA
HETATM    6  S9  UNL     1     -33.687  17.623  -4.282  1.00 20.00    -0.151 SA
HETATM    7  S10 UNL     1     -35.587  15.741  -2.974  1.00 20.00    -0.133 SA
ENDROOT
BRANCH   4   8
HETATM    8  C7  UNL     1     -33.885  17.359  -1.558  1.00 20.00     0.001 C 
HETATM    9  C5  UNL     1     -33.279  18.743  -1.327  1.00 20.00     0.011 C 
HETATM   10  C6  UNL     1     -34.711  16.929  -0.346  1.00 20.00     0.011 C 
ENDBRANCH   4   8
TORSDOF 1
ENDMDL
MODEL 2
REMARK VINA RESULT:      -4.3      1.813      1.931
REMARK  1 active torsions:
REMARK  status: ('A' for Active; 'I' for Inactive)
REMARK    1  A    between atoms: C4_4  and  C7_7 
ROOT
HETATM    1  C1  UNL     1     -37.170  14.795  -3.876  1.00 20.00     0.075 C 
HETATM    2  C2  UNL     1     -34.743  14.501  -3.562  1.00 20.00     0.105 C 
HETATM    3  C3  UNL     1     -35.849  15.394  -4.104  1.00 20.00     0.164 C 
HETATM    4  C4  UNL     1     -33.912  17.000  -2.998  1.00 20.00     0.113 C 
HETATM    5  N8  UNL     1     -38.213  14.322  -3.696  1.00 20.00    -0.196 NA
HETATM    6  S9  UNL     1     -33.207  15.453  -3.640  1.00 20.00    -0.151 SA
HETATM    7  S10 UNL     1     -35.714  17.016  -3.283  1.00 20.00    -0.133 SA
ENDROOT
BRANCH   4   8
HETATM    8  C7  UNL     1     -33.628  17.125  -1.507  1.00 20.00     0.001 C 
HETATM    9  C5  UNL     1     -33.236  18.559  -1.149  1.00 20.00     0.011 C 
HETATM   10  C6  UNL     1     -34.840  16.683  -0.686  1.00 20.00     0.011 C 
ENDBRANCH   4   8
TORSDOF 1
ENDMDL
MODEL 3
REMARK VINA RESULT:      -3.9      2.368      4.463
REMARK  1 active torsions:
REMARK  status: ('A' for Active; 'I' for Inactive)
REMARK    1  A    between atoms: C4_4  and  C7_7 
ROOT
HETATM    1  C1  UNL     1     -34.301  16.864  -1.381  1.00 20.00     0.075 C 
HETATM    2  C2  UNL     1     -34.689  17.775  -3.638  1.00 20.00     0.105 C 
HETATM    3  C3  UNL     1     -33.737  17.012  -2.728  1.00 20.00     0.164 C 
HETATM    4  C4  UNL     1     -33.623  15.883  -5.231  1.00 20.00     0.113 C 
HETATM    5  N8  UNL     1     -34.748  16.746  -0.317  1.00 20.00    -0.196 NA
HETATM    6  S9  UNL     1     -34.027  17.653  -5.317  1.00 20.00    -0.151 SA
HETATM    7  S10 UNL     1     -33.416  15.386  -3.488  1.00 20.00    -0.133 SA
ENDROOT
BRANCH   4   8
HETATM    8  C7  UNL     1     -34.735  15.060  -5.869  1.00 20.00     0.001 C 
HETATM    9  C5  UNL     1     -34.529  14.954  -7.381  1.00 20.00     0.011 C 
HETATM   10  C6  UNL     1     -34.807  13.669  -5.242  1.00 20.00     0.011 C 
ENDBRANCH   4   8
TORSDOF 1
ENDMDL
MODEL 4
REMARK VINA RESULT:      -3.8      2.735      4.831
REMARK  1 active torsions:
REMARK  status: ('A' for Active; 'I' for Inactive)
REMARK    1  A    between atoms: C4_4  and  C7_7 
ROOT
HETATM    1  C1  UNL     1     -34.180  16.439  -2.089  1.00 20.00     0.075 C 
HETATM    2  C2  UNL     1     -33.890  14.330  -3.331  1.00 20.00     0.105 C 
HETATM    3  C3  UNL     1     -34.865  15.404  -2.870  1.00 20.00     0.164 C 
HETATM    4  C4  UNL     1     -35.572  14.634  -5.412  1.00 20.00     0.113 C 
HETATM    5  N8  UNL     1     -33.637  17.258  -1.472  1.00 20.00    -0.196 NA
HETATM    6  S9  UNL     1     -34.777  13.276  -4.503  1.00 20.00    -0.151 SA
HETATM    7  S10 UNL     1     -35.658  16.115  -4.350  1.00 20.00    -0.133 SA
ENDROOT
BRANCH   4   8
HETATM    8  C7  UNL     1     -34.779  14.954  -6.673  1.00 20.00     0.001 C 
HETATM    9  C5  UNL     1     -35.530  14.480  -7.918  1.00 20.00     0.011 C 
HETATM   10  C6  UNL     1     -34.488  16.451  -6.765  1.00 20.00     0.011 C 
ENDBRANCH   4   8
TORSDOF 1
ENDMDL
MODEL 5
REMARK VINA RESULT:      -3.8      2.350      4.457
REMARK  1 active torsions:
REMARK  status: ('A' for Active; 'I' for Inactive)
REMARK    1  A    between atoms: C4_4  and  C7_7 
ROOT
HETATM    1  C1  UNL     1     -34.420  16.770  -1.564  1.00 20.00     0.075 C 
HETATM    2  C2  UNL     1     -35.365  17.149  -3.809  1.00 20.00     0.105 C 
HETATM    3  C3  UNL     1     -34.103  16.918  -2.990  1.00 20.00     0.164 C 
HETATM    4  C4  UNL     1     -33.845  15.560  -5.365  1.00 20.00     0.113 C 
HETATM    5  N8  UNL     1     -34.671  16.654  -0.438  1.00 20.00    -0.196 NA
HETATM    6  S9  UNL     1     -34.893  17.034  -5.551  1.00 20.00    -0.151 SA
HETATM    7  S10 UNL     1     -33.278  15.426  -3.636  1.00 20.00    -0.133 SA
ENDROOT
BRANCH   4   8
HETATM    8  C7  UNL     1     -34.628  14.310  -5.746  1.00 20.00     0.001 C 
HETATM    9  C5  UNL     1     -35.031  13.524  -4.498  1.00 20.00     0.011 C 
HETATM   10  C6  UNL     1     -35.863  14.674  -6.569  1.00 20.00     0.011 C 
ENDBRANCH   4   8
TORSDOF 1
ENDMDL
MODEL 6
REMARK VINA RESULT:      -3.8      1.724      2.676
REMARK  1 active torsions:
REMARK  status: ('A' for Active; 'I' for Inactive)
REMARK    1  A    between atoms: C4_4  and  C7_7 
ROOT
HETATM    1  C1  UNL     1     -34.741  13.527  -4.176  1.00 20.00     0.075 C 
HETATM    2  C2  UNL     1     -35.860  15.558  -3.342  1.00 20.00     0.105 C 
HETATM    3  C3  UNL     1     -34.624  14.673  -3.267  1.00 20.00     0.164 C 
HETATM    4  C4  UNL     1     -33.816  17.293  -3.080  1.00 20.00     0.113 C 
HETATM    5  N8  UNL     1     -34.833  12.621  -4.894  1.00 20.00    -0.196 NA
HETATM    6  S9  UNL     1     -35.490  17.063  -2.409  1.00 20.00    -0.151 SA
HETATM    7  S10 UNL     1     -33.174  15.696  -3.683  1.00 20.00    -0.133 SA
ENDROOT
BRANCH   4   8
HETATM    8  C7  UNL     1     -33.844  18.299  -4.223  1.00 20.00     0.001 C 
HETATM    9  C5  UNL     1     -33.633  17.598  -5.565  1.00 20.00     0.011 C 
HETATM   10  C6  UNL     1     -35.159  19.077  -4.229  1.00 20.00     0.011 C 
ENDBRANCH   4   8
TORSDOF 1
ENDMDL
MODEL 7
REMARK VINA RESULT:      -3.8      2.566      3.621
REMARK  1 active torsions:
REMARK  status: ('A' for Active; 'I' for Inactive)
REMARK    1  A    between atoms: C4_4  and  C7_7 
ROOT
HETATM    1  C1  UNL     1     -37.299  14.754  -3.604  1.00 20.00     0.075 C 
HETATM    2  C2  UNL     1     -35.978  16.813  -3.302  1.00 20.00     0.105 C 
HETATM    3  C3  UNL     1     -35.984  15.292  -3.234  1.00 20.00     0.164 C 
HETATM    4  C4  UNL     1     -33.550  16.098  -4.224  1.00 20.00     0.113 C 
HETATM    5  N8  UNL     1     -38.337  14.328  -3.896  1.00 20.00    -0.196 NA
HETATM    6  S9  UNL     1     -34.260  17.344  -3.107  1.00 20.00    -0.151 SA
HETATM    7  S10 UNL     1     -34.684  14.675  -4.354  1.00 20.00    -0.133 SA
ENDROOT
BRANCH   4   8
HETATM    8  C7  UNL     1     -33.325  16.701  -5.605  1.00 20.00     0.001 C 
HETATM    9  C5  UNL     1     -34.241  16.042  -6.637  1.00 20.00     0.011 C 
HETATM   10  C6  UNL     1     -33.550  18.212  -5.580  1.00 20.00     0.011 C 
ENDBRANCH   4   8
TORSDOF 1
ENDMDL
MODEL 8
REMARK VINA RESULT:      -3.7      2.355      2.938
REMARK  1 active torsions:
REMARK  status: ('A' for Active; 'I' for Inactive)
REMARK    1  A    between atoms: C4_4  and  C7_7 
ROOT
HETATM    1  C1  UNL     1     -38.091  14.859  -4.388  1.00 20.00     0.075 C 
HETATM    2  C2  UNL     1     -35.824  14.617  -5.324  1.00 20.00     0.105 C 
HETATM    3  C3  UNL     1     -36.944  15.579  -4.955  1.00 20.00     0.164 C 
HETATM    4  C4  UNL     1     -34.547  16.779  -4.347  1.00 20.00     0.113 C 
HETATM    5  N8  UNL     1     -38.997  14.290  -3.940  1.00 20.00    -0.196 NA
HETATM    6  S9  UNL     1     -34.379  15.623  -5.740  1.00 20.00    -0.151 SA
HETATM    7  S10 UNL     1     -36.276  16.789  -3.766  1.00 20.00    -0.133 SA
ENDROOT
BRANCH   4   8
HETATM    8  C7  UNL     1     -33.627  16.362  -3.208  1.00 20.00     0.001 C 
HETATM    9  C5  UNL     1     -34.430  16.087  -1.936  1.00 20.00     0.011 C 
HETATM   10  C6  UNL     1     -32.806  15.132  -3.596  1.00 20.00     0.011 C 
ENDBRANCH   4   8
TORSDOF 1
ENDMDL
MODEL 9
REMARK VINA RESULT:      -3.7      2.642      4.439
REMARK  1 active torsions:
REMARK  status: ('A' for Active; 'I' for Inactive)
REMARK    1  A    between atoms: C4_4  and  C7_7 
ROOT
HETATM    1  C1  UNL     1     -34.456  16.268  -1.759  1.00 20.00     0.075 C 
HETATM    2  C2  UNL     1     -33.965  14.603  -3.509  1.00 20.00     0.105 C 
HETATM    3  C3  UNL     1     -35.044  15.297  -2.689  1.00 20.00     0.164 C 
HETATM    4  C4  UNL     1     -35.994  14.955  -5.245  1.00 20.00     0.113 C 
HETATM    5  N8  UNL     1     -33.991  17.036  -1.024  1.00 20.00    -0.196 NA
HETATM    6  S9  UNL     1     -34.808  13.652  -4.796  1.00 20.00    -0.151 SA
HETATM    7  S10 UNL     1     -36.193  16.110  -3.847  1.00 20.00    -0.133 SA
ENDROOT
BRANCH   4   8
HETATM    8  C7  UNL     1     -35.498  15.714  -6.470  1.00 20.00     0.001 C 
HETATM    9  C5  UNL     1     -34.913  17.067  -6.066  1.00 20.00     0.011 C 
HETATM   10  C6  UNL     1     -34.462  14.891  -7.234  1.00 20.00     0.011 C 
ENDBRANCH   4   8
TORSDOF 1
ENDMDL
