MODEL 1
REMARK VINA RESULT:      -5.2      0.000      0.000
REMARK  0 active torsions:
REMARK  status: ('A' for Active; 'I' for Inactive)
ROOT
HETATM    1  C1  UNL     1     -34.649  13.631  -4.278  1.00 20.00     0.136 C 
HETATM    2  C2  UNL     1     -33.283  13.976  -3.751  1.00 20.00     0.080 C 
HETATM    3  C3  UNL     1     -33.437  15.454  -3.422  1.00 20.00     0.017 C 
HETATM    4  C4  UNL     1     -34.373  15.230  -6.794  1.00 20.00     0.002 C 
HETATM    5  C5  UNL     1     -35.720  14.877  -6.184  1.00 20.00     0.018 C 
HETATM    6  C6  UNL     1     -33.779  16.262  -5.841  1.00 20.00     0.010 C 
HETATM    7  C7  UNL     1     -35.452  14.869  -4.678  1.00 20.00     0.024 C 
HETATM    8  C8  UNL     1     -34.431  16.020  -4.452  1.00 20.00    -0.029 C 
HETATM    9  C9  UNL     1     -36.731  14.911  -3.851  1.00 20.00     0.024 C 
HETATM   10  C10 UNL     1     -35.026  17.334  -3.934  1.00 20.00     0.016 C 
HETATM   11  O11 UNL     1     -35.046  12.480  -4.408  1.00 20.00    -0.297 OA
ENDROOT
TORSDOF 0
ENDMDL
MODEL 2
REMARK VINA RESULT:      -5.1      1.030      2.569
REMARK  0 active torsions:
REMARK  status: ('A' for Active; 'I' for Inactive)
ROOT
HETATM    1  C1  UNL     1     -34.747  13.754  -4.984  1.00 20.00     0.136 C 
HETATM    2  C2  UNL     1     -35.087  14.096  -6.410  1.00 20.00     0.080 C 
HETATM    3  C3  UNL     1     -34.397  15.441  -6.584  1.00 20.00     0.017 C 
HETATM    4  C4  UNL     1     -36.460  15.897  -3.785  1.00 20.00     0.002 C 
HETATM    5  C5  UNL     1     -35.264  15.294  -3.063  1.00 20.00     0.018 C 
HETATM    6  C6  UNL     1     -35.849  16.738  -4.901  1.00 20.00     0.010 C 
HETATM    7  C7  UNL     1     -34.279  14.972  -4.187  1.00 20.00     0.024 C 
HETATM    8  C8  UNL     1     -34.453  16.132  -5.209  1.00 20.00    -0.029 C 
HETATM    9  C9  UNL     1     -32.867  14.710  -3.676  1.00 20.00     0.024 C 
HETATM   10  C10 UNL     1     -33.391  17.235  -5.138  1.00 20.00     0.016 C 
HETATM   11  O11 UNL     1     -34.875  12.631  -4.516  1.00 20.00    -0.297 OA
ENDROOT
TORSDOF 0
ENDMDL
MODEL 3
REMARK VINA RESULT:      -5.0      1.073      2.454
REMARK  0 active torsions:
REMARK  status: ('A' for Active; 'I' for Inactive)
ROOT
HETATM    1  C1  UNL     1     -36.318  14.807  -3.903  1.00 20.00     0.136 C 
HETATM    2  C2  UNL     1     -36.039  15.922  -2.932  1.00 20.00     0.080 C 
HETATM    3  C3  UNL     1     -35.045  16.773  -3.709  1.00 20.00     0.017 C 
HETATM    4  C4  UNL     1     -33.595  13.580  -3.683  1.00 20.00     0.002 C 
HETATM    5  C5  UNL     1     -34.492  13.388  -4.896  1.00 20.00     0.018 C 
HETATM    6  C6  UNL     1     -33.147  15.036  -3.763  1.00 20.00     0.010 C 
HETATM    7  C7  UNL     1     -35.258  14.708  -5.001  1.00 20.00     0.024 C 
HETATM    8  C8  UNL     1     -34.231  15.796  -4.576  1.00 20.00    -0.029 C 
HETATM    9  C9  UNL     1     -35.936  14.891  -6.353  1.00 20.00     0.024 C 
HETATM   10  C10 UNL     1     -33.564  16.555  -5.728  1.00 20.00     0.016 C 
HETATM   11  O11 UNL     1     -37.268  14.043  -3.791  1.00 20.00    -0.297 OA
ENDROOT
TORSDOF 0
ENDMDL
MODEL 4
REMARK VINA RESULT:      -4.8      1.583      3.283
REMARK  0 active torsions:
REMARK  status: ('A' for Active; 'I' for Inactive)
ROOT
HETATM    1  C1  UNL     1     -33.951  16.169  -5.355  1.00 20.00     0.136 C 
HETATM    2  C2  UNL     1     -34.342  15.433  -6.608  1.00 20.00     0.080 C 
HETATM    3  C3  UNL     1     -35.735  14.932  -6.257  1.00 20.00     0.017 C 
HETATM    4  C4  UNL     1     -33.711  13.707  -3.668  1.00 20.00     0.002 C 
HETATM    5  C5  UNL     1     -33.978  15.086  -3.084  1.00 20.00     0.018 C 
HETATM    6  C6  UNL     1     -35.008  13.332  -4.376  1.00 20.00     0.010 C 
HETATM    7  C7  UNL     1     -34.817  15.783  -4.156  1.00 20.00     0.024 C 
HETATM    8  C8  UNL     1     -35.723  14.662  -4.741  1.00 20.00    -0.029 C 
HETATM    9  C9  UNL     1     -35.517  17.033  -3.636  1.00 20.00     0.024 C 
HETATM   10  C10 UNL     1     -37.159  14.632  -4.207  1.00 20.00     0.016 C 
HETATM   11  O11 UNL     1     -33.014  16.955  -5.304  1.00 20.00    -0.297 OA
ENDROOT
TORSDOF 0
ENDMDL
MODEL 5
REMARK VINA RESULT:      -4.7      1.683      3.189
REMARK  0 active torsions:
REMARK  status: ('A' for Active; 'I' for Inactive)
ROOT
HETATM    1  C1  UNL     1     -33.326  14.647  -3.753  1.00 20.00     0.136 C 
HETATM    2  C2  UNL     1     -34.356  13.552  -3.807  1.00 20.00     0.080 C 
HETATM    3  C3  UNL     1     -35.518  14.246  -4.502  1.00 20.00     0.017 C 
HETATM    4  C4  UNL     1     -34.813  16.306  -1.752  1.00 20.00     0.002 C 
HETATM    5  C5  UNL     1     -33.791  16.891  -2.715  1.00 20.00     0.018 C 
HETATM    6  C6  UNL     1     -36.006  15.945  -2.632  1.00 20.00     0.010 C 
HETATM    7  C7  UNL     1     -33.934  16.033  -3.972  1.00 20.00     0.024 C 
HETATM    8  C8  UNL     1     -35.456  15.721  -4.067  1.00 20.00    -0.029 C 
HETATM    9  C9  UNL     1     -33.283  16.665  -5.196  1.00 20.00     0.024 C 
HETATM   10  C10 UNL     1     -36.243  16.589  -5.055  1.00 20.00     0.016 C 
HETATM   11  O11 UNL     1     -32.142  14.443  -3.516  1.00 20.00    -0.297 OA
ENDROOT
TORSDOF 0
ENDMDL
MODEL 6
REMARK VINA RESULT:      -4.7      1.514      2.331
REMARK  0 active torsions:
REMARK  status: ('A' for Active; 'I' for Inactive)
ROOT
HETATM    1  C1  UNL     1     -33.396  15.176  -3.502  1.00 20.00     0.136 C 
HETATM    2  C2  UNL     1     -33.785  16.202  -2.473  1.00 20.00     0.080 C 
HETATM    3  C3  UNL     1     -35.298  16.050  -2.433  1.00 20.00     0.017 C 
HETATM    4  C4  UNL     1     -34.593  16.656  -5.814  1.00 20.00     0.002 C 
HETATM    5  C5  UNL     1     -34.367  15.152  -5.823  1.00 20.00     0.018 C 
HETATM    6  C6  UNL     1     -35.742  16.865  -4.833  1.00 20.00     0.010 C 
HETATM    7  C7  UNL     1     -34.579  14.738  -4.367  1.00 20.00     0.024 C 
HETATM    8  C8  UNL     1     -35.727  15.656  -3.858  1.00 20.00    -0.029 C 
HETATM    9  C9  UNL     1     -34.774  13.235  -4.203  1.00 20.00     0.024 C 
HETATM   10  C10 UNL     1     -37.117  15.012  -3.824  1.00 20.00     0.016 C 
HETATM   11  O11 UNL     1     -32.249  14.776  -3.649  1.00 20.00    -0.297 OA
ENDROOT
TORSDOF 0
ENDMDL
MODEL 7
REMARK VINA RESULT:      -4.7      1.806      2.977
REMARK  0 active torsions:
REMARK  status: ('A' for Active; 'I' for Inactive)
ROOT
HETATM    1  C1  UNL     1     -35.658  16.396  -4.537  1.00 20.00     0.136 C 
HETATM    2  C2  UNL     1     -36.026  15.866  -3.178  1.00 20.00     0.080 C 
HETATM    3  C3  UNL     1     -34.684  15.368  -2.661  1.00 20.00     0.017 C 
HETATM    4  C4  UNL     1     -35.087  13.707  -5.723  1.00 20.00     0.002 C 
HETATM    5  C5  UNL     1     -34.485  14.994  -6.265  1.00 20.00     0.018 C 
HETATM    6  C6  UNL     1     -34.381  13.486  -4.389  1.00 20.00     0.010 C 
HETATM    7  C7  UNL     1     -34.308  15.870  -5.025  1.00 20.00     0.024 C 
HETATM    8  C8  UNL     1     -33.905  14.879  -3.895  1.00 20.00    -0.029 C 
HETATM    9  C9  UNL     1     -33.380  17.054  -5.266  1.00 20.00     0.024 C 
HETATM   10  C10 UNL     1     -32.407  14.821  -3.575  1.00 20.00     0.016 C 
HETATM   11  O11 UNL     1     -36.387  17.133  -5.188  1.00 20.00    -0.297 OA
ENDROOT
TORSDOF 0
ENDMDL
MODEL 8
REMARK VINA RESULT:      -4.6      1.000      2.696
REMARK  0 active torsions:
REMARK  status: ('A' for Active; 'I' for Inactive)
ROOT
HETATM    1  C1  UNL     1     -35.485  13.965  -4.396  1.00 20.00     0.136 C 
HETATM    2  C2  UNL     1     -36.813  14.448  -3.881  1.00 20.00     0.080 C 
HETATM    3  C3  UNL     1     -36.914  15.827  -4.515  1.00 20.00     0.017 C 
HETATM    4  C4  UNL     1     -33.861  15.902  -2.791  1.00 20.00     0.002 C 
HETATM    5  C5  UNL     1     -33.355  15.266  -4.078  1.00 20.00     0.018 C 
HETATM    6  C6  UNL     1     -34.939  16.881  -3.246  1.00 20.00     0.010 C 
HETATM    7  C7  UNL     1     -34.615  15.104  -4.929  1.00 20.00     0.024 C 
HETATM    8  C8  UNL     1     -35.473  16.361  -4.608  1.00 20.00    -0.029 C 
HETATM    9  C9  UNL     1     -34.305  14.837  -6.397  1.00 20.00     0.024 C 
HETATM   10  C10 UNL     1     -35.402  17.487  -5.646  1.00 20.00     0.016 C 
HETATM   11  O11 UNL     1     -35.134  12.792  -4.349  1.00 20.00    -0.297 OA
ENDROOT
TORSDOF 0
ENDMDL
MODEL 9
REMARK VINA RESULT:      -4.6      1.420      1.940
REMARK  0 active torsions:
REMARK  status: ('A' for Active; 'I' for Inactive)
ROOT
HETATM    1  C1  UNL     1     -35.153  14.303  -5.695  1.00 20.00     0.136 C 
HETATM    2  C2  UNL     1     -34.334  13.287  -4.947  1.00 20.00     0.080 C 
HETATM    3  C3  UNL     1     -34.452  13.782  -3.513  1.00 20.00     0.017 C 
HETATM    4  C4  UNL     1     -33.224  16.555  -5.274  1.00 20.00     0.002 C 
HETATM    5  C5  UNL     1     -34.704  16.775  -5.550  1.00 20.00     0.018 C 
HETATM    6  C6  UNL     1     -33.178  15.991  -3.858  1.00 20.00     0.010 C 
HETATM    7  C7  UNL     1     -35.385  15.579  -4.885  1.00 20.00     0.024 C 
HETATM    8  C8  UNL     1     -34.552  15.316  -3.597  1.00 20.00    -0.029 C 
HETATM    9  C9  UNL     1     -36.885  15.778  -4.706  1.00 20.00     0.024 C 
HETATM   10  C10 UNL     1     -35.154  15.869  -2.301  1.00 20.00     0.016 C 
HETATM   11  O11 UNL     1     -35.547  14.134  -6.842  1.00 20.00    -0.297 OA
ENDROOT
TORSDOF 0
ENDMDL
