MODEL 1
REMARK VINA RESULT:      -5.0      0.000      0.000
REMARK  0 active torsions:
REMARK  status: ('A' for Active; 'I' for Inactive)
ROOT
HETATM    1  C1  UNL     1     -37.538  15.292  -4.791  1.00 20.00    -0.029 C 
HETATM    2  C2  UNL     1     -36.642  14.757  -3.955  1.00 20.00    -0.013 C 
HETATM    3  C3  UNL     1     -34.487  13.564  -4.312  1.00 20.00     0.139 C 
HETATM    4  C4  UNL     1     -36.889  15.845  -6.017  1.00 20.00     0.032 C 
HETATM    5  C5  UNL     1     -33.157  13.771  -3.632  1.00 20.00     0.079 C 
HETATM    6  C6  UNL     1     -32.978  15.281  -3.712  1.00 20.00     0.009 C 
HETATM    7  C7  UNL     1     -34.394  15.846  -3.664  1.00 20.00     0.022 C 
HETATM    8  C8  UNL     1     -35.499  15.188  -5.983  1.00 20.00     0.004 C 
HETATM    9  C9  UNL     1     -35.245  14.872  -4.489  1.00 20.00     0.041 C 
HETATM   10  C10 UNL     1     -34.455  16.019  -6.715  1.00 20.00     0.011 C 
HETATM   11  O11 UNL     1     -34.902  12.462  -4.650  1.00 20.00    -0.297 OA
ENDROOT
TORSDOF 0
ENDMDL
MODEL 2
REMARK VINA RESULT:      -4.9      1.911      3.099
REMARK  0 active torsions:
REMARK  status: ('A' for Active; 'I' for Inactive)
ROOT
HETATM    1  C1  UNL     1     -34.170  17.319  -1.613  1.00 20.00    -0.029 C 
HETATM    2  C2  UNL     1     -34.601  16.061  -1.755  1.00 20.00    -0.013 C 
HETATM    3  C3  UNL     1     -35.798  14.873  -3.584  1.00 20.00     0.139 C 
HETATM    4  C4  UNL     1     -33.744  17.908  -2.917  1.00 20.00     0.032 C 
HETATM    5  C5  UNL     1     -35.503  13.531  -4.204  1.00 20.00     0.079 C 
HETATM    6  C6  UNL     1     -34.008  13.618  -4.481  1.00 20.00     0.009 C 
HETATM    7  C7  UNL     1     -33.459  14.523  -3.383  1.00 20.00     0.022 C 
HETATM    8  C8  UNL     1     -34.376  16.947  -3.938  1.00 20.00     0.004 C 
HETATM    9  C9  UNL     1     -34.527  15.606  -3.181  1.00 20.00     0.041 C 
HETATM   10  C10 UNL     1     -33.616  16.933  -5.257  1.00 20.00     0.011 C 
HETATM   11  O11 UNL     1     -36.936  15.295  -3.409  1.00 20.00    -0.297 OA
ENDROOT
TORSDOF 0
ENDMDL
MODEL 3
REMARK VINA RESULT:      -4.9      2.124      3.686
REMARK  0 active torsions:
REMARK  status: ('A' for Active; 'I' for Inactive)
ROOT
HETATM    1  C1  UNL     1     -33.336  13.653  -3.822  1.00 20.00    -0.029 C 
HETATM    2  C2  UNL     1     -32.903  14.874  -3.490  1.00 20.00    -0.013 C 
HETATM    3  C3  UNL     1     -33.737  17.166  -3.988  1.00 20.00     0.139 C 
HETATM    4  C4  UNL     1     -34.824  13.603  -3.922  1.00 20.00     0.032 C 
HETATM    5  C5  UNL     1     -33.935  18.333  -3.055  1.00 20.00     0.079 C 
HETATM    6  C6  UNL     1     -34.696  17.702  -1.897  1.00 20.00     0.009 C 
HETATM    7  C7  UNL     1     -34.204  16.260  -1.845  1.00 20.00     0.022 C 
HETATM    8  C8  UNL     1     -35.203  15.091  -4.004  1.00 20.00     0.004 C 
HETATM    9  C9  UNL     1     -34.038  15.837  -3.309  1.00 20.00     0.041 C 
HETATM   10  C10 UNL     1     -36.613  15.353  -3.494  1.00 20.00     0.011 C 
HETATM   11  O11 UNL     1     -33.351  17.290  -5.145  1.00 20.00    -0.297 OA
ENDROOT
TORSDOF 0
ENDMDL
MODEL 4
REMARK VINA RESULT:      -4.8      1.747      2.767
REMARK  0 active torsions:
REMARK  status: ('A' for Active; 'I' for Inactive)
ROOT
HETATM    1  C1  UNL     1     -35.556  14.957  -7.806  1.00 20.00    -0.029 C 
HETATM    2  C2  UNL     1     -34.435  14.831  -7.089  1.00 20.00    -0.013 C 
HETATM    3  C3  UNL     1     -33.712  15.748  -4.891  1.00 20.00     0.139 C 
HETATM    4  C4  UNL     1     -36.759  15.091  -6.931  1.00 20.00     0.032 C 
HETATM    5  C5  UNL     1     -33.065  15.041  -3.727  1.00 20.00     0.079 C 
HETATM    6  C6  UNL     1     -33.949  13.813  -3.556  1.00 20.00     0.009 C 
HETATM    7  C7  UNL     1     -34.453  13.494  -4.960  1.00 20.00     0.022 C 
HETATM    8  C8  UNL     1     -36.141  15.445  -5.568  1.00 20.00     0.004 C 
HETATM    9  C9  UNL     1     -34.710  14.856  -5.615  1.00 20.00     0.041 C 
HETATM   10  C10 UNL     1     -37.037  15.030  -4.409  1.00 20.00     0.011 C 
HETATM   11  O11 UNL     1     -33.434  16.897  -5.216  1.00 20.00    -0.297 OA
ENDROOT
TORSDOF 0
ENDMDL
MODEL 5
REMARK VINA RESULT:      -4.8      1.088      3.153
REMARK  0 active torsions:
REMARK  status: ('A' for Active; 'I' for Inactive)
ROOT
HETATM    1  C1  UNL     1     -33.632  15.906  -2.567  1.00 20.00    -0.029 C 
HETATM    2  C2  UNL     1     -33.446  15.451  -3.811  1.00 20.00    -0.013 C 
HETATM    3  C3  UNL     1     -34.733  13.887  -5.257  1.00 20.00     0.139 C 
HETATM    4  C4  UNL     1     -35.082  16.046  -2.241  1.00 20.00     0.032 C 
HETATM    5  C5  UNL     1     -35.143  14.039  -6.700  1.00 20.00     0.079 C 
HETATM    6  C6  UNL     1     -35.737  15.441  -6.728  1.00 20.00     0.009 C 
HETATM    7  C7  UNL     1     -34.964  16.214  -5.664  1.00 20.00     0.022 C 
HETATM    8  C8  UNL     1     -35.754  15.208  -3.342  1.00 20.00     0.004 C 
HETATM    9  C9  UNL     1     -34.747  15.218  -4.518  1.00 20.00     0.041 C 
HETATM   10  C10 UNL     1     -37.176  15.669  -3.626  1.00 20.00     0.011 C 
HETATM   11  O11 UNL     1     -34.406  12.814  -4.763  1.00 20.00    -0.297 OA
ENDROOT
TORSDOF 0
ENDMDL
MODEL 6
REMARK VINA RESULT:      -4.7      1.622      3.597
REMARK  0 active torsions:
REMARK  status: ('A' for Active; 'I' for Inactive)
ROOT
HETATM    1  C1  UNL     1     -34.341  13.325  -4.841  1.00 20.00    -0.029 C 
HETATM    2  C2  UNL     1     -35.433  13.965  -5.272  1.00 20.00    -0.013 C 
HETATM    3  C3  UNL     1     -37.291  15.134  -4.100  1.00 20.00     0.139 C 
HETATM    4  C4  UNL     1     -33.800  13.936  -3.590  1.00 20.00     0.032 C 
HETATM    5  C5  UNL     1     -37.898  16.484  -4.382  1.00 20.00     0.079 C 
HETATM    6  C6  UNL     1     -36.671  17.377  -4.509  1.00 20.00     0.009 C 
HETATM    7  C7  UNL     1     -35.582  16.466  -5.067  1.00 20.00     0.022 C 
HETATM    8  C8  UNL     1     -34.980  14.793  -3.101  1.00 20.00     0.004 C 
HETATM    9  C9  UNL     1     -35.795  15.113  -4.378  1.00 20.00     0.041 C 
HETATM   10  C10 UNL     1     -34.521  15.964  -2.245  1.00 20.00     0.011 C 
HETATM   11  O11 UNL     1     -37.946  14.171  -3.718  1.00 20.00    -0.297 OA
ENDROOT
TORSDOF 0
ENDMDL
MODEL 7
REMARK VINA RESULT:      -4.7      1.412      3.487
REMARK  0 active torsions:
REMARK  status: ('A' for Active; 'I' for Inactive)
ROOT
HETATM    1  C1  UNL     1     -33.442  13.648  -3.805  1.00 20.00    -0.029 C 
HETATM    2  C2  UNL     1     -34.436  13.501  -4.689  1.00 20.00    -0.013 C 
HETATM    3  C3  UNL     1     -36.282  14.996  -5.431  1.00 20.00     0.139 C 
HETATM    4  C4  UNL     1     -32.961  15.060  -3.745  1.00 20.00     0.032 C 
HETATM    5  C5  UNL     1     -36.747  15.317  -6.828  1.00 20.00     0.079 C 
HETATM    6  C6  UNL     1     -35.443  15.646  -7.542  1.00 20.00     0.009 C 
HETATM    7  C7  UNL     1     -34.390  14.786  -6.849  1.00 20.00     0.022 C 
HETATM    8  C8  UNL     1     -34.102  15.830  -4.430  1.00 20.00     0.004 C 
HETATM    9  C9  UNL     1     -34.775  14.796  -5.364  1.00 20.00     0.041 C 
HETATM   10  C10 UNL     1     -33.620  17.134  -5.050  1.00 20.00     0.011 C 
HETATM   11  O11 UNL     1     -37.046  14.886  -4.479  1.00 20.00    -0.297 OA
ENDROOT
TORSDOF 0
ENDMDL
MODEL 8
REMARK VINA RESULT:      -4.7      2.031      3.524
REMARK  0 active torsions:
REMARK  status: ('A' for Active; 'I' for Inactive)
ROOT
HETATM    1  C1  UNL     1     -34.505  13.361  -4.956  1.00 20.00    -0.029 C 
HETATM    2  C2  UNL     1     -34.589  14.441  -5.739  1.00 20.00    -0.013 C 
HETATM    3  C3  UNL     1     -35.587  16.698  -5.419  1.00 20.00     0.139 C 
HETATM    4  C4  UNL     1     -34.381  13.732  -3.515  1.00 20.00     0.032 C 
HETATM    5  C5  UNL     1     -35.000  18.054  -5.718  1.00 20.00     0.079 C 
HETATM    6  C6  UNL     1     -33.618  17.960  -5.084  1.00 20.00     0.009 C 
HETATM    7  C7  UNL     1     -33.234  16.489  -5.200  1.00 20.00     0.022 C 
HETATM    8  C8  UNL     1     -34.823  15.205  -3.511  1.00 20.00     0.004 C 
HETATM    9  C9  UNL     1     -34.530  15.711  -4.945  1.00 20.00     0.041 C 
HETATM   10  C10 UNL     1     -34.217  15.982  -2.351  1.00 20.00     0.011 C 
HETATM   11  O11 UNL     1     -36.775  16.434  -5.572  1.00 20.00    -0.297 OA
ENDROOT
TORSDOF 0
ENDMDL
MODEL 9
REMARK VINA RESULT:      -4.6      2.042      3.722
REMARK  0 active torsions:
REMARK  status: ('A' for Active; 'I' for Inactive)
ROOT
HETATM    1  C1  UNL     1     -33.432  18.398  -4.002  1.00 20.00    -0.029 C 
HETATM    2  C2  UNL     1     -33.543  17.203  -4.592  1.00 20.00    -0.013 C 
HETATM    3  C3  UNL     1     -33.298  14.869  -3.762  1.00 20.00     0.139 C 
HETATM    4  C4  UNL     1     -33.878  18.353  -2.577  1.00 20.00     0.032 C 
HETATM    5  C5  UNL     1     -34.198  13.679  -3.979  1.00 20.00     0.079 C 
HETATM    6  C6  UNL     1     -35.575  14.245  -3.655  1.00 20.00     0.009 C 
HETATM    7  C7  UNL     1     -35.497  15.715  -4.052  1.00 20.00     0.022 C 
HETATM    8  C8  UNL     1     -33.884  16.845  -2.277  1.00 20.00     0.004 C 
HETATM    9  C9  UNL     1     -34.086  16.167  -3.654  1.00 20.00     0.041 C 
HETATM   10  C10 UNL     1     -34.859  16.487  -1.164  1.00 20.00     0.011 C 
HETATM   11  O11 UNL     1     -32.076  14.785  -3.709  1.00 20.00    -0.297 OA
ENDROOT
TORSDOF 0
ENDMDL
