MODEL 1
REMARK VINA RESULT:      -4.8      0.000      0.000
REMARK  1 active torsions:
REMARK  status: ('A' for Active; 'I' for Inactive)
REMARK    1  A    between atoms: C5_5  and  N7_7 
ROOT
HETATM    1  C1  UNL     1     -32.480   6.889   2.948  1.00 20.00     0.332 C 
HETATM    2  N7  UNL     1     -33.235   6.008   3.113  1.00 20.00    -0.241 NA
HETATM    3  O8  UNL     1     -31.719   7.770   2.778  1.00 20.00    -0.260 OA
ENDROOT
BRANCH   2   4
HETATM    4  C5  UNL     1     -34.234   6.260   4.160  1.00 20.00     0.126 C 
HETATM    5  C3  UNL     1     -35.459   5.378   3.912  1.00 20.00     0.029 C 
HETATM    6  C2  UNL     1     -35.197   4.129   4.739  1.00 20.00     0.003 C 
HETATM    7  C4  UNL     1     -34.571   4.685   6.008  1.00 20.00     0.018 C 
HETATM    8  C6  UNL     1     -33.668   5.811   5.512  1.00 20.00     0.083 C 
HETATM    9 BR9  UNL     1     -33.660   7.281   6.788  1.00 20.00    -0.089 Br
ENDBRANCH   2   4
TORSDOF 1
ENDMDL
MODEL 2
REMARK VINA RESULT:      -4.3     11.680     12.682
REMARK  1 active torsions:
REMARK  status: ('A' for Active; 'I' for Inactive)
REMARK    1  A    between atoms: C5_5  and  N7_7 
ROOT
HETATM    1  C1  UNL     1     -35.119  13.527  -4.217  1.00 20.00     0.332 C 
HETATM    2  N7  UNL     1     -35.433  14.518  -3.675  1.00 20.00    -0.241 NA
HETATM    3  O8  UNL     1     -34.810  12.533  -4.764  1.00 20.00    -0.260 OA
ENDROOT
BRANCH   2   4
HETATM    4  C5  UNL     1     -34.334  15.195  -2.975  1.00 20.00     0.126 C 
HETATM    5  C3  UNL     1     -33.163  15.385  -3.940  1.00 20.00     0.029 C 
HETATM    6  C2  UNL     1     -33.379  16.773  -4.526  1.00 20.00     0.003 C 
HETATM    7  C4  UNL     1     -33.867  17.575  -3.330  1.00 20.00     0.018 C 
HETATM    8  C6  UNL     1     -34.781  16.607  -2.583  1.00 20.00     0.083 C 
HETATM    9 BR9  UNL     1     -34.628  16.881  -0.662  1.00 20.00    -0.089 Br
ENDBRANCH   2   4
TORSDOF 1
ENDMDL
MODEL 3
REMARK VINA RESULT:      -4.2     12.251     12.916
REMARK  1 active torsions:
REMARK  status: ('A' for Active; 'I' for Inactive)
REMARK    1  A    between atoms: C5_5  and  N7_7 
ROOT
HETATM    1  C1  UNL     1     -34.239  13.449  -4.446  1.00 20.00     0.332 C 
HETATM    2  N7  UNL     1     -33.667  14.365  -3.992  1.00 20.00    -0.241 NA
HETATM    3  O8  UNL     1     -34.808  12.525  -4.902  1.00 20.00    -0.260 OA
ENDROOT
BRANCH   2   4
HETATM    4  C5  UNL     1     -34.457  15.603  -3.945  1.00 20.00     0.126 C 
HETATM    5  C3  UNL     1     -35.365  15.575  -2.714  1.00 20.00     0.029 C 
HETATM    6  C2  UNL     1     -34.560  16.283  -1.635  1.00 20.00     0.003 C 
HETATM    7  C4  UNL     1     -33.893  17.418  -2.397  1.00 20.00     0.018 C 
HETATM    8  C6  UNL     1     -33.513  16.793  -3.736  1.00 20.00     0.083 C 
HETATM    9 BR9  UNL     1     -33.706  18.097  -5.168  1.00 20.00    -0.089 Br
ENDBRANCH   2   4
TORSDOF 1
ENDMDL
MODEL 4
REMARK VINA RESULT:      -4.0     11.986     12.605
REMARK  1 active torsions:
REMARK  status: ('A' for Active; 'I' for Inactive)
REMARK    1  A    between atoms: C5_5  and  N7_7 
ROOT
HETATM    1  C1  UNL     1     -37.637  14.856  -3.920  1.00 20.00     0.332 C 
HETATM    2  N7  UNL     1     -36.684  15.538  -3.951  1.00 20.00    -0.241 NA
HETATM    3  O8  UNL     1     -38.596  14.175  -3.894  1.00 20.00    -0.260 OA
ENDROOT
BRANCH   2   4
HETATM    4  C5  UNL     1     -35.627  15.137  -3.012  1.00 20.00     0.126 C 
HETATM    5  C3  UNL     1     -34.773  14.041  -3.653  1.00 20.00     0.029 C 
HETATM    6  C2  UNL     1     -33.627  14.794  -4.312  1.00 20.00     0.003 C 
HETATM    7  C4  UNL     1     -33.312  15.886  -3.302  1.00 20.00     0.018 C 
HETATM    8  C6  UNL     1     -34.681  16.321  -2.787  1.00 20.00     0.083 C 
HETATM    9 BR9  UNL     1     -34.575  16.781  -0.898  1.00 20.00    -0.089 Br
ENDBRANCH   2   4
TORSDOF 1
ENDMDL
MODEL 5
REMARK VINA RESULT:      -3.8     12.173     13.569
REMARK  1 active torsions:
REMARK  status: ('A' for Active; 'I' for Inactive)
REMARK    1  A    between atoms: C5_5  and  N7_7 
ROOT
HETATM    1  C1  UNL     1     -34.687  13.600  -4.897  1.00 20.00     0.332 C 
HETATM    2  N7  UNL     1     -34.343  14.545  -5.500  1.00 20.00    -0.241 NA
HETATM    3  O8  UNL     1     -35.032  12.649  -4.297  1.00 20.00    -0.260 OA
ENDROOT
BRANCH   2   4
HETATM    4  C5  UNL     1     -33.883  15.659  -4.661  1.00 20.00     0.126 C 
HETATM    5  C3  UNL     1     -33.428  16.811  -5.559  1.00 20.00     0.029 C 
HETATM    6  C2  UNL     1     -34.663  17.689  -5.701  1.00 20.00     0.003 C 
HETATM    7  C4  UNL     1     -35.272  17.648  -4.308  1.00 20.00     0.018 C 
HETATM    8  C6  UNL     1     -35.069  16.205  -3.857  1.00 20.00     0.083 C 
HETATM    9 BR9  UNL     1     -34.704  16.140  -1.946  1.00 20.00    -0.089 Br
ENDBRANCH   2   4
TORSDOF 1
ENDMDL
MODEL 6
REMARK VINA RESULT:      -3.8     12.162     12.851
REMARK  1 active torsions:
REMARK  status: ('A' for Active; 'I' for Inactive)
REMARK    1  A    between atoms: C5_5  and  N7_7 
ROOT
HETATM    1  C1  UNL     1     -34.565  16.214  -1.562  1.00 20.00     0.332 C 
HETATM    2  N7  UNL     1     -34.875  15.469  -2.412  1.00 20.00    -0.241 NA
HETATM    3  O8  UNL     1     -34.259  16.960  -0.705  1.00 20.00    -0.260 OA
ENDROOT
BRANCH   2   4
HETATM    4  C5  UNL     1     -33.907  15.376  -3.513  1.00 20.00     0.126 C 
HETATM    5  C3  UNL     1     -33.482  13.917  -3.689  1.00 20.00     0.029 C 
HETATM    6  C2  UNL     1     -34.433  13.373  -4.745  1.00 20.00     0.003 C 
HETATM    7  C4  UNL     1     -34.560  14.533  -5.720  1.00 20.00     0.018 C 
HETATM    8  C6  UNL     1     -34.597  15.768  -4.823  1.00 20.00     0.083 C 
HETATM    9 BR9  UNL     1     -33.676  17.252  -5.682  1.00 20.00    -0.089 Br
ENDBRANCH   2   4
TORSDOF 1
ENDMDL
MODEL 7
REMARK VINA RESULT:      -3.8     11.962     12.452
REMARK  1 active torsions:
REMARK  status: ('A' for Active; 'I' for Inactive)
REMARK    1  A    between atoms: C5_5  and  N7_7 
ROOT
HETATM    1  C1  UNL     1     -34.103  16.752  -1.440  1.00 20.00     0.332 C 
HETATM    2  N7  UNL     1     -34.777  15.889  -1.859  1.00 20.00    -0.241 NA
HETATM    3  O8  UNL     1     -33.428  17.616  -1.013  1.00 20.00    -0.260 OA
ENDROOT
BRANCH   2   4
HETATM    4  C5  UNL     1     -34.697  15.717  -3.315  1.00 20.00     0.126 C 
HETATM    5  C3  UNL     1     -33.292  15.242  -3.690  1.00 20.00     0.029 C 
HETATM    6  C2  UNL     1     -33.403  13.725  -3.717  1.00 20.00     0.003 C 
HETATM    7  C4  UNL     1     -34.769  13.494  -4.344  1.00 20.00     0.018 C 
HETATM    8  C6  UNL     1     -35.643  14.589  -3.741  1.00 20.00     0.083 C 
HETATM    9 BR9  UNL     1     -36.935  15.220  -5.053  1.00 20.00    -0.089 Br
ENDBRANCH   2   4
TORSDOF 1
ENDMDL
MODEL 8
REMARK VINA RESULT:      -3.8      2.496      3.068
REMARK  1 active torsions:
REMARK  status: ('A' for Active; 'I' for Inactive)
REMARK    1  A    between atoms: C5_5  and  N7_7 
ROOT
HETATM    1  C1  UNL     1     -33.570   7.174   6.915  1.00 20.00     0.332 C 
HETATM    2  N7  UNL     1     -34.347   6.389   6.522  1.00 20.00    -0.241 NA
HETATM    3  O8  UNL     1     -32.795   7.964   7.314  1.00 20.00    -0.260 OA
ENDROOT
BRANCH   2   4
HETATM    4  C5  UNL     1     -33.846   5.540   5.433  1.00 20.00     0.126 C 
HETATM    5  C3  UNL     1     -34.762   4.324   5.279  1.00 20.00     0.029 C 
HETATM    6  C2  UNL     1     -35.771   4.744   4.221  1.00 20.00     0.003 C 
HETATM    7  C4  UNL     1     -34.921   5.524   3.230  1.00 20.00     0.018 C 
HETATM    8  C6  UNL     1     -33.951   6.307   4.110  1.00 20.00     0.083 C 
HETATM    9 BR9  UNL     1     -32.213   6.443   3.243  1.00 20.00    -0.089 Br
ENDBRANCH   2   4
TORSDOF 1
ENDMDL
MODEL 9
REMARK VINA RESULT:      -3.7     12.227     13.629
REMARK  1 active torsions:
REMARK  status: ('A' for Active; 'I' for Inactive)
REMARK    1  A    between atoms: C5_5  and  N7_7 
ROOT
HETATM    1  C1  UNL     1     -35.267  13.543  -4.157  1.00 20.00     0.332 C 
HETATM    2  N7  UNL     1     -35.596  14.562  -3.681  1.00 20.00    -0.241 NA
HETATM    3  O8  UNL     1     -34.939  12.516  -4.629  1.00 20.00    -0.260 OA
ENDROOT
BRANCH   2   4
HETATM    4  C5  UNL     1     -35.471  15.715  -4.584  1.00 20.00     0.126 C 
HETATM    5  C3  UNL     1     -35.257  16.983  -3.756  1.00 20.00     0.029 C 
HETATM    6  C2  UNL     1     -33.745  17.132  -3.679  1.00 20.00     0.003 C 
HETATM    7  C4  UNL     1     -33.291  16.724  -5.072  1.00 20.00     0.018 C 
HETATM    8  C6  UNL     1     -34.204  15.554  -5.431  1.00 20.00     0.083 C 
HETATM    9 BR9  UNL     1     -34.625  15.586  -7.331  1.00 20.00    -0.089 Br
ENDBRANCH   2   4
TORSDOF 1
ENDMDL
