MODEL 1
REMARK VINA RESULT:      -4.7      0.000      0.000
REMARK  1 active torsions:
REMARK  status: ('A' for Active; 'I' for Inactive)
REMARK    1  A    between atoms: C4_4  and  C9_9 
ROOT
HETATM    1  C1  UNL     1     -37.033  15.121  -3.722  1.00 20.00     0.007 A 
HETATM    2  C2  UNL     1     -36.575  14.029  -4.340  1.00 20.00     0.074 A 
HETATM    3  C3  UNL     1     -36.149  15.977  -2.982  1.00 20.00     0.026 A 
HETATM    4  C4  UNL     1     -34.836  15.701  -2.895  1.00 20.00     0.018 A 
HETATM    5  C5  UNL     1     -35.126  13.687  -4.269  1.00 20.00     0.247 A 
HETATM    6  C8  UNL     1     -32.883  14.287  -3.423  1.00 20.00     0.159 C 
HETATM    7  N10 UNL     1     -34.315  14.566  -3.530  1.00 20.00    -0.322 N 
HETATM    8  O11 UNL     1     -34.739  12.674  -4.849  1.00 20.00    -0.268 OA
ENDROOT
BRANCH   4   9
HETATM    9  C9  UNL     1     -33.920  16.604  -2.119  1.00 20.00     0.028 C 
HETATM   10  C6  UNL     1     -33.762  17.937  -2.840  1.00 20.00     0.016 C 
HETATM   11  C7  UNL     1     -34.441  16.808  -0.700  1.00 20.00     0.016 C 
ENDBRANCH   4   9
TORSDOF 1
ENDMDL
MODEL 2
REMARK VINA RESULT:      -4.5      1.045      2.620
REMARK  1 active torsions:
REMARK  status: ('A' for Active; 'I' for Inactive)
REMARK    1  A    between atoms: C4_4  and  C9_9 
ROOT
HETATM    1  C1  UNL     1     -32.786  14.754  -3.433  1.00 20.00     0.007 A 
HETATM    2  C2  UNL     1     -33.391  13.665  -3.914  1.00 20.00     0.074 A 
HETATM    3  C3  UNL     1     -33.547  15.892  -3.000  1.00 20.00     0.026 A 
HETATM    4  C4  UNL     1     -34.889  15.889  -3.066  1.00 20.00     0.018 A 
HETATM    5  C5  UNL     1     -34.878  13.619  -4.004  1.00 20.00     0.247 A 
HETATM    6  C8  UNL     1     -37.025  14.784  -3.623  1.00 20.00     0.159 C 
HETATM    7  N10 UNL     1     -35.564  14.765  -3.563  1.00 20.00    -0.322 N 
HETATM    8  O11 UNL     1     -35.403  12.601  -4.452  1.00 20.00    -0.268 OA
ENDROOT
BRANCH   4   9
HETATM    9  C9  UNL     1     -35.676  17.085  -2.608  1.00 20.00     0.028 C 
HETATM   10  C6  UNL     1     -35.270  17.469  -1.190  1.00 20.00     0.016 C 
HETATM   11  C7  UNL     1     -35.483  18.254  -3.569  1.00 20.00     0.016 C 
ENDBRANCH   4   9
TORSDOF 1
ENDMDL
MODEL 3
REMARK VINA RESULT:      -4.4      2.159      3.318
REMARK  1 active torsions:
REMARK  status: ('A' for Active; 'I' for Inactive)
REMARK    1  A    between atoms: C4_4  and  C9_9 
ROOT
HETATM    1  C1  UNL     1     -32.776  15.042  -3.538  1.00 20.00     0.007 A 
HETATM    2  C2  UNL     1     -33.292  13.830  -3.763  1.00 20.00     0.074 A 
HETATM    3  C3  UNL     1     -33.319  16.206  -4.179  1.00 20.00     0.026 A 
HETATM    4  C4  UNL     1     -34.362  16.106  -5.021  1.00 20.00     0.018 A 
HETATM    5  C5  UNL     1     -34.448  13.674  -4.690  1.00 20.00     0.247 A 
HETATM    6  C8  UNL     1     -36.068  14.770  -6.202  1.00 20.00     0.159 C 
HETATM    7  N10 UNL     1     -34.933  14.853  -5.284  1.00 20.00    -0.322 N 
HETATM    8  O11 UNL     1     -34.898  12.545  -4.875  1.00 20.00    -0.268 OA
ENDROOT
BRANCH   4   9
HETATM    9  C9  UNL     1     -34.922  17.332  -5.686  1.00 20.00     0.028 C 
HETATM   10  C6  UNL     1     -35.760  18.130  -4.694  1.00 20.00     0.016 C 
HETATM   11  C7  UNL     1     -33.802  18.187  -6.269  1.00 20.00     0.016 C 
ENDBRANCH   4   9
TORSDOF 1
ENDMDL
MODEL 4
REMARK VINA RESULT:      -4.4      1.439      2.634
REMARK  1 active torsions:
REMARK  status: ('A' for Active; 'I' for Inactive)
REMARK    1  A    between atoms: C4_4  and  C9_9 
ROOT
HETATM    1  C1  UNL     1     -33.937  14.003  -3.778  1.00 20.00     0.007 A 
HETATM    2  C2  UNL     1     -35.182  13.581  -4.015  1.00 20.00     0.074 A 
HETATM    3  C3  UNL     1     -33.687  15.329  -3.288  1.00 20.00     0.026 A 
HETATM    4  C4  UNL     1     -34.701  16.180  -3.053  1.00 20.00     0.018 A 
HETATM    5  C5  UNL     1     -36.336  14.493  -3.769  1.00 20.00     0.247 A 
HETATM    6  C8  UNL     1     -37.109  16.719  -3.024  1.00 20.00     0.159 C 
HETATM    7  N10 UNL     1     -36.022  15.777  -3.288  1.00 20.00    -0.322 N 
HETATM    8  O11 UNL     1     -37.469  14.073  -3.998  1.00 20.00    -0.268 OA
ENDROOT
BRANCH   4   9
HETATM    9  C9  UNL     1     -34.427  17.565  -2.539  1.00 20.00     0.028 C 
HETATM   10  C6  UNL     1     -33.638  17.495  -1.237  1.00 20.00     0.016 C 
HETATM   11  C7  UNL     1     -33.684  18.389  -3.586  1.00 20.00     0.016 C 
ENDBRANCH   4   9
TORSDOF 1
ENDMDL
MODEL 5
REMARK VINA RESULT:      -4.2      2.479      4.199
REMARK  1 active torsions:
REMARK  status: ('A' for Active; 'I' for Inactive)
REMARK    1  A    between atoms: C4_4  and  C9_9 
ROOT
HETATM    1  C1  UNL     1     -34.409  16.670  -1.147  1.00 20.00     0.007 A 
HETATM    2  C2  UNL     1     -33.950  17.868  -1.520  1.00 20.00     0.074 A 
HETATM    3  C3  UNL     1     -34.661  15.641  -2.116  1.00 20.00     0.026 A 
HETATM    4  C4  UNL     1     -34.438  15.857  -3.424  1.00 20.00     0.018 A 
HETATM    5  C5  UNL     1     -33.690  18.149  -2.960  1.00 20.00     0.247 A 
HETATM    6  C8  UNL     1     -33.719  17.310  -5.285  1.00 20.00     0.159 C 
HETATM    7  N10 UNL     1     -33.955  17.099  -3.857  1.00 20.00    -0.322 N 
HETATM    8  O11 UNL     1     -33.268  19.263  -3.269  1.00 20.00    -0.268 OA
ENDROOT
BRANCH   4   9
HETATM    9  C9  UNL     1     -34.704  14.772  -4.429  1.00 20.00     0.028 C 
HETATM   10  C6  UNL     1     -33.865  13.542  -4.108  1.00 20.00     0.016 C 
HETATM   11  C7  UNL     1     -36.189  14.427  -4.468  1.00 20.00     0.016 C 
ENDBRANCH   4   9
TORSDOF 1
ENDMDL
MODEL 6
REMARK VINA RESULT:      -4.1      1.868      2.311
REMARK  1 active torsions:
REMARK  status: ('A' for Active; 'I' for Inactive)
REMARK    1  A    between atoms: C4_4  and  C9_9 
ROOT
HETATM    1  C1  UNL     1     -35.232  13.622  -4.179  1.00 20.00     0.007 A 
HETATM    2  C2  UNL     1     -34.885  13.708  -5.466  1.00 20.00     0.074 A 
HETATM    3  C3  UNL     1     -35.164  14.769  -3.318  1.00 20.00     0.026 A 
HETATM    4  C4  UNL     1     -34.751  15.959  -3.787  1.00 20.00     0.018 A 
HETATM    5  C5  UNL     1     -34.421  15.008  -6.027  1.00 20.00     0.247 A 
HETATM    6  C8  UNL     1     -33.934  17.397  -5.619  1.00 20.00     0.159 C 
HETATM    7  N10 UNL     1     -34.379  16.092  -5.131  1.00 20.00    -0.322 N 
HETATM    8  O11 UNL     1     -34.109  15.052  -7.215  1.00 20.00    -0.268 OA
ENDROOT
BRANCH   4   9
HETATM    9  C9  UNL     1     -34.685  17.153  -2.876  1.00 20.00     0.028 C 
HETATM   10  C6  UNL     1     -36.085  17.698  -2.623  1.00 20.00     0.016 C 
HETATM   11  C7  UNL     1     -33.993  16.792  -1.566  1.00 20.00     0.016 C 
ENDBRANCH   4   9
TORSDOF 1
ENDMDL
MODEL 7
REMARK VINA RESULT:      -4.1      2.661      4.270
REMARK  1 active torsions:
REMARK  status: ('A' for Active; 'I' for Inactive)
REMARK    1  A    between atoms: C4_4  and  C9_9 
ROOT
HETATM    1  C1  UNL     1     -33.592  17.565  -5.513  1.00 20.00     0.007 A 
HETATM    2  C2  UNL     1     -33.568  18.557  -4.619  1.00 20.00     0.074 A 
HETATM    3  C3  UNL     1     -33.863  16.214  -5.109  1.00 20.00     0.026 A 
HETATM    4  C4  UNL     1     -34.102  15.914  -3.821  1.00 20.00     0.018 A 
HETATM    5  C5  UNL     1     -33.827  18.269  -3.180  1.00 20.00     0.247 A 
HETATM    6  C8  UNL     1     -34.352  16.576  -1.457  1.00 20.00     0.159 C 
HETATM    7  N10 UNL     1     -34.088  16.926  -2.852  1.00 20.00    -0.322 N 
HETATM    8  O11 UNL     1     -33.798  19.206  -2.384  1.00 20.00    -0.268 OA
ENDROOT
BRANCH   4   9
HETATM    9  C9  UNL     1     -34.385  14.497  -3.411  1.00 20.00     0.028 C 
HETATM   10  C6  UNL     1     -35.616  13.975  -4.142  1.00 20.00     0.016 C 
HETATM   11  C7  UNL     1     -33.174  13.608  -3.674  1.00 20.00     0.016 C 
ENDBRANCH   4   9
TORSDOF 1
ENDMDL
MODEL 8
REMARK VINA RESULT:      -4.0      4.693      6.602
REMARK  1 active torsions:
REMARK  status: ('A' for Active; 'I' for Inactive)
REMARK    1  A    between atoms: C4_4  and  C9_9 
ROOT
HETATM    1  C1  UNL     1     -35.100  17.831   3.011  1.00 20.00     0.007 A 
HETATM    2  C2  UNL     1     -33.988  18.309   3.576  1.00 20.00     0.074 A 
HETATM    3  C3  UNL     1     -35.212  17.717   1.584  1.00 20.00     0.026 A 
HETATM    4  C4  UNL     1     -34.199  18.086   0.781  1.00 20.00     0.018 A 
HETATM    5  C5  UNL     1     -32.841  18.731   2.723  1.00 20.00     0.247 A 
HETATM    6  C8  UNL     1     -31.926  18.985   0.441  1.00 20.00     0.159 C 
HETATM    7  N10 UNL     1     -33.015  18.591   1.334  1.00 20.00    -0.322 N 
HETATM    8  O11 UNL     1     -31.833  19.167   3.276  1.00 20.00    -0.268 OA
ENDROOT
BRANCH   4   9
HETATM    9  C9  UNL     1     -34.328  17.961  -0.711  1.00 20.00     0.028 C 
HETATM   10  C6  UNL     1     -34.629  16.516  -1.092  1.00 20.00     0.016 C 
HETATM   11  C7  UNL     1     -35.405  18.902  -1.238  1.00 20.00     0.016 C 
ENDBRANCH   4   9
TORSDOF 1
ENDMDL
MODEL 9
REMARK VINA RESULT:      -3.9      2.542      3.583
REMARK  1 active torsions:
REMARK  status: ('A' for Active; 'I' for Inactive)
REMARK    1  A    between atoms: C4_4  and  C9_9 
ROOT
HETATM    1  C1  UNL     1     -34.852  15.275  -7.419  1.00 20.00     0.007 A 
HETATM    2  C2  UNL     1     -36.181  15.311  -7.542  1.00 20.00     0.074 A 
HETATM    3  C3  UNL     1     -34.234  15.074  -6.138  1.00 20.00     0.026 A 
HETATM    4  C4  UNL     1     -34.979  14.914  -5.031  1.00 20.00     0.018 A 
HETATM    5  C5  UNL     1     -37.045  15.138  -6.340  1.00 20.00     0.247 A 
HETATM    6  C8  UNL     1     -37.167  14.765  -3.900  1.00 20.00     0.159 C 
HETATM    7  N10 UNL     1     -36.378  14.943  -5.117  1.00 20.00    -0.322 N 
HETATM    8  O11 UNL     1     -38.265  15.177  -6.489  1.00 20.00    -0.268 OA
ENDROOT
BRANCH   4   9
HETATM    9  C9  UNL     1     -34.321  14.703  -3.697  1.00 20.00     0.028 C 
HETATM   10  C6  UNL     1     -33.293  13.582  -3.790  1.00 20.00     0.016 C 
HETATM   11  C7  UNL     1     -33.680  15.995  -3.203  1.00 20.00     0.016 C 
ENDBRANCH   4   9
TORSDOF 1
ENDMDL
