MODEL 1
REMARK VINA RESULT:      -4.4      0.000      0.000
REMARK  3 active torsions:
REMARK  status: ('A' for Active; 'I' for Inactive)
REMARK    1  A    between atoms: C1_1  and  C7_7 
REMARK    2  A    between atoms: C2_2  and  C8_8 
REMARK    3  A    between atoms: C7_7  and  C9_9 
ROOT
HETATM    1  C1  UNL     1     -33.736   6.318   3.810  1.00 20.00     0.062 A 
HETATM    2  C2  UNL     1     -33.910   5.099   4.670  1.00 20.00     0.064 A 
HETATM    3  S10 UNL     1     -35.263   5.519   3.682  1.00 20.00    -0.157 SA
ENDROOT
BRANCH   1   4
HETATM    4  C7  UNL     1     -32.803   6.282   2.607  1.00 20.00     0.020 C 
BRANCH   4   5
HETATM    5  C9  UNL     1     -31.752   7.405   2.611  1.00 20.00    -0.022 C 
HETATM    6  C5  UNL     1     -32.203   8.629   1.813  1.00 20.00     0.009 C 
HETATM    7  C6  UNL     1     -31.435   7.816   4.052  1.00 20.00     0.009 C 
ENDBRANCH   4   5
ENDBRANCH   1   4
BRANCH   2   8
HETATM    8  C8  UNL     1     -34.048   5.235   6.148  1.00 20.00    -0.008 C 
HETATM    9  C3  UNL     1     -34.033   6.710   6.592  1.00 20.00     0.011 C 
HETATM   10  C4  UNL     1     -35.332   4.564   6.668  1.00 20.00     0.011 C 
ENDBRANCH   2   8
TORSDOF 3
ENDMDL
MODEL 2
REMARK VINA RESULT:      -4.4      1.050      1.968
REMARK  3 active torsions:
REMARK  status: ('A' for Active; 'I' for Inactive)
REMARK    1  A    between atoms: C1_1  and  C7_7 
REMARK    2  A    between atoms: C2_2  and  C8_8 
REMARK    3  A    between atoms: C7_7  and  C9_9 
ROOT
HETATM    1  C1  UNL     1     -33.477   6.961   3.248  1.00 20.00     0.062 A 
HETATM    2  C2  UNL     1     -33.380   5.942   4.347  1.00 20.00     0.064 A 
HETATM    3  S10 UNL     1     -33.906   5.344   2.814  1.00 20.00    -0.157 SA
ENDROOT
BRANCH   1   4
HETATM    4  C7  UNL     1     -32.216   7.558   2.640  1.00 20.00     0.020 C 
BRANCH   4   5
HETATM    5  C9  UNL     1     -32.494   8.591   1.536  1.00 20.00    -0.022 C 
HETATM    6  C5  UNL     1     -32.666  10.006   2.091  1.00 20.00     0.009 C 
HETATM    7  C6  UNL     1     -31.359   8.574   0.509  1.00 20.00     0.009 C 
ENDBRANCH   4   5
ENDBRANCH   1   4
BRANCH   2   8
HETATM    8  C8  UNL     1     -34.358   5.954   5.471  1.00 20.00    -0.008 C 
HETATM    9  C3  UNL     1     -34.694   4.530   5.955  1.00 20.00     0.011 C 
HETATM   10  C4  UNL     1     -33.852   6.786   6.664  1.00 20.00     0.011 C 
ENDBRANCH   2   8
TORSDOF 3
ENDMDL
MODEL 3
REMARK VINA RESULT:      -4.2      1.809      4.976
REMARK  3 active torsions:
REMARK  status: ('A' for Active; 'I' for Inactive)
REMARK    1  A    between atoms: C1_1  and  C7_7 
REMARK    2  A    between atoms: C2_2  and  C8_8 
REMARK    3  A    between atoms: C7_7  and  C9_9 
ROOT
HETATM    1  C1  UNL     1     -32.910   7.342   3.231  1.00 20.00     0.062 A 
HETATM    2  C2  UNL     1     -31.926   7.603   2.128  1.00 20.00     0.064 A 
HETATM    3  S10 UNL     1     -31.282   7.633   3.730  1.00 20.00    -0.157 SA
ENDROOT
BRANCH   1   4
HETATM    4  C7  UNL     1     -33.486   5.947   3.433  1.00 20.00     0.020 C 
BRANCH   4   5
HETATM    5  C9  UNL     1     -34.571   5.881   4.522  1.00 20.00    -0.022 C 
HETATM    6  C5  UNL     1     -35.180   4.484   4.653  1.00 20.00     0.009 C 
HETATM    7  C6  UNL     1     -33.985   6.317   5.867  1.00 20.00     0.009 C 
ENDBRANCH   4   5
ENDBRANCH   1   4
BRANCH   2   8
HETATM    8  C8  UNL     1     -31.974   8.882   1.364  1.00 20.00    -0.008 C 
HETATM    9  C3  UNL     1     -32.515   8.679  -0.063  1.00 20.00     0.011 C 
HETATM   10  C4  UNL     1     -32.827   9.946   2.081  1.00 20.00     0.011 C 
ENDBRANCH   2   8
TORSDOF 3
ENDMDL
MODEL 4
REMARK VINA RESULT:      -4.2     11.661     13.194
REMARK  3 active torsions:
REMARK  status: ('A' for Active; 'I' for Inactive)
REMARK    1  A    between atoms: C1_1  and  C7_7 
REMARK    2  A    between atoms: C2_2  and  C8_8 
REMARK    3  A    between atoms: C7_7  and  C9_9 
ROOT
HETATM    1  C1  UNL     1     -33.960  15.511  -3.107  1.00 20.00     0.062 A 
HETATM    2  C2  UNL     1     -34.577  15.489  -4.476  1.00 20.00     0.064 A 
HETATM    3  S10 UNL     1     -34.256  13.945  -3.772  1.00 20.00    -0.157 SA
ENDROOT
BRANCH   1   4
HETATM    4  C7  UNL     1     -34.781  15.948  -1.901  1.00 20.00     0.020 C 
BRANCH   4   5
HETATM    5  C9  UNL     1     -34.073  16.991  -1.020  1.00 20.00    -0.022 C 
HETATM    6  C5  UNL     1     -33.771  18.285  -1.777  1.00 20.00     0.009 C 
HETATM    7  C6  UNL     1     -34.931  17.300   0.211  1.00 20.00     0.009 C 
ENDBRANCH   4   5
ENDBRANCH   1   4
BRANCH   2   8
HETATM    8  C8  UNL     1     -33.780  15.899  -5.666  1.00 20.00    -0.008 C 
HETATM    9  C3  UNL     1     -34.367  15.333  -6.973  1.00 20.00     0.011 C 
HETATM   10  C4  UNL     1     -33.670  17.431  -5.783  1.00 20.00     0.011 C 
ENDBRANCH   2   8
TORSDOF 3
ENDMDL
MODEL 5
REMARK VINA RESULT:      -4.1     11.391     12.123
REMARK  3 active torsions:
REMARK  status: ('A' for Active; 'I' for Inactive)
REMARK    1  A    between atoms: C1_1  and  C7_7 
REMARK    2  A    between atoms: C2_2  and  C8_8 
REMARK    3  A    between atoms: C7_7  and  C9_9 
ROOT
HETATM    1  C1  UNL     1     -34.583  15.805  -2.662  1.00 20.00     0.062 A 
HETATM    2  C2  UNL     1     -35.128  16.784  -1.662  1.00 20.00     0.064 A 
HETATM    3  S10 UNL     1     -34.532  17.466  -3.132  1.00 20.00    -0.157 SA
ENDROOT
BRANCH   1   4
HETATM    4  C7  UNL     1     -35.523  14.873  -3.414  1.00 20.00     0.020 C 
BRANCH   4   5
HETATM    5  C9  UNL     1     -34.803  13.705  -4.111  1.00 20.00    -0.022 C 
HETATM    6  C5  UNL     1     -34.929  13.769  -5.634  1.00 20.00     0.009 C 
HETATM    7  C6  UNL     1     -33.324  13.695  -3.715  1.00 20.00     0.009 C 
ENDBRANCH   4   5
ENDBRANCH   1   4
BRANCH   2   8
HETATM    8  C8  UNL     1     -34.382  17.065  -0.402  1.00 20.00    -0.008 C 
HETATM    9  C3  UNL     1     -33.249  18.085  -0.622  1.00 20.00     0.011 C 
HETATM   10  C4  UNL     1     -35.312  17.576   0.714  1.00 20.00     0.011 C 
ENDBRANCH   2   8
TORSDOF 3
ENDMDL
MODEL 6
REMARK VINA RESULT:      -4.0     11.443     12.857
REMARK  3 active torsions:
REMARK  status: ('A' for Active; 'I' for Inactive)
REMARK    1  A    between atoms: C1_1  and  C7_7 
REMARK    2  A    between atoms: C2_2  and  C8_8 
REMARK    3  A    between atoms: C7_7  and  C9_9 
ROOT
HETATM    1  C1  UNL     1     -34.261  17.236  -3.504  1.00 20.00     0.062 A 
HETATM    2  C2  UNL     1     -33.413  16.077  -3.943  1.00 20.00     0.064 A 
HETATM    3  S10 UNL     1     -33.609  17.345  -5.100  1.00 20.00    -0.157 SA
ENDROOT
BRANCH   1   4
HETATM    4  C7  UNL     1     -33.748  18.207  -2.449  1.00 20.00     0.020 C 
BRANCH   4   5
HETATM    5  C9  UNL     1     -33.467  17.545  -1.089  1.00 20.00    -0.022 C 
HETATM    6  C5  UNL     1     -32.974  18.548  -0.045  1.00 20.00     0.009 C 
HETATM    7  C6  UNL     1     -34.731  16.848  -0.579  1.00 20.00     0.009 C 
ENDBRANCH   4   5
ENDBRANCH   1   4
BRANCH   2   8
HETATM    8  C8  UNL     1     -34.038  14.756  -4.235  1.00 20.00    -0.008 C 
HETATM    9  C3  UNL     1     -33.202  13.589  -3.676  1.00 20.00     0.011 C 
HETATM   10  C4  UNL     1     -35.471  14.663  -3.676  1.00 20.00     0.011 C 
ENDBRANCH   2   8
TORSDOF 3
ENDMDL
MODEL 7
REMARK VINA RESULT:      -4.0     11.545     12.920
REMARK  3 active torsions:
REMARK  status: ('A' for Active; 'I' for Inactive)
REMARK    1  A    between atoms: C1_1  and  C7_7 
REMARK    2  A    between atoms: C2_2  and  C8_8 
REMARK    3  A    between atoms: C7_7  and  C9_9 
ROOT
HETATM    1  C1  UNL     1     -33.466  16.318  -4.428  1.00 20.00     0.062 A 
HETATM    2  C2  UNL     1     -34.274  17.060  -3.403  1.00 20.00     0.064 A 
HETATM    3  S10 UNL     1     -33.646  18.015  -4.697  1.00 20.00    -0.157 SA
ENDROOT
BRANCH   1   4
HETATM    4  C7  UNL     1     -34.147  15.360  -5.397  1.00 20.00     0.020 C 
BRANCH   4   5
HETATM    5  C9  UNL     1     -34.331  13.941  -4.832  1.00 20.00    -0.022 C 
HETATM    6  C5  UNL     1     -33.290  13.600  -3.765  1.00 20.00     0.009 C 
HETATM    7  C6  UNL     1     -35.738  13.793  -4.247  1.00 20.00     0.009 C 
ENDBRANCH   4   5
ENDBRANCH   1   4
BRANCH   2   8
HETATM    8  C8  UNL     1     -33.729  17.283  -2.034  1.00 20.00    -0.008 C 
HETATM    9  C3  UNL     1     -33.588  18.782  -1.709  1.00 20.00     0.011 C 
HETATM   10  C4  UNL     1     -34.598  16.611  -0.953  1.00 20.00     0.011 C 
ENDBRANCH   2   8
TORSDOF 3
ENDMDL
MODEL 8
REMARK VINA RESULT:      -3.9     11.743     12.720
REMARK  3 active torsions:
REMARK  status: ('A' for Active; 'I' for Inactive)
REMARK    1  A    between atoms: C1_1  and  C7_7 
REMARK    2  A    between atoms: C2_2  and  C8_8 
REMARK    3  A    between atoms: C7_7  and  C9_9 
ROOT
HETATM    1  C1  UNL     1     -36.187  15.078  -3.447  1.00 20.00     0.062 A 
HETATM    2  C2  UNL     1     -36.007  15.292  -4.922  1.00 20.00     0.064 A 
HETATM    3  S10 UNL     1     -37.632  15.044  -4.393  1.00 20.00    -0.157 SA
ENDROOT
BRANCH   1   4
HETATM    4  C7  UNL     1     -35.992  16.232  -2.473  1.00 20.00     0.020 C 
BRANCH   4   5
HETATM    5  C9  UNL     1     -34.685  16.142  -1.667  1.00 20.00    -0.022 C 
HETATM    6  C5  UNL     1     -33.463  16.548  -2.492  1.00 20.00     0.009 C 
HETATM    7  C6  UNL     1     -34.783  17.023  -0.419  1.00 20.00     0.009 C 
ENDBRANCH   4   5
ENDBRANCH   1   4
BRANCH   2   8
HETATM    8  C8  UNL     1     -35.372  14.238  -5.763  1.00 20.00    -0.008 C 
HETATM    9  C3  UNL     1     -34.508  14.843  -6.885  1.00 20.00     0.011 C 
HETATM   10  C4  UNL     1     -34.509  13.277  -4.923  1.00 20.00     0.011 C 
ENDBRANCH   2   8
TORSDOF 3
ENDMDL
MODEL 9
REMARK VINA RESULT:      -3.8     12.008     12.644
REMARK  3 active torsions:
REMARK  status: ('A' for Active; 'I' for Inactive)
REMARK    1  A    between atoms: C1_1  and  C7_7 
REMARK    2  A    between atoms: C2_2  and  C8_8 
REMARK    3  A    between atoms: C7_7  and  C9_9 
ROOT
HETATM    1  C1  UNL     1     -34.388  16.157  -3.160  1.00 20.00     0.062 A 
HETATM    2  C2  UNL     1     -34.033  14.813  -3.729  1.00 20.00     0.064 A 
HETATM    3  S10 UNL     1     -33.368  16.175  -4.555  1.00 20.00    -0.157 SA
ENDROOT
BRANCH   1   4
HETATM    4  C7  UNL     1     -33.798  16.609  -1.832  1.00 20.00     0.020 C 
BRANCH   4   5
HETATM    5  C9  UNL     1     -34.857  17.037  -0.802  1.00 20.00    -0.022 C 
HETATM    6  C5  UNL     1     -34.267  17.893   0.320  1.00 20.00     0.009 C 
HETATM    7  C6  UNL     1     -35.981  17.807  -1.502  1.00 20.00     0.009 C 
ENDBRANCH   4   5
ENDBRANCH   1   4
BRANCH   2   8
HETATM    8  C8  UNL     1     -35.064  13.998  -4.431  1.00 20.00    -0.008 C 
HETATM    9  C3  UNL     1     -36.492  14.384  -4.002  1.00 20.00     0.011 C 
HETATM   10  C4  UNL     1     -34.947  14.120  -5.962  1.00 20.00     0.011 C 
ENDBRANCH   2   8
TORSDOF 3
ENDMDL
