MODEL 1
REMARK VINA RESULT:      -5.2      0.000      0.000
REMARK  2 active torsions:
REMARK  status: ('A' for Active; 'I' for Inactive)
REMARK    1  A    between atoms: C2_2  and  C3_3 
REMARK    2  A    between atoms: C3_3  and  O11_11 
ROOT
HETATM    1  C1  UNL     1     -34.889  15.315  -5.867  1.00 20.00    -0.008 C 
HETATM    2  C2  UNL     1     -34.878  14.865  -4.607  1.00 20.00     0.020 C 
HETATM    3  C4  UNL     1     -33.448  16.733  -4.639  1.00 20.00     0.022 C 
HETATM    4  C5  UNL     1     -33.828  16.351  -6.081  1.00 20.00     0.006 C 
HETATM    5  C6  UNL     1     -33.826  15.518  -3.754  1.00 20.00    -0.014 C 
HETATM    6  C7  UNL     1     -34.314  17.547  -6.886  1.00 20.00     0.014 C 
HETATM    7  C8  UNL     1     -32.624  14.585  -3.558  1.00 20.00     0.020 C 
HETATM    8  C9  UNL     1     -34.353  15.992  -2.396  1.00 20.00     0.020 C 
ENDROOT
BRANCH   2   9
HETATM    9  C3  UNL     1     -35.781  13.814  -4.167  1.00 20.00     0.172 C 
HETATM   10  O10 UNL     1     -36.938  13.989  -3.811  1.00 20.00    -0.646 OA
BRANCH   9  11
HETATM   11  O11 UNL     1     -35.153  12.616  -4.211  1.00 20.00    -0.773 OA
HETATM   12  H25 UNL     1     -35.605  11.980  -4.805  1.00 20.00     0.167 HD
ENDBRANCH   9  11
ENDBRANCH   2   9
TORSDOF 2
ENDMDL
MODEL 2
REMARK VINA RESULT:      -4.9      1.378      3.105
REMARK  2 active torsions:
REMARK  status: ('A' for Active; 'I' for Inactive)
REMARK    1  A    between atoms: C2_2  and  C3_3 
REMARK    2  A    between atoms: C3_3  and  O11_11 
ROOT
HETATM    1  C1  UNL     1     -34.400  15.313  -2.412  1.00 20.00    -0.008 C 
HETATM    2  C2  UNL     1     -34.439  14.904  -3.684  1.00 20.00     0.020 C 
HETATM    3  C4  UNL     1     -34.525  17.253  -3.758  1.00 20.00     0.022 C 
HETATM    4  C5  UNL     1     -34.697  16.777  -2.304  1.00 20.00     0.006 C 
HETATM    5  C6  UNL     1     -34.756  16.009  -4.653  1.00 20.00    -0.014 C 
HETATM    6  C7  UNL     1     -33.771  17.507  -1.344  1.00 20.00     0.014 C 
HETATM    7  C8  UNL     1     -36.216  15.929  -5.117  1.00 20.00     0.020 C 
HETATM    8  C9  UNL     1     -33.818  16.043  -5.864  1.00 20.00     0.020 C 
ENDROOT
BRANCH   2   9
HETATM    9  C3  UNL     1     -34.236  13.508  -4.041  1.00 20.00     0.172 C 
HETATM   10  O10 UNL     1     -35.122  12.738  -4.386  1.00 20.00    -0.646 OA
BRANCH   9  11
HETATM   11  O11 UNL     1     -32.925  13.190  -3.937  1.00 20.00    -0.773 OA
HETATM   12  H25 UNL     1     -32.559  13.406  -3.054  1.00 20.00     0.167 HD
ENDBRANCH   9  11
ENDBRANCH   2   9
TORSDOF 2
ENDMDL
MODEL 3
REMARK VINA RESULT:      -4.9      1.405      1.856
REMARK  2 active torsions:
REMARK  status: ('A' for Active; 'I' for Inactive)
REMARK    1  A    between atoms: C2_2  and  C3_3 
REMARK    2  A    between atoms: C3_3  and  O11_11 
ROOT
HETATM    1  C1  UNL     1     -34.413  14.715  -6.236  1.00 20.00    -0.008 C 
HETATM    2  C2  UNL     1     -34.495  14.621  -4.905  1.00 20.00     0.020 C 
HETATM    3  C4  UNL     1     -35.312  16.757  -5.453  1.00 20.00     0.022 C 
HETATM    4  C5  UNL     1     -34.670  16.117  -6.697  1.00 20.00     0.006 C 
HETATM    5  C6  UNL     1     -34.829  15.926  -4.238  1.00 20.00    -0.014 C 
HETATM    6  C7  UNL     1     -35.575  16.191  -7.917  1.00 20.00     0.014 C 
HETATM    7  C8  UNL     1     -33.579  16.552  -3.606  1.00 20.00     0.020 C 
HETATM    8  C9  UNL     1     -35.945  15.808  -3.195  1.00 20.00     0.020 C 
ENDROOT
BRANCH   2   9
HETATM    9  C3  UNL     1     -34.233  13.368  -4.214  1.00 20.00     0.172 C 
HETATM   10  O10 UNL     1     -33.168  13.067  -3.691  1.00 20.00    -0.646 OA
BRANCH   9  11
HETATM   11  O11 UNL     1     -35.338  12.588  -4.234  1.00 20.00    -0.773 OA
HETATM   12  H25 UNL     1     -35.192  11.723  -3.796  1.00 20.00     0.167 HD
ENDBRANCH   9  11
ENDBRANCH   2   9
TORSDOF 2
ENDMDL
MODEL 4
REMARK VINA RESULT:      -4.8      1.363      1.979
REMARK  2 active torsions:
REMARK  status: ('A' for Active; 'I' for Inactive)
REMARK    1  A    between atoms: C2_2  and  C3_3 
REMARK    2  A    between atoms: C3_3  and  O11_11 
ROOT
HETATM    1  C1  UNL     1     -33.402  15.785  -4.994  1.00 20.00    -0.008 C 
HETATM    2  C2  UNL     1     -34.174  15.015  -4.220  1.00 20.00     0.020 C 
HETATM    3  C4  UNL     1     -35.072  17.184  -4.075  1.00 20.00     0.022 C 
HETATM    4  C5  UNL     1     -33.713  17.237  -4.798  1.00 20.00     0.006 C 
HETATM    5  C6  UNL     1     -35.140  15.802  -3.379  1.00 20.00    -0.014 C 
HETATM    6  C7  UNL     1     -33.783  18.016  -6.102  1.00 20.00     0.014 C 
HETATM    7  C8  UNL     1     -34.654  15.892  -1.927  1.00 20.00     0.020 C 
HETATM    8  C9  UNL     1     -36.570  15.253  -3.424  1.00 20.00     0.020 C 
ENDROOT
BRANCH   2   9
HETATM    9  C3  UNL     1     -34.023  13.569  -4.193  1.00 20.00     0.172 C 
HETATM   10  O10 UNL     1     -34.892  12.768  -4.510  1.00 20.00    -0.646 OA
BRANCH   9  11
HETATM   11  O11 UNL     1     -32.781  13.241  -3.767  1.00 20.00    -0.773 OA
HETATM   12  H25 UNL     1     -32.568  12.298  -3.927  1.00 20.00     0.167 HD
ENDBRANCH   9  11
ENDBRANCH   2   9
TORSDOF 2
ENDMDL
MODEL 5
REMARK VINA RESULT:      -4.7      1.654      3.176
REMARK  2 active torsions:
REMARK  status: ('A' for Active; 'I' for Inactive)
REMARK    1  A    between atoms: C2_2  and  C3_3 
REMARK    2  A    between atoms: C3_3  and  O11_11 
ROOT
HETATM    1  C1  UNL     1     -36.111  16.239  -2.900  1.00 20.00    -0.008 C 
HETATM    2  C2  UNL     1     -36.142  15.319  -3.870  1.00 20.00     0.020 C 
HETATM    3  C4  UNL     1     -33.958  15.266  -3.000  1.00 20.00     0.022 C 
HETATM    4  C5  UNL     1     -34.709  16.483  -2.430  1.00 20.00     0.006 C 
HETATM    5  C6  UNL     1     -34.784  14.775  -4.215  1.00 20.00    -0.014 C 
HETATM    6  C7  UNL     1     -34.594  16.576  -0.917  1.00 20.00     0.014 C 
HETATM    7  C8  UNL     1     -34.264  15.392  -5.520  1.00 20.00     0.020 C 
HETATM    8  C9  UNL     1     -34.746  13.246  -4.302  1.00 20.00     0.020 C 
ENDROOT
BRANCH   2   9
HETATM    9  C3  UNL     1     -37.387  14.949  -4.527  1.00 20.00     0.172 C 
HETATM   10  O10 UNL     1     -37.698  15.268  -5.666  1.00 20.00    -0.646 OA
BRANCH   9  11
HETATM   11  O11 UNL     1     -38.145  14.200  -3.694  1.00 20.00    -0.773 OA
HETATM   12  H25 UNL     1     -37.619  13.800  -2.969  1.00 20.00     0.167 HD
ENDBRANCH   9  11
ENDBRANCH   2   9
TORSDOF 2
ENDMDL
MODEL 6
REMARK VINA RESULT:      -4.6      1.342      2.839
REMARK  2 active torsions:
REMARK  status: ('A' for Active; 'I' for Inactive)
REMARK    1  A    between atoms: C2_2  and  C3_3 
REMARK    2  A    between atoms: C3_3  and  O11_11 
ROOT
HETATM    1  C1  UNL     1     -34.128  15.909  -4.035  1.00 20.00    -0.008 C 
HETATM    2  C2  UNL     1     -34.483  14.893  -4.828  1.00 20.00     0.020 C 
HETATM    3  C4  UNL     1     -34.810  16.847  -6.095  1.00 20.00     0.022 C 
HETATM    4  C5  UNL     1     -34.523  17.225  -4.631  1.00 20.00     0.006 C 
HETATM    5  C6  UNL     1     -35.163  15.338  -6.093  1.00 20.00    -0.014 C 
HETATM    6  C7  UNL     1     -33.439  18.286  -4.511  1.00 20.00     0.014 C 
HETATM    7  C8  UNL     1     -36.679  15.127  -6.002  1.00 20.00     0.020 C 
HETATM    8  C9  UNL     1     -34.609  14.660  -7.351  1.00 20.00     0.020 C 
ENDROOT
BRANCH   2   9
HETATM    9  C3  UNL     1     -34.254  13.509  -4.440  1.00 20.00     0.172 C 
HETATM   10  O10 UNL     1     -35.102  12.627  -4.463  1.00 20.00    -0.646 OA
BRANCH   9  11
HETATM   11  O11 UNL     1     -32.969  13.344  -4.052  1.00 20.00    -0.773 OA
HETATM   12  H25 UNL     1     -32.739  13.897  -3.276  1.00 20.00     0.167 HD
ENDBRANCH   9  11
ENDBRANCH   2   9
TORSDOF 2
ENDMDL
MODEL 7
REMARK VINA RESULT:      -4.5      2.045      3.274
REMARK  2 active torsions:
REMARK  status: ('A' for Active; 'I' for Inactive)
REMARK    1  A    between atoms: C2_2  and  C3_3 
REMARK    2  A    between atoms: C3_3  and  O11_11 
ROOT
HETATM    1  C1  UNL     1     -33.690  16.780  -3.855  1.00 20.00    -0.008 C 
HETATM    2  C2  UNL     1     -34.492  15.946  -4.526  1.00 20.00     0.020 C 
HETATM    3  C4  UNL     1     -34.901  15.542  -2.245  1.00 20.00     0.022 C 
HETATM    4  C5  UNL     1     -33.669  16.454  -2.394  1.00 20.00     0.006 C 
HETATM    5  C6  UNL     1     -35.156  14.925  -3.643  1.00 20.00    -0.014 C 
HETATM    6  C7  UNL     1     -33.752  17.685  -1.504  1.00 20.00     0.014 C 
HETATM    7  C8  UNL     1     -34.472  13.559  -3.776  1.00 20.00     0.020 C 
HETATM    8  C9  UNL     1     -36.661  14.790  -3.899  1.00 20.00     0.020 C 
ENDROOT
BRANCH   2   9
HETATM    9  C3  UNL     1     -34.637  16.027  -5.971  1.00 20.00     0.172 C 
HETATM   10  O10 UNL     1     -35.499  16.672  -6.552  1.00 20.00    -0.646 OA
BRANCH   9  11
HETATM   11  O11 UNL     1     -33.680  15.286  -6.574  1.00 20.00    -0.773 OA
HETATM   12  H25 UNL     1     -33.991  14.382  -6.794  1.00 20.00     0.167 HD
ENDBRANCH   9  11
ENDBRANCH   2   9
TORSDOF 2
ENDMDL
MODEL 8
REMARK VINA RESULT:      -4.4      1.337      1.736
REMARK  2 active torsions:
REMARK  status: ('A' for Active; 'I' for Inactive)
REMARK    1  A    between atoms: C2_2  and  C3_3 
REMARK    2  A    between atoms: C3_3  and  O11_11 
ROOT
HETATM    1  C1  UNL     1     -35.733  16.086  -5.413  1.00 20.00    -0.008 C 
HETATM    2  C2  UNL     1     -35.836  15.569  -4.184  1.00 20.00     0.020 C 
HETATM    3  C4  UNL     1     -33.585  16.206  -4.431  1.00 20.00     0.022 C 
HETATM    4  C5  UNL     1     -34.300  16.304  -5.791  1.00 20.00     0.006 C 
HETATM    5  C6  UNL     1     -34.505  15.358  -3.517  1.00 20.00    -0.014 C 
HETATM    6  C7  UNL     1     -34.058  17.641  -6.475  1.00 20.00     0.014 C 
HETATM    7  C8  UNL     1     -34.104  13.878  -3.552  1.00 20.00     0.020 C 
HETATM    8  C9  UNL     1     -34.457  15.884  -2.079  1.00 20.00     0.020 C 
ENDROOT
BRANCH   2   9
HETATM    9  C3  UNL     1     -37.126  15.218  -3.612  1.00 20.00     0.172 C 
HETATM   10  O10 UNL     1     -37.674  14.130  -3.735  1.00 20.00    -0.646 OA
BRANCH   9  11
HETATM   11  O11 UNL     1     -37.629  16.269  -2.925  1.00 20.00    -0.773 OA
HETATM   12  H25 UNL     1     -37.948  16.014  -2.034  1.00 20.00     0.167 HD
ENDBRANCH   9  11
ENDBRANCH   2   9
TORSDOF 2
ENDMDL
MODEL 9
REMARK VINA RESULT:      -4.4      1.709      2.892
REMARK  2 active torsions:
REMARK  status: ('A' for Active; 'I' for Inactive)
REMARK    1  A    between atoms: C2_2  and  C3_3 
REMARK    2  A    between atoms: C3_3  and  O11_11 
ROOT
HETATM    1  C1  UNL     1     -36.207  14.872  -3.909  1.00 20.00    -0.008 C 
HETATM    2  C2  UNL     1     -35.003  14.702  -4.465  1.00 20.00     0.020 C 
HETATM    3  C4  UNL     1     -35.599  16.938  -4.886  1.00 20.00     0.022 C 
HETATM    4  C5  UNL     1     -36.812  16.181  -4.317  1.00 20.00     0.006 C 
HETATM    5  C6  UNL     1     -34.581  15.856  -5.330  1.00 20.00    -0.014 C 
HETATM    6  C7  UNL     1     -37.466  16.924  -3.162  1.00 20.00     0.014 C 
HETATM    7  C8  UNL     1     -34.750  15.518  -6.816  1.00 20.00     0.020 C 
HETATM    8  C9  UNL     1     -33.149  16.328  -5.056  1.00 20.00     0.020 C 
ENDROOT
BRANCH   2   9
HETATM    9  C3  UNL     1     -34.238  13.481  -4.261  1.00 20.00     0.172 C 
HETATM   10  O10 UNL     1     -33.217  13.399  -3.592  1.00 20.00    -0.646 OA
BRANCH   9  11
HETATM   11  O11 UNL     1     -34.822  12.454  -4.920  1.00 20.00    -0.773 OA
HETATM   12  H25 UNL     1     -35.680  12.196  -4.522  1.00 20.00     0.167 HD
ENDBRANCH   9  11
ENDBRANCH   2   9
TORSDOF 2
ENDMDL
