MODEL 1
REMARK VINA RESULT:      -5.0      0.000      0.000
REMARK  3 active torsions:
REMARK  status: ('A' for Active; 'I' for Inactive)
REMARK    1  A    between atoms: C1_1  and  C9_9 
REMARK    2  A    between atoms: C1_1  and  O11_11 
REMARK    3  A    between atoms: C8_8  and  C9_9 
ROOT
HETATM    1  C2  UNL     1     -33.702  17.661  -1.615  1.00 20.00     0.005 C 
HETATM    2  C3  UNL     1     -34.582  16.590  -0.949  1.00 20.00     0.005 C 
HETATM    3  C4  UNL     1     -35.192  17.641  -3.614  1.00 20.00     0.005 C 
HETATM    4  C5  UNL     1     -36.071  16.570  -2.947  1.00 20.00     0.005 C 
HETATM    5  C6  UNL     1     -33.778  17.288  -3.110  1.00 20.00    -0.010 C 
HETATM    6  C7  UNL     1     -35.052  15.738  -2.146  1.00 20.00    -0.010 C 
HETATM    7  C8  UNL     1     -33.796  15.755  -3.031  1.00 20.00     0.003 C 
ENDROOT
BRANCH   7   8
HETATM    8  C9  UNL     1     -33.894  15.011  -4.354  1.00 20.00     0.115 C 
BRANCH   8   9
HETATM    9  C1  UNL     1     -33.978  13.520  -4.156  1.00 20.00     0.139 C 
HETATM   10  O10 UNL     1     -34.973  12.826  -4.304  1.00 20.00    -0.650 OA
BRANCH   9  11
HETATM   11  O11 UNL     1     -32.768  13.033  -3.780  1.00 20.00    -0.776 OA
HETATM   12  H25 UNL     1     -32.031  13.500  -4.230  1.00 20.00     0.167 HD
ENDBRANCH   9  11
ENDBRANCH   8   9
ENDBRANCH   7   8
TORSDOF 3
ENDMDL
MODEL 2
REMARK VINA RESULT:      -4.8      0.750      1.507
REMARK  3 active torsions:
REMARK  status: ('A' for Active; 'I' for Inactive)
REMARK    1  A    between atoms: C1_1  and  C9_9 
REMARK    2  A    between atoms: C1_1  and  O11_11 
REMARK    3  A    between atoms: C8_8  and  C9_9 
ROOT
HETATM    1  C2  UNL     1     -34.025  17.027  -1.118  1.00 20.00     0.005 C 
HETATM    2  C3  UNL     1     -35.519  17.379  -1.231  1.00 20.00     0.005 C 
HETATM    3  C4  UNL     1     -33.731  17.494  -3.548  1.00 20.00     0.005 C 
HETATM    4  C5  UNL     1     -35.222  17.845  -3.662  1.00 20.00     0.005 C 
HETATM    5  C6  UNL     1     -33.719  16.380  -2.483  1.00 20.00    -0.010 C 
HETATM    6  C7  UNL     1     -35.879  16.888  -2.649  1.00 20.00    -0.010 C 
HETATM    7  C8  UNL     1     -35.025  15.616  -2.747  1.00 20.00     0.003 C 
ENDROOT
BRANCH   7   8
HETATM    8  C9  UNL     1     -35.106  14.849  -4.058  1.00 20.00     0.115 C 
BRANCH   8   9
HETATM    9  C1  UNL     1     -34.468  13.488  -3.954  1.00 20.00     0.139 C 
HETATM   10  O10 UNL     1     -33.288  13.257  -3.739  1.00 20.00    -0.650 OA
BRANCH   9  11
HETATM   11  O11 UNL     1     -35.406  12.522  -4.136  1.00 20.00    -0.776 OA
HETATM   12  H25 UNL     1     -35.171  11.693  -3.667  1.00 20.00     0.167 HD
ENDBRANCH   9  11
ENDBRANCH   8   9
ENDBRANCH   7   8
TORSDOF 3
ENDMDL
MODEL 3
REMARK VINA RESULT:      -4.6      2.654      4.032
REMARK  3 active torsions:
REMARK  status: ('A' for Active; 'I' for Inactive)
REMARK    1  A    between atoms: C1_1  and  C9_9 
REMARK    2  A    between atoms: C1_1  and  O11_11 
REMARK    3  A    between atoms: C8_8  and  C9_9 
ROOT
HETATM    1  C2  UNL     1     -34.778  13.489  -4.131  1.00 20.00     0.005 C 
HETATM    2  C3  UNL     1     -33.310  13.753  -3.751  1.00 20.00     0.005 C 
HETATM    3  C4  UNL     1     -34.952  15.796  -5.059  1.00 20.00     0.005 C 
HETATM    4  C5  UNL     1     -33.486  16.059  -4.680  1.00 20.00     0.005 C 
HETATM    5  C6  UNL     1     -35.438  14.868  -3.929  1.00 20.00    -0.010 C 
HETATM    6  C7  UNL     1     -33.316  15.250  -3.380  1.00 20.00    -0.010 C 
HETATM    7  C8  UNL     1     -34.684  15.379  -2.693  1.00 20.00     0.003 C 
ENDROOT
BRANCH   7   8
HETATM    8  C9  UNL     1     -35.061  16.766  -2.197  1.00 20.00     0.115 C 
BRANCH   8   9
HETATM    9  C1  UNL     1     -34.340  17.123  -0.922  1.00 20.00     0.139 C 
HETATM   10  O10 UNL     1     -33.237  17.641  -0.837  1.00 20.00    -0.650 OA
BRANCH   9  11
HETATM   11  O11 UNL     1     -35.100  16.783   0.150  1.00 20.00    -0.776 OA
HETATM   12  H25 UNL     1     -36.045  16.677  -0.090  1.00 20.00     0.167 HD
ENDBRANCH   9  11
ENDBRANCH   8   9
ENDBRANCH   7   8
TORSDOF 3
ENDMDL
MODEL 4
REMARK VINA RESULT:      -4.5      1.678      2.602
REMARK  3 active torsions:
REMARK  status: ('A' for Active; 'I' for Inactive)
REMARK    1  A    between atoms: C1_1  and  C9_9 
REMARK    2  A    between atoms: C1_1  and  O11_11 
REMARK    3  A    between atoms: C8_8  and  C9_9 
ROOT
HETATM    1  C2  UNL     1     -33.886  16.777  -1.862  1.00 20.00     0.005 C 
HETATM    2  C3  UNL     1     -33.850  17.931  -2.879  1.00 20.00     0.005 C 
HETATM    3  C4  UNL     1     -33.089  15.201  -3.621  1.00 20.00     0.005 C 
HETATM    4  C5  UNL     1     -33.052  16.354  -4.637  1.00 20.00     0.005 C 
HETATM    5  C6  UNL     1     -34.291  15.567  -2.728  1.00 20.00    -0.010 C 
HETATM    6  C7  UNL     1     -34.238  17.235  -4.200  1.00 20.00    -0.010 C 
HETATM    7  C8  UNL     1     -35.280  16.221  -3.705  1.00 20.00     0.003 C 
ENDROOT
BRANCH   7   8
HETATM    8  C9  UNL     1     -35.889  15.310  -4.760  1.00 20.00     0.115 C 
BRANCH   8   9
HETATM    9  C1  UNL     1     -36.645  14.162  -4.143  1.00 20.00     0.139 C 
HETATM   10  O10 UNL     1     -37.769  14.209  -3.667  1.00 20.00    -0.650 OA
BRANCH   9  11
HETATM   11  O11 UNL     1     -35.890  13.034  -4.186  1.00 20.00    -0.776 OA
HETATM   12  H25 UNL     1     -36.423  12.247  -4.427  1.00 20.00     0.167 HD
ENDBRANCH   9  11
ENDBRANCH   8   9
ENDBRANCH   7   8
TORSDOF 3
ENDMDL
MODEL 5
REMARK VINA RESULT:      -4.5      1.702      2.027
REMARK  3 active torsions:
REMARK  status: ('A' for Active; 'I' for Inactive)
REMARK    1  A    between atoms: C1_1  and  C9_9 
REMARK    2  A    between atoms: C1_1  and  O11_11 
REMARK    3  A    between atoms: C8_8  and  C9_9 
ROOT
HETATM    1  C2  UNL     1     -33.297  18.706  -0.798  1.00 20.00     0.005 C 
HETATM    2  C3  UNL     1     -34.117  17.803   0.140  1.00 20.00     0.005 C 
HETATM    3  C4  UNL     1     -35.088  18.539  -2.524  1.00 20.00     0.005 C 
HETATM    4  C5  UNL     1     -35.907  17.637  -1.587  1.00 20.00     0.005 C 
HETATM    5  C6  UNL     1     -33.634  18.146  -2.195  1.00 20.00    -0.010 C 
HETATM    6  C7  UNL     1     -34.821  16.841  -0.839  1.00 20.00    -0.010 C 
HETATM    7  C8  UNL     1     -33.725  16.643  -1.897  1.00 20.00     0.003 C 
ENDROOT
BRANCH   7   8
HETATM    8  C9  UNL     1     -34.076  15.741  -3.070  1.00 20.00     0.115 C 
BRANCH   8   9
HETATM    9  C1  UNL     1     -32.956  15.664  -4.075  1.00 20.00     0.139 C 
HETATM   10  O10 UNL     1     -32.837  16.348  -5.080  1.00 20.00    -0.650 OA
BRANCH   9  11
HETATM   11  O11 UNL     1     -32.068  14.705  -3.705  1.00 20.00    -0.776 OA
HETATM   12  H25 UNL     1     -31.536  14.980  -2.928  1.00 20.00     0.167 HD
ENDBRANCH   9  11
ENDBRANCH   8   9
ENDBRANCH   7   8
TORSDOF 3
ENDMDL
MODEL 6
REMARK VINA RESULT:      -4.5      1.854      3.380
REMARK  3 active torsions:
REMARK  status: ('A' for Active; 'I' for Inactive)
REMARK    1  A    between atoms: C1_1  and  C9_9 
REMARK    2  A    between atoms: C1_1  and  O11_11 
REMARK    3  A    between atoms: C8_8  and  C9_9 
ROOT
HETATM    1  C2  UNL     1     -35.988  17.167  -6.478  1.00 20.00     0.005 C 
HETATM    2  C3  UNL     1     -34.972  16.257  -7.191  1.00 20.00     0.005 C 
HETATM    3  C4  UNL     1     -34.339  17.577  -4.654  1.00 20.00     0.005 C 
HETATM    4  C5  UNL     1     -33.324  16.669  -5.366  1.00 20.00     0.005 C 
HETATM    5  C6  UNL     1     -35.689  16.912  -4.986  1.00 20.00    -0.010 C 
HETATM    6  C7  UNL     1     -34.220  15.597  -6.017  1.00 20.00    -0.010 C 
HETATM    7  C8  UNL     1     -35.358  15.413  -5.003  1.00 20.00     0.003 C 
ENDROOT
BRANCH   7   8
HETATM    8  C9  UNL     1     -34.978  14.790  -3.668  1.00 20.00     0.115 C 
BRANCH   8   9
HETATM    9  C1  UNL     1     -34.380  13.417  -3.838  1.00 20.00     0.139 C 
HETATM   10  O10 UNL     1     -33.206  13.116  -3.688  1.00 20.00    -0.650 OA
BRANCH   9  11
HETATM   11  O11 UNL     1     -35.347  12.531  -4.191  1.00 20.00    -0.776 OA
HETATM   12  H25 UNL     1     -36.152  12.982  -4.525  1.00 20.00     0.167 HD
ENDBRANCH   9  11
ENDBRANCH   8   9
ENDBRANCH   7   8
TORSDOF 3
ENDMDL
MODEL 7
REMARK VINA RESULT:      -4.5      1.771      2.656
REMARK  3 active torsions:
REMARK  status: ('A' for Active; 'I' for Inactive)
REMARK    1  A    between atoms: C1_1  and  C9_9 
REMARK    2  A    between atoms: C1_1  and  O11_11 
REMARK    3  A    between atoms: C8_8  and  C9_9 
ROOT
HETATM    1  C2  UNL     1     -33.644  17.936  -5.852  1.00 20.00     0.005 C 
HETATM    2  C3  UNL     1     -33.772  17.748  -4.330  1.00 20.00     0.005 C 
HETATM    3  C4  UNL     1     -35.887  16.895  -6.168  1.00 20.00     0.005 C 
HETATM    4  C5  UNL     1     -36.014  16.708  -4.648  1.00 20.00     0.005 C 
HETATM    5  C6  UNL     1     -34.378  16.701  -6.413  1.00 20.00    -0.010 C 
HETATM    6  C7  UNL     1     -34.563  16.429  -4.213  1.00 20.00    -0.010 C 
HETATM    7  C8  UNL     1     -33.980  15.630  -5.388  1.00 20.00     0.003 C 
ENDROOT
BRANCH   7   8
HETATM    8  C9  UNL     1     -34.554  14.238  -5.607  1.00 20.00     0.115 C 
BRANCH   8   9
HETATM    9  C1  UNL     1     -34.284  13.328  -4.437  1.00 20.00     0.139 C 
HETATM   10  O10 UNL     1     -33.233  13.236  -3.820  1.00 20.00    -0.650 OA
BRANCH   9  11
HETATM   11  O11 UNL     1     -35.394  12.600  -4.150  1.00 20.00    -0.776 OA
HETATM   12  H25 UNL     1     -35.279  11.653  -4.379  1.00 20.00     0.167 HD
ENDBRANCH   9  11
ENDBRANCH   8   9
ENDBRANCH   7   8
TORSDOF 3
ENDMDL
MODEL 8
REMARK VINA RESULT:      -4.4      1.143      1.983
REMARK  3 active torsions:
REMARK  status: ('A' for Active; 'I' for Inactive)
REMARK    1  A    between atoms: C1_1  and  C9_9 
REMARK    2  A    between atoms: C1_1  and  O11_11 
REMARK    3  A    between atoms: C8_8  and  C9_9 
ROOT
HETATM    1  C2  UNL     1     -34.982  17.797  -4.077  1.00 20.00     0.005 C 
HETATM    2  C3  UNL     1     -33.781  17.962  -3.130  1.00 20.00     0.005 C 
HETATM    3  C4  UNL     1     -35.928  16.050  -2.572  1.00 20.00     0.005 C 
HETATM    4  C5  UNL     1     -34.729  16.216  -1.626  1.00 20.00     0.005 C 
HETATM    5  C6  UNL     1     -35.306  16.294  -3.961  1.00 20.00    -0.010 C 
HETATM    6  C7  UNL     1     -33.570  16.533  -2.591  1.00 20.00    -0.010 C 
HETATM    7  C8  UNL     1     -33.898  15.696  -3.836  1.00 20.00     0.003 C 
ENDROOT
BRANCH   7   8
HETATM    8  C9  UNL     1     -33.817  14.186  -3.675  1.00 20.00     0.115 C 
BRANCH   8   9
HETATM    9  C1  UNL     1     -34.632  13.464  -4.717  1.00 20.00     0.139 C 
HETATM   10  O10 UNL     1     -34.622  13.680  -5.919  1.00 20.00    -0.650 OA
BRANCH   9  11
HETATM   11  O11 UNL     1     -35.402  12.515  -4.126  1.00 20.00    -0.776 OA
HETATM   12  H25 UNL     1     -36.136  12.909  -3.608  1.00 20.00     0.167 HD
ENDBRANCH   9  11
ENDBRANCH   8   9
ENDBRANCH   7   8
TORSDOF 3
ENDMDL
MODEL 9
REMARK VINA RESULT:      -4.3     11.200     12.448
REMARK  3 active torsions:
REMARK  status: ('A' for Active; 'I' for Inactive)
REMARK    1  A    between atoms: C1_1  and  C9_9 
REMARK    2  A    between atoms: C1_1  and  O11_11 
REMARK    3  A    between atoms: C8_8  and  C9_9 
ROOT
HETATM    1  C2  UNL     1     -40.523   5.093  -0.600  1.00 20.00     0.005 C 
HETATM    2  C3  UNL     1     -41.207   4.296  -1.725  1.00 20.00     0.005 C 
HETATM    3  C4  UNL     1     -42.713   6.122  -0.001  1.00 20.00     0.005 C 
HETATM    4  C5  UNL     1     -43.395   5.326  -1.124  1.00 20.00     0.005 C 
HETATM    5  C6  UNL     1     -41.317   6.415  -0.585  1.00 20.00    -0.010 C 
HETATM    6  C7  UNL     1     -42.306   5.262  -2.212  1.00 20.00    -0.010 C 
HETATM    7  C8  UNL     1     -41.588   6.614  -2.084  1.00 20.00     0.003 C 
ENDROOT
BRANCH   7   8
HETATM    8  C9  UNL     1     -42.396   7.845  -2.466  1.00 20.00     0.115 C 
BRANCH   8   9
HETATM    9  C1  UNL     1     -42.557   7.970  -3.959  1.00 20.00     0.139 C 
HETATM   10  O10 UNL     1     -43.410   7.423  -4.642  1.00 20.00    -0.650 OA
BRANCH   9  11
HETATM   11  O11 UNL     1     -41.603   8.795  -4.461  1.00 20.00    -0.776 OA
HETATM   12  H25 UNL     1     -41.339   8.538  -5.370  1.00 20.00     0.167 HD
ENDBRANCH   9  11
ENDBRANCH   8   9
ENDBRANCH   7   8
TORSDOF 3
ENDMDL
