MODEL 1
REMARK VINA RESULT:      -5.4      0.000      0.000
REMARK  1 active torsions:
REMARK  status: ('A' for Active; 'I' for Inactive)
REMARK    1  A    between atoms: C9_9  and  C12_12 
ROOT
HETATM    1  C1  UNL     1     -32.735  14.933  -3.648  1.00 20.00     0.012 C 
HETATM    2  C2  UNL     1     -33.100  13.649  -3.609  1.00 20.00     0.052 C 
HETATM    3  C3  UNL     1     -35.386  16.364  -6.516  1.00 20.00    -0.025 C 
HETATM    4  C4  UNL     1     -35.632  15.229  -5.838  1.00 20.00    -0.008 C 
HETATM    5  C5  UNL     1     -33.435  16.886  -5.006  1.00 20.00    -0.014 C 
HETATM    6  C6  UNL     1     -33.692  15.741  -4.357  1.00 20.00    -0.041 C 
HETATM    7  C7  UNL     1     -34.415  13.591  -4.289  1.00 20.00     0.166 C 
HETATM    8  C8  UNL     1     -34.398  17.406  -6.042  1.00 20.00     0.054 C 
HETATM    9  C9  UNL     1     -34.988  14.980  -4.506  1.00 20.00     0.071 C 
HETATM   10  O13 UNL     1     -34.967  12.538  -4.573  1.00 20.00    -0.292 OA
ENDROOT
BRANCH   9  11
HETATM   11  C12 UNL     1     -35.975  15.290  -3.372  1.00 20.00     0.002 C 
HETATM   12  C10 UNL     1     -35.837  16.743  -2.932  1.00 20.00     0.011 C 
HETATM   13  C11 UNL     1     -37.402  14.990  -3.816  1.00 20.00     0.011 C 
ENDBRANCH   9  11
TORSDOF 1
ENDMDL
MODEL 2
REMARK VINA RESULT:      -5.1      1.242      3.232
REMARK  1 active torsions:
REMARK  status: ('A' for Active; 'I' for Inactive)
REMARK    1  A    between atoms: C9_9  and  C12_12 
ROOT
HETATM    1  C1  UNL     1     -35.882  16.850  -2.966  1.00 20.00     0.012 C 
HETATM    2  C2  UNL     1     -37.092  16.299  -3.078  1.00 20.00     0.052 C 
HETATM    3  C3  UNL     1     -33.492  13.572  -3.882  1.00 20.00    -0.025 C 
HETATM    4  C4  UNL     1     -34.781  13.626  -4.258  1.00 20.00    -0.008 C 
HETATM    5  C5  UNL     1     -33.566  15.984  -3.150  1.00 20.00    -0.014 C 
HETATM    6  C6  UNL     1     -34.854  16.007  -3.518  1.00 20.00    -0.041 C 
HETATM    7  C7  UNL     1     -36.880  15.023  -3.799  1.00 20.00     0.166 C 
HETATM    8  C8  UNL     1     -32.699  14.798  -3.485  1.00 20.00     0.054 C 
HETATM    9  C9  UNL     1     -35.483  14.946  -4.390  1.00 20.00     0.071 C 
HETATM   10  O13 UNL     1     -37.759  14.184  -3.933  1.00 20.00    -0.292 OA
ENDROOT
BRANCH   9  11
HETATM   11  C12 UNL     1     -35.546  15.370  -5.864  1.00 20.00     0.002 C 
HETATM   12  C10 UNL     1     -34.483  16.422  -6.158  1.00 20.00     0.011 C 
HETATM   13  C11 UNL     1     -35.377  14.157  -6.771  1.00 20.00     0.011 C 
ENDBRANCH   9  11
TORSDOF 1
ENDMDL
MODEL 3
REMARK VINA RESULT:      -5.0      1.429      1.908
REMARK  1 active torsions:
REMARK  status: ('A' for Active; 'I' for Inactive)
REMARK    1  A    between atoms: C9_9  and  C12_12 
ROOT
HETATM    1  C1  UNL     1     -33.981  14.001  -4.446  1.00 20.00     0.012 C 
HETATM    2  C2  UNL     1     -35.119  13.377  -4.135  1.00 20.00     0.052 C 
HETATM    3  C3  UNL     1     -35.452  17.759  -5.453  1.00 20.00    -0.025 C 
HETATM    4  C4  UNL     1     -36.160  16.912  -4.687  1.00 20.00    -0.008 C 
HETATM    5  C5  UNL     1     -33.429  16.261  -5.304  1.00 20.00    -0.014 C 
HETATM    6  C6  UNL     1     -34.161  15.425  -4.555  1.00 20.00    -0.041 C 
HETATM    7  C7  UNL     1     -36.126  14.451  -3.972  1.00 20.00     0.166 C 
HETATM    8  C8  UNL     1     -33.960  17.624  -5.666  1.00 20.00     0.054 C 
HETATM    9  C9  UNL     1     -35.473  15.821  -3.919  1.00 20.00     0.071 C 
HETATM   10  O13 UNL     1     -37.321  14.224  -3.841  1.00 20.00    -0.292 OA
ENDROOT
BRANCH   9  11
HETATM   11  C12 UNL     1     -35.303  16.230  -2.449  1.00 20.00     0.002 C 
HETATM   12  C10 UNL     1     -33.840  16.537  -2.151  1.00 20.00     0.011 C 
HETATM   13  C11 UNL     1     -36.187  17.430  -2.129  1.00 20.00     0.011 C 
ENDBRANCH   9  11
TORSDOF 1
ENDMDL
MODEL 4
REMARK VINA RESULT:      -5.0      1.867      3.585
REMARK  1 active torsions:
REMARK  status: ('A' for Active; 'I' for Inactive)
REMARK    1  A    between atoms: C9_9  and  C12_12 
ROOT
HETATM    1  C1  UNL     1     -35.295  14.322  -7.010  1.00 20.00     0.012 C 
HETATM    2  C2  UNL     1     -35.148  15.469  -7.676  1.00 20.00     0.052 C 
HETATM    3  C3  UNL     1     -32.901  15.082  -3.695  1.00 20.00    -0.025 C 
HETATM    4  C4  UNL     1     -33.397  16.081  -4.445  1.00 20.00    -0.008 C 
HETATM    5  C5  UNL     1     -34.334  13.404  -4.917  1.00 20.00    -0.014 C 
HETATM    6  C6  UNL     1     -34.800  14.416  -5.662  1.00 20.00    -0.041 C 
HETATM    7  C7  UNL     1     -34.563  16.419  -6.701  1.00 20.00     0.166 C 
HETATM    8  C8  UNL     1     -33.470  13.680  -3.713  1.00 20.00     0.054 C 
HETATM    9  C9  UNL     1     -34.620  15.869  -5.287  1.00 20.00     0.071 C 
HETATM   10  O13 UNL     1     -34.148  17.525  -7.021  1.00 20.00    -0.292 OA
ENDROOT
BRANCH   9  11
HETATM   11  C12 UNL     1     -35.857  16.443  -4.584  1.00 20.00     0.002 C 
HETATM   12  C10 UNL     1     -36.545  15.363  -3.757  1.00 20.00     0.011 C 
HETATM   13  C11 UNL     1     -35.466  17.630  -3.711  1.00 20.00     0.011 C 
ENDBRANCH   9  11
TORSDOF 1
ENDMDL
MODEL 5
REMARK VINA RESULT:      -5.0      1.783      3.600
REMARK  1 active torsions:
REMARK  status: ('A' for Active; 'I' for Inactive)
REMARK    1  A    between atoms: C9_9  and  C12_12 
ROOT
HETATM    1  C1  UNL     1     -35.164  16.340  -6.549  1.00 20.00     0.012 C 
HETATM    2  C2  UNL     1     -34.510  17.473  -6.284  1.00 20.00     0.052 C 
HETATM    3  C3  UNL     1     -33.361  13.788  -3.804  1.00 20.00    -0.025 C 
HETATM    4  C4  UNL     1     -33.332  15.123  -3.645  1.00 20.00    -0.008 C 
HETATM    5  C5  UNL     1     -35.004  14.015  -5.704  1.00 20.00    -0.014 C 
HETATM    6  C6  UNL     1     -34.944  15.343  -5.535  1.00 20.00    -0.041 C 
HETATM    7  C7  UNL     1     -33.844  17.249  -4.980  1.00 20.00     0.166 C 
HETATM    8  C8  UNL     1     -34.354  13.090  -4.707  1.00 20.00     0.054 C 
HETATM    9  C9  UNL     1     -34.362  15.993  -4.302  1.00 20.00     0.071 C 
HETATM   10  O13 UNL     1     -33.026  18.028  -4.511  1.00 20.00    -0.292 OA
ENDROOT
BRANCH   9  11
HETATM   11  C12 UNL     1     -35.447  16.390  -3.290  1.00 20.00     0.002 C 
HETATM   12  C10 UNL     1     -36.657  15.473  -3.424  1.00 20.00     0.011 C 
HETATM   13  C11 UNL     1     -34.888  16.350  -1.873  1.00 20.00     0.011 C 
ENDBRANCH   9  11
TORSDOF 1
ENDMDL
MODEL 6
REMARK VINA RESULT:      -4.9      1.707      3.493
REMARK  1 active torsions:
REMARK  status: ('A' for Active; 'I' for Inactive)
REMARK    1  A    between atoms: C9_9  and  C12_12 
ROOT
HETATM    1  C1  UNL     1     -37.164  17.082  -5.295  1.00 20.00     0.012 C 
HETATM    2  C2  UNL     1     -38.083  16.159  -5.002  1.00 20.00     0.052 C 
HETATM    3  C3  UNL     1     -34.119  15.939  -2.702  1.00 20.00    -0.025 C 
HETATM    4  C4  UNL     1     -35.086  15.080  -3.070  1.00 20.00    -0.008 C 
HETATM    5  C5  UNL     1     -34.911  17.618  -4.409  1.00 20.00    -0.014 C 
HETATM    6  C6  UNL     1     -35.876  16.750  -4.746  1.00 20.00    -0.041 C 
HETATM    7  C7  UNL     1     -37.360  15.107  -4.250  1.00 20.00     0.166 C 
HETATM    8  C8  UNL     1     -33.806  17.202  -3.473  1.00 20.00     0.054 C 
HETATM    9  C9  UNL     1     -35.856  15.295  -4.339  1.00 20.00     0.071 C 
HETATM   10  O13 UNL     1     -37.932  14.184  -3.687  1.00 20.00    -0.292 OA
ENDROOT
BRANCH   9  11
HETATM   11  C12 UNL     1     -35.311  14.390  -5.453  1.00 20.00     0.002 C 
HETATM   12  C10 UNL     1     -34.371  15.176  -6.361  1.00 20.00     0.011 C 
HETATM   13  C11 UNL     1     -34.603  13.181  -4.852  1.00 20.00     0.011 C 
ENDBRANCH   9  11
TORSDOF 1
ENDMDL
MODEL 7
REMARK VINA RESULT:      -4.8      1.818      3.370
REMARK  1 active torsions:
REMARK  status: ('A' for Active; 'I' for Inactive)
REMARK    1  A    between atoms: C9_9  and  C12_12 
ROOT
HETATM    1  C1  UNL     1     -33.702  14.097  -3.809  1.00 20.00     0.012 C 
HETATM    2  C2  UNL     1     -32.785  15.066  -3.844  1.00 20.00     0.052 C 
HETATM    3  C3  UNL     1     -37.113  16.276  -4.769  1.00 20.00    -0.025 C 
HETATM    4  C4  UNL     1     -35.884  16.725  -5.079  1.00 20.00    -0.008 C 
HETATM    5  C5  UNL     1     -36.165  14.039  -4.093  1.00 20.00    -0.014 C 
HETATM    6  C6  UNL     1     -34.949  14.516  -4.393  1.00 20.00    -0.041 C 
HETATM    7  C7  UNL     1     -33.434  16.199  -4.544  1.00 20.00     0.166 C 
HETATM    8  C8  UNL     1     -37.401  14.827  -4.445  1.00 20.00     0.054 C 
HETATM    9  C9  UNL     1     -34.732  15.772  -5.205  1.00 20.00     0.071 C 
HETATM   10  O13 UNL     1     -32.931  17.311  -4.611  1.00 20.00    -0.292 OA
ENDROOT
BRANCH   9  11
HETATM   11  C12 UNL     1     -34.455  15.465  -6.684  1.00 20.00     0.002 C 
HETATM   12  C10 UNL     1     -35.291  14.274  -7.143  1.00 20.00     0.011 C 
HETATM   13  C11 UNL     1     -34.741  16.692  -7.541  1.00 20.00     0.011 C 
ENDBRANCH   9  11
TORSDOF 1
ENDMDL
MODEL 8
REMARK VINA RESULT:      -4.8      1.998      3.382
REMARK  1 active torsions:
REMARK  status: ('A' for Active; 'I' for Inactive)
REMARK    1  A    between atoms: C9_9  and  C12_12 
ROOT
HETATM    1  C1  UNL     1     -34.799  15.609  -2.449  1.00 20.00     0.012 C 
HETATM    2  C2  UNL     1     -33.822  16.462  -2.762  1.00 20.00     0.052 C 
HETATM    3  C3  UNL     1     -37.347  16.184  -5.686  1.00 20.00    -0.025 C 
HETATM    4  C4  UNL     1     -36.044  16.512  -5.752  1.00 20.00    -0.008 C 
HETATM    5  C5  UNL     1     -36.982  15.030  -3.473  1.00 20.00    -0.014 C 
HETATM    6  C6  UNL     1     -35.691  15.384  -3.555  1.00 20.00    -0.041 C 
HETATM    7  C7  UNL     1     -34.034  16.797  -4.189  1.00 20.00     0.166 C 
HETATM    8  C8  UNL     1     -37.904  15.235  -4.648  1.00 20.00     0.054 C 
HETATM    9  C9  UNL     1     -35.048  15.868  -4.833  1.00 20.00     0.071 C 
HETATM   10  O13 UNL     1     -33.410  17.680  -4.762  1.00 20.00    -0.292 OA
ENDROOT
BRANCH   9  11
HETATM   11  C12 UNL     1     -34.296  14.747  -5.564  1.00 20.00     0.002 C 
HETATM   12  C10 UNL     1     -34.838  13.385  -5.145  1.00 20.00     0.011 C 
HETATM   13  C11 UNL     1     -34.404  14.935  -7.073  1.00 20.00     0.011 C 
ENDBRANCH   9  11
TORSDOF 1
ENDMDL
MODEL 9
REMARK VINA RESULT:      -4.8      1.820      3.281
REMARK  1 active torsions:
REMARK  status: ('A' for Active; 'I' for Inactive)
REMARK    1  A    between atoms: C9_9  and  C12_12 
ROOT
HETATM    1  C1  UNL     1     -33.670  16.619  -2.309  1.00 20.00     0.012 C 
HETATM    2  C2  UNL     1     -34.809  17.236  -1.989  1.00 20.00     0.052 C 
HETATM    3  C3  UNL     1     -35.168  13.282  -4.287  1.00 20.00    -0.025 C 
HETATM    4  C4  UNL     1     -35.903  14.398  -4.140  1.00 20.00    -0.008 C 
HETATM    5  C5  UNL     1     -33.121  14.472  -3.419  1.00 20.00    -0.014 C 
HETATM    6  C6  UNL     1     -33.880  15.566  -3.267  1.00 20.00    -0.041 C 
HETATM    7  C7  UNL     1     -35.853  16.595  -2.823  1.00 20.00     0.166 C 
HETATM    8  C8  UNL     1     -33.663  13.264  -4.140  1.00 20.00     0.054 C 
HETATM    9  C9  UNL     1     -35.240  15.723  -3.904  1.00 20.00     0.071 C 
HETATM   10  O13 UNL     1     -37.047  16.809  -2.669  1.00 20.00    -0.292 OA
ENDROOT
BRANCH   9  11
HETATM   11  C12 UNL     1     -35.178  16.527  -5.210  1.00 20.00     0.002 C 
HETATM   12  C10 UNL     1     -33.862  16.262  -5.933  1.00 20.00     0.011 C 
HETATM   13  C11 UNL     1     -36.367  16.183  -6.100  1.00 20.00     0.011 C 
ENDBRANCH   9  11
TORSDOF 1
ENDMDL
