MODEL 1
REMARK VINA RESULT:      -5.0      0.000      0.000
REMARK  4 active torsions:
REMARK  status: ('A' for Active; 'I' for Inactive)
REMARK    1  A    between atoms: C1_1  and  C6_6 
REMARK    2  A    between atoms: C1_1  and  C7_7 
REMARK    3  A    between atoms: C6_6  and  C8_8 
REMARK    4  A    between atoms: C7_7  and  C9_9 
ROOT
HETATM    1  C1  UNL     1     -32.457   6.589   3.442  1.00 20.00     0.161 C 
HETATM    2  O10 UNL     1     -32.147   5.514   2.929  1.00 20.00    -0.295 OA
ENDROOT
BRANCH   1   3
HETATM    3  C6  UNL     1     -31.797   7.902   3.045  1.00 20.00     0.085 C 
BRANCH   3   4
HETATM    4  C8  UNL     1     -32.423   8.549   1.800  1.00 20.00    -0.016 C 
HETATM    5  C2  UNL     1     -31.489   8.454   0.592  1.00 20.00     0.010 C 
HETATM    6  C3  UNL     1     -32.757  10.015   2.084  1.00 20.00     0.010 C 
ENDBRANCH   3   4
ENDBRANCH   1   3
BRANCH   1   7
HETATM    7  C7  UNL     1     -33.547   6.657   4.499  1.00 20.00     0.242 C 
HETATM    8  F11 UNL     1     -33.009   6.977   5.711  1.00 20.00    -0.241 F 
BRANCH   7   9
HETATM    9  C9  UNL     1     -34.333   5.347   4.638  1.00 20.00     0.019 C 
HETATM   10  C4  UNL     1     -34.701   5.059   6.096  1.00 20.00     0.012 C 
HETATM   11  C5  UNL     1     -35.606   5.406   3.790  1.00 20.00     0.012 C 
ENDBRANCH   7   9
ENDBRANCH   1   7
TORSDOF 4
ENDMDL
MODEL 2
REMARK VINA RESULT:      -5.0      1.581      4.416
REMARK  4 active torsions:
REMARK  status: ('A' for Active; 'I' for Inactive)
REMARK    1  A    between atoms: C1_1  and  C6_6 
REMARK    2  A    between atoms: C1_1  and  C7_7 
REMARK    3  A    between atoms: C6_6  and  C8_8 
REMARK    4  A    between atoms: C7_7  and  C9_9 
ROOT
HETATM    1  C1  UNL     1     -33.890   5.721   2.968  1.00 20.00     0.161 C 
HETATM    2  O10 UNL     1     -34.442   4.888   2.250  1.00 20.00    -0.295 OA
ENDROOT
BRANCH   1   3
HETATM    3  C6  UNL     1     -34.558   6.300   4.207  1.00 20.00     0.085 C 
BRANCH   3   4
HETATM    4  C8  UNL     1     -34.074   5.661   5.517  1.00 20.00    -0.016 C 
HETATM    5  C2  UNL     1     -35.047   4.586   6.007  1.00 20.00     0.010 C 
HETATM    6  C3  UNL     1     -33.906   6.736   6.593  1.00 20.00     0.010 C 
ENDBRANCH   3   4
ENDBRANCH   1   3
BRANCH   1   7
HETATM    7  C7  UNL     1     -32.483   6.202   2.654  1.00 20.00     0.242 C 
HETATM    8  F11 UNL     1     -31.571   5.502   3.389  1.00 20.00    -0.241 F 
BRANCH   7   9
HETATM    9  C9  UNL     1     -32.285   7.700   2.920  1.00 20.00     0.019 C 
HETATM   10  C4  UNL     1     -31.191   7.952   3.959  1.00 20.00     0.012 C 
HETATM   11  C5  UNL     1     -31.932   8.422   1.616  1.00 20.00     0.012 C 
ENDBRANCH   7   9
ENDBRANCH   1   7
TORSDOF 4
ENDMDL
MODEL 3
REMARK VINA RESULT:      -4.7      1.060      4.524
REMARK  4 active torsions:
REMARK  status: ('A' for Active; 'I' for Inactive)
REMARK    1  A    between atoms: C1_1  and  C6_6 
REMARK    2  A    between atoms: C1_1  and  C7_7 
REMARK    3  A    between atoms: C6_6  and  C8_8 
REMARK    4  A    between atoms: C7_7  and  C9_9 
ROOT
HETATM    1  C1  UNL     1     -32.522   6.414   3.132  1.00 20.00     0.161 C 
HETATM    2  O10 UNL     1     -32.094   5.298   2.838  1.00 20.00    -0.295 OA
ENDROOT
BRANCH   1   3
HETATM    3  C6  UNL     1     -33.833   6.613   3.876  1.00 20.00     0.085 C 
BRANCH   3   4
HETATM    4  C8  UNL     1     -34.029   5.633   5.043  1.00 20.00    -0.016 C 
HETATM    5  C2  UNL     1     -35.284   4.778   4.850  1.00 20.00     0.010 C 
HETATM    6  C3  UNL     1     -34.125   6.402   6.362  1.00 20.00     0.010 C 
ENDBRANCH   3   4
ENDBRANCH   1   3
BRANCH   1   7
HETATM    7  C7  UNL     1     -31.734   7.663   2.775  1.00 20.00     0.242 C 
HETATM    8  F11 UNL     1     -31.513   8.416   3.892  1.00 20.00    -0.241 F 
BRANCH   7   9
HETATM    9  C9  UNL     1     -32.431   8.535   1.722  1.00 20.00     0.019 C 
HETATM   10  C4  UNL     1     -32.695   9.950   2.243  1.00 20.00     0.012 C 
HETATM   11  C5  UNL     1     -31.579   8.606   0.452  1.00 20.00     0.012 C 
ENDBRANCH   7   9
ENDBRANCH   1   7
TORSDOF 4
ENDMDL
MODEL 4
REMARK VINA RESULT:      -4.7      1.472      2.069
REMARK  4 active torsions:
REMARK  status: ('A' for Active; 'I' for Inactive)
REMARK    1  A    between atoms: C1_1  and  C6_6 
REMARK    2  A    between atoms: C1_1  and  C7_7 
REMARK    3  A    between atoms: C6_6  and  C8_8 
REMARK    4  A    between atoms: C7_7  and  C9_9 
ROOT
HETATM    1  C1  UNL     1     -33.764   5.512   2.899  1.00 20.00     0.161 C 
HETATM    2  O10 UNL     1     -34.163   4.939   1.885  1.00 20.00    -0.295 OA
ENDROOT
BRANCH   1   3
HETATM    3  C6  UNL     1     -32.327   5.988   3.053  1.00 20.00     0.085 C 
BRANCH   3   4
HETATM    4  C8  UNL     1     -32.196   7.515   3.152  1.00 20.00    -0.016 C 
HETATM    5  C2  UNL     1     -31.953   8.145   1.778  1.00 20.00     0.010 C 
HETATM    6  C3  UNL     1     -31.052   7.883   4.100  1.00 20.00     0.010 C 
ENDBRANCH   3   4
ENDBRANCH   1   3
BRANCH   1   7
HETATM    7  C7  UNL     1     -34.712   5.793   4.053  1.00 20.00     0.242 C 
HETATM    8  F11 UNL     1     -34.977   7.129   4.130  1.00 20.00    -0.241 F 
BRANCH   7   9
HETATM    9  C9  UNL     1     -34.170   5.317   5.407  1.00 20.00     0.019 C 
HETATM   10  C4  UNL     1     -34.049   6.471   6.405  1.00 20.00     0.012 C 
HETATM   11  C5  UNL     1     -35.081   4.231   5.985  1.00 20.00     0.012 C 
ENDBRANCH   7   9
ENDBRANCH   1   7
TORSDOF 4
ENDMDL
MODEL 5
REMARK VINA RESULT:      -4.5     11.018     12.453
REMARK  4 active torsions:
REMARK  status: ('A' for Active; 'I' for Inactive)
REMARK    1  A    between atoms: C1_1  and  C6_6 
REMARK    2  A    between atoms: C1_1  and  C7_7 
REMARK    3  A    between atoms: C6_6  and  C8_8 
REMARK    4  A    between atoms: C7_7  and  C9_9 
ROOT
HETATM    1  C1  UNL     1     -35.191  13.752  -4.820  1.00 20.00     0.161 C 
HETATM    2  O10 UNL     1     -34.789  12.610  -4.597  1.00 20.00    -0.295 OA
ENDROOT
BRANCH   1   3
HETATM    3  C6  UNL     1     -35.532  14.728  -3.704  1.00 20.00     0.085 C 
BRANCH   3   4
HETATM    4  C8  UNL     1     -34.310  15.179  -2.891  1.00 20.00    -0.016 C 
HETATM    5  C2  UNL     1     -34.702  16.178  -1.800  1.00 20.00     0.010 C 
HETATM    6  C3  UNL     1     -33.267  15.807  -3.818  1.00 20.00     0.010 C 
ENDBRANCH   3   4
ENDBRANCH   1   3
BRANCH   1   7
HETATM    7  C7  UNL     1     -35.347  14.253  -6.246  1.00 20.00     0.242 C 
HETATM    8  F11 UNL     1     -34.126  14.545  -6.780  1.00 20.00    -0.241 F 
BRANCH   7   9
HETATM    9  C9  UNL     1     -36.243  15.494  -6.354  1.00 20.00     0.019 C 
HETATM   10  C4  UNL     1     -35.463  16.714  -6.851  1.00 20.00     0.012 C 
HETATM   11  C5  UNL     1     -37.416  15.215  -7.297  1.00 20.00     0.012 C 
ENDBRANCH   7   9
ENDBRANCH   1   7
TORSDOF 4
ENDMDL
MODEL 6
REMARK VINA RESULT:      -4.5     10.710     12.150
REMARK  4 active torsions:
REMARK  status: ('A' for Active; 'I' for Inactive)
REMARK    1  A    between atoms: C1_1  and  C6_6 
REMARK    2  A    between atoms: C1_1  and  C7_7 
REMARK    3  A    between atoms: C6_6  and  C8_8 
REMARK    4  A    between atoms: C7_7  and  C9_9 
ROOT
HETATM    1  C1  UNL     1     -35.065  13.890  -4.231  1.00 20.00     0.161 C 
HETATM    2  O10 UNL     1     -35.065  12.665  -4.352  1.00 20.00    -0.295 OA
ENDROOT
BRANCH   1   3
HETATM    3  C6  UNL     1     -34.181  14.609  -3.224  1.00 20.00     0.085 C 
BRANCH   3   4
HETATM    4  C8  UNL     1     -34.612  16.059  -2.956  1.00 20.00    -0.016 C 
HETATM    5  C2  UNL     1     -33.669  17.056  -3.633  1.00 20.00     0.010 C 
HETATM    6  C3  UNL     1     -34.652  16.323  -1.450  1.00 20.00     0.010 C 
ENDBRANCH   3   4
ENDBRANCH   1   3
BRANCH   1   7
HETATM    7  C7  UNL     1     -35.950  14.755  -5.114  1.00 20.00     0.242 C 
HETATM    8  F11 UNL     1     -37.265  14.517  -4.839  1.00 20.00    -0.241 F 
BRANCH   7   9
HETATM    9  C9  UNL     1     -35.710  14.530  -6.613  1.00 20.00     0.019 C 
HETATM   10  C4  UNL     1     -36.827  15.138  -7.463  1.00 20.00     0.012 C 
HETATM   11  C5  UNL     1     -34.364  15.133  -7.025  1.00 20.00     0.012 C 
ENDBRANCH   7   9
ENDBRANCH   1   7
TORSDOF 4
ENDMDL
MODEL 7
REMARK VINA RESULT:      -4.4     10.933     12.135
REMARK  4 active torsions:
REMARK  status: ('A' for Active; 'I' for Inactive)
REMARK    1  A    between atoms: C1_1  and  C6_6 
REMARK    2  A    between atoms: C1_1  and  C7_7 
REMARK    3  A    between atoms: C6_6  and  C8_8 
REMARK    4  A    between atoms: C7_7  and  C9_9 
ROOT
HETATM    1  C1  UNL     1     -34.033  14.770  -3.811  1.00 20.00     0.161 C 
HETATM    2  O10 UNL     1     -32.824  14.561  -3.719  1.00 20.00    -0.295 OA
ENDROOT
BRANCH   1   3
HETATM    3  C6  UNL     1     -34.823  15.476  -2.718  1.00 20.00     0.085 C 
BRANCH   3   4
HETATM    4  C8  UNL     1     -33.995  16.505  -1.934  1.00 20.00    -0.016 C 
HETATM    5  C2  UNL     1     -34.627  16.810  -0.573  1.00 20.00     0.010 C 
HETATM    6  C3  UNL     1     -33.860  17.796  -2.743  1.00 20.00     0.010 C 
ENDBRANCH   3   4
ENDBRANCH   1   3
BRANCH   1   7
HETATM    7  C7  UNL     1     -34.801  14.342  -5.050  1.00 20.00     0.242 C 
HETATM    8  F11 UNL     1     -34.744  12.987  -5.196  1.00 20.00    -0.241 F 
BRANCH   7   9
HETATM    9  C9  UNL     1     -34.283  14.999  -6.336  1.00 20.00     0.019 C 
HETATM   10  C4  UNL     1     -35.109  14.584  -7.557  1.00 20.00     0.012 C 
HETATM   11  C5  UNL     1     -34.308  16.523  -6.194  1.00 20.00     0.012 C 
ENDBRANCH   7   9
ENDBRANCH   1   7
TORSDOF 4
ENDMDL
MODEL 8
REMARK VINA RESULT:      -4.3      1.533      2.075
REMARK  4 active torsions:
REMARK  status: ('A' for Active; 'I' for Inactive)
REMARK    1  A    between atoms: C1_1  and  C6_6 
REMARK    2  A    between atoms: C1_1  and  C7_7 
REMARK    3  A    between atoms: C6_6  and  C8_8 
REMARK    4  A    between atoms: C7_7  and  C9_9 
ROOT
HETATM    1  C1  UNL     1     -32.444   7.013   3.313  1.00 20.00     0.161 C 
HETATM    2  O10 UNL     1     -31.414   7.342   3.902  1.00 20.00    -0.295 OA
ENDROOT
BRANCH   1   3
HETATM    3  C6  UNL     1     -33.000   7.808   2.141  1.00 20.00     0.085 C 
BRANCH   3   4
HETATM    4  C8  UNL     1     -32.023   8.859   1.596  1.00 20.00    -0.016 C 
HETATM    5  C2  UNL     1     -32.574  10.277   1.769  1.00 20.00     0.010 C 
HETATM    6  C3  UNL     1     -31.737   8.592   0.116  1.00 20.00     0.010 C 
ENDBRANCH   3   4
ENDBRANCH   1   3
BRANCH   1   7
HETATM    7  C7  UNL     1     -33.206   5.765   3.725  1.00 20.00     0.242 C 
HETATM    8  F11 UNL     1     -33.676   5.114   2.622  1.00 20.00    -0.241 F 
BRANCH   7   9
HETATM    9  C9  UNL     1     -34.385   6.062   4.662  1.00 20.00     0.019 C 
HETATM   10  C4  UNL     1     -35.356   4.882   4.741  1.00 20.00     0.012 C 
HETATM   11  C5  UNL     1     -33.869   6.397   6.064  1.00 20.00     0.012 C 
ENDBRANCH   7   9
ENDBRANCH   1   7
TORSDOF 4
ENDMDL
MODEL 9
REMARK VINA RESULT:      -4.3     10.751     11.896
REMARK  4 active torsions:
REMARK  status: ('A' for Active; 'I' for Inactive)
REMARK    1  A    between atoms: C1_1  and  C6_6 
REMARK    2  A    between atoms: C1_1  and  C7_7 
REMARK    3  A    between atoms: C6_6  and  C8_8 
REMARK    4  A    between atoms: C7_7  and  C9_9 
ROOT
HETATM    1  C1  UNL     1     -34.656  13.760  -4.820  1.00 20.00     0.161 C 
HETATM    2  O10 UNL     1     -34.964  12.705  -4.265  1.00 20.00    -0.295 OA
ENDROOT
BRANCH   1   3
HETATM    3  C6  UNL     1     -34.988  14.040  -6.278  1.00 20.00     0.085 C 
BRANCH   3   4
HETATM    4  C8  UNL     1     -35.584  15.436  -6.512  1.00 20.00    -0.016 C 
HETATM    5  C2  UNL     1     -37.047  15.351  -6.955  1.00 20.00     0.010 C 
HETATM    6  C3  UNL     1     -34.766  16.185  -7.567  1.00 20.00     0.010 C 
ENDBRANCH   3   4
ENDBRANCH   1   3
BRANCH   1   7
HETATM    7  C7  UNL     1     -33.934  14.856  -4.054  1.00 20.00     0.242 C 
HETATM    8  F11 UNL     1     -32.672  14.453  -3.731  1.00 20.00    -0.241 F 
BRANCH   7   9
HETATM    9  C9  UNL     1     -34.664  15.273  -2.770  1.00 20.00     0.019 C 
HETATM   10  C4  UNL     1     -33.959  16.439  -2.072  1.00 20.00     0.012 C 
HETATM   11  C5  UNL     1     -36.109  15.663  -3.090  1.00 20.00     0.012 C 
ENDBRANCH   7   9
ENDBRANCH   1   7
TORSDOF 4
ENDMDL
