MODEL 1
REMARK VINA RESULT:      -3.8      0.000      0.000
REMARK  0 active torsions:
REMARK  status: ('A' for Active; 'I' for Inactive)
ROOT
HETATM    1  C1  UNL     1     -34.720  14.348  -5.890  1.00 20.00     0.001 C 
HETATM    2  C2  UNL     1     -34.678  13.200  -4.884  1.00 20.00     0.001 C 
HETATM    3  C3  UNL     1     -34.300  15.602  -5.124  1.00 20.00     0.011 C 
HETATM    4  C4  UNL     1     -34.156  13.803  -3.584  1.00 20.00     0.011 C 
HETATM    5  C5  UNL     1     -33.729  16.125  -2.672  1.00 20.00     0.096 C 
HETATM    6  C6  UNL     1     -36.058  15.453  -3.256  1.00 20.00     0.096 C 
HETATM    7  C7  UNL     1     -34.573  15.283  -3.640  1.00 20.00    -0.022 C 
HETATM    8  S8  UNL     1     -34.459  17.779  -2.580  1.00 20.00    -0.097 SA
HETATM    9  S9  UNL     1     -36.387  17.217  -2.983  1.00 20.00    -0.097 SA
ENDROOT
TORSDOF 0
ENDMDL
MODEL 2
REMARK VINA RESULT:      -3.8      1.412      2.103
REMARK  0 active torsions:
REMARK  status: ('A' for Active; 'I' for Inactive)
ROOT
HETATM    1  C1  UNL     1     -33.493  13.718  -3.877  1.00 20.00     0.001 C 
HETATM    2  C2  UNL     1     -34.980  13.454  -4.105  1.00 20.00     0.001 C 
HETATM    3  C3  UNL     1     -33.387  15.161  -3.384  1.00 20.00     0.011 C 
HETATM    4  C4  UNL     1     -35.703  14.720  -3.659  1.00 20.00     0.011 C 
HETATM    5  C5  UNL     1     -35.056  17.086  -3.033  1.00 20.00     0.096 C 
HETATM    6  C6  UNL     1     -34.615  16.273  -5.348  1.00 20.00     0.096 C 
HETATM    7  C7  UNL     1     -34.681  15.852  -3.865  1.00 20.00    -0.022 C 
HETATM    8  S8  UNL     1     -33.986  18.456  -3.541  1.00 20.00    -0.097 SA
HETATM    9  S9  UNL     1     -33.687  17.828  -5.467  1.00 20.00    -0.097 SA
ENDROOT
TORSDOF 0
ENDMDL
MODEL 3
REMARK VINA RESULT:      -3.7      1.274      1.681
REMARK  0 active torsions:
REMARK  status: ('A' for Active; 'I' for Inactive)
ROOT
HETATM    1  C1  UNL     1     -34.955  13.825  -4.028  1.00 20.00     0.001 C 
HETATM    2  C2  UNL     1     -33.483  13.692  -3.645  1.00 20.00     0.001 C 
HETATM    3  C3  UNL     1     -35.205  15.316  -4.251  1.00 20.00     0.011 C 
HETATM    4  C4  UNL     1     -32.898  15.097  -3.737  1.00 20.00     0.011 C 
HETATM    5  C5  UNL     1     -33.793  17.451  -3.994  1.00 20.00     0.096 C 
HETATM    6  C6  UNL     1     -34.383  16.136  -1.959  1.00 20.00     0.096 C 
HETATM    7  C7  UNL     1     -34.086  16.037  -3.470  1.00 20.00    -0.022 C 
HETATM    8  S8  UNL     1     -35.097  18.555  -3.395  1.00 20.00    -0.097 SA
HETATM    9  S9  UNL     1     -35.528  17.517  -1.683  1.00 20.00    -0.097 SA
ENDROOT
TORSDOF 0
ENDMDL
MODEL 4
REMARK VINA RESULT:      -3.7      1.621      1.981
REMARK  0 active torsions:
REMARK  status: ('A' for Active; 'I' for Inactive)
ROOT
HETATM    1  C1  UNL     1     -34.521  13.436  -4.917  1.00 20.00     0.001 C 
HETATM    2  C2  UNL     1     -33.710  13.662  -3.643  1.00 20.00     0.001 C 
HETATM    3  C3  UNL     1     -34.446  14.742  -5.708  1.00 20.00     0.011 C 
HETATM    4  C4  UNL     1     -33.118  15.061  -3.767  1.00 20.00     0.011 C 
HETATM    5  C5  UNL     1     -33.431  17.066  -5.280  1.00 20.00     0.096 C 
HETATM    6  C6  UNL     1     -35.334  16.297  -3.865  1.00 20.00     0.096 C 
HETATM    7  C7  UNL     1     -34.102  15.828  -4.667  1.00 20.00    -0.022 C 
HETATM    8  S8  UNL     1     -34.713  18.062  -6.083  1.00 20.00    -0.097 SA
HETATM    9  S9  UNL     1     -36.261  17.490  -4.871  1.00 20.00    -0.097 SA
ENDROOT
TORSDOF 0
ENDMDL
MODEL 5
REMARK VINA RESULT:      -3.6      1.868      2.778
REMARK  0 active torsions:
REMARK  status: ('A' for Active; 'I' for Inactive)
ROOT
HETATM    1  C1  UNL     1     -33.365  13.564  -3.840  1.00 20.00     0.001 C 
HETATM    2  C2  UNL     1     -32.732  14.927  -3.564  1.00 20.00     0.001 C 
HETATM    3  C3  UNL     1     -34.525  13.820  -4.801  1.00 20.00     0.011 C 
HETATM    4  C4  UNL     1     -33.489  15.923  -4.436  1.00 20.00     0.011 C 
HETATM    5  C5  UNL     1     -35.601  15.917  -5.832  1.00 20.00     0.096 C 
HETATM    6  C6  UNL     1     -35.764  15.557  -3.370  1.00 20.00     0.096 C 
HETATM    7  C7  UNL     1     -34.888  15.308  -4.616  1.00 20.00    -0.022 C 
HETATM    8  S8  UNL     1     -37.325  15.364  -5.809  1.00 20.00    -0.097 SA
HETATM    9  S9  UNL     1     -37.483  15.143  -3.780  1.00 20.00    -0.097 SA
ENDROOT
TORSDOF 0
ENDMDL
MODEL 6
REMARK VINA RESULT:      -3.6      2.202      3.119
REMARK  0 active torsions:
REMARK  status: ('A' for Active; 'I' for Inactive)
ROOT
HETATM    1  C1  UNL     1     -33.102  15.101  -3.668  1.00 20.00     0.001 C 
HETATM    2  C2  UNL     1     -33.412  13.610  -3.782  1.00 20.00     0.001 C 
HETATM    3  C3  UNL     1     -34.356  15.835  -4.141  1.00 20.00     0.011 C 
HETATM    4  C4  UNL     1     -34.864  13.519  -4.238  1.00 20.00     0.011 C 
HETATM    5  C5  UNL     1     -36.619  15.112  -5.127  1.00 20.00     0.096 C 
HETATM    6  C6  UNL     1     -34.541  14.723  -6.450  1.00 20.00     0.096 C 
HETATM    7  C7  UNL     1     -35.115  14.819  -5.020  1.00 20.00    -0.022 C 
HETATM    8  S8  UNL     1     -36.845  16.480  -6.291  1.00 20.00    -0.097 SA
HETATM    9  S9  UNL     1     -35.180  16.114  -7.425  1.00 20.00    -0.097 SA
ENDROOT
TORSDOF 0
ENDMDL
MODEL 7
REMARK VINA RESULT:      -3.6      2.373      3.883
REMARK  0 active torsions:
REMARK  status: ('A' for Active; 'I' for Inactive)
ROOT
HETATM    1  C1  UNL     1     -35.114  17.618  -0.871  1.00 20.00     0.001 C 
HETATM    2  C2  UNL     1     -34.657  18.668  -1.882  1.00 20.00     0.001 C 
HETATM    3  C3  UNL     1     -34.596  16.276  -1.387  1.00 20.00     0.011 C 
HETATM    4  C4  UNL     1     -33.818  17.919  -2.911  1.00 20.00     0.011 C 
HETATM    5  C5  UNL     1     -33.346  15.502  -3.497  1.00 20.00     0.096 C 
HETATM    6  C6  UNL     1     -35.669  16.382  -3.719  1.00 20.00     0.096 C 
HETATM    7  C7  UNL     1     -34.366  16.482  -2.898  1.00 20.00    -0.022 C 
HETATM    8  S8  UNL     1     -34.163  13.901  -3.712  1.00 20.00    -0.097 SA
HETATM    9  S9  UNL     1     -36.060  14.627  -3.972  1.00 20.00    -0.097 SA
ENDROOT
TORSDOF 0
ENDMDL
MODEL 8
REMARK VINA RESULT:      -3.6      2.097      2.965
REMARK  0 active torsions:
REMARK  status: ('A' for Active; 'I' for Inactive)
ROOT
HETATM    1  C1  UNL     1     -36.818  15.118  -6.889  1.00 20.00     0.001 C 
HETATM    2  C2  UNL     1     -35.803  14.619  -7.916  1.00 20.00     0.001 C 
HETATM    3  C3  UNL     1     -36.010  15.798  -5.785  1.00 20.00     0.011 C 
HETATM    4  C4  UNL     1     -34.441  15.095  -7.422  1.00 20.00     0.011 C 
HETATM    5  C5  UNL     1     -33.503  16.110  -5.301  1.00 20.00     0.096 C 
HETATM    6  C6  UNL     1     -34.473  13.814  -5.230  1.00 20.00     0.096 C 
HETATM    7  C7  UNL     1     -34.590  15.202  -5.894  1.00 20.00    -0.022 C 
HETATM    8  S8  UNL     1     -33.564  15.958  -3.498  1.00 20.00    -0.097 SA
HETATM    9  S9  UNL     1     -34.288  14.043  -3.439  1.00 20.00    -0.097 SA
ENDROOT
TORSDOF 0
ENDMDL
MODEL 9
REMARK VINA RESULT:      -3.6      1.700      2.547
REMARK  0 active torsions:
REMARK  status: ('A' for Active; 'I' for Inactive)
ROOT
HETATM    1  C1  UNL     1     -33.451  14.854  -3.394  1.00 20.00     0.001 C 
HETATM    2  C2  UNL     1     -33.729  13.578  -4.186  1.00 20.00     0.001 C 
HETATM    3  C3  UNL     1     -34.815  15.462  -3.071  1.00 20.00     0.011 C 
HETATM    4  C4  UNL     1     -35.247  13.437  -4.230  1.00 20.00     0.011 C 
HETATM    5  C5  UNL     1     -37.248  14.882  -3.667  1.00 20.00     0.096 C 
HETATM    6  C6  UNL     1     -35.695  15.601  -5.481  1.00 20.00     0.096 C 
HETATM    7  C7  UNL     1     -35.781  14.876  -4.121  1.00 20.00    -0.022 C 
HETATM    8  S8  UNL     1     -37.885  16.568  -3.839  1.00 20.00    -0.097 SA
HETATM    9  S9  UNL     1     -36.662  17.134  -5.381  1.00 20.00    -0.097 SA
ENDROOT
TORSDOF 0
ENDMDL
