MODEL 1
REMARK VINA RESULT:      -4.3      0.000      0.000
REMARK  1 active torsions:
REMARK  status: ('A' for Active; 'I' for Inactive)
REMARK    1  A    between atoms: C3_3  and  C9_9 
ROOT
HETATM    1  C1  UNL     1     -36.263  15.412  -3.727  1.00 20.00     0.178 C 
HETATM    2  C2  UNL     1     -34.070  15.430  -5.069  1.00 20.00     0.087 C 
HETATM    3  C3  UNL     1     -34.368  15.899  -2.370  1.00 20.00     0.185 C 
HETATM    4  C4  UNL     1     -35.423  14.724  -4.838  1.00 20.00    -0.018 C 
HETATM    5  C5  UNL     1     -35.213  13.236  -4.481  1.00 20.00     0.018 C 
HETATM    6  C6  UNL     1     -36.218  14.762  -6.160  1.00 20.00     0.018 C 
HETATM    7  O10 UNL     1     -35.547  16.406  -2.993  1.00 20.00    -0.374 OA
HETATM    8  S11 UNL     1     -33.041  15.570  -3.572  1.00 20.00    -0.136 SA
ENDROOT
BRANCH   3   9
HETATM    9  C9  UNL     1     -33.883  16.946  -1.378  1.00 20.00     0.017 C 
HETATM   10  C7  UNL     1     -33.735  18.308  -2.057  1.00 20.00     0.013 C 
HETATM   11  C8  UNL     1     -34.836  17.045  -0.186  1.00 20.00     0.013 C 
ENDBRANCH   3   9
TORSDOF 1
ENDMDL
MODEL 2
REMARK VINA RESULT:      -4.2      1.439      2.042
REMARK  1 active torsions:
REMARK  status: ('A' for Active; 'I' for Inactive)
REMARK    1  A    between atoms: C3_3  and  C9_9 
ROOT
HETATM    1  C1  UNL     1     -33.272  14.954  -3.936  1.00 20.00     0.178 C 
HETATM    2  C2  UNL     1     -35.818  14.971  -3.584  1.00 20.00     0.087 C 
HETATM    3  C3  UNL     1     -34.002  16.822  -2.654  1.00 20.00     0.185 C 
HETATM    4  C4  UNL     1     -34.665  14.716  -4.579  1.00 20.00    -0.018 C 
HETATM    5  C5  UNL     1     -34.816  15.603  -5.833  1.00 20.00     0.018 C 
HETATM    6  C6  UNL     1     -34.753  13.249  -5.052  1.00 20.00     0.018 C 
HETATM    7  O10 UNL     1     -33.326  15.566  -2.647  1.00 20.00    -0.374 OA
HETATM    8  S11 UNL     1     -35.803  16.634  -2.842  1.00 20.00    -0.136 SA
ENDROOT
BRANCH   3   9
HETATM    9  C9  UNL     1     -33.716  17.507  -1.325  1.00 20.00     0.017 C 
HETATM   10  C7  UNL     1     -33.687  19.026  -1.494  1.00 20.00     0.013 C 
HETATM   11  C8  UNL     1     -34.754  17.107  -0.275  1.00 20.00     0.013 C 
ENDBRANCH   3   9
TORSDOF 1
ENDMDL
MODEL 3
REMARK VINA RESULT:      -4.2      1.512      2.338
REMARK  1 active torsions:
REMARK  status: ('A' for Active; 'I' for Inactive)
REMARK    1  A    between atoms: C3_3  and  C9_9 
ROOT
HETATM    1  C1  UNL     1     -33.336  15.165  -3.622  1.00 20.00     0.178 C 
HETATM    2  C2  UNL     1     -35.893  14.944  -3.776  1.00 20.00     0.087 C 
HETATM    3  C3  UNL     1     -34.469  17.067  -2.747  1.00 20.00     0.185 C 
HETATM    4  C4  UNL     1     -34.543  14.712  -4.488  1.00 20.00    -0.018 C 
HETATM    5  C5  UNL     1     -34.507  15.443  -5.848  1.00 20.00     0.018 C 
HETATM    6  C6  UNL     1     -34.407  13.203  -4.784  1.00 20.00     0.018 C 
HETATM    7  O10 UNL     1     -33.705  15.899  -2.454  1.00 20.00    -0.374 OA
HETATM    8  S11 UNL     1     -36.170  16.668  -3.256  1.00 20.00    -0.136 SA
ENDROOT
BRANCH   3   9
HETATM    9  C9  UNL     1     -34.521  17.914  -1.483  1.00 20.00     0.017 C 
HETATM   10  C7  UNL     1     -34.711  17.033  -0.249  1.00 20.00     0.013 C 
HETATM   11  C8  UNL     1     -33.254  18.759  -1.345  1.00 20.00     0.013 C 
ENDBRANCH   3   9
TORSDOF 1
ENDMDL
MODEL 4
REMARK VINA RESULT:      -4.1      1.672      2.302
REMARK  1 active torsions:
REMARK  status: ('A' for Active; 'I' for Inactive)
REMARK    1  A    between atoms: C3_3  and  C9_9 
ROOT
HETATM    1  C1  UNL     1     -33.218  16.237  -5.063  1.00 20.00     0.178 C 
HETATM    2  C2  UNL     1     -35.615  15.468  -4.544  1.00 20.00     0.087 C 
HETATM    3  C3  UNL     1     -34.037  17.128  -3.013  1.00 20.00     0.185 C 
HETATM    4  C4  UNL     1     -34.636  15.960  -5.632  1.00 20.00    -0.018 C 
HETATM    5  C5  UNL     1     -35.176  17.231  -6.322  1.00 20.00     0.018 C 
HETATM    6  C6  UNL     1     -34.534  14.867  -6.717  1.00 20.00     0.018 C 
HETATM    7  O10 UNL     1     -33.149  16.203  -3.637  1.00 20.00    -0.374 OA
HETATM    8  S11 UNL     1     -35.774  16.598  -3.124  1.00 20.00    -0.136 SA
ENDROOT
BRANCH   3   9
HETATM    9  C9  UNL     1     -33.646  17.224  -1.545  1.00 20.00     0.017 C 
HETATM   10  C7  UNL     1     -33.329  18.669  -1.162  1.00 20.00     0.013 C 
HETATM   11  C8  UNL     1     -34.754  16.666  -0.652  1.00 20.00     0.013 C 
ENDBRANCH   3   9
TORSDOF 1
ENDMDL
MODEL 5
REMARK VINA RESULT:      -4.1      1.202      4.302
REMARK  1 active torsions:
REMARK  status: ('A' for Active; 'I' for Inactive)
REMARK    1  A    between atoms: C3_3  and  C9_9 
ROOT
HETATM    1  C1  UNL     1     -36.022  16.225  -2.645  1.00 20.00     0.178 C 
HETATM    2  C2  UNL     1     -33.452  16.211  -2.655  1.00 20.00     0.087 C 
HETATM    3  C3  UNL     1     -35.122  15.698  -4.785  1.00 20.00     0.185 C 
HETATM    4  C4  UNL     1     -34.726  16.925  -2.155  1.00 20.00    -0.018 C 
HETATM    5  C5  UNL     1     -34.736  18.404  -2.598  1.00 20.00     0.018 C 
HETATM    6  C6  UNL     1     -34.708  16.918  -0.611  1.00 20.00     0.018 C 
HETATM    7  O10 UNL     1     -35.798  15.212  -3.626  1.00 20.00    -0.374 OA
HETATM    8  S11 UNL     1     -33.362  16.035  -4.465  1.00 20.00    -0.136 SA
ENDROOT
BRANCH   3   9
HETATM    9  C9  UNL     1     -35.229  14.629  -5.863  1.00 20.00     0.017 C 
HETATM   10  C7  UNL     1     -34.421  15.024  -7.099  1.00 20.00     0.013 C 
HETATM   11  C8  UNL     1     -34.761  13.274  -5.331  1.00 20.00     0.013 C 
ENDBRANCH   3   9
TORSDOF 1
ENDMDL
MODEL 6
REMARK VINA RESULT:      -3.9      1.539      4.471
REMARK  1 active torsions:
REMARK  status: ('A' for Active; 'I' for Inactive)
REMARK    1  A    between atoms: C3_3  and  C9_9 
ROOT
HETATM    1  C1  UNL     1     -33.511  16.261  -2.571  1.00 20.00     0.178 C 
HETATM    2  C2  UNL     1     -35.587  17.763  -2.786  1.00 20.00     0.087 C 
HETATM    3  C3  UNL     1     -35.412  15.078  -3.380  1.00 20.00     0.185 C 
HETATM    4  C4  UNL     1     -34.357  17.393  -1.928  1.00 20.00    -0.018 C 
HETATM    5  C5  UNL     1     -34.786  16.975  -0.505  1.00 20.00     0.018 C 
HETATM    6  C6  UNL     1     -33.477  18.653  -1.781  1.00 20.00     0.018 C 
HETATM    7  O10 UNL     1     -34.137  15.636  -3.692  1.00 20.00    -0.374 OA
HETATM    8  S11 UNL     1     -36.687  16.357  -3.149  1.00 20.00    -0.136 SA
ENDROOT
BRANCH   3   9
HETATM    9  C9  UNL     1     -35.820  14.182  -4.541  1.00 20.00     0.017 C 
HETATM   10  C7  UNL     1     -36.183  15.017  -5.768  1.00 20.00     0.013 C 
HETATM   11  C8  UNL     1     -34.705  13.193  -4.880  1.00 20.00     0.013 C 
ENDBRANCH   3   9
TORSDOF 1
ENDMDL
MODEL 7
REMARK VINA RESULT:      -3.9      2.075      4.627
REMARK  1 active torsions:
REMARK  status: ('A' for Active; 'I' for Inactive)
REMARK    1  A    between atoms: C3_3  and  C9_9 
ROOT
HETATM    1  C1  UNL     1     -33.989  16.801  -4.328  1.00 20.00     0.178 C 
HETATM    2  C2  UNL     1     -35.132  14.532  -3.940  1.00 20.00     0.087 C 
HETATM    3  C3  UNL     1     -34.377  15.619  -6.357  1.00 20.00     0.185 C 
HETATM    4  C4  UNL     1     -34.058  15.525  -3.446  1.00 20.00    -0.018 C 
HETATM    5  C5  UNL     1     -32.669  14.851  -3.399  1.00 20.00     0.018 C 
HETATM    6  C6  UNL     1     -34.410  15.934  -2.000  1.00 20.00     0.018 C 
HETATM    7  O10 UNL     1     -34.755  16.718  -5.529  1.00 20.00    -0.374 OA
HETATM    8  S11 UNL     1     -34.929  14.024  -5.678  1.00 20.00    -0.136 SA
ENDROOT
BRANCH   3   9
HETATM    9  C9  UNL     1     -35.026  15.824  -7.719  1.00 20.00     0.017 C 
HETATM   10  C7  UNL     1     -36.247  14.918  -7.879  1.00 20.00     0.013 C 
HETATM   11  C8  UNL     1     -35.418  17.288  -7.918  1.00 20.00     0.013 C 
ENDBRANCH   3   9
TORSDOF 1
ENDMDL
MODEL 8
REMARK VINA RESULT:      -3.8      1.835      4.659
REMARK  1 active torsions:
REMARK  status: ('A' for Active; 'I' for Inactive)
REMARK    1  A    between atoms: C3_3  and  C9_9 
ROOT
HETATM    1  C1  UNL     1     -34.655  16.607  -0.729  1.00 20.00     0.178 C 
HETATM    2  C2  UNL     1     -33.439  18.684  -1.633  1.00 20.00     0.087 C 
HETATM    3  C3  UNL     1     -34.612  16.674  -3.108  1.00 20.00     0.185 C 
HETATM    4  C4  UNL     1     -34.421  18.134  -0.576  1.00 20.00    -0.018 C 
HETATM    5  C5  UNL     1     -35.774  18.875  -0.646  1.00 20.00     0.018 C 
HETATM    6  C6  UNL     1     -33.828  18.411   0.822  1.00 20.00     0.018 C 
HETATM    7  O10 UNL     1     -34.107  16.055  -1.926  1.00 20.00    -0.374 OA
HETATM    8  S11 UNL     1     -33.935  18.346  -3.352  1.00 20.00    -0.136 SA
ENDROOT
BRANCH   3   9
HETATM    9  C9  UNL     1     -34.212  15.804  -4.292  1.00 20.00     0.017 C 
HETATM   10  C7  UNL     1     -33.290  16.571  -5.240  1.00 20.00     0.013 C 
HETATM   11  C8  UNL     1     -33.536  14.518  -3.815  1.00 20.00     0.013 C 
ENDBRANCH   3   9
TORSDOF 1
ENDMDL
MODEL 9
REMARK VINA RESULT:      -3.8     12.148     14.126
REMARK  1 active torsions:
REMARK  status: ('A' for Active; 'I' for Inactive)
REMARK    1  A    between atoms: C3_3  and  C9_9 
ROOT
HETATM    1  C1  UNL     1     -42.088   6.344  -2.609  1.00 20.00     0.178 C 
HETATM    2  C2  UNL     1     -43.184   5.583  -0.412  1.00 20.00     0.087 C 
HETATM    3  C3  UNL     1     -42.151   3.974  -2.396  1.00 20.00     0.185 C 
HETATM    4  C4  UNL     1     -42.227   6.592  -1.083  1.00 20.00    -0.018 C 
HETATM    5  C5  UNL     1     -40.832   6.547  -0.422  1.00 20.00     0.018 C 
HETATM    6  C6  UNL     1     -42.788   8.012  -0.855  1.00 20.00     0.018 C 
HETATM    7  O10 UNL     1     -42.680   5.123  -3.054  1.00 20.00    -0.374 OA
HETATM    8  S11 UNL     1     -42.727   3.839  -0.675  1.00 20.00    -0.136 SA
ENDROOT
BRANCH   3   9
HETATM    9  C9  UNL     1     -42.615   2.746  -3.167  1.00 20.00     0.017 C 
HETATM   10  C7  UNL     1     -41.424   2.008  -3.777  1.00 20.00     0.013 C 
HETATM   11  C8  UNL     1     -43.416   1.810  -2.262  1.00 20.00     0.013 C 
ENDBRANCH   3   9
TORSDOF 1
ENDMDL
