MODEL 1
REMARK VINA RESULT:      -4.2      0.000      0.000
REMARK  5 active torsions:
REMARK  status: ('A' for Active; 'I' for Inactive)
REMARK    1  A    between atoms: C2_2  and  C6_6 
REMARK    2  A    between atoms: C2_2  and  C8_8 
REMARK    3  A    between atoms: C6_6  and  O11_11 
REMARK    4  A    between atoms: C7_7  and  O10_10 
REMARK    5  A    between atoms: C7_7  and  O11_11 
ROOT
HETATM    1  C1  UNL     1     -35.508   5.737   3.447  1.00 20.00     0.209 A 
HETATM    2  C2  UNL     1     -34.325   5.763   4.385  1.00 20.00     0.106 A 
HETATM    3  O9  UNL     1     -34.827   4.535   3.837  1.00 20.00    -0.372 OA
ENDROOT
BRANCH   2   4
HETATM    4  C6  UNL     1     -32.979   6.149   3.863  1.00 20.00     0.211 C 
BRANCH   4   5
HETATM    5  O11 UNL     1     -33.100   7.293   3.019  1.00 20.00    -0.364 OA
BRANCH   5   6
HETATM    6  C7  UNL     1     -31.834   7.742   2.543  1.00 20.00     0.337 C 
BRANCH   6   7
HETATM    7  O10 UNL     1     -31.898   8.480   1.322  1.00 20.00    -0.372 OA
HETATM    8  C5  UNL     1     -32.477   9.766   1.500  1.00 20.00     0.204 C 
ENDBRANCH   6   7
ENDBRANCH   5   6
ENDBRANCH   4   5
ENDBRANCH   2   4
BRANCH   2   9
HETATM    9  C8  UNL     1     -34.558   5.906   5.887  1.00 20.00     0.016 C 
HETATM   10  C3  UNL     1     -34.418   4.554   6.584  1.00 20.00     0.012 C 
HETATM   11  C4  UNL     1     -33.588   6.922   6.487  1.00 20.00     0.012 C 
ENDBRANCH   2   9
TORSDOF 5
ENDMDL
MODEL 2
REMARK VINA RESULT:      -4.2     10.675     12.734
REMARK  5 active torsions:
REMARK  status: ('A' for Active; 'I' for Inactive)
REMARK    1  A    between atoms: C2_2  and  C6_6 
REMARK    2  A    between atoms: C2_2  and  C8_8 
REMARK    3  A    between atoms: C6_6  and  O11_11 
REMARK    4  A    between atoms: C7_7  and  O10_10 
REMARK    5  A    between atoms: C7_7  and  O11_11 
ROOT
HETATM    1  C1  UNL     1     -33.729  13.362  -3.882  1.00 20.00     0.209 A 
HETATM    2  C2  UNL     1     -34.779  14.195  -4.578  1.00 20.00     0.106 A 
HETATM    3  O9  UNL     1     -34.825  12.761  -4.588  1.00 20.00    -0.372 OA
ENDROOT
BRANCH   2   4
HETATM    4  C6  UNL     1     -35.869  14.827  -3.776  1.00 20.00     0.211 C 
BRANCH   4   5
HETATM    5  O11 UNL     1     -37.054  14.038  -3.866  1.00 20.00    -0.364 OA
BRANCH   5   6
HETATM    6  C7  UNL     1     -38.190  14.818  -4.229  1.00 20.00     0.337 C 
BRANCH   6   7
HETATM    7  O10 UNL     1     -39.402  14.072  -4.332  1.00 20.00    -0.372 OA
HETATM    8  C5  UNL     1     -40.217  14.515  -5.409  1.00 20.00     0.204 C 
ENDBRANCH   6   7
ENDBRANCH   5   6
ENDBRANCH   4   5
ENDBRANCH   2   4
BRANCH   2   9
HETATM    9  C8  UNL     1     -34.470  14.810  -5.941  1.00 20.00     0.016 C 
HETATM   10  C3  UNL     1     -35.501  14.365  -6.977  1.00 20.00     0.012 C 
HETATM   11  C4  UNL     1     -34.427  16.333  -5.847  1.00 20.00     0.012 C 
ENDBRANCH   2   9
TORSDOF 5
ENDMDL
MODEL 3
REMARK VINA RESULT:      -4.1     11.456     12.441
REMARK  5 active torsions:
REMARK  status: ('A' for Active; 'I' for Inactive)
REMARK    1  A    between atoms: C2_2  and  C6_6 
REMARK    2  A    between atoms: C2_2  and  C8_8 
REMARK    3  A    between atoms: C6_6  and  O11_11 
REMARK    4  A    between atoms: C7_7  and  O10_10 
REMARK    5  A    between atoms: C7_7  and  O11_11 
ROOT
HETATM    1  C1  UNL     1     -32.821  15.076  -3.641  1.00 20.00     0.209 A 
HETATM    2  C2  UNL     1     -33.976  15.830  -3.027  1.00 20.00     0.106 A 
HETATM    3  O9  UNL     1     -33.454  16.171  -4.319  1.00 20.00    -0.372 OA
ENDROOT
BRANCH   2   4
HETATM    4  C6  UNL     1     -35.348  15.238  -3.069  1.00 20.00     0.211 C 
BRANCH   4   5
HETATM    5  O11 UNL     1     -36.102  15.843  -4.117  1.00 20.00    -0.364 OA
BRANCH   5   6
HETATM    6  C7  UNL     1     -36.991  14.918  -4.739  1.00 20.00     0.337 C 
BRANCH   6   7
HETATM    7  O10 UNL     1     -37.868  14.252  -3.832  1.00 20.00    -0.372 OA
HETATM    8  C5  UNL     1     -39.170  14.821  -3.824  1.00 20.00     0.204 C 
ENDBRANCH   6   7
ENDBRANCH   5   6
ENDBRANCH   4   5
ENDBRANCH   2   4
BRANCH   2   9
HETATM    9  C8  UNL     1     -33.703  16.883  -1.955  1.00 20.00     0.016 C 
HETATM   10  C3  UNL     1     -33.882  18.288  -2.526  1.00 20.00     0.012 C 
HETATM   11  C4  UNL     1     -34.617  16.672  -0.750  1.00 20.00     0.012 C 
ENDBRANCH   2   9
TORSDOF 5
ENDMDL
MODEL 4
REMARK VINA RESULT:      -4.0     10.935     12.325
REMARK  5 active torsions:
REMARK  status: ('A' for Active; 'I' for Inactive)
REMARK    1  A    between atoms: C2_2  and  C6_6 
REMARK    2  A    between atoms: C2_2  and  C8_8 
REMARK    3  A    between atoms: C6_6  and  O11_11 
REMARK    4  A    between atoms: C7_7  and  O10_10 
REMARK    5  A    between atoms: C7_7  and  O11_11 
ROOT
HETATM    1  C1  UNL     1     -33.763  16.715  -5.634  1.00 20.00     0.209 A 
HETATM    2  C2  UNL     1     -34.080  15.866  -4.426  1.00 20.00     0.106 A 
HETATM    3  O9  UNL     1     -32.733  16.235  -4.756  1.00 20.00    -0.372 OA
ENDROOT
BRANCH   2   4
HETATM    4  C6  UNL     1     -34.595  16.517  -3.183  1.00 20.00     0.211 C 
BRANCH   4   5
HETATM    5  O11 UNL     1     -33.595  16.474  -2.167  1.00 20.00    -0.364 OA
BRANCH   5   6
HETATM    6  C7  UNL     1     -33.916  17.317  -1.064  1.00 20.00     0.337 C 
BRANCH   6   7
HETATM    7  O10 UNL     1     -34.808  16.726  -0.119  1.00 20.00    -0.372 OA
HETATM    8  C5  UNL     1     -35.182  17.634   0.909  1.00 20.00     0.204 C 
ENDBRANCH   6   7
ENDBRANCH   5   6
ENDBRANCH   4   5
ENDBRANCH   2   4
BRANCH   2   9
HETATM    9  C8  UNL     1     -34.373  14.379  -4.608  1.00 20.00     0.016 C 
HETATM   10  C3  UNL     1     -33.384  13.535  -3.804  1.00 20.00     0.012 C 
HETATM   11  C4  UNL     1     -35.809  14.060  -4.198  1.00 20.00     0.012 C 
ENDBRANCH   2   9
TORSDOF 5
ENDMDL
MODEL 5
REMARK VINA RESULT:      -4.0     11.630     12.573
REMARK  5 active torsions:
REMARK  status: ('A' for Active; 'I' for Inactive)
REMARK    1  A    between atoms: C2_2  and  C6_6 
REMARK    2  A    between atoms: C2_2  and  C8_8 
REMARK    3  A    between atoms: C6_6  and  O11_11 
REMARK    4  A    between atoms: C7_7  and  O10_10 
REMARK    5  A    between atoms: C7_7  and  O11_11 
ROOT
HETATM    1  C1  UNL     1     -32.809  15.026  -3.637  1.00 20.00     0.209 A 
HETATM    2  C2  UNL     1     -33.948  15.876  -3.127  1.00 20.00     0.106 A 
HETATM    3  O9  UNL     1     -33.226  16.219  -4.318  1.00 20.00    -0.372 OA
ENDROOT
BRANCH   2   4
HETATM    4  C6  UNL     1     -35.357  15.447  -3.379  1.00 20.00     0.211 C 
BRANCH   4   5
HETATM    5  O11 UNL     1     -35.837  16.051  -4.579  1.00 20.00    -0.364 OA
BRANCH   5   6
HETATM    6  C7  UNL     1     -36.335  15.085  -5.502  1.00 20.00     0.337 C 
BRANCH   6   7
HETATM    7  O10 UNL     1     -35.331  14.233  -6.053  1.00 20.00    -0.372 OA
HETATM    8  C5  UNL     1     -34.678  14.822  -7.169  1.00 20.00     0.204 C 
ENDBRANCH   6   7
ENDBRANCH   5   6
ENDBRANCH   4   5
ENDBRANCH   2   4
BRANCH   2   9
HETATM    9  C8  UNL     1     -33.709  16.837  -1.964  1.00 20.00     0.016 C 
HETATM   10  C3  UNL     1     -33.794  18.286  -2.440  1.00 20.00     0.012 C 
HETATM   11  C4  UNL     1     -34.711  16.580  -0.840  1.00 20.00     0.012 C 
ENDBRANCH   2   9
TORSDOF 5
ENDMDL
MODEL 6
REMARK VINA RESULT:      -4.0     11.242     12.558
REMARK  5 active torsions:
REMARK  status: ('A' for Active; 'I' for Inactive)
REMARK    1  A    between atoms: C2_2  and  C6_6 
REMARK    2  A    between atoms: C2_2  and  C8_8 
REMARK    3  A    between atoms: C6_6  and  O11_11 
REMARK    4  A    between atoms: C7_7  and  O10_10 
REMARK    5  A    between atoms: C7_7  and  O11_11 
ROOT
HETATM    1  C1  UNL     1     -33.977  17.312  -1.683  1.00 20.00     0.209 A 
HETATM    2  C2  UNL     1     -34.343  16.525  -2.919  1.00 20.00     0.106 A 
HETATM    3  O9  UNL     1     -34.449  15.959  -1.605  1.00 20.00    -0.372 OA
ENDROOT
BRANCH   2   4
HETATM    4  C6  UNL     1     -35.662  16.763  -3.579  1.00 20.00     0.211 C 
BRANCH   4   5
HETATM    5  O11 UNL     1     -36.629  15.847  -3.069  1.00 20.00    -0.364 OA
BRANCH   5   6
HETATM    6  C7  UNL     1     -36.906  14.793  -3.988  1.00 20.00     0.337 C 
BRANCH   6   7
HETATM    7  O10 UNL     1     -38.153  14.135  -3.764  1.00 20.00    -0.372 OA
HETATM    8  C5  UNL     1     -39.263  14.967  -4.073  1.00 20.00     0.204 C 
ENDBRANCH   6   7
ENDBRANCH   5   6
ENDBRANCH   4   5
ENDBRANCH   2   4
BRANCH   2   9
HETATM    9  C8  UNL     1     -33.239  15.902  -3.770  1.00 20.00     0.016 C 
HETATM   10  C3  UNL     1     -33.316  14.378  -3.718  1.00 20.00     0.012 C 
HETATM   11  C4  UNL     1     -33.330  16.396  -5.212  1.00 20.00     0.012 C 
ENDBRANCH   2   9
TORSDOF 5
ENDMDL
MODEL 7
REMARK VINA RESULT:      -3.9     11.398     12.944
REMARK  5 active torsions:
REMARK  status: ('A' for Active; 'I' for Inactive)
REMARK    1  A    between atoms: C2_2  and  C6_6 
REMARK    2  A    between atoms: C2_2  and  C8_8 
REMARK    3  A    between atoms: C6_6  and  O11_11 
REMARK    4  A    between atoms: C7_7  and  O10_10 
REMARK    5  A    between atoms: C7_7  and  O11_11 
ROOT
HETATM    1  C1  UNL     1     -33.624  17.577  -5.434  1.00 20.00     0.209 A 
HETATM    2  C2  UNL     1     -34.130  16.369  -4.683  1.00 20.00     0.106 A 
HETATM    3  O9  UNL     1     -34.700  17.670  -4.488  1.00 20.00    -0.372 OA
ENDROOT
BRANCH   2   4
HETATM    4  C6  UNL     1     -35.046  15.407  -5.368  1.00 20.00     0.211 C 
BRANCH   4   5
HETATM    5  O11 UNL     1     -36.357  15.514  -4.817  1.00 20.00    -0.364 OA
BRANCH   5   6
HETATM    6  C7  UNL     1     -36.742  14.333  -4.118  1.00 20.00     0.337 C 
BRANCH   6   7
HETATM    7  O10 UNL     1     -38.054  14.387  -3.558  1.00 20.00    -0.372 OA
HETATM    8  C5  UNL     1     -39.039  14.722  -4.525  1.00 20.00     0.204 C 
ENDBRANCH   6   7
ENDBRANCH   5   6
ENDBRANCH   4   5
ENDBRANCH   2   4
BRANCH   2   9
HETATM    9  C8  UNL     1     -33.350  15.851  -3.477  1.00 20.00     0.016 C 
HETATM   10  C3  UNL     1     -34.133  16.092  -2.188  1.00 20.00     0.012 C 
HETATM   11  C4  UNL     1     -33.029  14.367  -3.641  1.00 20.00     0.012 C 
ENDBRANCH   2   9
TORSDOF 5
ENDMDL
MODEL 8
REMARK VINA RESULT:      -3.9      0.618      1.220
REMARK  5 active torsions:
REMARK  status: ('A' for Active; 'I' for Inactive)
REMARK    1  A    between atoms: C2_2  and  C6_6 
REMARK    2  A    between atoms: C2_2  and  C8_8 
REMARK    3  A    between atoms: C6_6  and  O11_11 
REMARK    4  A    between atoms: C7_7  and  O10_10 
REMARK    5  A    between atoms: C7_7  and  O11_11 
ROOT
HETATM    1  C1  UNL     1     -35.714   5.497   3.637  1.00 20.00     0.209 A 
HETATM    2  C2  UNL     1     -34.396   5.897   4.256  1.00 20.00     0.106 A 
HETATM    3  O9  UNL     1     -34.485   4.842   3.288  1.00 20.00    -0.372 OA
ENDROOT
BRANCH   2   4
HETATM    4  C6  UNL     1     -33.686   7.113   3.756  1.00 20.00     0.211 C 
BRANCH   4   5
HETATM    5  O11 UNL     1     -32.627   6.729   2.882  1.00 20.00    -0.364 OA
BRANCH   5   6
HETATM    6  C7  UNL     1     -31.758   7.818   2.583  1.00 20.00     0.337 C 
BRANCH   6   7
HETATM    7  O10 UNL     1     -31.951   8.381   1.286  1.00 20.00    -0.372 OA
HETATM    8  C5  UNL     1     -32.415   9.724   1.345  1.00 20.00     0.204 C 
ENDBRANCH   6   7
ENDBRANCH   5   6
ENDBRANCH   4   5
ENDBRANCH   2   4
BRANCH   2   9
HETATM    9  C8  UNL     1     -34.046   5.414   5.662  1.00 20.00     0.016 C 
HETATM   10  C3  UNL     1     -33.954   6.595   6.626  1.00 20.00     0.012 C 
HETATM   11  C4  UNL     1     -35.076   4.399   6.153  1.00 20.00     0.012 C 
ENDBRANCH   2   9
TORSDOF 5
ENDMDL
MODEL 9
REMARK VINA RESULT:      -3.8     11.013     12.679
REMARK  5 active torsions:
REMARK  status: ('A' for Active; 'I' for Inactive)
REMARK    1  A    between atoms: C2_2  and  C6_6 
REMARK    2  A    between atoms: C2_2  and  C8_8 
REMARK    3  A    between atoms: C6_6  and  O11_11 
REMARK    4  A    between atoms: C7_7  and  O10_10 
REMARK    5  A    between atoms: C7_7  and  O11_11 
ROOT
HETATM    1  C1  UNL     1     -34.763  13.148  -4.384  1.00 20.00     0.209 A 
HETATM    2  C2  UNL     1     -34.871  14.450  -5.140  1.00 20.00     0.106 A 
HETATM    3  O9  UNL     1     -35.780  14.115  -4.082  1.00 20.00    -0.372 OA
ENDROOT
BRANCH   2   4
HETATM    4  C6  UNL     1     -33.946  15.575  -4.804  1.00 20.00     0.211 C 
BRANCH   4   5
HETATM    5  O11 UNL     1     -34.612  16.510  -3.957  1.00 20.00    -0.364 OA
BRANCH   5   6
HETATM    6  C7  UNL     1     -33.902  16.730  -2.740  1.00 20.00     0.337 C 
BRANCH   6   7
HETATM    7  O10 UNL     1     -34.434  16.026  -1.619  1.00 20.00    -0.372 OA
HETATM    8  C5  UNL     1     -34.685  16.884  -0.514  1.00 20.00     0.204 C 
ENDBRANCH   6   7
ENDBRANCH   5   6
ENDBRANCH   4   5
ENDBRANCH   2   4
BRANCH   2   9
HETATM    9  C8  UNL     1     -35.515  14.467  -6.524  1.00 20.00     0.016 C 
HETATM   10  C3  UNL     1     -36.805  15.286  -6.506  1.00 20.00     0.012 C 
HETATM   11  C4  UNL     1     -34.542  15.019  -7.563  1.00 20.00     0.012 C 
ENDBRANCH   2   9
TORSDOF 5
ENDMDL
