MODEL 1
REMARK VINA RESULT:      -5.3      0.000      0.000
REMARK  1 active torsions:
REMARK  status: ('A' for Active; 'I' for Inactive)
REMARK    1  A    between atoms: C5_5  and  C10_10 
ROOT
HETATM    1  C6  UNL     1     -34.466  13.850  -5.293  1.00 20.00     0.005 C 
HETATM    2  C7  UNL     1     -35.315  13.622  -4.033  1.00 20.00     0.005 C 
HETATM    3  C8  UNL     1     -33.369  15.855  -4.251  1.00 20.00     0.014 C 
HETATM    4  C9  UNL     1     -35.679  15.835  -4.790  1.00 20.00     0.010 C 
HETATM    5  C10 UNL     1     -34.140  15.543  -2.944  1.00 20.00     0.023 C 
HETATM    6  C11 UNL     1     -34.336  15.381  -5.351  1.00 20.00    -0.013 C 
HETATM    7  C12 UNL     1     -35.509  15.050  -3.484  1.00 20.00    -0.006 C 
ENDROOT
BRANCH   5   8
HETATM    8  C5  UNL     1     -34.158  16.728  -1.993  1.00 20.00    -0.051 A 
HETATM    9  C1  UNL     1     -33.678  17.964  -2.408  1.00 20.00     0.026 A 
HETATM   10  C3  UNL     1     -33.716  19.013  -1.502  1.00 20.00     0.116 A 
HETATM   11  N13 UNL     1     -34.193  18.907  -0.242  1.00 20.00    -0.273 NA
HETATM   12  C4  UNL     1     -34.652  17.689   0.126  1.00 20.00     0.116 A 
HETATM   13  C2  UNL     1     -34.657  16.579  -0.703  1.00 20.00     0.026 A 
ENDBRANCH   5   8
TORSDOF 1
ENDMDL
MODEL 2
REMARK VINA RESULT:      -5.3      0.055      1.305
REMARK  1 active torsions:
REMARK  status: ('A' for Active; 'I' for Inactive)
REMARK    1  A    between atoms: C5_5  and  C10_10 
ROOT
HETATM    1  C6  UNL     1     -34.421  13.882  -5.335  1.00 20.00     0.005 C 
HETATM    2  C7  UNL     1     -35.272  13.630  -4.081  1.00 20.00     0.005 C 
HETATM    3  C8  UNL     1     -33.337  15.876  -4.258  1.00 20.00     0.014 C 
HETATM    4  C9  UNL     1     -35.645  15.853  -4.803  1.00 20.00     0.010 C 
HETATM    5  C10 UNL     1     -34.110  15.540  -2.959  1.00 20.00     0.023 C 
HETATM    6  C11 UNL     1     -34.298  15.415  -5.368  1.00 20.00    -0.013 C 
HETATM    7  C12 UNL     1     -35.475  15.049  -3.509  1.00 20.00    -0.006 C 
ENDROOT
BRANCH   5   8
HETATM    8  C5  UNL     1     -34.137  16.710  -1.988  1.00 20.00    -0.051 A 
HETATM    9  C1  UNL     1     -34.682  16.552  -0.719  1.00 20.00     0.026 A 
HETATM   10  C3  UNL     1     -34.682  17.649   0.127  1.00 20.00     0.116 A 
HETATM   11  N13 UNL     1     -34.185  18.861  -0.205  1.00 20.00    -0.273 NA
HETATM   12  C4  UNL     1     -33.663  18.977  -1.447  1.00 20.00     0.116 A 
HETATM   13  C2  UNL     1     -33.615  17.942  -2.367  1.00 20.00     0.026 A 
ENDBRANCH   5   8
TORSDOF 1
ENDMDL
MODEL 3
REMARK VINA RESULT:      -5.2      0.868      1.722
REMARK  1 active torsions:
REMARK  status: ('A' for Active; 'I' for Inactive)
REMARK    1  A    between atoms: C5_5  and  C10_10 
ROOT
HETATM    1  C6  UNL     1     -34.427  14.338  -5.320  1.00 20.00     0.005 C 
HETATM    2  C7  UNL     1     -33.849  15.737  -5.581  1.00 20.00     0.005 C 
HETATM    3  C8  UNL     1     -34.995  14.959  -2.953  1.00 20.00     0.014 C 
HETATM    4  C9  UNL     1     -32.748  14.812  -3.701  1.00 20.00     0.010 C 
HETATM    5  C10 UNL     1     -34.521  16.400  -3.265  1.00 20.00     0.023 C 
HETATM    6  C11 UNL     1     -34.084  14.091  -3.841  1.00 20.00    -0.013 C 
HETATM    7  C12 UNL     1     -33.306  16.150  -4.197  1.00 20.00    -0.006 C 
ENDROOT
BRANCH   5   8
HETATM    8  C5  UNL     1     -34.267  17.206  -2.001  1.00 20.00    -0.051 A 
HETATM    9  C1  UNL     1     -33.553  18.396  -2.063  1.00 20.00     0.026 A 
HETATM   10  C3  UNL     1     -33.349  19.093  -0.882  1.00 20.00     0.116 A 
HETATM   11  N13 UNL     1     -33.803  18.687   0.324  1.00 20.00    -0.273 NA
HETATM   12  C4  UNL     1     -34.493  17.524   0.346  1.00 20.00     0.116 A 
HETATM   13  C2  UNL     1     -34.751  16.754  -0.777  1.00 20.00     0.026 A 
ENDBRANCH   5   8
TORSDOF 1
ENDMDL
MODEL 4
REMARK VINA RESULT:      -5.2      2.304      4.881
REMARK  1 active torsions:
REMARK  status: ('A' for Active; 'I' for Inactive)
REMARK    1  A    between atoms: C5_5  and  C10_10 
ROOT
HETATM    1  C6  UNL     1     -33.963  19.017  -0.717  1.00 20.00     0.005 C 
HETATM    2  C7  UNL     1     -33.362  18.978  -2.131  1.00 20.00     0.005 C 
HETATM    3  C8  UNL     1     -34.595  16.590  -0.865  1.00 20.00     0.014 C 
HETATM    4  C9  UNL     1     -35.604  18.229  -2.251  1.00 20.00     0.010 C 
HETATM    5  C10 UNL     1     -33.879  16.532  -2.237  1.00 20.00     0.023 C 
HETATM    6  C11 UNL     1     -35.138  18.029  -0.813  1.00 20.00    -0.013 C 
HETATM    7  C12 UNL     1     -34.226  17.917  -2.844  1.00 20.00    -0.006 C 
ENDROOT
BRANCH   5   8
HETATM    8  C5  UNL     1     -34.278  15.306  -3.041  1.00 20.00    -0.051 A 
HETATM    9  C1  UNL     1     -35.617  15.058  -3.318  1.00 20.00     0.026 A 
HETATM   10  C3  UNL     1     -35.929  13.926  -4.055  1.00 20.00     0.116 A 
HETATM   11  N13 UNL     1     -35.011  13.050  -4.521  1.00 20.00    -0.273 NA
HETATM   12  C4  UNL     1     -33.718  13.324  -4.232  1.00 20.00     0.116 A 
HETATM   13  C2  UNL     1     -33.304  14.428  -3.504  1.00 20.00     0.026 A 
ENDBRANCH   5   8
TORSDOF 1
ENDMDL
MODEL 5
REMARK VINA RESULT:      -5.1      2.110      4.840
REMARK  1 active torsions:
REMARK  status: ('A' for Active; 'I' for Inactive)
REMARK    1  A    between atoms: C5_5  and  C10_10 
ROOT
HETATM    1  C6  UNL     1     -33.976  18.312   0.491  1.00 20.00     0.005 C 
HETATM    2  C7  UNL     1     -32.957  18.739  -0.577  1.00 20.00     0.005 C 
HETATM    3  C8  UNL     1     -34.739  16.389  -0.934  1.00 20.00     0.014 C 
HETATM    4  C9  UNL     1     -35.099  18.643  -1.582  1.00 20.00     0.010 C 
HETATM    5  C10 UNL     1     -33.627  16.756  -1.948  1.00 20.00     0.023 C 
HETATM    6  C11 UNL     1     -35.140  17.753  -0.344  1.00 20.00    -0.013 C 
HETATM    7  C12 UNL     1     -33.636  18.307  -1.894  1.00 20.00    -0.006 C 
ENDROOT
BRANCH   5   8
HETATM    8  C5  UNL     1     -33.853  16.111  -3.306  1.00 20.00    -0.051 A 
HETATM    9  C1  UNL     1     -33.485  16.780  -4.467  1.00 20.00     0.026 A 
HETATM   10  C3  UNL     1     -33.712  16.149  -5.680  1.00 20.00     0.116 A 
HETATM   11  N13 UNL     1     -34.269  14.924  -5.802  1.00 20.00    -0.273 NA
HETATM   12  C4  UNL     1     -34.615  14.303  -4.651  1.00 20.00     0.116 A 
HETATM   13  C2  UNL     1     -34.430  14.849  -3.390  1.00 20.00     0.026 A 
ENDBRANCH   5   8
TORSDOF 1
ENDMDL
MODEL 6
REMARK VINA RESULT:      -5.0      2.252      4.875
REMARK  1 active torsions:
REMARK  status: ('A' for Active; 'I' for Inactive)
REMARK    1  A    between atoms: C5_5  and  C10_10 
ROOT
HETATM    1  C6  UNL     1     -34.994  19.242  -0.595  1.00 20.00     0.005 C 
HETATM    2  C7  UNL     1     -35.491  17.944   0.058  1.00 20.00     0.005 C 
HETATM    3  C8  UNL     1     -34.606  18.055  -2.775  1.00 20.00     0.014 C 
HETATM    4  C9  UNL     1     -33.335  17.552  -0.836  1.00 20.00     0.010 C 
HETATM    5  C10 UNL     1     -35.222  16.783  -2.141  1.00 20.00     0.023 C 
HETATM    6  C11 UNL     1     -33.922  18.746  -1.581  1.00 20.00    -0.013 C 
HETATM    7  C12 UNL     1     -34.691  16.854  -0.685  1.00 20.00    -0.006 C 
ENDROOT
BRANCH   5   8
HETATM    8  C5  UNL     1     -34.893  15.530  -2.936  1.00 20.00    -0.051 A 
HETATM    9  C1  UNL     1     -35.913  14.774  -3.502  1.00 20.00     0.026 A 
HETATM   10  C3  UNL     1     -35.561  13.640  -4.216  1.00 20.00     0.116 A 
HETATM   11  N13 UNL     1     -34.288  13.226  -4.398  1.00 20.00    -0.273 NA
HETATM   12  C4  UNL     1     -33.322  13.985  -3.833  1.00 20.00     0.116 A 
HETATM   13  C2  UNL     1     -33.570  15.135  -3.100  1.00 20.00     0.026 A 
ENDBRANCH   5   8
TORSDOF 1
ENDMDL
MODEL 7
REMARK VINA RESULT:      -4.9     12.899     15.360
REMARK  1 active torsions:
REMARK  status: ('A' for Active; 'I' for Inactive)
REMARK    1  A    between atoms: C5_5  and  C10_10 
ROOT
HETATM    1  C6  UNL     1     -41.312   7.035  -0.794  1.00 20.00     0.005 C 
HETATM    2  C7  UNL     1     -42.348   6.919  -1.922  1.00 20.00     0.005 C 
HETATM    3  C8  UNL     1     -40.696   4.612  -1.043  1.00 20.00     0.014 C 
HETATM    4  C9  UNL     1     -42.841   5.284  -0.283  1.00 20.00     0.010 C 
HETATM    5  C10 UNL     1     -41.655   4.539  -2.257  1.00 20.00     0.023 C 
HETATM    6  C11 UNL     1     -41.369   5.650  -0.127  1.00 20.00    -0.013 C 
HETATM    7  C12 UNL     1     -42.823   5.456  -1.806  1.00 20.00    -0.006 C 
ENDROOT
BRANCH   5   8
HETATM    8  C5  UNL     1     -42.004   3.106  -2.626  1.00 20.00    -0.051 A 
HETATM    9  C1  UNL     1     -41.187   2.390  -3.493  1.00 20.00     0.026 A 
HETATM   10  C3  UNL     1     -41.550   1.087  -3.798  1.00 20.00     0.116 A 
HETATM   11  N13 UNL     1     -42.647   0.472  -3.304  1.00 20.00    -0.273 NA
HETATM   12  C4  UNL     1     -43.417   1.200  -2.464  1.00 20.00     0.116 A 
HETATM   13  C2  UNL     1     -43.142   2.508  -2.097  1.00 20.00     0.026 A 
ENDBRANCH   5   8
TORSDOF 1
ENDMDL
MODEL 8
REMARK VINA RESULT:      -4.8      1.212      2.041
REMARK  1 active torsions:
REMARK  status: ('A' for Active; 'I' for Inactive)
REMARK    1  A    between atoms: C5_5  and  C10_10 
ROOT
HETATM    1  C6  UNL     1     -34.195  15.597  -5.029  1.00 20.00     0.005 C 
HETATM    2  C7  UNL     1     -33.604  14.740  -3.898  1.00 20.00     0.005 C 
HETATM    3  C8  UNL     1     -34.397  17.574  -3.492  1.00 20.00     0.014 C 
HETATM    4  C9  UNL     1     -35.684  15.606  -3.172  1.00 20.00     0.010 C 
HETATM    5  C10 UNL     1     -33.691  16.738  -2.396  1.00 20.00     0.023 C 
HETATM    6  C11 UNL     1     -35.182  16.515  -4.288  1.00 20.00    -0.013 C 
HETATM    7  C12 UNL     1     -34.276  15.322  -2.637  1.00 20.00    -0.006 C 
ENDROOT
BRANCH   5   8
HETATM    8  C5  UNL     1     -33.876  17.336  -1.010  1.00 20.00    -0.051 A 
HETATM    9  C1  UNL     1     -34.967  16.968  -0.232  1.00 20.00     0.026 A 
HETATM   10  C3  UNL     1     -35.091  17.541   1.024  1.00 20.00     0.116 A 
HETATM   11  N13 UNL     1     -34.216  18.434   1.537  1.00 20.00    -0.273 NA
HETATM   12  C4  UNL     1     -33.167  18.768   0.752  1.00 20.00     0.116 A 
HETATM   13  C2  UNL     1     -32.954  18.252  -0.517  1.00 20.00     0.026 A 
ENDBRANCH   5   8
TORSDOF 1
ENDMDL
MODEL 9
REMARK VINA RESULT:      -4.7     13.188     15.615
REMARK  1 active torsions:
REMARK  status: ('A' for Active; 'I' for Inactive)
REMARK    1  A    between atoms: C5_5  and  C10_10 
ROOT
HETATM    1  C6  UNL     1     -42.458   6.896  -0.518  1.00 20.00     0.005 C 
HETATM    2  C7  UNL     1     -42.862   5.696   0.353  1.00 20.00     0.005 C 
HETATM    3  C8  UNL     1     -42.315   5.432  -2.555  1.00 20.00     0.014 C 
HETATM    4  C9  UNL     1     -40.821   5.181  -0.729  1.00 20.00     0.010 C 
HETATM    5  C10 UNL     1     -42.839   4.257  -1.693  1.00 20.00     0.023 C 
HETATM    6  C11 UNL     1     -41.504   6.270  -1.550  1.00 20.00    -0.013 C 
HETATM    7  C12 UNL     1     -42.143   4.515  -0.331  1.00 20.00    -0.006 C 
ENDROOT
BRANCH   5   8
HETATM    8  C5  UNL     1     -42.593   2.909  -2.351  1.00 20.00    -0.051 A 
HETATM    9  C1  UNL     1     -43.417   1.829  -2.060  1.00 20.00     0.026 A 
HETATM   10  C3  UNL     1     -43.150   0.621  -2.686  1.00 20.00     0.116 A 
HETATM   11  N13 UNL     1     -42.139   0.431  -3.562  1.00 20.00    -0.273 NA
HETATM   12  C4  UNL     1     -41.358   1.504  -3.821  1.00 20.00     0.116 A 
HETATM   13  C2  UNL     1     -41.541   2.753  -3.248  1.00 20.00     0.026 A 
ENDBRANCH   5   8
TORSDOF 1
ENDMDL
