MODEL 1
REMARK VINA RESULT:      -4.2      0.000      0.000
REMARK  2 active torsions:
REMARK  status: ('A' for Active; 'I' for Inactive)
REMARK    1  A    between atoms: C5_5  and  C6_6 
REMARK    2  A    between atoms: C6_6  and  C7_7 
ROOT
HETATM    1  C1  UNL     1     -34.556  13.724  -4.268  1.00 20.00     0.068 C 
HETATM    2  C3  UNL     1     -34.210  16.026  -5.068  1.00 20.00     0.031 C 
HETATM    3  C4  UNL     1     -32.526  14.919  -3.592  1.00 20.00     0.031 C 
HETATM    4  C7  UNL     1     -34.030  15.057  -3.892  1.00 20.00     0.042 C 
HETATM    5  N8  UNL     1     -34.966  12.680  -4.564  1.00 20.00    -0.196 NA
ENDROOT
BRANCH   4   6
HETATM    6  C6  UNL     1     -34.741  15.570  -2.612  1.00 20.00     0.023 C 
BRANCH   6   7
HETATM    7  C5  UNL     1     -33.975  16.637  -1.818  1.00 20.00    -0.003 C 
HETATM    8  C2  UNL     1     -34.658  16.934  -0.490  1.00 20.00     0.005 C 
ENDBRANCH   6   7
ENDBRANCH   4   6
TORSDOF 2
ENDMDL
MODEL 2
REMARK VINA RESULT:      -4.1     11.675     12.368
REMARK  2 active torsions:
REMARK  status: ('A' for Active; 'I' for Inactive)
REMARK    1  A    between atoms: C5_5  and  C6_6 
REMARK    2  A    between atoms: C6_6  and  C7_7 
ROOT
HETATM    1  C1  UNL     1     -34.230   6.151   5.546  1.00 20.00     0.068 C 
HETATM    2  C3  UNL     1     -35.919   5.909   3.773  1.00 20.00     0.031 C 
HETATM    3  C4  UNL     1     -34.733   3.910   4.691  1.00 20.00     0.031 C 
HETATM    4  C7  UNL     1     -34.579   5.397   4.320  1.00 20.00     0.042 C 
HETATM    5  N8  UNL     1     -33.956   6.741   6.507  1.00 20.00    -0.196 NA
ENDROOT
BRANCH   4   6
HETATM    6  C6  UNL     1     -33.444   5.527   3.270  1.00 20.00     0.023 C 
BRANCH   6   7
HETATM    7  C5  UNL     1     -32.368   6.572   3.593  1.00 20.00    -0.003 C 
HETATM    8  C2  UNL     1     -32.253   7.608   2.483  1.00 20.00     0.005 C 
ENDBRANCH   6   7
ENDBRANCH   4   6
TORSDOF 2
ENDMDL
MODEL 3
REMARK VINA RESULT:      -3.9      1.560      1.881
REMARK  2 active torsions:
REMARK  status: ('A' for Active; 'I' for Inactive)
REMARK    1  A    between atoms: C5_5  and  C6_6 
REMARK    2  A    between atoms: C6_6  and  C7_7 
ROOT
HETATM    1  C1  UNL     1     -36.516  14.412  -3.991  1.00 20.00     0.068 C 
HETATM    2  C3  UNL     1     -34.892  15.612  -5.399  1.00 20.00     0.031 C 
HETATM    3  C4  UNL     1     -34.580  13.191  -4.865  1.00 20.00     0.031 C 
HETATM    4  C7  UNL     1     -35.076  14.541  -4.315  1.00 20.00     0.042 C 
HETATM    5  N8  UNL     1     -37.644  14.311  -3.739  1.00 20.00    -0.196 NA
ENDROOT
BRANCH   4   6
HETATM    6  C6  UNL     1     -34.268  14.877  -3.034  1.00 20.00     0.023 C 
BRANCH   6   7
HETATM    7  C5  UNL     1     -34.303  16.349  -2.603  1.00 20.00    -0.003 C 
HETATM    8  C2  UNL     1     -34.636  16.484  -1.123  1.00 20.00     0.005 C 
ENDBRANCH   6   7
ENDBRANCH   4   6
TORSDOF 2
ENDMDL
MODEL 4
REMARK VINA RESULT:      -3.9      1.027      1.671
REMARK  2 active torsions:
REMARK  status: ('A' for Active; 'I' for Inactive)
REMARK    1  A    between atoms: C5_5  and  C6_6 
REMARK    2  A    between atoms: C6_6  and  C7_7 
ROOT
HETATM    1  C1  UNL     1     -34.969  13.759  -4.263  1.00 20.00     0.068 C 
HETATM    2  C3  UNL     1     -36.605  15.366  -3.370  1.00 20.00     0.031 C 
HETATM    3  C4  UNL     1     -34.935  16.065  -5.093  1.00 20.00     0.031 C 
HETATM    4  C7  UNL     1     -35.163  15.171  -3.860  1.00 20.00     0.042 C 
HETATM    5  N8  UNL     1     -34.817  12.653  -4.581  1.00 20.00    -0.196 NA
ENDROOT
BRANCH   4   6
HETATM    6  C6  UNL     1     -34.129  15.563  -2.771  1.00 20.00     0.023 C 
BRANCH   6   7
HETATM    7  C5  UNL     1     -34.710  16.273  -1.541  1.00 20.00    -0.003 C 
HETATM    8  C2  UNL     1     -33.780  17.375  -1.050  1.00 20.00     0.005 C 
ENDBRANCH   6   7
ENDBRANCH   4   6
TORSDOF 2
ENDMDL
MODEL 5
REMARK VINA RESULT:      -3.8      1.795      2.401
REMARK  2 active torsions:
REMARK  status: ('A' for Active; 'I' for Inactive)
REMARK    1  A    between atoms: C5_5  and  C6_6 
REMARK    2  A    between atoms: C6_6  and  C7_7 
ROOT
HETATM    1  C1  UNL     1     -33.654  15.982  -4.606  1.00 20.00     0.068 C 
HETATM    2  C3  UNL     1     -33.450  13.691  -3.730  1.00 20.00     0.031 C 
HETATM    3  C4  UNL     1     -35.581  14.477  -4.772  1.00 20.00     0.031 C 
HETATM    4  C7  UNL     1     -34.381  14.899  -3.904  1.00 20.00     0.042 C 
HETATM    5  N8  UNL     1     -33.085  16.830  -5.158  1.00 20.00    -0.196 NA
ENDROOT
BRANCH   4   6
HETATM    6  C6  UNL     1     -34.916  15.411  -2.540  1.00 20.00     0.023 C 
BRANCH   6   7
HETATM    7  C5  UNL     1     -34.072  16.504  -1.872  1.00 20.00    -0.003 C 
HETATM    8  C2  UNL     1     -34.637  16.883  -0.510  1.00 20.00     0.005 C 
ENDBRANCH   6   7
ENDBRANCH   4   6
TORSDOF 2
ENDMDL
MODEL 6
REMARK VINA RESULT:      -3.7      1.056      3.319
REMARK  2 active torsions:
REMARK  status: ('A' for Active; 'I' for Inactive)
REMARK    1  A    between atoms: C5_5  and  C6_6 
REMARK    2  A    between atoms: C6_6  and  C7_7 
ROOT
HETATM    1  C1  UNL     1     -34.712  13.769  -4.113  1.00 20.00     0.068 C 
HETATM    2  C3  UNL     1     -32.738  15.175  -3.684  1.00 20.00     0.031 C 
HETATM    3  C4  UNL     1     -34.902  15.618  -2.516  1.00 20.00     0.031 C 
HETATM    4  C7  UNL     1     -34.265  15.154  -3.840  1.00 20.00     0.042 C 
HETATM    5  N8  UNL     1     -35.062  12.683  -4.326  1.00 20.00    -0.196 NA
ENDROOT
BRANCH   4   6
HETATM    6  C6  UNL     1     -34.739  16.103  -4.972  1.00 20.00     0.023 C 
BRANCH   6   7
HETATM    7  C5  UNL     1     -33.913  16.047  -6.264  1.00 20.00    -0.003 C 
HETATM    8  C2  UNL     1     -34.650  15.287  -7.358  1.00 20.00     0.005 C 
ENDBRANCH   6   7
ENDBRANCH   4   6
TORSDOF 2
ENDMDL
MODEL 7
REMARK VINA RESULT:      -3.7      2.069      3.909
REMARK  2 active torsions:
REMARK  status: ('A' for Active; 'I' for Inactive)
REMARK    1  A    between atoms: C5_5  and  C6_6 
REMARK    2  A    between atoms: C6_6  and  C7_7 
ROOT
HETATM    1  C1  UNL     1     -36.789  14.541  -3.883  1.00 20.00     0.068 C 
HETATM    2  C3  UNL     1     -34.566  13.485  -3.870  1.00 20.00     0.031 C 
HETATM    3  C4  UNL     1     -34.945  15.683  -2.742  1.00 20.00     0.031 C 
HETATM    4  C7  UNL     1     -35.334  14.811  -3.951  1.00 20.00     0.042 C 
HETATM    5  N8  UNL     1     -37.929  14.328  -3.828  1.00 20.00    -0.196 NA
ENDROOT
BRANCH   4   6
HETATM    6  C6  UNL     1     -34.996  15.592  -5.249  1.00 20.00     0.023 C 
BRANCH   6   7
HETATM    7  C5  UNL     1     -34.532  14.731  -6.431  1.00 20.00    -0.003 C 
HETATM    8  C2  UNL     1     -35.632  14.587  -7.474  1.00 20.00     0.005 C 
ENDBRANCH   6   7
ENDBRANCH   4   6
TORSDOF 2
ENDMDL
MODEL 8
REMARK VINA RESULT:      -3.7     11.587     12.285
REMARK  2 active torsions:
REMARK  status: ('A' for Active; 'I' for Inactive)
REMARK    1  A    between atoms: C5_5  and  C6_6 
REMARK    2  A    between atoms: C6_6  and  C7_7 
ROOT
HETATM    1  C1  UNL     1     -34.707   4.333   4.781  1.00 20.00     0.068 C 
HETATM    2  C3  UNL     1     -34.157   6.658   5.372  1.00 20.00     0.031 C 
HETATM    3  C4  UNL     1     -35.832   6.154   3.587  1.00 20.00     0.031 C 
HETATM    4  C7  UNL     1     -34.510   5.694   4.230  1.00 20.00     0.042 C 
HETATM    5  N8  UNL     1     -34.862   3.267   5.213  1.00 20.00    -0.196 NA
ENDROOT
BRANCH   4   6
HETATM    6  C6  UNL     1     -33.411   5.674   3.135  1.00 20.00     0.023 C 
BRANCH   6   7
HETATM    7  C5  UNL     1     -32.207   6.589   3.397  1.00 20.00    -0.003 C 
HETATM    8  C2  UNL     1     -32.165   7.744   2.405  1.00 20.00     0.005 C 
ENDBRANCH   6   7
ENDBRANCH   4   6
TORSDOF 2
ENDMDL
MODEL 9
REMARK VINA RESULT:      -3.6      1.730      2.992
REMARK  2 active torsions:
REMARK  status: ('A' for Active; 'I' for Inactive)
REMARK    1  A    between atoms: C5_5  and  C6_6 
REMARK    2  A    between atoms: C6_6  and  C7_7 
ROOT
HETATM    1  C1  UNL     1     -36.481  14.579  -3.783  1.00 20.00     0.068 C 
HETATM    2  C3  UNL     1     -34.215  13.624  -3.687  1.00 20.00     0.031 C 
HETATM    3  C4  UNL     1     -34.755  15.756  -2.501  1.00 20.00     0.031 C 
HETATM    4  C7  UNL     1     -35.039  14.917  -3.761  1.00 20.00     0.042 C 
HETATM    5  N8  UNL     1     -37.611  14.315  -3.798  1.00 20.00    -0.196 NA
ENDROOT
BRANCH   4   6
HETATM    6  C6  UNL     1     -34.669  15.763  -5.008  1.00 20.00     0.023 C 
BRANCH   6   7
HETATM    7  C5  UNL     1     -33.343  16.529  -4.912  1.00 20.00    -0.003 C 
HETATM    8  C2  UNL     1     -33.525  17.995  -5.279  1.00 20.00     0.005 C 
ENDBRANCH   6   7
ENDBRANCH   4   6
TORSDOF 2
ENDMDL
