MODEL 1
REMARK VINA RESULT:      -4.5      0.000      0.000
REMARK  2 active torsions:
REMARK  status: ('A' for Active; 'I' for Inactive)
REMARK    1  A    between atoms: C1_1  and  C5_5 
REMARK    2  A    between atoms: C5_5  and  C6_6 
ROOT
HETATM    1  C2  UNL     1     -34.889   5.397   3.525  1.00 20.00     0.019 C 
HETATM    2  C5  UNL     1     -34.065   6.477   4.228  1.00 20.00     0.071 C 
ENDROOT
BRANCH   2   3
HETATM    3  C1  UNL     1     -34.084   6.159   5.724  1.00 20.00     0.223 C 
HETATM    4  O7  UNL     1     -33.583   6.913   6.555  1.00 20.00    -0.279 OA
HETATM    5 CL8  UNL     1     -34.855   4.639   6.078  1.00 20.00    -0.043 Cl
ENDBRANCH   2   3
BRANCH   2   6
HETATM    6  C6  UNL     1     -32.607   6.572   3.711  1.00 20.00    -0.011 C 
HETATM    7  C3  UNL     1     -32.179   5.319   2.941  1.00 20.00     0.010 C 
HETATM    8  C4  UNL     1     -32.426   7.798   2.805  1.00 20.00     0.010 C 
ENDBRANCH   2   6
TORSDOF 2
ENDMDL
MODEL 2
REMARK VINA RESULT:      -4.1      2.468      3.551
REMARK  2 active torsions:
REMARK  status: ('A' for Active; 'I' for Inactive)
REMARK    1  A    between atoms: C1_1  and  C5_5 
REMARK    2  A    between atoms: C5_5  and  C6_6 
ROOT
HETATM    1  C2  UNL     1     -33.340   6.839   6.130  1.00 20.00     0.019 C 
HETATM    2  C5  UNL     1     -33.812   6.554   4.704  1.00 20.00     0.071 C 
ENDROOT
BRANCH   2   3
HETATM    3  C1  UNL     1     -32.574   6.559   3.807  1.00 20.00     0.223 C 
HETATM    4  O7  UNL     1     -32.411   5.725   2.920  1.00 20.00    -0.279 OA
HETATM    5 CL8  UNL     1     -31.457   7.833   4.210  1.00 20.00    -0.043 Cl
ENDBRANCH   2   3
BRANCH   2   6
HETATM    6  C6  UNL     1     -34.578   5.214   4.566  1.00 20.00    -0.011 C 
HETATM    7  C3  UNL     1     -34.944   4.609   5.925  1.00 20.00     0.010 C 
HETATM    8  C4  UNL     1     -35.861   5.399   3.743  1.00 20.00     0.010 C 
ENDBRANCH   2   6
TORSDOF 2
ENDMDL
MODEL 3
REMARK VINA RESULT:      -4.1     11.348     12.175
REMARK  2 active torsions:
REMARK  status: ('A' for Active; 'I' for Inactive)
REMARK    1  A    between atoms: C1_1  and  C5_5 
REMARK    2  A    between atoms: C5_5  and  C6_6 
ROOT
HETATM    1  C2  UNL     1     -36.013  15.483  -4.434  1.00 20.00     0.019 C 
HETATM    2  C5  UNL     1     -35.204  14.904  -3.273  1.00 20.00     0.071 C 
ENDROOT
BRANCH   2   3
HETATM    3  C1  UNL     1     -34.496  13.653  -3.793  1.00 20.00     0.223 C 
HETATM    4  O7  UNL     1     -35.113  12.725  -4.312  1.00 20.00    -0.279 OA
HETATM    5 CL8  UNL     1     -32.774  13.700  -3.541  1.00 20.00    -0.043 Cl
ENDBRANCH   2   3
BRANCH   2   6
HETATM    6  C6  UNL     1     -34.178  15.902  -2.680  1.00 20.00    -0.011 C 
HETATM    7  C3  UNL     1     -33.949  17.112  -3.591  1.00 20.00     0.010 C 
HETATM    8  C4  UNL     1     -34.631  16.398  -1.300  1.00 20.00     0.010 C 
ENDBRANCH   2   6
TORSDOF 2
ENDMDL
MODEL 4
REMARK VINA RESULT:      -4.0      2.216      3.427
REMARK  2 active torsions:
REMARK  status: ('A' for Active; 'I' for Inactive)
REMARK    1  A    between atoms: C1_1  and  C5_5 
REMARK    2  A    between atoms: C5_5  and  C6_6 
ROOT
HETATM    1  C2  UNL     1     -35.809   5.662   3.730  1.00 20.00     0.019 C 
HETATM    2  C5  UNL     1     -34.357   5.318   4.065  1.00 20.00     0.071 C 
ENDROOT
BRANCH   2   3
HETATM    3  C1  UNL     1     -33.488   6.459   3.537  1.00 20.00     0.223 C 
HETATM    4  O7  UNL     1     -33.932   7.594   3.378  1.00 20.00    -0.279 OA
HETATM    5 CL8  UNL     1     -31.860   5.955   3.179  1.00 20.00    -0.043 Cl
ENDBRANCH   2   3
BRANCH   2   6
HETATM    6  C6  UNL     1     -34.110   5.102   5.580  1.00 20.00    -0.011 C 
HETATM    7  C3  UNL     1     -34.092   6.420   6.360  1.00 20.00     0.010 C 
HETATM    8  C4  UNL     1     -35.181   4.183   6.183  1.00 20.00     0.010 C 
ENDBRANCH   2   6
TORSDOF 2
ENDMDL
MODEL 5
REMARK VINA RESULT:      -3.9      1.933      2.472
REMARK  2 active torsions:
REMARK  status: ('A' for Active; 'I' for Inactive)
REMARK    1  A    between atoms: C1_1  and  C5_5 
REMARK    2  A    between atoms: C5_5  and  C6_6 
ROOT
HETATM    1  C2  UNL     1     -34.042   6.513   6.184  1.00 20.00     0.019 C 
HETATM    2  C5  UNL     1     -33.745   5.643   4.962  1.00 20.00     0.071 C 
ENDROOT
BRANCH   2   3
HETATM    3  C1  UNL     1     -35.015   4.851   4.651  1.00 20.00     0.223 C 
HETATM    4  O7  UNL     1     -35.168   3.692   5.029  1.00 20.00    -0.279 OA
HETATM    5 CL8  UNL     1     -36.161   5.761   3.707  1.00 20.00    -0.043 Cl
ENDBRANCH   2   3
BRANCH   2   6
HETATM    6  C6  UNL     1     -33.294   6.457   3.723  1.00 20.00    -0.011 C 
HETATM    7  C3  UNL     1     -32.019   7.263   3.987  1.00 20.00     0.010 C 
HETATM    8  C4  UNL     1     -33.058   5.535   2.519  1.00 20.00     0.010 C 
ENDBRANCH   2   6
TORSDOF 2
ENDMDL
MODEL 6
REMARK VINA RESULT:      -3.9     12.074     12.513
REMARK  2 active torsions:
REMARK  status: ('A' for Active; 'I' for Inactive)
REMARK    1  A    between atoms: C1_1  and  C5_5 
REMARK    2  A    between atoms: C5_5  and  C6_6 
ROOT
HETATM    1  C2  UNL     1     -36.199  16.020  -4.439  1.00 20.00     0.019 C 
HETATM    2  C5  UNL     1     -35.613  14.840  -3.661  1.00 20.00     0.071 C 
ENDROOT
BRANCH   2   3
HETATM    3  C1  UNL     1     -35.288  13.745  -4.677  1.00 20.00     0.223 C 
HETATM    4  O7  UNL     1     -35.002  12.601  -4.330  1.00 20.00    -0.279 OA
HETATM    5 CL8  UNL     1     -35.348  14.314  -6.321  1.00 20.00    -0.043 Cl
ENDBRANCH   2   3
BRANCH   2   6
HETATM    6  C6  UNL     1     -34.353  15.211  -2.839  1.00 20.00    -0.011 C 
HETATM    7  C3  UNL     1     -33.231  15.777  -3.715  1.00 20.00     0.010 C 
HETATM    8  C4  UNL     1     -34.693  16.233  -1.746  1.00 20.00     0.010 C 
ENDBRANCH   2   6
TORSDOF 2
ENDMDL
MODEL 7
REMARK VINA RESULT:      -3.8      2.529      3.444
REMARK  2 active torsions:
REMARK  status: ('A' for Active; 'I' for Inactive)
REMARK    1  A    between atoms: C1_1  and  C5_5 
REMARK    2  A    between atoms: C5_5  and  C6_6 
ROOT
HETATM    1  C2  UNL     1     -32.676   5.459   2.311  1.00 20.00     0.019 C 
HETATM    2  C5  UNL     1     -32.603   6.155   3.670  1.00 20.00     0.071 C 
ENDROOT
BRANCH   2   3
HETATM    3  C1  UNL     1     -31.842   7.466   3.468  1.00 20.00     0.223 C 
HETATM    4  O7  UNL     1     -31.084   7.916   4.323  1.00 20.00    -0.279 OA
HETATM    5 CL8  UNL     1     -32.196   8.219   1.938  1.00 20.00    -0.043 Cl
ENDBRANCH   2   3
BRANCH   2   6
HETATM    6  C6  UNL     1     -33.994   6.426   4.298  1.00 20.00    -0.011 C 
HETATM    7  C3  UNL     1     -35.063   5.453   3.788  1.00 20.00     0.010 C 
HETATM    8  C4  UNL     1     -33.932   6.335   5.829  1.00 20.00     0.010 C 
ENDBRANCH   2   6
TORSDOF 2
ENDMDL
MODEL 8
REMARK VINA RESULT:      -3.7     11.504     12.393
REMARK  2 active torsions:
REMARK  status: ('A' for Active; 'I' for Inactive)
REMARK    1  A    between atoms: C1_1  and  C5_5 
REMARK    2  A    between atoms: C5_5  and  C6_6 
ROOT
HETATM    1  C2  UNL     1     -32.833  14.047  -3.526  1.00 20.00     0.019 C 
HETATM    2  C5  UNL     1     -33.977  14.727  -4.279  1.00 20.00     0.071 C 
ENDROOT
BRANCH   2   3
HETATM    3  C1  UNL     1     -35.192  13.803  -4.186  1.00 20.00     0.223 C 
HETATM    4  O7  UNL     1     -35.102  12.591  -4.368  1.00 20.00    -0.279 OA
HETATM    5 CL8  UNL     1     -36.664  14.660  -3.830  1.00 20.00    -0.043 Cl
ENDBRANCH   2   3
BRANCH   2   6
HETATM    6  C6  UNL     1     -34.322  16.135  -3.731  1.00 20.00    -0.011 C 
HETATM    7  C3  UNL     1     -33.891  16.314  -2.273  1.00 20.00     0.010 C 
HETATM    8  C4  UNL     1     -33.663  17.230  -4.582  1.00 20.00     0.010 C 
ENDBRANCH   2   6
TORSDOF 2
ENDMDL
MODEL 9
REMARK VINA RESULT:      -3.7     12.017     13.134
REMARK  2 active torsions:
REMARK  status: ('A' for Active; 'I' for Inactive)
REMARK    1  A    between atoms: C1_1  and  C5_5 
REMARK    2  A    between atoms: C5_5  and  C6_6 
ROOT
HETATM    1  C2  UNL     1     -36.526  14.867  -4.966  1.00 20.00     0.019 C 
HETATM    2  C5  UNL     1     -35.001  14.915  -5.077  1.00 20.00     0.071 C 
ENDROOT
BRANCH   2   3
HETATM    3  C1  UNL     1     -34.461  13.635  -4.439  1.00 20.00     0.223 C 
HETATM    4  O7  UNL     1     -35.077  12.573  -4.490  1.00 20.00    -0.279 OA
HETATM    5 CL8  UNL     1     -32.933  13.874  -3.640  1.00 20.00    -0.043 Cl
ENDBRANCH   2   3
BRANCH   2   6
HETATM    6  C6  UNL     1     -34.495  15.052  -6.535  1.00 20.00    -0.011 C 
HETATM    7  C3  UNL     1     -35.454  14.418  -7.547  1.00 20.00     0.010 C 
HETATM    8  C4  UNL     1     -34.285  16.526  -6.906  1.00 20.00     0.010 C 
ENDBRANCH   2   6
TORSDOF 2
ENDMDL
