MODEL 1
REMARK VINA RESULT:      -5.1      0.000      0.000
REMARK  1 active torsions:
REMARK  status: ('A' for Active; 'I' for Inactive)
REMARK    1  A    between atoms: C1_1  and  C5_5 
ROOT
HETATM    1  C2  UNL     1     -32.890  14.210  -3.551  1.00 20.00     0.006 C 
HETATM    2  C3  UNL     1     -32.914  15.535  -4.332  1.00 20.00     0.011 C 
HETATM    3  C4  UNL     1     -34.616  13.265  -5.059  1.00 20.00     0.017 C 
HETATM    4  C5  UNL     1     -34.594  14.576  -5.875  1.00 20.00     0.056 C 
HETATM    5  C6  UNL     1     -34.364  13.751  -3.612  1.00 20.00    -0.005 C 
HETATM    6  C7  UNL     1     -34.408  15.661  -4.766  1.00 20.00    -0.027 C 
HETATM    7  C8  UNL     1     -35.160  15.076  -3.528  1.00 20.00    -0.036 C 
HETATM    8  C9  UNL     1     -34.756  17.081  -5.177  1.00 20.00     0.016 C 
HETATM    9  C10 UNL     1     -34.952  15.857  -2.212  1.00 20.00     0.016 C 
HETATM   10  C11 UNL     1     -36.684  14.893  -3.662  1.00 20.00     0.016 C 
ENDROOT
BRANCH   4  11
HETATM   11  C1  UNL     1     -35.800  14.713  -6.757  1.00 20.00     0.236 C 
HETATM   12  O12 UNL     1     -35.838  14.317  -7.917  1.00 20.00    -0.306 OA
ENDBRANCH   4  11
TORSDOF 1
ENDMDL
MODEL 2
REMARK VINA RESULT:      -5.0      1.614      2.882
REMARK  1 active torsions:
REMARK  status: ('A' for Active; 'I' for Inactive)
REMARK    1  A    between atoms: C1_1  and  C5_5 
ROOT
HETATM    1  C2  UNL     1     -33.652  16.744  -5.485  1.00 20.00     0.006 C 
HETATM    2  C3  UNL     1     -33.961  17.249  -4.066  1.00 20.00     0.011 C 
HETATM    3  C4  UNL     1     -35.737  15.403  -5.486  1.00 20.00     0.017 C 
HETATM    4  C5  UNL     1     -36.072  15.958  -4.085  1.00 20.00     0.056 C 
HETATM    5  C6  UNL     1     -34.193  15.298  -5.459  1.00 20.00    -0.005 C 
HETATM    6  C7  UNL     1     -34.668  16.025  -3.403  1.00 20.00    -0.027 C 
HETATM    7  C8  UNL     1     -33.885  14.822  -4.018  1.00 20.00    -0.036 C 
HETATM    8  C9  UNL     1     -34.682  16.137  -1.889  1.00 20.00     0.016 C 
HETATM    9  C10 UNL     1     -32.380  14.779  -3.674  1.00 20.00     0.016 C 
HETATM   10  C11 UNL     1     -34.419  13.411  -3.704  1.00 20.00     0.016 C 
ENDROOT
BRANCH   4  11
HETATM   11  C1  UNL     1     -37.121  15.142  -3.390  1.00 20.00     0.236 C 
HETATM   12  O12 UNL     1     -37.739  14.232  -3.932  1.00 20.00    -0.306 OA
ENDBRANCH   4  11
TORSDOF 1
ENDMDL
MODEL 3
REMARK VINA RESULT:      -4.9      1.686      3.156
REMARK  1 active torsions:
REMARK  status: ('A' for Active; 'I' for Inactive)
REMARK    1  A    between atoms: C1_1  and  C5_5 
ROOT
HETATM    1  C2  UNL     1     -35.411  17.231  -1.868  1.00 20.00     0.006 C 
HETATM    2  C3  UNL     1     -34.181  16.306  -1.854  1.00 20.00     0.011 C 
HETATM    3  C4  UNL     1     -36.568  15.704  -3.442  1.00 20.00     0.017 C 
HETATM    4  C5  UNL     1     -35.354  14.751  -3.379  1.00 20.00     0.056 C 
HETATM    5  C6  UNL     1     -35.918  17.104  -3.321  1.00 20.00    -0.005 C 
HETATM    6  C7  UNL     1     -34.149  15.742  -3.309  1.00 20.00    -0.027 C 
HETATM    7  C8  UNL     1     -34.616  16.973  -4.150  1.00 20.00    -0.036 C 
HETATM    8  C9  UNL     1     -32.794  15.147  -3.651  1.00 20.00     0.016 C 
HETATM    9  C10 UNL     1     -33.689  18.206  -4.069  1.00 20.00     0.016 C 
HETATM   10  C11 UNL     1     -34.858  16.738  -5.652  1.00 20.00     0.016 C 
ENDROOT
BRANCH   4  11
HETATM   11  C1  UNL     1     -35.352  13.764  -4.510  1.00 20.00     0.236 C 
HETATM   12  O12 UNL     1     -35.013  12.592  -4.383  1.00 20.00    -0.306 OA
ENDBRANCH   4  11
TORSDOF 1
ENDMDL
MODEL 4
REMARK VINA RESULT:      -4.9      1.715      2.838
REMARK  1 active torsions:
REMARK  status: ('A' for Active; 'I' for Inactive)
REMARK    1  A    between atoms: C1_1  and  C5_5 
ROOT
HETATM    1  C2  UNL     1     -34.756  13.279  -4.992  1.00 20.00     0.006 C 
HETATM    2  C3  UNL     1     -34.308  13.814  -3.621  1.00 20.00     0.011 C 
HETATM    3  C4  UNL     1     -34.104  15.417  -6.064  1.00 20.00     0.017 C 
HETATM    4  C5  UNL     1     -33.603  15.928  -4.696  1.00 20.00     0.056 C 
HETATM    5  C6  UNL     1     -35.320  14.539  -5.684  1.00 20.00    -0.005 C 
HETATM    6  C7  UNL     1     -34.656  15.333  -3.706  1.00 20.00    -0.027 C 
HETATM    7  C8  UNL     1     -35.986  15.321  -4.524  1.00 20.00    -0.036 C 
HETATM    8  C9  UNL     1     -34.697  15.978  -2.332  1.00 20.00     0.016 C 
HETATM    9  C10 UNL     1     -37.158  14.575  -3.850  1.00 20.00     0.016 C 
HETATM   10  C11 UNL     1     -36.556  16.688  -4.946  1.00 20.00     0.016 C 
ENDROOT
BRANCH   4  11
HETATM   11  C1  UNL     1     -33.428  17.418  -4.679  1.00 20.00     0.236 C 
HETATM   12  O12 UNL     1     -33.413  18.108  -5.693  1.00 20.00    -0.306 OA
ENDBRANCH   4  11
TORSDOF 1
ENDMDL
MODEL 5
REMARK VINA RESULT:      -4.8      1.708      2.600
REMARK  1 active torsions:
REMARK  status: ('A' for Active; 'I' for Inactive)
REMARK    1  A    between atoms: C1_1  and  C5_5 
ROOT
HETATM    1  C2  UNL     1     -33.844  17.375  -3.537  1.00 20.00     0.006 C 
HETATM    2  C3  UNL     1     -33.310  16.978  -4.924  1.00 20.00     0.011 C 
HETATM    3  C4  UNL     1     -34.560  15.039  -3.120  1.00 20.00     0.017 C 
HETATM    4  C5  UNL     1     -33.970  14.633  -4.489  1.00 20.00     0.056 C 
HETATM    5  C6  UNL     1     -35.086  16.471  -3.377  1.00 20.00    -0.005 C 
HETATM    6  C7  UNL     1     -34.310  15.870  -5.382  1.00 20.00    -0.027 C 
HETATM    7  C8  UNL     1     -35.666  16.395  -4.811  1.00 20.00    -0.036 C 
HETATM    8  C9  UNL     1     -34.238  15.632  -6.880  1.00 20.00     0.016 C 
HETATM    9  C10 UNL     1     -36.129  17.754  -5.379  1.00 20.00     0.016 C 
HETATM   10  C11 UNL     1     -36.882  15.459  -4.938  1.00 20.00     0.016 C 
ENDROOT
BRANCH   4  11
HETATM   11  C1  UNL     1     -34.485  13.304  -4.954  1.00 20.00     0.236 C 
HETATM   12  O12 UNL     1     -35.138  12.546  -4.245  1.00 20.00    -0.306 OA
ENDBRANCH   4  11
TORSDOF 1
ENDMDL
MODEL 6
REMARK VINA RESULT:      -4.7      2.161      3.614
REMARK  1 active torsions:
REMARK  status: ('A' for Active; 'I' for Inactive)
REMARK    1  A    between atoms: C1_1  and  C5_5 
ROOT
HETATM    1  C2  UNL     1     -33.351  13.839  -3.835  1.00 20.00     0.006 C 
HETATM    2  C3  UNL     1     -34.867  13.582  -3.813  1.00 20.00     0.011 C 
HETATM    3  C4  UNL     1     -33.687  16.042  -2.748  1.00 20.00     0.017 C 
HETATM    4  C5  UNL     1     -35.202  15.755  -2.676  1.00 20.00     0.056 C 
HETATM    5  C6  UNL     1     -33.265  15.363  -4.074  1.00 20.00    -0.005 C 
HETATM    6  C7  UNL     1     -35.468  15.007  -4.023  1.00 20.00    -0.027 C 
HETATM    7  C8  UNL     1     -34.455  15.648  -5.024  1.00 20.00    -0.036 C 
HETATM    8  C9  UNL     1     -36.922  14.946  -4.458  1.00 20.00     0.016 C 
HETATM    9  C10 UNL     1     -34.355  14.940  -6.392  1.00 20.00     0.016 C 
HETATM   10  C11 UNL     1     -34.646  17.142  -5.346  1.00 20.00     0.016 C 
ENDROOT
BRANCH   4  11
HETATM   11  C1  UNL     1     -36.002  16.999  -2.425  1.00 20.00     0.236 C 
HETATM   12  O12 UNL     1     -35.511  18.048  -2.022  1.00 20.00    -0.306 OA
ENDBRANCH   4  11
TORSDOF 1
ENDMDL
MODEL 7
REMARK VINA RESULT:      -4.7      1.914      2.758
REMARK  1 active torsions:
REMARK  status: ('A' for Active; 'I' for Inactive)
REMARK    1  A    between atoms: C1_1  and  C5_5 
ROOT
HETATM    1  C2  UNL     1     -34.786  13.400  -5.201  1.00 20.00     0.006 C 
HETATM    2  C3  UNL     1     -34.429  14.670  -5.993  1.00 20.00     0.011 C 
HETATM    3  C4  UNL     1     -36.507  14.651  -3.928  1.00 20.00     0.017 C 
HETATM    4  C5  UNL     1     -36.186  15.908  -4.766  1.00 20.00     0.056 C 
HETATM    5  C6  UNL     1     -35.130  13.955  -3.801  1.00 20.00    -0.005 C 
HETATM    6  C7  UNL     1     -34.636  15.808  -4.945  1.00 20.00    -0.027 C 
HETATM    7  C8  UNL     1     -34.141  15.134  -3.626  1.00 20.00    -0.036 C 
HETATM    8  C9  UNL     1     -33.944  17.092  -5.366  1.00 20.00     0.016 C 
HETATM    9  C10 UNL     1     -32.654  14.717  -3.626  1.00 20.00     0.016 C 
HETATM   10  C11 UNL     1     -34.347  15.926  -2.321  1.00 20.00     0.016 C 
ENDROOT
BRANCH   4  11
HETATM   11  C1  UNL     1     -36.712  17.161  -4.130  1.00 20.00     0.236 C 
HETATM   12  O12 UNL     1     -37.532  17.162  -3.219  1.00 20.00    -0.306 OA
ENDBRANCH   4  11
TORSDOF 1
ENDMDL
MODEL 8
REMARK VINA RESULT:      -4.7      1.707      2.909
REMARK  1 active torsions:
REMARK  status: ('A' for Active; 'I' for Inactive)
REMARK    1  A    between atoms: C1_1  and  C5_5 
ROOT
HETATM    1  C2  UNL     1     -33.069  14.716  -3.495  1.00 20.00     0.006 C 
HETATM    2  C3  UNL     1     -33.838  13.982  -4.607  1.00 20.00     0.011 C 
HETATM    3  C4  UNL     1     -35.205  15.459  -2.479  1.00 20.00     0.017 C 
HETATM    4  C5  UNL     1     -35.973  14.673  -3.564  1.00 20.00     0.056 C 
HETATM    5  C6  UNL     1     -33.949  15.958  -3.233  1.00 20.00    -0.005 C 
HETATM    6  C7  UNL     1     -35.086  14.893  -4.831  1.00 20.00    -0.027 C 
HETATM    7  C8  UNL     1     -34.489  16.323  -4.638  1.00 20.00    -0.036 C 
HETATM    8  C9  UNL     1     -35.762  14.601  -6.159  1.00 20.00     0.016 C 
HETATM    9  C10 UNL     1     -33.393  16.714  -5.654  1.00 20.00     0.016 C 
HETATM   10  C11 UNL     1     -35.485  17.498  -4.633  1.00 20.00     0.016 C 
ENDROOT
BRANCH   4  11
HETATM   11  C1  UNL     1     -37.408  15.100  -3.662  1.00 20.00     0.236 C 
HETATM   12  O12 UNL     1     -38.350  14.316  -3.623  1.00 20.00    -0.306 OA
ENDBRANCH   4  11
TORSDOF 1
ENDMDL
MODEL 9
REMARK VINA RESULT:      -4.7      2.458      3.777
REMARK  1 active torsions:
REMARK  status: ('A' for Active; 'I' for Inactive)
REMARK    1  A    between atoms: C1_1  and  C5_5 
ROOT
HETATM    1  C2  UNL     1     -35.225  13.273  -4.456  1.00 20.00     0.006 C 
HETATM    2  C3  UNL     1     -36.295  14.317  -4.095  1.00 20.00     0.011 C 
HETATM    3  C4  UNL     1     -33.537  14.511  -3.129  1.00 20.00     0.017 C 
HETATM    4  C5  UNL     1     -34.628  15.525  -2.722  1.00 20.00     0.056 C 
HETATM    5  C6  UNL     1     -33.941  14.123  -4.572  1.00 20.00    -0.005 C 
HETATM    6  C7  UNL     1     -35.480  15.646  -4.027  1.00 20.00    -0.027 C 
HETATM    7  C8  UNL     1     -34.443  15.456  -5.180  1.00 20.00    -0.036 C 
HETATM    8  C9  UNL     1     -36.383  16.865  -4.105  1.00 20.00     0.016 C 
HETATM    9  C10 UNL     1     -35.057  15.316  -6.590  1.00 20.00     0.016 C 
HETATM   10  C11 UNL     1     -33.346  16.529  -5.313  1.00 20.00     0.016 C 
ENDROOT
BRANCH   4  11
HETATM   11  C1  UNL     1     -34.044  16.795  -2.177  1.00 20.00     0.236 C 
HETATM   12  O12 UNL     1     -33.866  16.998  -0.980  1.00 20.00    -0.306 OA
ENDBRANCH   4  11
TORSDOF 1
ENDMDL
