MODEL 1
REMARK VINA RESULT:      -3.5      0.000      0.000
REMARK  3 active torsions:
REMARK  status: ('A' for Active; 'I' for Inactive)
REMARK    1  A    between atoms: C1_1  and  C3_3 
REMARK    2  A    between atoms: C2_2  and  C3_3 
REMARK    3  A    between atoms: C2_2  and  S6_6 
ROOT
HETATM    1  C3  UNL     1     -33.907   5.628   4.940  1.00 20.00     0.192 C 
HETATM    2 CL7  UNL     1     -34.159   6.329   6.576  1.00 20.00    -0.113 Cl
ENDROOT
BRANCH   1   3
HETATM    3  C1  UNL     1     -35.126   4.723   4.701  1.00 20.00     0.192 C 
HETATM    4  O4  UNL     1     -36.010   5.221   3.944  1.00 20.00    -0.647 OA
HETATM    5  O5  UNL     1     -35.108   3.602   5.281  1.00 20.00    -0.647 OA
ENDBRANCH   1   3
BRANCH   1   6
HETATM    6  C2  UNL     1     -33.695   6.771   3.955  1.00 20.00     0.102 C 
BRANCH   6   7
HETATM    7  S6  UNL     1     -32.066   6.658   3.149  1.00 20.00    -0.180 SA
HETATM    8  H11 UNL     1     -32.283   7.639   2.263  1.00 20.00     0.101 HD
ENDBRANCH   6   7
ENDBRANCH   1   6
TORSDOF 3
ENDMDL
MODEL 2
REMARK VINA RESULT:      -3.5      0.933      1.202
REMARK  3 active torsions:
REMARK  status: ('A' for Active; 'I' for Inactive)
REMARK    1  A    between atoms: C1_1  and  C3_3 
REMARK    2  A    between atoms: C2_2  and  C3_3 
REMARK    3  A    between atoms: C2_2  and  S6_6 
ROOT
HETATM    1  C3  UNL     1     -33.860   5.512   5.174  1.00 20.00     0.192 C 
HETATM    2 CL7  UNL     1     -33.950   6.724   6.498  1.00 20.00    -0.113 Cl
ENDROOT
BRANCH   1   3
HETATM    3  C1  UNL     1     -34.915   4.453   5.532  1.00 20.00     0.192 C 
HETATM    4  O4  UNL     1     -35.453   4.609   6.667  1.00 20.00    -0.647 OA
HETATM    5  O5  UNL     1     -35.122   3.559   4.665  1.00 20.00    -0.647 OA
ENDBRANCH   1   3
BRANCH   1   6
HETATM    6  C2  UNL     1     -34.036   6.237   3.846  1.00 20.00     0.102 C 
BRANCH   6   7
HETATM    7  S6  UNL     1     -32.430   6.745   3.152  1.00 20.00    -0.180 SA
HETATM    8  H11 UNL     1     -32.747   8.038   3.007  1.00 20.00     0.101 HD
ENDBRANCH   6   7
ENDBRANCH   1   6
TORSDOF 3
ENDMDL
MODEL 3
REMARK VINA RESULT:      -3.4     12.846     13.265
REMARK  3 active torsions:
REMARK  status: ('A' for Active; 'I' for Inactive)
REMARK    1  A    between atoms: C1_1  and  C3_3 
REMARK    2  A    between atoms: C2_2  and  C3_3 
REMARK    3  A    between atoms: C2_2  and  S6_6 
ROOT
HETATM    1  C3  UNL     1     -34.332  14.901  -4.778  1.00 20.00     0.192 C 
HETATM    2 CL7  UNL     1     -34.416  14.737  -6.566  1.00 20.00    -0.113 Cl
ENDROOT
BRANCH   1   3
HETATM    3  C1  UNL     1     -34.119  13.472  -4.256  1.00 20.00     0.192 C 
HETATM    4  O4  UNL     1     -35.088  12.685  -4.469  1.00 20.00    -0.647 OA
HETATM    5  O5  UNL     1     -33.018  13.247  -3.681  1.00 20.00    -0.647 OA
ENDBRANCH   1   3
BRANCH   1   6
HETATM    6  C2  UNL     1     -33.254  15.925  -4.439  1.00 20.00     0.102 C 
BRANCH   6   7
HETATM    7  S6  UNL     1     -33.627  17.546  -5.180  1.00 20.00    -0.180 SA
HETATM    8  H11 UNL     1     -33.001  18.271  -4.243  1.00 20.00     0.101 HD
ENDBRANCH   6   7
ENDBRANCH   1   6
TORSDOF 3
ENDMDL
MODEL 4
REMARK VINA RESULT:      -3.4     12.851     13.292
REMARK  3 active torsions:
REMARK  status: ('A' for Active; 'I' for Inactive)
REMARK    1  A    between atoms: C1_1  and  C3_3 
REMARK    2  A    between atoms: C2_2  and  C3_3 
REMARK    3  A    between atoms: C2_2  and  S6_6 
ROOT
HETATM    1  C3  UNL     1     -34.327  14.910  -4.780  1.00 20.00     0.192 C 
HETATM    2 CL7  UNL     1     -34.399  14.759  -6.570  1.00 20.00    -0.113 Cl
ENDROOT
BRANCH   1   3
HETATM    3  C1  UNL     1     -34.124  13.475  -4.268  1.00 20.00     0.192 C 
HETATM    4  O4  UNL     1     -33.017  13.276  -3.687  1.00 20.00    -0.647 OA
HETATM    5  O5  UNL     1     -35.070  12.668  -4.484  1.00 20.00    -0.647 OA
ENDBRANCH   1   3
BRANCH   1   6
HETATM    6  C2  UNL     1     -33.247  15.926  -4.427  1.00 20.00     0.102 C 
BRANCH   6   7
HETATM    7  S6  UNL     1     -33.613  17.557  -5.148  1.00 20.00    -0.180 SA
HETATM    8  H11 UNL     1     -32.795  18.249  -4.343  1.00 20.00     0.101 HD
ENDBRANCH   6   7
ENDBRANCH   1   6
TORSDOF 3
ENDMDL
MODEL 5
REMARK VINA RESULT:      -3.4     12.195     12.484
REMARK  3 active torsions:
REMARK  status: ('A' for Active; 'I' for Inactive)
REMARK    1  A    between atoms: C1_1  and  C3_3 
REMARK    2  A    between atoms: C2_2  and  C3_3 
REMARK    3  A    between atoms: C2_2  and  S6_6 
ROOT
HETATM    1  C3  UNL     1     -34.625  14.972  -4.187  1.00 20.00     0.192 C 
HETATM    2 CL7  UNL     1     -33.079  15.889  -4.176  1.00 20.00    -0.113 Cl
ENDROOT
BRANCH   1   3
HETATM    3  C1  UNL     1     -34.214  13.496  -4.067  1.00 20.00     0.192 C 
HETATM    4  O4  UNL     1     -35.118  12.671  -4.389  1.00 20.00    -0.647 OA
HETATM    5  O5  UNL     1     -33.038  13.277  -3.664  1.00 20.00    -0.647 OA
ENDBRANCH   1   3
BRANCH   1   6
HETATM    6  C2  UNL     1     -35.521  15.529  -3.088  1.00 20.00     0.102 C 
BRANCH   6   7
HETATM    7  S6  UNL     1     -34.541  16.320  -1.773  1.00 20.00    -0.180 SA
HETATM    8  H11 UNL     1     -34.894  15.463  -0.805  1.00 20.00     0.101 HD
ENDBRANCH   6   7
ENDBRANCH   1   6
TORSDOF 3
ENDMDL
MODEL 6
REMARK VINA RESULT:      -3.4      2.205      2.416
REMARK  3 active torsions:
REMARK  status: ('A' for Active; 'I' for Inactive)
REMARK    1  A    between atoms: C1_1  and  C3_3 
REMARK    2  A    between atoms: C2_2  and  C3_3 
REMARK    3  A    between atoms: C2_2  and  S6_6 
ROOT
HETATM    1  C3  UNL     1     -34.071   6.436   4.368  1.00 20.00     0.192 C 
HETATM    2 CL7  UNL     1     -35.338   5.376   3.658  1.00 20.00    -0.113 Cl
ENDROOT
BRANCH   1   3
HETATM    3  C1  UNL     1     -34.131   6.169   5.880  1.00 20.00     0.192 C 
HETATM    4  O4  UNL     1     -34.858   5.187   6.212  1.00 20.00    -0.647 OA
HETATM    5  O5  UNL     1     -33.458   6.949   6.610  1.00 20.00    -0.647 OA
ENDBRANCH   1   3
BRANCH   1   6
HETATM    6  C2  UNL     1     -32.750   6.141   3.668  1.00 20.00     0.102 C 
BRANCH   6   7
HETATM    7  S6  UNL     1     -32.175   7.577   2.708  1.00 20.00    -0.180 SA
HETATM    8  H11 UNL     1     -32.884   8.488   3.388  1.00 20.00     0.101 HD
ENDBRANCH   6   7
ENDBRANCH   1   6
TORSDOF 3
ENDMDL
MODEL 7
REMARK VINA RESULT:      -3.3     12.285     12.755
REMARK  3 active torsions:
REMARK  status: ('A' for Active; 'I' for Inactive)
REMARK    1  A    between atoms: C1_1  and  C3_3 
REMARK    2  A    between atoms: C2_2  and  C3_3 
REMARK    3  A    between atoms: C2_2  and  S6_6 
ROOT
HETATM    1  C3  UNL     1     -34.181  14.911  -4.271  1.00 20.00     0.192 C 
HETATM    2 CL7  UNL     1     -34.729  15.500  -2.664  1.00 20.00    -0.113 Cl
ENDROOT
BRANCH   1   3
HETATM    3  C1  UNL     1     -34.008  13.393  -4.102  1.00 20.00     0.192 C 
HETATM    4  O4  UNL     1     -35.041  12.714  -4.373  1.00 20.00    -0.647 OA
HETATM    5  O5  UNL     1     -32.872  13.002  -3.715  1.00 20.00    -0.647 OA
ENDBRANCH   1   3
BRANCH   1   6
HETATM    6  C2  UNL     1     -35.182  15.377  -5.321  1.00 20.00     0.102 C 
BRANCH   6   7
HETATM    7  S6  UNL     1     -34.531  15.143  -7.006  1.00 20.00    -0.180 SA
HETATM    8  H11 UNL     1     -34.416  16.447  -7.290  1.00 20.00     0.101 HD
ENDBRANCH   6   7
ENDBRANCH   1   6
TORSDOF 3
ENDMDL
MODEL 8
REMARK VINA RESULT:      -3.3     12.187     12.438
REMARK  3 active torsions:
REMARK  status: ('A' for Active; 'I' for Inactive)
REMARK    1  A    between atoms: C1_1  and  C3_3 
REMARK    2  A    between atoms: C2_2  and  C3_3 
REMARK    3  A    between atoms: C2_2  and  S6_6 
ROOT
HETATM    1  C3  UNL     1     -34.938  14.788  -3.371  1.00 20.00     0.192 C 
HETATM    2 CL7  UNL     1     -35.821  15.462  -4.784  1.00 20.00    -0.113 Cl
ENDROOT
BRANCH   1   3
HETATM    3  C1  UNL     1     -34.322  13.474  -3.876  1.00 20.00     0.192 C 
HETATM    4  O4  UNL     1     -33.078  13.363  -3.670  1.00 20.00    -0.647 OA
HETATM    5  O5  UNL     1     -35.116  12.665  -4.432  1.00 20.00    -0.647 OA
ENDBRANCH   1   3
BRANCH   1   6
HETATM    6  C2  UNL     1     -33.972  15.848  -2.858  1.00 20.00     0.102 C 
BRANCH   6   7
HETATM    7  S6  UNL     1     -34.567  16.591  -1.305  1.00 20.00    -0.180 SA
HETATM    8  H11 UNL     1     -33.557  17.461  -1.174  1.00 20.00     0.101 HD
ENDBRANCH   6   7
ENDBRANCH   1   6
TORSDOF 3
ENDMDL
MODEL 9
REMARK VINA RESULT:      -3.2      1.802      1.945
REMARK  3 active torsions:
REMARK  status: ('A' for Active; 'I' for Inactive)
REMARK    1  A    between atoms: C1_1  and  C3_3 
REMARK    2  A    between atoms: C2_2  and  C3_3 
REMARK    3  A    between atoms: C2_2  and  S6_6 
ROOT
HETATM    1  C3  UNL     1     -34.519   5.892   4.307  1.00 20.00     0.192 C 
HETATM    2 CL7  UNL     1     -34.394   5.084   2.706  1.00 20.00    -0.113 Cl
ENDROOT
BRANCH   1   3
HETATM    3  C1  UNL     1     -34.927   4.778   5.284  1.00 20.00     0.192 C 
HETATM    4  O4  UNL     1     -34.972   5.135   6.498  1.00 20.00    -0.647 OA
HETATM    5  O5  UNL     1     -35.165   3.649   4.773  1.00 20.00    -0.647 OA
ENDBRANCH   1   3
BRANCH   1   6
HETATM    6  C2  UNL     1     -33.203   6.607   4.588  1.00 20.00     0.102 C 
BRANCH   6   7
HETATM    7  S6  UNL     1     -32.281   6.924   3.050  1.00 20.00    -0.180 SA
HETATM    8  H11 UNL     1     -33.302   6.664   2.223  1.00 20.00     0.101 HD
ENDBRANCH   6   7
ENDBRANCH   1   6
TORSDOF 3
ENDMDL
