MODEL 1
REMARK VINA RESULT:      -3.9      0.000      0.000
REMARK  4 active torsions:
REMARK  status: ('A' for Active; 'I' for Inactive)
REMARK    1  A    between atoms: C1_1  and  C5_5 
REMARK       I    between atoms: C1_1  and  N9_9 
REMARK    2  A    between atoms: C6_6  and  C8_8 
REMARK    3  A    between atoms: C7_7  and  N9_9 
REMARK    4  A    between atoms: C8_8  and  N9_9 
ROOT
HETATM    1  C1  UNL     1     -33.978  16.924  -2.465  1.00 20.00     0.219 C 
HETATM    2  N9  UNL     1     -33.861  15.981  -3.491  1.00 20.00    -0.353 N 
HETATM    3  O10 UNL     1     -33.519  18.066  -2.536  1.00 20.00    -0.273 OA
ENDROOT
BRANCH   2   4
HETATM    4  C7  UNL     1     -34.412  14.635  -3.384  1.00 20.00     0.121 C 
HETATM    5  C4  UNL     1     -33.415  13.611  -3.803  1.00 20.00     0.026 C 
ENDBRANCH   2   4
BRANCH   2   6
HETATM    6  C8  UNL     1     -33.176  16.273  -4.748  1.00 20.00     0.125 C 
BRANCH   6   7
HETATM    7  C6  UNL     1     -34.144  16.648  -5.864  1.00 20.00     0.015 C 
HETATM    8  C3  UNL     1     -34.238  15.581  -6.945  1.00 20.00     0.006 C 
ENDBRANCH   6   7
ENDBRANCH   2   6
BRANCH   1   9
HETATM    9  C5  UNL     1     -34.719  16.468  -1.215  1.00 20.00     0.098 C 
HETATM   10  C2  UNL     1     -34.533  17.418  -0.043  1.00 20.00     0.014 C 
ENDBRANCH   1   9
TORSDOF 4
ENDMDL
MODEL 2
REMARK VINA RESULT:      -3.8      1.483      4.274
REMARK  4 active torsions:
REMARK  status: ('A' for Active; 'I' for Inactive)
REMARK    1  A    between atoms: C1_1  and  C5_5 
REMARK       I    between atoms: C1_1  and  N9_9 
REMARK    2  A    between atoms: C6_6  and  C8_8 
REMARK    3  A    between atoms: C7_7  and  N9_9 
REMARK    4  A    between atoms: C8_8  and  N9_9 
ROOT
HETATM    1  C1  UNL     1     -34.900  16.316  -5.062  1.00 20.00     0.219 C 
HETATM    2  N9  UNL     1     -34.337  15.868  -3.863  1.00 20.00    -0.353 N 
HETATM    3  O10 UNL     1     -35.988  16.892  -5.129  1.00 20.00    -0.273 OA
ENDROOT
BRANCH   2   4
HETATM    4  C7  UNL     1     -33.049  15.188  -3.808  1.00 20.00     0.121 C 
HETATM    5  C4  UNL     1     -33.223  13.715  -3.674  1.00 20.00     0.026 C 
ENDBRANCH   2   4
BRANCH   2   6
HETATM    6  C8  UNL     1     -35.000  16.046  -2.572  1.00 20.00     0.125 C 
BRANCH   6   7
HETATM    7  C6  UNL     1     -34.093  16.706  -1.540  1.00 20.00     0.015 C 
HETATM    8  C3  UNL     1     -34.815  17.020  -0.238  1.00 20.00     0.006 C 
ENDBRANCH   6   7
ENDBRANCH   2   6
BRANCH   1   9
HETATM    9  C5  UNL     1     -34.088  16.054  -6.323  1.00 20.00     0.098 C 
HETATM   10  C2  UNL     1     -34.644  14.906  -7.152  1.00 20.00     0.014 C 
ENDBRANCH   1   9
TORSDOF 4
ENDMDL
MODEL 3
REMARK VINA RESULT:      -3.8      2.095      4.649
REMARK  4 active torsions:
REMARK  status: ('A' for Active; 'I' for Inactive)
REMARK    1  A    between atoms: C1_1  and  C5_5 
REMARK       I    between atoms: C1_1  and  N9_9 
REMARK    2  A    between atoms: C6_6  and  C8_8 
REMARK    3  A    between atoms: C7_7  and  N9_9 
REMARK    4  A    between atoms: C8_8  and  N9_9 
ROOT
HETATM    1  C1  UNL     1     -35.655  14.401  -4.176  1.00 20.00     0.219 C 
HETATM    2  N9  UNL     1     -34.905  15.400  -3.547  1.00 20.00    -0.353 N 
HETATM    3  O10 UNL     1     -36.814  14.122  -3.862  1.00 20.00    -0.273 OA
ENDROOT
BRANCH   2   4
HETATM    4  C7  UNL     1     -33.535  15.712  -3.935  1.00 20.00     0.121 C 
HETATM    5  C4  UNL     1     -33.483  16.932  -4.789  1.00 20.00     0.026 C 
ENDBRANCH   2   4
BRANCH   2   6
HETATM    6  C8  UNL     1     -35.438  16.206  -2.450  1.00 20.00     0.125 C 
BRANCH   6   7
HETATM    7  C6  UNL     1     -34.459  16.325  -1.288  1.00 20.00     0.015 C 
HETATM    8  C3  UNL     1     -34.968  17.236  -0.181  1.00 20.00     0.006 C 
ENDBRANCH   6   7
ENDBRANCH   2   6
BRANCH   1   9
HETATM    9  C5  UNL     1     -34.959  13.647  -5.301  1.00 20.00     0.098 C 
HETATM   10  C2  UNL     1     -35.297  14.200  -6.676  1.00 20.00     0.014 C 
ENDBRANCH   1   9
TORSDOF 4
ENDMDL
MODEL 4
REMARK VINA RESULT:      -3.6      1.342      4.166
REMARK  4 active torsions:
REMARK  status: ('A' for Active; 'I' for Inactive)
REMARK    1  A    between atoms: C1_1  and  C5_5 
REMARK       I    between atoms: C1_1  and  N9_9 
REMARK    2  A    between atoms: C6_6  and  C8_8 
REMARK    3  A    between atoms: C7_7  and  N9_9 
REMARK    4  A    between atoms: C8_8  and  N9_9 
ROOT
HETATM    1  C1  UNL     1     -34.168  16.414  -5.242  1.00 20.00     0.219 C 
HETATM    2  N9  UNL     1     -34.490  15.724  -4.068  1.00 20.00    -0.353 N 
HETATM    3  O10 UNL     1     -33.258  17.242  -5.316  1.00 20.00    -0.273 OA
ENDROOT
BRANCH   2   4
HETATM    4  C7  UNL     1     -35.572  14.749  -4.005  1.00 20.00     0.121 C 
HETATM    5  C4  UNL     1     -35.050  13.358  -4.122  1.00 20.00     0.026 C 
ENDBRANCH   2   4
BRANCH   2   6
HETATM    6  C8  UNL     1     -33.766  15.930  -2.815  1.00 20.00     0.125 C 
BRANCH   6   7
HETATM    7  C6  UNL     1     -34.698  16.233  -1.649  1.00 20.00     0.015 C 
HETATM    8  C3  UNL     1     -34.122  17.261  -0.686  1.00 20.00     0.006 C 
ENDBRANCH   6   7
ENDBRANCH   2   6
BRANCH   1   9
HETATM    9  C5  UNL     1     -35.016  16.091  -6.464  1.00 20.00     0.098 C 
HETATM   10  C2  UNL     1     -34.350  15.089  -7.393  1.00 20.00     0.014 C 
ENDBRANCH   1   9
TORSDOF 4
ENDMDL
MODEL 5
REMARK VINA RESULT:      -3.6      1.841      4.504
REMARK  4 active torsions:
REMARK  status: ('A' for Active; 'I' for Inactive)
REMARK    1  A    between atoms: C1_1  and  C5_5 
REMARK       I    between atoms: C1_1  and  N9_9 
REMARK    2  A    between atoms: C6_6  and  C8_8 
REMARK    3  A    between atoms: C7_7  and  N9_9 
REMARK    4  A    between atoms: C8_8  and  N9_9 
ROOT
HETATM    1  C1  UNL     1     -34.392  15.651  -5.135  1.00 20.00     0.219 C 
HETATM    2  N9  UNL     1     -35.259  15.579  -4.040  1.00 20.00    -0.353 N 
HETATM    3  O10 UNL     1     -33.566  16.553  -5.291  1.00 20.00    -0.273 OA
ENDROOT
BRANCH   2   4
HETATM    4  C7  UNL     1     -36.228  14.503  -3.878  1.00 20.00     0.121 C 
HETATM    5  C4  UNL     1     -37.622  15.031  -3.864  1.00 20.00     0.026 C 
ENDBRANCH   2   4
BRANCH   2   6
HETATM    6  C8  UNL     1     -35.259  16.580  -2.974  1.00 20.00     0.125 C 
BRANCH   6   7
HETATM    7  C6  UNL     1     -34.405  16.159  -1.783  1.00 20.00     0.015 C 
HETATM    8  C3  UNL     1     -34.717  16.956  -0.525  1.00 20.00     0.006 C 
ENDBRANCH   6   7
ENDBRANCH   2   6
BRANCH   1   9
HETATM    9  C5  UNL     1     -34.515  14.534  -6.163  1.00 20.00     0.098 C 
HETATM   10  C2  UNL     1     -34.780  15.055  -7.567  1.00 20.00     0.014 C 
ENDBRANCH   1   9
TORSDOF 4
ENDMDL
MODEL 6
REMARK VINA RESULT:      -3.6      1.682      2.636
REMARK  4 active torsions:
REMARK  status: ('A' for Active; 'I' for Inactive)
REMARK    1  A    between atoms: C1_1  and  C5_5 
REMARK       I    between atoms: C1_1  and  N9_9 
REMARK    2  A    between atoms: C6_6  and  C8_8 
REMARK    3  A    between atoms: C7_7  and  N9_9 
REMARK    4  A    between atoms: C8_8  and  N9_9 
ROOT
HETATM    1  C1  UNL     1     -34.966  16.046  -3.075  1.00 20.00     0.219 C 
HETATM    2  N9  UNL     1     -34.582  16.133  -4.418  1.00 20.00    -0.353 N 
HETATM    3  O10 UNL     1     -36.026  15.539  -2.703  1.00 20.00    -0.273 OA
ENDROOT
BRANCH   2   4
HETATM    4  C7  UNL     1     -33.322  16.738  -4.834  1.00 20.00     0.121 C 
HETATM    5  C4  UNL     1     -33.555  18.009  -5.576  1.00 20.00     0.026 C 
ENDBRANCH   2   4
BRANCH   2   6
HETATM    6  C8  UNL     1     -35.415  15.625  -5.505  1.00 20.00     0.125 C 
BRANCH   6   7
HETATM    7  C6  UNL     1     -34.849  14.353  -6.125  1.00 20.00     0.015 C 
HETATM    8  C3  UNL     1     -34.706  13.221  -5.119  1.00 20.00     0.006 C 
ENDBRANCH   6   7
ENDBRANCH   2   6
BRANCH   1   9
HETATM    9  C5  UNL     1     -33.989  16.623  -2.059  1.00 20.00     0.098 C 
HETATM   10  C2  UNL     1     -34.596  16.754  -0.671  1.00 20.00     0.014 C 
ENDBRANCH   1   9
TORSDOF 4
ENDMDL
MODEL 7
REMARK VINA RESULT:      -3.5      1.920      2.386
REMARK  4 active torsions:
REMARK  status: ('A' for Active; 'I' for Inactive)
REMARK    1  A    between atoms: C1_1  and  C5_5 
REMARK       I    between atoms: C1_1  and  N9_9 
REMARK    2  A    between atoms: C6_6  and  C8_8 
REMARK    3  A    between atoms: C7_7  and  N9_9 
REMARK    4  A    between atoms: C8_8  and  N9_9 
ROOT
HETATM    1  C1  UNL     1     -33.904  15.794  -3.603  1.00 20.00     0.219 C 
HETATM    2  N9  UNL     1     -34.926  15.363  -4.457  1.00 20.00    -0.353 N 
HETATM    3  O10 UNL     1     -32.766  15.321  -3.612  1.00 20.00    -0.273 OA
ENDROOT
BRANCH   2   4
HETATM    4  C7  UNL     1     -36.265  15.937  -4.427  1.00 20.00     0.121 C 
HETATM    5  C4  UNL     1     -37.272  14.931  -3.987  1.00 20.00     0.026 C 
ENDBRANCH   2   4
BRANCH   2   6
HETATM    6  C8  UNL     1     -34.727  14.302  -5.443  1.00 20.00     0.125 C 
BRANCH   6   7
HETATM    7  C6  UNL     1     -34.471  14.850  -6.842  1.00 20.00     0.015 C 
HETATM    8  C3  UNL     1     -35.553  14.454  -7.835  1.00 20.00     0.006 C 
ENDBRANCH   6   7
ENDBRANCH   2   6
BRANCH   1   9
HETATM    9  C5  UNL     1     -34.269  16.906  -2.630  1.00 20.00     0.098 C 
HETATM   10  C2  UNL     1     -34.584  16.387  -1.236  1.00 20.00     0.014 C 
ENDBRANCH   1   9
TORSDOF 4
ENDMDL
MODEL 8
REMARK VINA RESULT:      -3.5      1.764      3.250
REMARK  4 active torsions:
REMARK  status: ('A' for Active; 'I' for Inactive)
REMARK    1  A    between atoms: C1_1  and  C5_5 
REMARK       I    between atoms: C1_1  and  N9_9 
REMARK    2  A    between atoms: C6_6  and  C8_8 
REMARK    3  A    between atoms: C7_7  and  N9_9 
REMARK    4  A    between atoms: C8_8  and  N9_9 
ROOT
HETATM    1  C1  UNL     1     -33.627  16.834  -4.315  1.00 20.00     0.219 C 
HETATM    2  N9  UNL     1     -34.205  15.945  -3.402  1.00 20.00    -0.353 N 
HETATM    3  O10 UNL     1     -32.777  16.499  -5.143  1.00 20.00    -0.273 OA
ENDROOT
BRANCH   2   4
HETATM    4  C7  UNL     1     -35.208  16.365  -2.430  1.00 20.00     0.121 C 
HETATM    5  C4  UNL     1     -34.616  16.500  -1.070  1.00 20.00     0.026 C 
ENDBRANCH   2   4
BRANCH   2   6
HETATM    6  C8  UNL     1     -33.847  14.529  -3.352  1.00 20.00     0.125 C 
BRANCH   6   7
HETATM    7  C6  UNL     1     -34.926  13.636  -3.951  1.00 20.00     0.015 C 
HETATM    8  C3  UNL     1     -34.923  13.649  -5.473  1.00 20.00     0.006 C 
ENDBRANCH   6   7
ENDBRANCH   2   6
BRANCH   1   9
HETATM    9  C5  UNL     1     -34.103  18.278  -4.240  1.00 20.00     0.098 C 
HETATM   10  C2  UNL     1     -33.570  19.131  -5.380  1.00 20.00     0.014 C 
ENDBRANCH   1   9
TORSDOF 4
ENDMDL
MODEL 9
REMARK VINA RESULT:      -3.5     13.047     14.169
REMARK  4 active torsions:
REMARK  status: ('A' for Active; 'I' for Inactive)
REMARK    1  A    between atoms: C1_1  and  C5_5 
REMARK       I    between atoms: C1_1  and  N9_9 
REMARK    2  A    between atoms: C6_6  and  C8_8 
REMARK    3  A    between atoms: C7_7  and  N9_9 
REMARK    4  A    between atoms: C8_8  and  N9_9 
ROOT
HETATM    1  C1  UNL     1     -42.533   6.032  -2.814  1.00 20.00     0.219 C 
HETATM    2  N9  UNL     1     -42.052   4.822  -2.302  1.00 20.00    -0.353 N 
HETATM    3  O10 UNL     1     -43.375   6.103  -3.712  1.00 20.00    -0.273 OA
ENDROOT
BRANCH   2   4
HETATM    4  C7  UNL     1     -41.056   4.762  -1.240  1.00 20.00     0.121 C 
HETATM    5  C4  UNL     1     -41.699   4.561   0.090  1.00 20.00     0.026 C 
ENDBRANCH   2   4
BRANCH   2   6
HETATM    6  C8  UNL     1     -42.511   3.525  -2.796  1.00 20.00     0.125 C 
BRANCH   6   7
HETATM    7  C6  UNL     1     -41.356   2.584  -3.118  1.00 20.00     0.015 C 
HETATM    8  C3  UNL     1     -41.708   1.566  -4.193  1.00 20.00     0.006 C 
ENDBRANCH   6   7
ENDBRANCH   2   6
BRANCH   1   9
HETATM    9  C5  UNL     1     -41.956   7.298  -2.196  1.00 20.00     0.098 C 
HETATM   10  C2  UNL     1     -42.898   7.945  -1.194  1.00 20.00     0.014 C 
ENDBRANCH   1   9
TORSDOF 4
ENDMDL
