MODEL 1
REMARK VINA RESULT:      -4.7      0.000      0.000
REMARK  1 active torsions:
REMARK  status: ('A' for Active; 'I' for Inactive)
REMARK    1  A    between atoms: C2_2  and  C7_7 
ROOT
HETATM    1  C3  UNL     1     -34.432   5.281   3.433  1.00 20.00     0.034 C 
HETATM    2  C4  UNL     1     -33.301   6.391   5.376  1.00 20.00     0.034 C 
HETATM    3  C5  UNL     1     -35.559   4.912   4.389  1.00 20.00     0.168 C 
HETATM    4  C6  UNL     1     -34.492   5.962   6.226  1.00 20.00     0.168 C 
HETATM    5  C7  UNL     1     -33.716   6.536   3.917  1.00 20.00     0.011 C 
HETATM    6  O8  UNL     1     -35.065   4.756   5.719  1.00 20.00    -0.391 OA
ENDROOT
BRANCH   5   7
HETATM    7  C2  UNL     1     -32.463   6.720   3.084  1.00 20.00    -0.032 C 
HETATM    8  C1  UNL     1     -32.135   7.861   2.468  1.00 20.00     0.007 C 
ENDBRANCH   5   7
TORSDOF 1
ENDMDL
MODEL 2
REMARK VINA RESULT:      -4.2     11.490     11.924
REMARK  1 active torsions:
REMARK  status: ('A' for Active; 'I' for Inactive)
REMARK    1  A    between atoms: C2_2  and  C7_7 
ROOT
HETATM    1  C3  UNL     1     -33.393  14.324  -3.561  1.00 20.00     0.034 C 
HETATM    2  C4  UNL     1     -35.757  15.083  -3.208  1.00 20.00     0.034 C 
HETATM    3  C5  UNL     1     -33.939  13.321  -4.570  1.00 20.00     0.168 C 
HETATM    4  C6  UNL     1     -36.173  14.039  -4.238  1.00 20.00     0.168 C 
HETATM    5  C7  UNL     1     -34.321  15.528  -3.455  1.00 20.00     0.011 C 
HETATM    6  O8  UNL     1     -35.270  12.933  -4.229  1.00 20.00    -0.391 OA
ENDROOT
BRANCH   5   7
HETATM    7  C2  UNL     1     -33.875  16.370  -2.276  1.00 20.00    -0.032 C 
HETATM    8  C1  UNL     1     -34.582  16.515  -1.150  1.00 20.00     0.007 C 
ENDBRANCH   5   7
TORSDOF 1
ENDMDL
MODEL 3
REMARK VINA RESULT:      -3.8     11.783     12.152
REMARK  1 active torsions:
REMARK  status: ('A' for Active; 'I' for Inactive)
REMARK    1  A    between atoms: C2_2  and  C7_7 
ROOT
HETATM    1  C3  UNL     1     -36.006  15.464  -3.312  1.00 20.00     0.034 C 
HETATM    2  C4  UNL     1     -33.635  14.725  -3.667  1.00 20.00     0.034 C 
HETATM    3  C5  UNL     1     -36.427  14.312  -4.216  1.00 20.00     0.168 C 
HETATM    4  C6  UNL     1     -34.187  13.613  -4.551  1.00 20.00     0.168 C 
HETATM    5  C7  UNL     1     -34.676  15.148  -2.637  1.00 20.00     0.011 C 
HETATM    6  O8  UNL     1     -35.407  14.020  -5.172  1.00 20.00    -0.391 OA
ENDROOT
BRANCH   5   7
HETATM    7  C2  UNL     1     -34.180  16.407  -1.951  1.00 20.00    -0.032 C 
HETATM    8  C1  UNL     1     -34.553  16.786  -0.724  1.00 20.00     0.007 C 
ENDBRANCH   5   7
TORSDOF 1
ENDMDL
MODEL 4
REMARK VINA RESULT:      -3.8     11.641     12.716
REMARK  1 active torsions:
REMARK  status: ('A' for Active; 'I' for Inactive)
REMARK    1  A    between atoms: C2_2  and  C7_7 
ROOT
HETATM    1  C3  UNL     1     -34.370  14.045  -3.535  1.00 20.00     0.034 C 
HETATM    2  C4  UNL     1     -34.189  16.062  -5.014  1.00 20.00     0.034 C 
HETATM    3  C5  UNL     1     -34.512  13.213  -4.803  1.00 20.00     0.168 C 
HETATM    4  C6  UNL     1     -34.339  15.119  -6.202  1.00 20.00     0.168 C 
HETATM    5  C7  UNL     1     -33.591  15.323  -3.823  1.00 20.00     0.011 C 
HETATM    6  O8  UNL     1     -35.119  13.978  -5.845  1.00 20.00    -0.391 OA
ENDROOT
BRANCH   5   7
HETATM    7  C2  UNL     1     -33.689  16.224  -2.607  1.00 20.00    -0.032 C 
HETATM    8  C1  UNL     1     -34.683  16.169  -1.714  1.00 20.00     0.007 C 
ENDBRANCH   5   7
TORSDOF 1
ENDMDL
MODEL 5
REMARK VINA RESULT:      -3.8     12.164     13.000
REMARK  1 active torsions:
REMARK  status: ('A' for Active; 'I' for Inactive)
REMARK    1  A    between atoms: C2_2  and  C7_7 
ROOT
HETATM    1  C3  UNL     1     -34.763  14.771  -3.445  1.00 20.00     0.034 C 
HETATM    2  C4  UNL     1     -33.719  17.040  -3.677  1.00 20.00     0.034 C 
HETATM    3  C5  UNL     1     -34.217  14.455  -4.832  1.00 20.00     0.168 C 
HETATM    4  C6  UNL     1     -33.229  16.598  -5.052  1.00 20.00     0.168 C 
HETATM    5  C7  UNL     1     -33.904  15.832  -2.767  1.00 20.00     0.011 C 
HETATM    6  O8  UNL     1     -34.122  15.641  -5.622  1.00 20.00    -0.391 OA
ENDROOT
BRANCH   5   7
HETATM    7  C2  UNL     1     -34.617  16.289  -1.510  1.00 20.00    -0.032 C 
HETATM    8  C1  UNL     1     -34.175  17.268  -0.713  1.00 20.00     0.007 C 
ENDBRANCH   5   7
TORSDOF 1
ENDMDL
MODEL 6
REMARK VINA RESULT:      -3.8      1.692      3.728
REMARK  1 active torsions:
REMARK  status: ('A' for Active; 'I' for Inactive)
REMARK    1  A    between atoms: C2_2  and  C7_7 
ROOT
HETATM    1  C3  UNL     1     -32.905   6.570   4.758  1.00 20.00     0.034 C 
HETATM    2  C4  UNL     1     -34.709   5.071   3.871  1.00 20.00     0.034 C 
HETATM    3  C5  UNL     1     -32.551   6.885   3.310  1.00 20.00     0.168 C 
HETATM    4  C6  UNL     1     -34.257   5.469   2.471  1.00 20.00     0.168 C 
HETATM    5  C7  UNL     1     -34.371   6.170   4.870  1.00 20.00     0.011 C 
HETATM    6  O8  UNL     1     -32.863   5.780   2.460  1.00 20.00    -0.391 OA
ENDROOT
BRANCH   5   7
HETATM    7  C2  UNL     1     -34.612   5.633   6.267  1.00 20.00    -0.032 C 
HETATM    8  C1  UNL     1     -35.060   4.400   6.528  1.00 20.00     0.007 C 
ENDBRANCH   5   7
TORSDOF 1
ENDMDL
MODEL 7
REMARK VINA RESULT:      -3.7      9.274     10.635
REMARK  1 active torsions:
REMARK  status: ('A' for Active; 'I' for Inactive)
REMARK    1  A    between atoms: C2_2  and  C7_7 
ROOT
HETATM    1  C3  UNL     1     -40.988   4.364  -1.374  1.00 20.00     0.034 C 
HETATM    2  C4  UNL     1     -42.534   5.680  -2.846  1.00 20.00     0.034 C 
HETATM    3  C5  UNL     1     -40.685   5.667  -0.645  1.00 20.00     0.168 C 
HETATM    4  C6  UNL     1     -42.148   6.911  -2.035  1.00 20.00     0.168 C 
HETATM    5  C7  UNL     1     -42.374   4.420  -2.005  1.00 20.00     0.011 C 
HETATM    6  O8  UNL     1     -40.820   6.784  -1.525  1.00 20.00    -0.391 OA
ENDROOT
BRANCH   5   7
HETATM    7  C2  UNL     1     -42.530   3.217  -2.916  1.00 20.00    -0.032 C 
HETATM    8  C1  UNL     1     -41.522   2.415  -3.275  1.00 20.00     0.007 C 
ENDBRANCH   5   7
TORSDOF 1
ENDMDL
MODEL 8
REMARK VINA RESULT:      -3.7     12.223     13.317
REMARK  1 active torsions:
REMARK  status: ('A' for Active; 'I' for Inactive)
REMARK    1  A    between atoms: C2_2  and  C7_7 
ROOT
HETATM    1  C3  UNL     1     -33.827  17.724  -3.041  1.00 20.00     0.034 C 
HETATM    2  C4  UNL     1     -33.947  15.220  -3.111  1.00 20.00     0.034 C 
HETATM    3  C5  UNL     1     -33.557  17.684  -4.540  1.00 20.00     0.168 C 
HETATM    4  C6  UNL     1     -33.672  15.318  -4.607  1.00 20.00     0.168 C 
HETATM    5  C7  UNL     1     -34.618  16.494  -2.612  1.00 20.00     0.011 C 
HETATM    6  O8  UNL     1     -32.889  16.475  -4.902  1.00 20.00    -0.391 OA
ENDROOT
BRANCH   5   7
HETATM    7  C2  UNL     1     -34.647  16.453  -1.096  1.00 20.00    -0.032 C 
HETATM    8  C1  UNL     1     -34.257  17.464  -0.313  1.00 20.00     0.007 C 
ENDBRANCH   5   7
TORSDOF 1
ENDMDL
MODEL 9
REMARK VINA RESULT:      -3.6     11.926     13.185
REMARK  1 active torsions:
REMARK  status: ('A' for Active; 'I' for Inactive)
REMARK    1  A    between atoms: C2_2  and  C7_7 
ROOT
HETATM    1  C3  UNL     1     -33.584  15.955  -5.078  1.00 20.00     0.034 C 
HETATM    2  C4  UNL     1     -33.988  15.941  -2.602  1.00 20.00     0.034 C 
HETATM    3  C5  UNL     1     -33.505  17.474  -4.986  1.00 20.00     0.168 C 
HETATM    4  C6  UNL     1     -33.886  17.461  -2.647  1.00 20.00     0.168 C 
HETATM    5  C7  UNL     1     -33.194  15.323  -3.746  1.00 20.00     0.011 C 
HETATM    6  O8  UNL     1     -34.314  17.959  -3.914  1.00 20.00    -0.391 OA
ENDROOT
BRANCH   5   7
HETATM    7  C2  UNL     1     -33.522  13.844  -3.808  1.00 20.00    -0.032 C 
HETATM    8  C1  UNL     1     -34.571  13.337  -4.465  1.00 20.00     0.007 C 
ENDBRANCH   5   7
TORSDOF 1
ENDMDL
