MODEL 1
REMARK VINA RESULT:      -5.1      0.000      0.000
REMARK  2 active torsions:
REMARK  status: ('A' for Active; 'I' for Inactive)
REMARK    1  A    between atoms: C6_6  and  C9_9 
REMARK    2  A    between atoms: C6_6  and  C10_10 
ROOT
HETATM    1  C1  UNL     1     -33.402  13.986  -3.757  1.00 20.00     0.047 C 
HETATM    2  C2  UNL     1     -33.090  15.212  -3.323  1.00 20.00    -0.014 C 
HETATM    3  C3  UNL     1     -34.809  13.632  -4.059  1.00 20.00     0.149 C 
HETATM    4  C4  UNL     1     -35.865  14.708  -3.946  1.00 20.00     0.084 C 
HETATM    5  C5  UNL     1     -35.506  15.718  -2.863  1.00 20.00     0.021 C 
HETATM    6  C6  UNL     1     -34.091  16.312  -3.040  1.00 20.00    -0.023 C 
HETATM    7  O11 UNL     1     -35.083  12.499  -4.451  1.00 20.00    -0.293 OA
ENDROOT
BRANCH   6   8
HETATM    8  C9  UNL     1     -33.699  17.040  -1.742  1.00 20.00     0.009 C 
HETATM    9  C7  UNL     1     -34.639  16.713  -0.634  1.00 20.00     0.006 C 
ENDBRANCH   6   8
BRANCH   6  10
HETATM   10  C10 UNL     1     -34.062  17.321  -4.201  1.00 20.00     0.009 C 
HETATM   11  C8  UNL     1     -33.905  18.716  -3.701  1.00 20.00     0.006 C 
ENDBRANCH   6  10
TORSDOF 2
ENDMDL
MODEL 2
REMARK VINA RESULT:      -5.0      0.696      2.485
REMARK  2 active torsions:
REMARK  status: ('A' for Active; 'I' for Inactive)
REMARK    1  A    between atoms: C6_6  and  C9_9 
REMARK    2  A    between atoms: C6_6  and  C10_10 
ROOT
HETATM    1  C1  UNL     1     -35.977  14.451  -4.074  1.00 20.00     0.047 C 
HETATM    2  C2  UNL     1     -35.869  15.674  -3.541  1.00 20.00    -0.014 C 
HETATM    3  C3  UNL     1     -34.788  13.573  -4.183  1.00 20.00     0.149 C 
HETATM    4  C4  UNL     1     -33.478  14.056  -3.603  1.00 20.00     0.084 C 
HETATM    5  C5  UNL     1     -33.365  15.572  -3.690  1.00 20.00     0.021 C 
HETATM    6  C6  UNL     1     -34.576  16.302  -3.067  1.00 20.00    -0.023 C 
HETATM    7  O11 UNL     1     -34.899  12.454  -4.681  1.00 20.00    -0.293 OA
ENDROOT
BRANCH   6   8
HETATM    8  C9  UNL     1     -34.535  17.778  -3.500  1.00 20.00     0.009 C 
HETATM    9  C7  UNL     1     -33.664  17.967  -4.694  1.00 20.00     0.006 C 
ENDBRANCH   6   8
BRANCH   6  10
HETATM   10  C10 UNL     1     -34.525  16.235  -1.531  1.00 20.00     0.009 C 
HETATM   11  C8  UNL     1     -33.779  17.393  -0.965  1.00 20.00     0.006 C 
ENDBRANCH   6  10
TORSDOF 2
ENDMDL
MODEL 3
REMARK VINA RESULT:      -4.7      0.912      1.037
REMARK  2 active torsions:
REMARK  status: ('A' for Active; 'I' for Inactive)
REMARK    1  A    between atoms: C6_6  and  C9_9 
REMARK    2  A    between atoms: C6_6  and  C10_10 
ROOT
HETATM    1  C1  UNL     1     -33.593  14.087  -3.735  1.00 20.00     0.047 C 
HETATM    2  C2  UNL     1     -33.622  15.255  -3.084  1.00 20.00    -0.014 C 
HETATM    3  C3  UNL     1     -34.821  13.549  -4.367  1.00 20.00     0.149 C 
HETATM    4  C4  UNL     1     -36.078  14.388  -4.331  1.00 20.00     0.084 C 
HETATM    5  C5  UNL     1     -36.133  15.243  -3.071  1.00 20.00     0.021 C 
HETATM    6  C6  UNL     1     -34.862  16.097  -2.869  1.00 20.00    -0.023 C 
HETATM    7  O11 UNL     1     -34.783  12.471  -4.956  1.00 20.00    -0.293 OA
ENDROOT
BRANCH   6   8
HETATM    8  C9  UNL     1     -34.864  16.647  -1.431  1.00 20.00     0.009 C 
HETATM    9  C7  UNL     1     -33.616  17.406  -1.140  1.00 20.00     0.006 C 
ENDBRANCH   6   8
BRANCH   6  10
HETATM   10  C10 UNL     1     -34.835  17.281  -3.851  1.00 20.00     0.009 C 
HETATM   11  C8  UNL     1     -36.100  18.063  -3.788  1.00 20.00     0.006 C 
ENDBRANCH   6  10
TORSDOF 2
ENDMDL
MODEL 4
REMARK VINA RESULT:      -4.4      1.548      2.033
REMARK  2 active torsions:
REMARK  status: ('A' for Active; 'I' for Inactive)
REMARK    1  A    between atoms: C6_6  and  C9_9 
REMARK    2  A    between atoms: C6_6  and  C10_10 
ROOT
HETATM    1  C1  UNL     1     -35.925  14.239  -3.736  1.00 20.00     0.047 C 
HETATM    2  C2  UNL     1     -34.833  14.972  -3.492  1.00 20.00    -0.014 C 
HETATM    3  C3  UNL     1     -37.264  14.874  -3.758  1.00 20.00     0.149 C 
HETATM    4  C4  UNL     1     -37.356  16.372  -3.582  1.00 20.00     0.084 C 
HETATM    5  C5  UNL     1     -36.238  16.890  -2.687  1.00 20.00     0.021 C 
HETATM    6  C6  UNL     1     -34.836  16.449  -3.161  1.00 20.00    -0.023 C 
HETATM    7  O11 UNL     1     -38.261  14.188  -3.977  1.00 20.00    -0.293 OA
ENDROOT
BRANCH   6   8
HETATM    8  C9  UNL     1     -33.828  16.722  -2.030  1.00 20.00     0.009 C 
HETATM    9  C7  UNL     1     -34.503  16.769  -0.703  1.00 20.00     0.006 C 
ENDBRANCH   6   8
BRANCH   6  10
HETATM   10  C10 UNL     1     -34.405  17.238  -4.409  1.00 20.00     0.009 C 
HETATM   11  C8  UNL     1     -33.282  16.561  -5.115  1.00 20.00     0.006 C 
ENDBRANCH   6  10
TORSDOF 2
ENDMDL
MODEL 5
REMARK VINA RESULT:      -4.4      1.587      3.017
REMARK  2 active torsions:
REMARK  status: ('A' for Active; 'I' for Inactive)
REMARK    1  A    between atoms: C6_6  and  C9_9 
REMARK    2  A    between atoms: C6_6  and  C10_10 
ROOT
HETATM    1  C1  UNL     1     -36.661  16.060  -3.912  1.00 20.00     0.047 C 
HETATM    2  C2  UNL     1     -35.440  16.589  -4.046  1.00 20.00    -0.014 C 
HETATM    3  C3  UNL     1     -36.852  14.591  -3.975  1.00 20.00     0.149 C 
HETATM    4  C4  UNL     1     -35.632  13.709  -4.109  1.00 20.00     0.084 C 
HETATM    5  C5  UNL     1     -34.532  14.408  -4.897  1.00 20.00     0.021 C 
HETATM    6  C6  UNL     1     -34.179  15.801  -4.329  1.00 20.00    -0.023 C 
HETATM    7  O11 UNL     1     -37.981  14.117  -3.857  1.00 20.00    -0.293 OA
ENDROOT
BRANCH   6   8
HETATM    8  C9  UNL     1     -33.327  16.552  -5.367  1.00 20.00     0.009 C 
HETATM    9  C7  UNL     1     -33.709  17.990  -5.442  1.00 20.00     0.006 C 
ENDBRANCH   6   8
BRANCH   6  10
HETATM   10  C10 UNL     1     -33.371  15.672  -3.026  1.00 20.00     0.009 C 
HETATM   11  C8  UNL     1     -33.854  16.632  -1.994  1.00 20.00     0.006 C 
ENDBRANCH   6  10
TORSDOF 2
ENDMDL
MODEL 6
REMARK VINA RESULT:      -4.2      2.399      4.105
REMARK  2 active torsions:
REMARK  status: ('A' for Active; 'I' for Inactive)
REMARK    1  A    between atoms: C6_6  and  C9_9 
REMARK    2  A    between atoms: C6_6  and  C10_10 
ROOT
HETATM    1  C1  UNL     1     -34.290  16.991  -1.374  1.00 20.00     0.047 C 
HETATM    2  C2  UNL     1     -34.858  15.917  -1.935  1.00 20.00    -0.014 C 
HETATM    3  C3  UNL     1     -33.654  18.029  -2.218  1.00 20.00     0.149 C 
HETATM    4  C4  UNL     1     -33.736  17.889  -3.721  1.00 20.00     0.084 C 
HETATM    5  C5  UNL     1     -33.760  16.423  -4.135  1.00 20.00     0.021 C 
HETATM    6  C6  UNL     1     -34.863  15.614  -3.418  1.00 20.00    -0.023 C 
HETATM    7  O11 UNL     1     -33.130  19.008  -1.690  1.00 20.00    -0.293 OA
ENDROOT
BRANCH   6   8
HETATM    8  C9  UNL     1     -34.592  14.115  -3.636  1.00 20.00     0.009 C 
HETATM    9  C7  UNL     1     -33.130  13.829  -3.665  1.00 20.00     0.006 C 
ENDBRANCH   6   8
BRANCH   6  10
HETATM   10  C10 UNL     1     -36.251  15.953  -3.989  1.00 20.00     0.009 C 
HETATM   11  C8  UNL     1     -37.228  14.862  -3.719  1.00 20.00     0.006 C 
ENDBRANCH   6  10
TORSDOF 2
ENDMDL
MODEL 7
REMARK VINA RESULT:      -4.2      1.514      2.742
REMARK  2 active torsions:
REMARK  status: ('A' for Active; 'I' for Inactive)
REMARK    1  A    between atoms: C6_6  and  C9_9 
REMARK    2  A    between atoms: C6_6  and  C10_10 
ROOT
HETATM    1  C1  UNL     1     -36.384  15.036  -3.753  1.00 20.00     0.047 C 
HETATM    2  C2  UNL     1     -35.307  15.170  -2.971  1.00 20.00    -0.014 C 
HETATM    3  C3  UNL     1     -36.471  15.765  -5.041  1.00 20.00     0.149 C 
HETATM    4  C4  UNL     1     -35.285  16.589  -5.485  1.00 20.00     0.084 C 
HETATM    5  C5  UNL     1     -34.534  17.162  -4.289  1.00 20.00     0.021 C 
HETATM    6  C6  UNL     1     -34.134  16.082  -3.259  1.00 20.00    -0.023 C 
HETATM    7  O11 UNL     1     -37.470  15.639  -5.747  1.00 20.00    -0.293 OA
ENDROOT
BRANCH   6   8
HETATM    8  C9  UNL     1     -33.699  16.783  -1.959  1.00 20.00     0.009 C 
HETATM    9  C7  UNL     1     -34.694  16.570  -0.871  1.00 20.00     0.006 C 
ENDBRANCH   6   8
BRANCH   6  10
HETATM   10  C10 UNL     1     -32.961  15.235  -3.780  1.00 20.00     0.009 C 
HETATM   11  C8  UNL     1     -33.251  13.779  -3.656  1.00 20.00     0.006 C 
ENDBRANCH   6  10
TORSDOF 2
ENDMDL
MODEL 8
REMARK VINA RESULT:      -4.1      2.263      3.592
REMARK  2 active torsions:
REMARK  status: ('A' for Active; 'I' for Inactive)
REMARK    1  A    between atoms: C6_6  and  C9_9 
REMARK    2  A    between atoms: C6_6  and  C10_10 
ROOT
HETATM    1  C1  UNL     1     -33.372  17.075  -5.163  1.00 20.00     0.047 C 
HETATM    2  C2  UNL     1     -33.421  16.152  -4.196  1.00 20.00    -0.014 C 
HETATM    3  C3  UNL     1     -34.610  17.498  -5.859  1.00 20.00     0.149 C 
HETATM    4  C4  UNL     1     -35.931  16.927  -5.396  1.00 20.00     0.084 C 
HETATM    5  C5  UNL     1     -35.759  15.513  -4.854  1.00 20.00     0.021 C 
HETATM    6  C6  UNL     1     -34.671  15.417  -3.761  1.00 20.00    -0.023 C 
HETATM    7  O11 UNL     1     -34.551  18.342  -6.751  1.00 20.00    -0.293 OA
ENDROOT
BRANCH   6   8
HETATM    8  C9  UNL     1     -34.339  13.932  -3.530  1.00 20.00     0.009 C 
HETATM    9  C7  UNL     1     -34.507  13.139  -4.780  1.00 20.00     0.006 C 
ENDBRANCH   6   8
BRANCH   6  10
HETATM   10  C10 UNL     1     -35.169  16.024  -2.438  1.00 20.00     0.009 C 
HETATM   11  C8  UNL     1     -34.043  16.597  -1.649  1.00 20.00     0.006 C 
ENDBRANCH   6  10
TORSDOF 2
ENDMDL
MODEL 9
REMARK VINA RESULT:      -4.1      1.935      3.649
REMARK  2 active torsions:
REMARK  status: ('A' for Active; 'I' for Inactive)
REMARK    1  A    between atoms: C6_6  and  C9_9 
REMARK    2  A    between atoms: C6_6  and  C10_10 
ROOT
HETATM    1  C1  UNL     1     -34.617  13.273  -4.791  1.00 20.00     0.047 C 
HETATM    2  C2  UNL     1     -35.541  14.136  -5.230  1.00 20.00    -0.014 C 
HETATM    3  C3  UNL     1     -33.515  13.737  -3.915  1.00 20.00     0.149 C 
HETATM    4  C4  UNL     1     -33.508  15.180  -3.465  1.00 20.00     0.084 C 
HETATM    5  C5  UNL     1     -34.130  16.087  -4.519  1.00 20.00     0.021 C 
HETATM    6  C6  UNL     1     -35.538  15.624  -4.955  1.00 20.00    -0.023 C 
HETATM    7  O11 UNL     1     -32.669  12.936  -3.523  1.00 20.00    -0.293 OA
ENDROOT
BRANCH   6   8
HETATM    8  C9  UNL     1     -35.929  16.383  -6.236  1.00 20.00     0.009 C 
HETATM    9  C7  UNL     1     -34.872  16.263  -7.279  1.00 20.00     0.006 C 
ENDBRANCH   6   8
BRANCH   6  10
HETATM   10  C10 UNL     1     -36.578  15.929  -3.863  1.00 20.00     0.009 C 
HETATM   11  C8  UNL     1     -37.675  14.921  -3.866  1.00 20.00     0.006 C 
ENDBRANCH   6  10
TORSDOF 2
ENDMDL
