MODEL 1
REMARK VINA RESULT:      -3.1      0.000      0.000
REMARK  0 active torsions:
REMARK  status: ('A' for Active; 'I' for Inactive)
ROOT
HETATM    1  C1  UNL     1     -33.763   6.509   5.850  1.00 20.00     0.148 A 
HETATM    2  C2  UNL     1     -35.077   4.553   6.011  1.00 20.00     0.148 A 
HETATM    3  C3  UNL     1     -33.742   6.552   4.513  1.00 20.00     0.074 A 
HETATM    4  C4  UNL     1     -35.209   4.365   4.694  1.00 20.00     0.074 A 
HETATM    5  O5  UNL     1     -34.391   5.569   6.627  1.00 20.00    -0.334 OA
HETATM    6  S6  UNL     1     -34.522   5.398   3.493  1.00 20.00    -0.110 SA
ENDROOT
TORSDOF 0
ENDMDL
MODEL 2
REMARK VINA RESULT:      -3.1      0.018      2.045
REMARK  0 active torsions:
REMARK  status: ('A' for Active; 'I' for Inactive)
ROOT
HETATM    1  C1  UNL     1     -35.094   4.545   5.997  1.00 20.00     0.148 A 
HETATM    2  C2  UNL     1     -33.769   6.496   5.850  1.00 20.00     0.148 A 
HETATM    3  C3  UNL     1     -35.223   4.366   4.677  1.00 20.00     0.074 A 
HETATM    4  C4  UNL     1     -33.743   6.545   4.514  1.00 20.00     0.074 A 
HETATM    5  O5  UNL     1     -34.405   5.554   6.620  1.00 20.00    -0.334 OA
HETATM    6  S6  UNL     1     -34.526   5.402   3.484  1.00 20.00    -0.110 SA
ENDROOT
TORSDOF 0
ENDMDL
MODEL 3
REMARK VINA RESULT:      -2.9      1.401      1.877
REMARK  0 active torsions:
REMARK  status: ('A' for Active; 'I' for Inactive)
ROOT
HETATM    1  C1  UNL     1     -33.641   6.449   3.977  1.00 20.00     0.148 A 
HETATM    2  C2  UNL     1     -33.975   6.237   6.306  1.00 20.00     0.148 A 
HETATM    3  C3  UNL     1     -34.432   5.428   3.630  1.00 20.00     0.074 A 
HETATM    4  C4  UNL     1     -34.804   5.191   6.232  1.00 20.00     0.074 A 
HETATM    5  O5  UNL     1     -33.383   6.885   5.251  1.00 20.00    -0.334 OA
HETATM    6  S6  UNL     1     -35.296   4.444   4.755  1.00 20.00    -0.110 SA
ENDROOT
TORSDOF 0
ENDMDL
MODEL 4
REMARK VINA RESULT:      -2.9      1.816      2.668
REMARK  0 active torsions:
REMARK  status: ('A' for Active; 'I' for Inactive)
ROOT
HETATM    1  C1  UNL     1     -35.170   4.222   5.591  1.00 20.00     0.148 A 
HETATM    2  C2  UNL     1     -34.549   5.424   3.654  1.00 20.00     0.148 A 
HETATM    3  C3  UNL     1     -34.636   5.082   6.465  1.00 20.00     0.074 A 
HETATM    4  C4  UNL     1     -33.942   6.424   4.301  1.00 20.00     0.074 A 
HETATM    5  O5  UNL     1     -35.158   4.334   4.224  1.00 20.00    -0.334 OA
HETATM    6  S6  UNL     1     -33.811   6.532   6.020  1.00 20.00    -0.110 SA
ENDROOT
TORSDOF 0
ENDMDL
MODEL 5
REMARK VINA RESULT:      -2.9      1.808      2.119
REMARK  0 active torsions:
REMARK  status: ('A' for Active; 'I' for Inactive)
ROOT
HETATM    1  C1  UNL     1     -34.544   5.416   3.661  1.00 20.00     0.148 A 
HETATM    2  C2  UNL     1     -35.145   4.259   5.631  1.00 20.00     0.148 A 
HETATM    3  C3  UNL     1     -33.920   6.426   4.277  1.00 20.00     0.074 A 
HETATM    4  C4  UNL     1     -34.593   5.133   6.478  1.00 20.00     0.074 A 
HETATM    5  O5  UNL     1     -35.152   4.344   4.261  1.00 20.00    -0.334 OA
HETATM    6  S6  UNL     1     -33.765   6.569   5.991  1.00 20.00    -0.110 SA
ENDROOT
TORSDOF 0
ENDMDL
MODEL 6
REMARK VINA RESULT:      -2.9      1.392      2.106
REMARK  0 active torsions:
REMARK  status: ('A' for Active; 'I' for Inactive)
ROOT
HETATM    1  C1  UNL     1     -34.003   6.208   6.296  1.00 20.00     0.148 A 
HETATM    2  C2  UNL     1     -33.613   6.436   3.977  1.00 20.00     0.148 A 
HETATM    3  C3  UNL     1     -34.838   5.168   6.194  1.00 20.00     0.074 A 
HETATM    4  C4  UNL     1     -34.403   5.423   3.603  1.00 20.00     0.074 A 
HETATM    5  O5  UNL     1     -33.383   6.860   5.261  1.00 20.00    -0.334 OA
HETATM    6  S6  UNL     1     -35.301   4.436   4.700  1.00 20.00    -0.110 SA
ENDROOT
TORSDOF 0
ENDMDL
MODEL 7
REMARK VINA RESULT:      -2.8     12.962     13.377
REMARK  0 active torsions:
REMARK  status: ('A' for Active; 'I' for Inactive)
ROOT
HETATM    1  C1  UNL     1     -33.036  14.458  -3.592  1.00 20.00     0.148 A 
HETATM    2  C2  UNL     1     -34.551  13.209  -4.906  1.00 20.00     0.148 A 
HETATM    3  C3  UNL     1     -33.180  15.604  -4.268  1.00 20.00     0.074 A 
HETATM    4  C4  UNL     1     -34.872  14.207  -5.735  1.00 20.00     0.074 A 
HETATM    5  O5  UNL     1     -33.672  13.271  -3.854  1.00 20.00    -0.334 OA
HETATM    6  S6  UNL     1     -34.219  15.803  -5.632  1.00 20.00    -0.110 SA
ENDROOT
TORSDOF 0
ENDMDL
MODEL 8
REMARK VINA RESULT:      -2.8     13.007     13.541
REMARK  0 active torsions:
REMARK  status: ('A' for Active; 'I' for Inactive)
ROOT
HETATM    1  C1  UNL     1     -34.535  13.234  -4.915  1.00 20.00     0.148 A 
HETATM    2  C2  UNL     1     -33.042  14.530  -3.622  1.00 20.00     0.148 A 
HETATM    3  C3  UNL     1     -34.873  14.214  -5.760  1.00 20.00     0.074 A 
HETATM    4  C4  UNL     1     -33.205  15.662  -4.315  1.00 20.00     0.074 A 
HETATM    5  O5  UNL     1     -33.657  13.328  -3.865  1.00 20.00    -0.334 OA
HETATM    6  S6  UNL     1     -34.249  15.822  -5.681  1.00 20.00    -0.110 SA
ENDROOT
TORSDOF 0
ENDMDL
MODEL 9
REMARK VINA RESULT:      -2.8     12.604     12.915
REMARK  0 active torsions:
REMARK  status: ('A' for Active; 'I' for Inactive)
ROOT
HETATM    1  C1  UNL     1     -35.124  13.233  -4.391  1.00 20.00     0.148 A 
HETATM    2  C2  UNL     1     -33.129  14.280  -3.682  1.00 20.00     0.148 A 
HETATM    3  C3  UNL     1     -35.935  14.247  -4.069  1.00 20.00     0.074 A 
HETATM    4  C4  UNL     1     -33.705  15.416  -3.277  1.00 20.00     0.074 A 
HETATM    5  O5  UNL     1     -33.764  13.192  -4.228  1.00 20.00    -0.334 OA
HETATM    6  S6  UNL     1     -35.401  15.732  -3.368  1.00 20.00    -0.110 SA
ENDROOT
TORSDOF 0
ENDMDL
