MODEL 1
REMARK VINA RESULT:      -3.9      0.000      0.000
REMARK  3 active torsions:
REMARK  status: ('A' for Active; 'I' for Inactive)
REMARK    1  A    between atoms: C1_1  and  C5_5 
REMARK    2  A    between atoms: C2_2  and  C6_6 
REMARK    3  A    between atoms: C6_6  and  O7_7 
ROOT
HETATM    1  C3  UNL     1     -33.738  15.836  -5.169  1.00 20.00     0.060 C 
HETATM    2  C4  UNL     1     -34.085  13.625  -4.029  1.00 20.00     0.060 C 
HETATM    3  C6  UNL     1     -33.442  15.007  -3.919  1.00 20.00     0.114 C 
ENDROOT
BRANCH   3   4
HETATM    4  C2  UNL     1     -33.923  15.700  -2.712  1.00 20.00    -0.068 C 
HETATM    5  C1  UNL     1     -34.314  16.266  -1.727  1.00 20.00    -0.088 C 
BRANCH   5   6
HETATM    6  C5  UNL     1     -34.790  16.950  -0.528  1.00 20.00     0.208 C 
HETATM    7 CL8  UNL     1     -33.548  18.095   0.012  1.00 20.00    -0.117 Cl
ENDBRANCH   5   6
ENDBRANCH   3   4
BRANCH   3   8
HETATM    8  O7  UNL     1     -32.030  14.813  -3.826  1.00 20.00    -0.378 OA
HETATM    9  H17 UNL     1     -31.798  14.937  -2.894  1.00 20.00     0.211 HD
ENDBRANCH   3   8
TORSDOF 3
ENDMDL
MODEL 2
REMARK VINA RESULT:      -3.9     11.826     12.573
REMARK  3 active torsions:
REMARK  status: ('A' for Active; 'I' for Inactive)
REMARK    1  A    between atoms: C1_1  and  C5_5 
REMARK    2  A    between atoms: C2_2  and  C6_6 
REMARK    3  A    between atoms: C6_6  and  O7_7 
ROOT
HETATM    1  C3  UNL     1     -34.816   5.625   6.405  1.00 20.00     0.060 C 
HETATM    2  C4  UNL     1     -34.461   3.589   4.978  1.00 20.00     0.060 C 
HETATM    3  C6  UNL     1     -34.725   5.093   4.974  1.00 20.00     0.114 C 
ENDROOT
BRANCH   3   4
HETATM    4  C2  UNL     1     -33.667   5.795   4.227  1.00 20.00    -0.068 C 
HETATM    5  C1  UNL     1     -32.803   6.366   3.617  1.00 20.00    -0.088 C 
BRANCH   5   6
HETATM    6  C5  UNL     1     -31.752   7.062   2.879  1.00 20.00     0.208 C 
HETATM    7 CL8  UNL     1     -32.457   8.473   2.068  1.00 20.00    -0.117 Cl
ENDBRANCH   5   6
ENDBRANCH   3   4
BRANCH   3   8
HETATM    8  O7  UNL     1     -35.981   5.304   4.330  1.00 20.00    -0.378 OA
HETATM    9  H17 UNL     1     -36.224   4.460   3.920  1.00 20.00     0.211 HD
ENDBRANCH   3   8
TORSDOF 3
ENDMDL
MODEL 3
REMARK VINA RESULT:      -3.7     11.429     12.162
REMARK  3 active torsions:
REMARK  status: ('A' for Active; 'I' for Inactive)
REMARK    1  A    between atoms: C1_1  and  C5_5 
REMARK    2  A    between atoms: C2_2  and  C6_6 
REMARK    3  A    between atoms: C6_6  and  O7_7 
ROOT
HETATM    1  C3  UNL     1     -35.678   5.351   4.239  1.00 20.00     0.060 C 
HETATM    2  C4  UNL     1     -34.433   6.120   6.280  1.00 20.00     0.060 C 
HETATM    3  C6  UNL     1     -34.310   5.449   4.913  1.00 20.00     0.114 C 
ENDROOT
BRANCH   3   4
HETATM    4  C2  UNL     1     -33.365   6.194   4.062  1.00 20.00    -0.068 C 
HETATM    5  C1  UNL     1     -32.596   6.800   3.367  1.00 20.00    -0.088 C 
BRANCH   5   6
HETATM    6  C5  UNL     1     -31.657   7.536   2.524  1.00 20.00     0.208 C 
HETATM    7 CL8  UNL     1     -32.470   8.974   1.877  1.00 20.00    -0.117 Cl
ENDBRANCH   5   6
ENDBRANCH   3   4
BRANCH   3   8
HETATM    8  O7  UNL     1     -33.814   4.128   5.130  1.00 20.00    -0.378 OA
HETATM    9  H17 UNL     1     -34.294   3.778   5.896  1.00 20.00     0.211 HD
ENDBRANCH   3   8
TORSDOF 3
ENDMDL
MODEL 4
REMARK VINA RESULT:      -3.7      2.100      2.231
REMARK  3 active torsions:
REMARK  status: ('A' for Active; 'I' for Inactive)
REMARK    1  A    between atoms: C1_1  and  C5_5 
REMARK    2  A    between atoms: C2_2  and  C6_6 
REMARK    3  A    between atoms: C6_6  and  O7_7 
ROOT
HETATM    1  C3  UNL     1     -35.074  14.519  -5.680  1.00 20.00     0.060 C 
HETATM    2  C4  UNL     1     -37.081  14.351  -4.180  1.00 20.00     0.060 C 
HETATM    3  C6  UNL     1     -35.560  14.235  -4.259  1.00 20.00     0.114 C 
ENDROOT
BRANCH   3   4
HETATM    4  C2  UNL     1     -34.928  15.159  -3.300  1.00 20.00    -0.068 C 
HETATM    5  C1  UNL     1     -34.411  15.913  -2.521  1.00 20.00    -0.088 C 
BRANCH   5   6
HETATM    6  C5  UNL     1     -33.782  16.826  -1.571  1.00 20.00     0.208 C 
HETATM    7 CL8  UNL     1     -34.797  16.937  -0.121  1.00 20.00    -0.117 Cl
ENDBRANCH   5   6
ENDBRANCH   3   4
BRANCH   3   8
HETATM    8  O7  UNL     1     -35.217  12.891  -3.921  1.00 20.00    -0.378 OA
HETATM    9  H17 UNL     1     -35.502  12.757  -3.005  1.00 20.00     0.211 HD
ENDBRANCH   3   8
TORSDOF 3
ENDMDL
MODEL 5
REMARK VINA RESULT:      -3.5     12.935     13.961
REMARK  3 active torsions:
REMARK  status: ('A' for Active; 'I' for Inactive)
REMARK    1  A    between atoms: C1_1  and  C5_5 
REMARK    2  A    between atoms: C2_2  and  C6_6 
REMARK    3  A    between atoms: C6_6  and  O7_7 
ROOT
HETATM    1  C3  UNL     1     -40.689   6.075  -0.057  1.00 20.00     0.060 C 
HETATM    2  C4  UNL     1     -42.770   7.218  -0.875  1.00 20.00     0.060 C 
HETATM    3  C6  UNL     1     -41.537   6.414  -1.282  1.00 20.00     0.114 C 
ENDROOT
BRANCH   3   4
HETATM    4  C2  UNL     1     -41.940   5.185  -1.989  1.00 20.00    -0.068 C 
HETATM    5  C1  UNL     1     -42.269   4.183  -2.563  1.00 20.00    -0.088 C 
BRANCH   5   6
HETATM    6  C5  UNL     1     -42.665   2.964  -3.264  1.00 20.00     0.208 C 
HETATM    7 CL8  UNL     1     -41.207   2.054  -3.703  1.00 20.00    -0.117 Cl
ENDBRANCH   5   6
ENDBRANCH   3   4
BRANCH   3   8
HETATM    8  O7  UNL     1     -40.764   7.234  -2.158  1.00 20.00    -0.378 OA
HETATM    9  H17 UNL     1     -41.068   8.144  -2.021  1.00 20.00     0.211 HD
ENDBRANCH   3   8
TORSDOF 3
ENDMDL
MODEL 6
REMARK VINA RESULT:      -3.5      4.373      4.644
REMARK  3 active torsions:
REMARK  status: ('A' for Active; 'I' for Inactive)
REMARK    1  A    between atoms: C1_1  and  C5_5 
REMARK    2  A    between atoms: C2_2  and  C6_6 
REMARK    3  A    between atoms: C6_6  and  O7_7 
ROOT
HETATM    1  C3  UNL     1     -34.290  14.673  -3.313  1.00 20.00     0.060 C 
HETATM    2  C4  UNL     1     -34.773  14.293  -5.748  1.00 20.00     0.060 C 
HETATM    3  C6  UNL     1     -35.212  13.983  -4.318  1.00 20.00     0.114 C 
ENDROOT
BRANCH   3   4
HETATM    4  C2  UNL     1     -36.610  14.400  -4.112  1.00 20.00    -0.068 C 
HETATM    5  C1  UNL     1     -37.749  14.742  -3.943  1.00 20.00    -0.088 C 
BRANCH   5   6
HETATM    6  C5  UNL     1     -39.134  15.154  -3.735  1.00 20.00     0.208 C 
HETATM    7 CL8  UNL     1     -40.185  14.198  -4.797  1.00 20.00    -0.117 Cl
ENDBRANCH   5   6
ENDBRANCH   3   4
BRANCH   3   8
HETATM    8  O7  UNL     1     -35.105  12.570  -4.137  1.00 20.00    -0.378 OA
HETATM    9  H17 UNL     1     -34.422  12.432  -3.464  1.00 20.00     0.211 HD
ENDBRANCH   3   8
TORSDOF 3
ENDMDL
MODEL 7
REMARK VINA RESULT:      -3.3     13.677     14.787
REMARK  3 active torsions:
REMARK  status: ('A' for Active; 'I' for Inactive)
REMARK    1  A    between atoms: C1_1  and  C5_5 
REMARK    2  A    between atoms: C2_2  and  C6_6 
REMARK    3  A    between atoms: C6_6  and  O7_7 
ROOT
HETATM    1  C3  UNL     1     -43.298   1.551  -2.486  1.00 20.00     0.060 C 
HETATM    2  C4  UNL     1     -41.344   1.794  -4.045  1.00 20.00     0.060 C 
HETATM    3  C6  UNL     1     -42.432   2.536  -3.272  1.00 20.00     0.114 C 
ENDROOT
BRANCH   3   4
HETATM    4  C2  UNL     1     -41.829   3.532  -2.369  1.00 20.00    -0.068 C 
HETATM    5  C1  UNL     1     -41.339   4.344  -1.632  1.00 20.00    -0.088 C 
BRANCH   5   6
HETATM    6  C5  UNL     1     -40.740   5.332  -0.739  1.00 20.00     0.208 C 
HETATM    7 CL8  UNL     1     -41.141   6.957  -1.328  1.00 20.00    -0.117 Cl
ENDBRANCH   5   6
ENDBRANCH   3   4
BRANCH   3   8
HETATM    8  O7  UNL     1     -43.257   3.201  -4.230  1.00 20.00    -0.378 OA
HETATM    9  H17 UNL     1     -44.146   3.236  -3.848  1.00 20.00     0.211 HD
ENDBRANCH   3   8
TORSDOF 3
ENDMDL
MODEL 8
REMARK VINA RESULT:      -3.3      3.827      5.010
REMARK  3 active torsions:
REMARK  status: ('A' for Active; 'I' for Inactive)
REMARK    1  A    between atoms: C1_1  and  C5_5 
REMARK    2  A    between atoms: C2_2  and  C6_6 
REMARK    3  A    between atoms: C6_6  and  O7_7 
ROOT
HETATM    1  C3  UNL     1     -35.182  15.195  -3.005  1.00 20.00     0.060 C 
HETATM    2  C4  UNL     1     -32.812  14.793  -3.731  1.00 20.00     0.060 C 
HETATM    3  C6  UNL     1     -34.263  14.341  -3.878  1.00 20.00     0.114 C 
ENDROOT
BRANCH   3   4
HETATM    4  C2  UNL     1     -34.679  14.409  -5.290  1.00 20.00    -0.068 C 
HETATM    5  C1  UNL     1     -35.016  14.464  -6.442  1.00 20.00    -0.088 C 
BRANCH   5   6
HETATM    6  C5  UNL     1     -35.427  14.535  -7.842  1.00 20.00     0.208 C 
HETATM    7 CL8  UNL     1     -37.159  14.908  -7.914  1.00 20.00    -0.117 Cl
ENDBRANCH   5   6
ENDBRANCH   3   4
BRANCH   3   8
HETATM    8  O7  UNL     1     -34.336  12.988  -3.426  1.00 20.00    -0.378 OA
HETATM    9  H17 UNL     1     -34.673  13.020  -2.518  1.00 20.00     0.211 HD
ENDBRANCH   3   8
TORSDOF 3
ENDMDL
MODEL 9
REMARK VINA RESULT:      -3.3      3.160      4.449
REMARK  3 active torsions:
REMARK  status: ('A' for Active; 'I' for Inactive)
REMARK    1  A    between atoms: C1_1  and  C5_5 
REMARK    2  A    between atoms: C2_2  and  C6_6 
REMARK    3  A    between atoms: C6_6  and  O7_7 
ROOT
HETATM    1  C3  UNL     1     -35.649  18.148  -1.782  1.00 20.00     0.060 C 
HETATM    2  C4  UNL     1     -33.325  17.997  -0.844  1.00 20.00     0.060 C 
HETATM    3  C6  UNL     1     -34.589  17.215  -1.196  1.00 20.00     0.114 C 
ENDROOT
BRANCH   3   4
HETATM    4  C2  UNL     1     -34.272  16.131  -2.142  1.00 20.00    -0.068 C 
HETATM    5  C1  UNL     1     -34.016  15.247  -2.913  1.00 20.00    -0.088 C 
BRANCH   5   6
HETATM    6  C5  UNL     1     -33.701  14.170  -3.849  1.00 20.00     0.208 C 
HETATM    7 CL8  UNL     1     -35.183  13.260  -4.197  1.00 20.00    -0.117 Cl
ENDBRANCH   5   6
ENDBRANCH   3   4
BRANCH   3   8
HETATM    8  O7  UNL     1     -35.095  16.656   0.016  1.00 20.00    -0.378 OA
HETATM    9  H17 UNL     1     -35.343  15.742  -0.186  1.00 20.00     0.211 HD
ENDBRANCH   3   8
TORSDOF 3
ENDMDL
