MODEL 1
REMARK VINA RESULT:      -5.6      0.000      0.000
REMARK  0 active torsions:
REMARK  status: ('A' for Active; 'I' for Inactive)
ROOT
HETATM    1  C1  UNL     1     -34.968  14.789  -6.853  1.00 20.00     0.017 A 
HETATM    2  C2  UNL     1     -34.888  16.019  -7.505  1.00 20.00     0.025 A 
HETATM    3  C3  UNL     1     -33.660  16.978  -5.631  1.00 20.00     0.032 A 
HETATM    4  C4  UNL     1     -34.388  14.693  -5.601  1.00 20.00     0.016 A 
HETATM    5  C5  UNL     1     -33.744  15.757  -4.979  1.00 20.00    -0.038 A 
HETATM    6  C6  UNL     1     -34.238  17.106  -6.898  1.00 20.00     0.034 A 
HETATM    7  C7  UNL     1     -34.322  13.538  -4.722  1.00 20.00     0.160 A 
HETATM    8  C8  UNL     1     -33.556  13.899  -3.472  1.00 20.00     0.093 A 
HETATM    9  C9  UNL     1     -33.202  15.397  -3.625  1.00 20.00     0.023 A 
HETATM   10  C10 UNL     1     -33.810  16.240  -2.509  1.00 20.00     0.015 C 
HETATM   11  O11 UNL     1     -34.809  12.452  -4.980  1.00 20.00    -0.292 OA
HETATM   12 CL12 UNL     1     -34.148  18.614  -7.727  1.00 20.00    -0.084 Cl
ENDROOT
TORSDOF 0
ENDMDL
MODEL 2
REMARK VINA RESULT:      -4.9      1.816      3.429
REMARK  0 active torsions:
REMARK  status: ('A' for Active; 'I' for Inactive)
ROOT
HETATM    1  C1  UNL     1     -34.043  15.005  -2.977  1.00 20.00     0.017 A 
HETATM    2  C2  UNL     1     -33.761  16.259  -2.436  1.00 20.00     0.025 A 
HETATM    3  C3  UNL     1     -34.537  17.356  -4.469  1.00 20.00     0.032 A 
HETATM    4  C4  UNL     1     -34.565  14.967  -4.257  1.00 20.00     0.016 A 
HETATM    5  C5  UNL     1     -34.812  16.109  -5.011  1.00 20.00    -0.038 A 
HETATM    6  C6  UNL     1     -34.007  17.427  -3.177  1.00 20.00     0.034 A 
HETATM    7  C7  UNL     1     -34.951  13.807  -5.041  1.00 20.00     0.160 A 
HETATM    8  C8  UNL     1     -35.507  14.258  -6.370  1.00 20.00     0.093 A 
HETATM    9  C9  UNL     1     -35.377  15.800  -6.368  1.00 20.00     0.023 A 
HETATM   10  C10 UNL     1     -34.485  16.296  -7.500  1.00 20.00     0.015 C 
HETATM   11  O11 UNL     1     -34.844  12.656  -4.660  1.00 20.00    -0.292 OA
HETATM   12 CL12 UNL     1     -33.655  18.965  -2.483  1.00 20.00    -0.084 Cl
ENDROOT
TORSDOF 0
ENDMDL
MODEL 3
REMARK VINA RESULT:      -4.9      2.937      4.109
REMARK  0 active torsions:
REMARK  status: ('A' for Active; 'I' for Inactive)
ROOT
HETATM    1  C1  UNL     1     -33.673  16.004  -2.281  1.00 20.00     0.017 A 
HETATM    2  C2  UNL     1     -34.201  17.190  -1.770  1.00 20.00     0.025 A 
HETATM    3  C3  UNL     1     -36.363  16.714  -2.790  1.00 20.00     0.032 A 
HETATM    4  C4  UNL     1     -34.513  15.207  -3.036  1.00 20.00     0.016 A 
HETATM    5  C5  UNL     1     -35.837  15.537  -3.303  1.00 20.00    -0.038 A 
HETATM    6  C6  UNL     1     -35.538  17.542  -2.022  1.00 20.00     0.034 A 
HETATM    7  C7  UNL     1     -34.221  13.932  -3.668  1.00 20.00     0.160 A 
HETATM    8  C8  UNL     1     -35.461  13.414  -4.356  1.00 20.00     0.093 A 
HETATM    9  C9  UNL     1     -36.535  14.508  -4.147  1.00 20.00     0.023 A 
HETATM   10  C10 UNL     1     -37.032  15.077  -5.471  1.00 20.00     0.015 C 
HETATM   11  O11 UNL     1     -33.137  13.380  -3.627  1.00 20.00    -0.292 OA
HETATM   12 CL12 UNL     1     -36.168  19.010  -1.376  1.00 20.00    -0.084 Cl
ENDROOT
TORSDOF 0
ENDMDL
MODEL 4
REMARK VINA RESULT:      -4.9      3.524      5.069
REMARK  0 active torsions:
REMARK  status: ('A' for Active; 'I' for Inactive)
ROOT
HETATM    1  C1  UNL     1     -34.179  18.785  -2.543  1.00 20.00     0.017 A 
HETATM    2  C2  UNL     1     -34.579  18.746  -1.208  1.00 20.00     0.025 A 
HETATM    3  C3  UNL     1     -34.494  16.310  -1.211  1.00 20.00     0.032 A 
HETATM    4  C4  UNL     1     -33.950  17.576  -3.174  1.00 20.00     0.016 A 
HETATM    5  C5  UNL     1     -34.102  16.348  -2.541  1.00 20.00    -0.038 A 
HETATM    6  C6  UNL     1     -34.734  17.517  -0.546  1.00 20.00     0.034 A 
HETATM    7  C7  UNL     1     -33.522  17.338  -4.542  1.00 20.00     0.160 A 
HETATM    8  C8  UNL     1     -33.367  15.854  -4.771  1.00 20.00     0.093 A 
HETATM    9  C9  UNL     1     -33.795  15.186  -3.442  1.00 20.00     0.023 A 
HETATM   10  C10 UNL     1     -34.991  14.260  -3.632  1.00 20.00     0.015 C 
HETATM   11  O11 UNL     1     -33.315  18.218  -5.358  1.00 20.00    -0.292 OA
HETATM   12 CL12 UNL     1     -35.223  17.496   1.107  1.00 20.00    -0.084 Cl
ENDROOT
TORSDOF 0
ENDMDL
MODEL 5
REMARK VINA RESULT:      -4.8      6.440      8.355
REMARK  0 active torsions:
REMARK  status: ('A' for Active; 'I' for Inactive)
ROOT
HETATM    1  C1  UNL     1     -33.177  19.122   2.487  1.00 20.00     0.017 A 
HETATM    2  C2  UNL     1     -34.144  18.913   3.470  1.00 20.00     0.025 A 
HETATM    3  C3  UNL     1     -35.502  17.617   1.914  1.00 20.00     0.032 A 
HETATM    4  C4  UNL     1     -33.406  18.569   1.241  1.00 20.00     0.016 A 
HETATM    5  C5  UNL     1     -34.543  17.830   0.935  1.00 20.00    -0.038 A 
HETATM    6  C6  UNL     1     -35.298  18.165   3.185  1.00 20.00     0.034 A 
HETATM    7  C7  UNL     1     -32.564  18.628   0.058  1.00 20.00     0.160 A 
HETATM    8  C8  UNL     1     -33.209  17.844  -1.060  1.00 20.00     0.093 A 
HETATM    9  C9  UNL     1     -34.556  17.342  -0.486  1.00 20.00     0.023 A 
HETATM   10  C10 UNL     1     -35.744  17.875  -1.277  1.00 20.00     0.015 C 
HETATM   11  O11 UNL     1     -31.500  19.217   0.003  1.00 20.00    -0.292 OA
HETATM   12 CL12 UNL     1     -36.477  17.916   4.418  1.00 20.00    -0.084 Cl
ENDROOT
TORSDOF 0
ENDMDL
MODEL 6
REMARK VINA RESULT:      -4.7      1.869      2.216
REMARK  0 active torsions:
REMARK  status: ('A' for Active; 'I' for Inactive)
ROOT
HETATM    1  C1  UNL     1     -36.561  16.811  -4.944  1.00 20.00     0.017 A 
HETATM    2  C2  UNL     1     -35.828  17.859  -5.501  1.00 20.00     0.025 A 
HETATM    3  C3  UNL     1     -33.823  16.474  -5.569  1.00 20.00     0.032 A 
HETATM    4  C4  UNL     1     -35.896  15.621  -4.715  1.00 20.00     0.016 A 
HETATM    5  C5  UNL     1     -34.550  15.434  -5.009  1.00 20.00    -0.038 A 
HETATM    6  C6  UNL     1     -34.469  17.691  -5.812  1.00 20.00     0.034 A 
HETATM    7  C7  UNL     1     -36.420  14.385  -4.159  1.00 20.00     0.160 A 
HETATM    8  C8  UNL     1     -35.330  13.341  -4.132  1.00 20.00     0.093 A 
HETATM    9  C9  UNL     1     -34.064  14.054  -4.664  1.00 20.00     0.023 A 
HETATM   10  C10 UNL     1     -32.945  14.070  -3.630  1.00 20.00     0.015 C 
HETATM   11  O11 UNL     1     -37.570  14.235  -3.789  1.00 20.00    -0.292 OA
HETATM   12 CL12 UNL     1     -33.586  19.000  -6.504  1.00 20.00    -0.084 Cl
ENDROOT
TORSDOF 0
ENDMDL
MODEL 7
REMARK VINA RESULT:      -4.7      2.741      3.963
REMARK  0 active torsions:
REMARK  status: ('A' for Active; 'I' for Inactive)
ROOT
HETATM    1  C1  UNL     1     -34.023  18.061  -4.649  1.00 20.00     0.017 A 
HETATM    2  C2  UNL     1     -33.844  18.316  -3.290  1.00 20.00     0.025 A 
HETATM    3  C3  UNL     1     -33.919  15.931  -2.790  1.00 20.00     0.032 A 
HETATM    4  C4  UNL     1     -34.147  16.740  -5.037  1.00 20.00     0.016 A 
HETATM    5  C5  UNL     1     -34.103  15.677  -4.142  1.00 20.00    -0.038 A 
HETATM    6  C6  UNL     1     -33.791  17.258  -2.367  1.00 20.00     0.034 A 
HETATM    7  C7  UNL     1     -34.330  16.205  -6.376  1.00 20.00     0.160 A 
HETATM    8  C8  UNL     1     -34.375  14.697  -6.315  1.00 20.00     0.093 A 
HETATM    9  C9  UNL     1     -34.263  14.342  -4.813  1.00 20.00     0.023 A 
HETATM   10  C10 UNL     1     -35.488  13.581  -4.317  1.00 20.00     0.015 C 
HETATM   11  O11 UNL     1     -34.420  16.888  -7.380  1.00 20.00    -0.292 OA
HETATM   12 CL12 UNL     1     -33.564  17.600  -0.693  1.00 20.00    -0.084 Cl
ENDROOT
TORSDOF 0
ENDMDL
MODEL 8
REMARK VINA RESULT:      -4.7     12.169     13.662
REMARK  0 active torsions:
REMARK  status: ('A' for Active; 'I' for Inactive)
ROOT
HETATM    1  C1  UNL     1     -34.218   5.243   2.899  1.00 20.00     0.017 A 
HETATM    2  C2  UNL     1     -33.441   6.125   2.148  1.00 20.00     0.025 A 
HETATM    3  C3  UNL     1     -32.617   7.191   4.179  1.00 20.00     0.032 A 
HETATM    4  C4  UNL     1     -34.170   5.366   4.275  1.00 20.00     0.016 A 
HETATM    5  C5  UNL     1     -33.394   6.319   4.926  1.00 20.00    -0.038 A 
HETATM    6  C6  UNL     1     -32.645   7.091   2.784  1.00 20.00     0.034 A 
HETATM    7  C7  UNL     1     -34.866   4.577   5.277  1.00 20.00     0.160 A 
HETATM    8  C8  UNL     1     -34.475   5.053   6.655  1.00 20.00     0.093 A 
HETATM    9  C9  UNL     1     -33.518   6.247   6.422  1.00 20.00     0.023 A 
HETATM   10  C10 UNL     1     -34.063   7.537   7.026  1.00 20.00     0.015 C 
HETATM   11  O11 UNL     1     -35.636   3.669   5.021  1.00 20.00    -0.292 OA
HETATM   12 CL12 UNL     1     -31.690   8.166   1.834  1.00 20.00    -0.084 Cl
ENDROOT
TORSDOF 0
ENDMDL
MODEL 9
REMARK VINA RESULT:      -4.6      3.232      3.596
REMARK  0 active torsions:
REMARK  status: ('A' for Active; 'I' for Inactive)
ROOT
HETATM    1  C1  UNL     1     -37.406  14.445  -4.083  1.00 20.00     0.017 A 
HETATM    2  C2  UNL     1     -38.433  15.382  -3.973  1.00 20.00     0.025 A 
HETATM    3  C3  UNL     1     -36.887  17.029  -3.056  1.00 20.00     0.032 A 
HETATM    4  C4  UNL     1     -36.144  14.833  -3.672  1.00 20.00     0.016 A 
HETATM    5  C5  UNL     1     -35.866  16.096  -3.160  1.00 20.00    -0.038 A 
HETATM    6  C6  UNL     1     -38.175  16.666  -3.464  1.00 20.00     0.034 A 
HETATM    7  C7  UNL     1     -34.912  14.063  -3.689  1.00 20.00     0.160 A 
HETATM    8  C8  UNL     1     -33.777  14.916  -3.177  1.00 20.00     0.093 A 
HETATM    9  C9  UNL     1     -34.421  16.266  -2.784  1.00 20.00     0.023 A 
HETATM   10  C10 UNL     1     -34.235  16.575  -1.302  1.00 20.00     0.015 C 
HETATM   11  O11 UNL     1     -34.830  12.910  -4.072  1.00 20.00    -0.292 OA
HETATM   12 CL12 UNL     1     -39.460  17.807  -3.342  1.00 20.00    -0.084 Cl
ENDROOT
TORSDOF 0
ENDMDL
