MODEL 1
REMARK VINA RESULT:      -4.3      0.000      0.000
REMARK  0 active torsions:
REMARK  status: ('A' for Active; 'I' for Inactive)
ROOT
HETATM    1  C1  UNL     1     -36.927  14.895  -3.838  1.00 20.00     0.066 C 
HETATM    2  C2  UNL     1     -33.518  13.644  -3.809  1.00 20.00     0.034 C 
HETATM    3  C3  UNL     1     -34.450  13.654  -5.020  1.00 20.00     0.036 C 
HETATM    4  C4  UNL     1     -34.746  15.598  -2.815  1.00 20.00     0.053 C 
HETATM    5  C5  UNL     1     -35.694  15.659  -4.023  1.00 20.00     0.124 C 
HETATM    6  C6  UNL     1     -33.439  15.127  -3.458  1.00 20.00     0.123 C 
HETATM    7  C7  UNL     1     -34.793  15.140  -5.151  1.00 20.00     0.139 C 
HETATM    8  N8  UNL     1     -37.906  14.289  -3.691  1.00 20.00    -0.197 NA
HETATM    9  O9  UNL     1     -33.526  15.733  -4.768  1.00 20.00    -0.379 OA
ENDROOT
TORSDOF 0
ENDMDL
MODEL 2
REMARK VINA RESULT:      -4.1      1.061      2.147
REMARK  0 active torsions:
REMARK  status: ('A' for Active; 'I' for Inactive)
ROOT
HETATM    1  C1  UNL     1     -36.385  14.293  -4.081  1.00 20.00     0.066 C 
HETATM    2  C2  UNL     1     -33.939  16.904  -3.454  1.00 20.00     0.034 C 
HETATM    3  C3  UNL     1     -34.399  15.857  -2.440  1.00 20.00     0.036 C 
HETATM    4  C4  UNL     1     -34.496  15.352  -5.350  1.00 20.00     0.053 C 
HETATM    5  C5  UNL     1     -34.950  14.261  -4.368  1.00 20.00     0.124 C 
HETATM    6  C6  UNL     1     -33.369  16.034  -4.571  1.00 20.00     0.123 C 
HETATM    7  C7  UNL     1     -34.058  14.546  -3.153  1.00 20.00     0.139 C 
HETATM    8  N8  UNL     1     -37.522  14.318  -3.853  1.00 20.00    -0.197 NA
HETATM    9  O9  UNL     1     -32.826  14.925  -3.818  1.00 20.00    -0.379 OA
ENDROOT
TORSDOF 0
ENDMDL
MODEL 3
REMARK VINA RESULT:      -4.1      1.822      2.939
REMARK  0 active torsions:
REMARK  status: ('A' for Active; 'I' for Inactive)
ROOT
HETATM    1  C1  UNL     1     -34.269  13.684  -4.090  1.00 20.00     0.066 C 
HETATM    2  C2  UNL     1     -35.346  17.153  -4.053  1.00 20.00     0.034 C 
HETATM    3  C3  UNL     1     -35.752  16.086  -3.036  1.00 20.00     0.036 C 
HETATM    4  C4  UNL     1     -33.213  15.916  -4.537  1.00 20.00     0.053 C 
HETATM    5  C5  UNL     1     -33.569  14.831  -3.510  1.00 20.00     0.124 C 
HETATM    6  C6  UNL     1     -33.827  17.168  -3.906  1.00 20.00     0.123 C 
HETATM    7  C7  UNL     1     -34.397  15.626  -2.493  1.00 20.00     0.139 C 
HETATM    8  N8  UNL     1     -34.824  12.775  -4.549  1.00 20.00    -0.197 NA
HETATM    9  O9  UNL     1     -33.676  16.884  -2.495  1.00 20.00    -0.379 OA
ENDROOT
TORSDOF 0
ENDMDL
MODEL 4
REMARK VINA RESULT:      -4.1      1.879      2.338
REMARK  0 active torsions:
REMARK  status: ('A' for Active; 'I' for Inactive)
ROOT
HETATM    1  C1  UNL     1     -35.030  13.763  -4.059  1.00 20.00     0.066 C 
HETATM    2  C2  UNL     1     -33.317  16.776  -5.145  1.00 20.00     0.034 C 
HETATM    3  C3  UNL     1     -34.596  16.210  -5.763  1.00 20.00     0.036 C 
HETATM    4  C4  UNL     1     -33.866  15.688  -2.947  1.00 20.00     0.053 C 
HETATM    5  C5  UNL     1     -35.172  15.116  -3.519  1.00 20.00     0.124 C 
HETATM    6  C6  UNL     1     -33.743  17.016  -3.699  1.00 20.00     0.123 C 
HETATM    7  C7  UNL     1     -35.545  16.176  -4.562  1.00 20.00     0.139 C 
HETATM    8  N8  UNL     1     -34.919  12.691  -4.487  1.00 20.00    -0.197 NA
HETATM    9  O9  UNL     1     -35.132  17.381  -3.870  1.00 20.00    -0.379 OA
ENDROOT
TORSDOF 0
ENDMDL
MODEL 5
REMARK VINA RESULT:      -4.1      1.747      2.589
REMARK  0 active torsions:
REMARK  status: ('A' for Active; 'I' for Inactive)
ROOT
HETATM    1  C1  UNL     1     -35.169  13.792  -4.525  1.00 20.00     0.066 C 
HETATM    2  C2  UNL     1     -34.678  16.175  -1.828  1.00 20.00     0.034 C 
HETATM    3  C3  UNL     1     -33.654  15.836  -2.912  1.00 20.00     0.036 C 
HETATM    4  C4  UNL     1     -36.557  15.532  -3.367  1.00 20.00     0.053 C 
HETATM    5  C5  UNL     1     -35.567  15.200  -4.493  1.00 20.00     0.124 C 
HETATM    6  C6  UNL     1     -35.854  16.689  -2.653  1.00 20.00     0.123 C 
HETATM    7  C7  UNL     1     -34.419  16.173  -4.194  1.00 20.00     0.139 C 
HETATM    8  N8  UNL     1     -34.854  12.676  -4.551  1.00 20.00    -0.197 NA
HETATM    9  O9  UNL     1     -35.169  17.333  -3.752  1.00 20.00    -0.379 OA
ENDROOT
TORSDOF 0
ENDMDL
MODEL 6
REMARK VINA RESULT:      -4.1      2.092      2.737
REMARK  0 active torsions:
REMARK  status: ('A' for Active; 'I' for Inactive)
ROOT
HETATM    1  C1  UNL     1     -35.781  16.468  -5.376  1.00 20.00     0.066 C 
HETATM    2  C2  UNL     1     -33.627  13.952  -3.886  1.00 20.00     0.034 C 
HETATM    3  C3  UNL     1     -34.696  14.756  -3.147  1.00 20.00     0.036 C 
HETATM    4  C4  UNL     1     -34.880  14.225  -6.047  1.00 20.00     0.053 C 
HETATM    5  C5  UNL     1     -35.989  15.020  -5.343  1.00 20.00     0.124 C 
HETATM    6  C6  UNL     1     -34.450  13.241  -4.957  1.00 20.00     0.123 C 
HETATM    7  C7  UNL     1     -35.962  14.411  -3.935  1.00 20.00     0.139 C 
HETATM    8  N8  UNL     1     -35.617  17.616  -5.402  1.00 20.00    -0.197 NA
HETATM    9  O9  UNL     1     -35.697  13.022  -4.257  1.00 20.00    -0.379 OA
ENDROOT
TORSDOF 0
ENDMDL
MODEL 7
REMARK VINA RESULT:      -4.0      1.969      2.800
REMARK  0 active torsions:
REMARK  status: ('A' for Active; 'I' for Inactive)
ROOT
HETATM    1  C1  UNL     1     -33.659  16.145  -2.686  1.00 20.00     0.066 C 
HETATM    2  C2  UNL     1     -35.826  13.704  -4.278  1.00 20.00     0.034 C 
HETATM    3  C3  UNL     1     -35.914  15.219  -4.457  1.00 20.00     0.036 C 
HETATM    4  C4  UNL     1     -33.379  13.883  -3.737  1.00 20.00     0.053 C 
HETATM    5  C5  UNL     1     -33.414  15.407  -3.926  1.00 20.00     0.124 C 
HETATM    6  C6  UNL     1     -34.410  13.409  -4.764  1.00 20.00     0.123 C 
HETATM    7  C7  UNL     1     -34.517  15.563  -4.981  1.00 20.00     0.139 C 
HETATM    8  N8  UNL     1     -33.852  16.730  -1.704  1.00 20.00    -0.197 NA
HETATM    9  O9  UNL     1     -34.256  14.400  -5.806  1.00 20.00    -0.379 OA
ENDROOT
TORSDOF 0
ENDMDL
MODEL 8
REMARK VINA RESULT:      -3.9     11.522     12.436
REMARK  0 active torsions:
REMARK  status: ('A' for Active; 'I' for Inactive)
ROOT
HETATM    1  C1  UNL     1     -42.969   4.258  -2.641  1.00 20.00     0.066 C 
HETATM    2  C2  UNL     1     -41.142   7.026  -1.159  1.00 20.00     0.034 C 
HETATM    3  C3  UNL     1     -42.664   6.883  -1.193  1.00 20.00     0.036 C 
HETATM    4  C4  UNL     1     -40.879   4.529  -1.278  1.00 20.00     0.053 C 
HETATM    5  C5  UNL     1     -42.403   4.336  -1.294  1.00 20.00     0.124 C 
HETATM    6  C6  UNL     1     -40.723   5.771  -0.397  1.00 20.00     0.123 C 
HETATM    7  C7  UNL     1     -42.878   5.546  -0.479  1.00 20.00     0.139 C 
HETATM    8  N8  UNL     1     -43.417   4.196  -3.708  1.00 20.00    -0.197 NA
HETATM    9  O9  UNL     1     -41.830   5.615   0.521  1.00 20.00    -0.379 OA
ENDROOT
TORSDOF 0
ENDMDL
MODEL 9
REMARK VINA RESULT:      -3.9      2.460      3.158
REMARK  0 active torsions:
REMARK  status: ('A' for Active; 'I' for Inactive)
ROOT
HETATM    1  C1  UNL     1     -33.352  16.032  -4.555  1.00 20.00     0.066 C 
HETATM    2  C2  UNL     1     -36.531  14.466  -5.355  1.00 20.00     0.034 C 
HETATM    3  C3  UNL     1     -35.226  14.275  -6.129  1.00 20.00     0.036 C 
HETATM    4  C4  UNL     1     -35.241  15.001  -3.265  1.00 20.00     0.053 C 
HETATM    5  C5  UNL     1     -33.906  14.798  -3.997  1.00 20.00     0.124 C 
HETATM    6  C6  UNL     1     -36.145  13.980  -3.960  1.00 20.00     0.123 C 
HETATM    7  C7  UNL     1     -34.283  13.745  -5.046  1.00 20.00     0.139 C 
HETATM    8  N8  UNL     1     -32.913  17.010  -4.998  1.00 20.00    -0.197 NA
HETATM    9  O9  UNL     1     -35.203  12.928  -4.277  1.00 20.00    -0.379 OA
ENDROOT
TORSDOF 0
ENDMDL
