MODEL 1
REMARK VINA RESULT:      -3.7      0.000      0.000
REMARK  2 active torsions:
REMARK  status: ('A' for Active; 'I' for Inactive)
REMARK    1  A    between atoms: C5_5  and  O8_8 
REMARK    2  A    between atoms: C6_6  and  O8_8 
ROOT
HETATM    1  C1  UNL     1     -34.637  13.724  -4.225  1.00 20.00     0.097 C 
HETATM    2  C3  UNL     1     -32.650  15.056  -3.645  1.00 20.00     0.062 C 
HETATM    3  C4  UNL     1     -34.534  16.067  -4.973  1.00 20.00     0.062 C 
HETATM    4  C6  UNL     1     -34.161  15.072  -3.874  1.00 20.00     0.141 C 
HETATM    5  N7  UNL     1     -35.014  12.661  -4.501  1.00 20.00    -0.194 NA
ENDROOT
BRANCH   4   6
HETATM    6  O8  UNL     1     -34.796  15.478  -2.663  1.00 20.00    -0.367 OA
BRANCH   6   7
HETATM    7  C5  UNL     1     -34.060  16.500  -2.011  1.00 20.00     0.165 C 
HETATM    8  C2  UNL     1     -34.635  16.717  -0.627  1.00 20.00     0.033 C 
ENDBRANCH   6   7
ENDBRANCH   4   6
TORSDOF 2
ENDMDL
MODEL 2
REMARK VINA RESULT:      -3.7     12.070     12.734
REMARK  2 active torsions:
REMARK  status: ('A' for Active; 'I' for Inactive)
REMARK    1  A    between atoms: C5_5  and  O8_8 
REMARK    2  A    between atoms: C6_6  and  O8_8 
ROOT
HETATM    1  C1  UNL     1     -34.190   6.270   5.951  1.00 20.00     0.097 C 
HETATM    2  C3  UNL     1     -34.728   3.907   5.516  1.00 20.00     0.062 C 
HETATM    3  C4  UNL     1     -35.607   5.725   4.013  1.00 20.00     0.062 C 
HETATM    4  C6  UNL     1     -34.443   5.274   4.896  1.00 20.00     0.141 C 
HETATM    5  N7  UNL     1     -33.991   7.055   6.783  1.00 20.00    -0.194 NA
ENDROOT
BRANCH   4   6
HETATM    6  O8  UNL     1     -33.275   5.167   4.084  1.00 20.00    -0.367 OA
BRANCH   6   7
HETATM    7  C5  UNL     1     -33.250   6.171   3.081  1.00 20.00     0.165 C 
HETATM    8  C2  UNL     1     -31.996   7.003   3.247  1.00 20.00     0.033 C 
ENDBRANCH   6   7
ENDBRANCH   4   6
TORSDOF 2
ENDMDL
MODEL 3
REMARK VINA RESULT:      -3.6      1.569      1.847
REMARK  2 active torsions:
REMARK  status: ('A' for Active; 'I' for Inactive)
REMARK    1  A    between atoms: C5_5  and  O8_8 
REMARK    2  A    between atoms: C6_6  and  O8_8 
ROOT
HETATM    1  C1  UNL     1     -36.603  14.423  -3.973  1.00 20.00     0.097 C 
HETATM    2  C3  UNL     1     -34.618  13.226  -4.802  1.00 20.00     0.062 C 
HETATM    3  C4  UNL     1     -34.850  15.712  -5.123  1.00 20.00     0.062 C 
HETATM    4  C6  UNL     1     -35.153  14.527  -4.205  1.00 20.00     0.141 C 
HETATM    5  N7  UNL     1     -37.747  14.341  -3.789  1.00 20.00    -0.194 NA
ENDROOT
BRANCH   4   6
HETATM    6  O8  UNL     1     -34.507  14.749  -2.953  1.00 20.00    -0.367 OA
BRANCH   6   7
HETATM    7  C5  UNL     1     -34.311  16.134  -2.711  1.00 20.00     0.165 C 
HETATM    8  C2  UNL     1     -34.625  16.431  -1.261  1.00 20.00     0.033 C 
ENDBRANCH   6   7
ENDBRANCH   4   6
TORSDOF 2
ENDMDL
MODEL 4
REMARK VINA RESULT:      -3.6      1.330      2.570
REMARK  2 active torsions:
REMARK  status: ('A' for Active; 'I' for Inactive)
REMARK    1  A    between atoms: C5_5  and  O8_8 
REMARK    2  A    between atoms: C6_6  and  O8_8 
ROOT
HETATM    1  C1  UNL     1     -34.659  13.755  -4.109  1.00 20.00     0.097 C 
HETATM    2  C3  UNL     1     -34.763  15.599  -2.481  1.00 20.00     0.062 C 
HETATM    3  C4  UNL     1     -32.597  15.009  -3.619  1.00 20.00     0.062 C 
HETATM    4  C6  UNL     1     -34.117  15.081  -3.765  1.00 20.00     0.141 C 
HETATM    5  N7  UNL     1     -35.085  12.710  -4.380  1.00 20.00    -0.194 NA
ENDROOT
BRANCH   4   6
HETATM    6  O8  UNL     1     -34.427  15.986  -4.823  1.00 20.00    -0.367 OA
BRANCH   6   7
HETATM    7  C5  UNL     1     -33.289  16.740  -5.208  1.00 20.00     0.165 C 
HETATM    8  C2  UNL     1     -33.643  18.212  -5.191  1.00 20.00     0.033 C 
ENDBRANCH   6   7
ENDBRANCH   4   6
TORSDOF 2
ENDMDL
MODEL 5
REMARK VINA RESULT:      -3.5      1.596      2.048
REMARK  2 active torsions:
REMARK  status: ('A' for Active; 'I' for Inactive)
REMARK    1  A    between atoms: C5_5  and  O8_8 
REMARK    2  A    between atoms: C6_6  and  O8_8 
ROOT
HETATM    1  C1  UNL     1     -35.509  13.754  -4.221  1.00 20.00     0.097 C 
HETATM    2  C3  UNL     1     -35.773  16.061  -5.039  1.00 20.00     0.062 C 
HETATM    3  C4  UNL     1     -37.756  14.761  -4.196  1.00 20.00     0.062 C 
HETATM    4  C6  UNL     1     -36.256  15.010  -4.040  1.00 20.00     0.141 C 
HETATM    5  N7  UNL     1     -34.921  12.763  -4.364  1.00 20.00    -0.194 NA
ENDROOT
BRANCH   4   6
HETATM    6  O8  UNL     1     -36.014  15.496  -2.721  1.00 20.00    -0.367 OA
BRANCH   6   7
HETATM    7  C5  UNL     1     -34.651  15.850  -2.543  1.00 20.00     0.165 C 
HETATM    8  C2  UNL     1     -34.489  16.529  -1.200  1.00 20.00     0.033 C 
ENDBRANCH   6   7
ENDBRANCH   4   6
TORSDOF 2
ENDMDL
MODEL 6
REMARK VINA RESULT:      -3.5      2.158      3.681
REMARK  2 active torsions:
REMARK  status: ('A' for Active; 'I' for Inactive)
REMARK    1  A    between atoms: C5_5  and  O8_8 
REMARK    2  A    between atoms: C6_6  and  O8_8 
ROOT
HETATM    1  C1  UNL     1     -36.729  14.551  -3.822  1.00 20.00     0.097 C 
HETATM    2  C3  UNL     1     -34.912  15.795  -2.721  1.00 20.00     0.062 C 
HETATM    3  C4  UNL     1     -34.483  13.544  -3.764  1.00 20.00     0.062 C 
HETATM    4  C6  UNL     1     -35.286  14.842  -3.856  1.00 20.00     0.141 C 
HETATM    5  N7  UNL     1     -37.866  14.321  -3.796  1.00 20.00    -0.194 NA
ENDROOT
BRANCH   4   6
HETATM    6  O8  UNL     1     -34.980  15.475  -5.097  1.00 20.00    -0.367 OA
BRANCH   6   7
HETATM    7  C5  UNL     1     -34.553  14.532  -6.067  1.00 20.00     0.165 C 
HETATM    8  C2  UNL     1     -35.225  14.843  -7.388  1.00 20.00     0.033 C 
ENDBRANCH   6   7
ENDBRANCH   4   6
TORSDOF 2
ENDMDL
MODEL 7
REMARK VINA RESULT:      -3.4      1.503      2.183
REMARK  2 active torsions:
REMARK  status: ('A' for Active; 'I' for Inactive)
REMARK    1  A    between atoms: C5_5  and  O8_8 
REMARK    2  A    between atoms: C6_6  and  O8_8 
ROOT
HETATM    1  C1  UNL     1     -34.178  15.385  -5.246  1.00 20.00     0.097 C 
HETATM    2  C3  UNL     1     -35.084  13.280  -4.347  1.00 20.00     0.062 C 
HETATM    3  C4  UNL     1     -32.871  14.174  -3.547  1.00 20.00     0.062 C 
HETATM    4  C6  UNL     1     -34.269  14.538  -4.045  1.00 20.00     0.141 C 
HETATM    5  N7  UNL     1     -34.105  16.054  -6.192  1.00 20.00    -0.194 NA
ENDROOT
BRANCH   4   6
HETATM    6  O8  UNL     1     -34.936  15.272  -3.020  1.00 20.00    -0.367 OA
BRANCH   6   7
HETATM    7  C5  UNL     1     -34.070  16.219  -2.416  1.00 20.00     0.165 C 
HETATM    8  C2  UNL     1     -34.586  16.548  -1.031  1.00 20.00     0.033 C 
ENDBRANCH   6   7
ENDBRANCH   4   6
TORSDOF 2
ENDMDL
MODEL 8
REMARK VINA RESULT:      -3.3      1.762      2.413
REMARK  2 active torsions:
REMARK  status: ('A' for Active; 'I' for Inactive)
REMARK    1  A    between atoms: C5_5  and  O8_8 
REMARK    2  A    between atoms: C6_6  and  O8_8 
ROOT
HETATM    1  C1  UNL     1     -33.720  14.221  -3.818  1.00 20.00     0.097 C 
HETATM    2  C3  UNL     1     -34.023  16.254  -2.464  1.00 20.00     0.062 C 
HETATM    3  C4  UNL     1     -33.184  16.399  -4.833  1.00 20.00     0.062 C 
HETATM    4  C6  UNL     1     -34.094  15.644  -3.864  1.00 20.00     0.141 C 
HETATM    5  N7  UNL     1     -33.425  13.098  -3.784  1.00 20.00    -0.194 NA
ENDROOT
BRANCH   4   6
HETATM    6  O8  UNL     1     -35.437  15.746  -4.332  1.00 20.00    -0.367 OA
BRANCH   6   7
HETATM    7  C5  UNL     1     -36.366  15.402  -3.317  1.00 20.00     0.165 C 
HETATM    8  C2  UNL     1     -37.556  14.713  -3.949  1.00 20.00     0.033 C 
ENDBRANCH   6   7
ENDBRANCH   4   6
TORSDOF 2
ENDMDL
MODEL 9
REMARK VINA RESULT:      -3.3      2.242      3.700
REMARK  2 active torsions:
REMARK  status: ('A' for Active; 'I' for Inactive)
REMARK    1  A    between atoms: C5_5  and  O8_8 
REMARK    2  A    between atoms: C6_6  and  O8_8 
ROOT
HETATM    1  C1  UNL     1     -34.431  15.723  -2.591  1.00 20.00     0.097 C 
HETATM    2  C3  UNL     1     -33.117  16.190  -4.620  1.00 20.00     0.062 C 
HETATM    3  C4  UNL     1     -33.325  13.844  -3.733  1.00 20.00     0.062 C 
HETATM    4  C6  UNL     1     -34.025  15.192  -3.903  1.00 20.00     0.141 C 
HETATM    5  N7  UNL     1     -34.751  16.141  -1.556  1.00 20.00    -0.194 NA
ENDROOT
BRANCH   4   6
HETATM    6  O8  UNL     1     -35.195  14.996  -4.695  1.00 20.00    -0.367 OA
BRANCH   6   7
HETATM    7  C5  UNL     1     -35.025  13.928  -5.613  1.00 20.00     0.165 C 
HETATM    8  C2  UNL     1     -35.347  14.419  -7.008  1.00 20.00     0.033 C 
ENDBRANCH   6   7
ENDBRANCH   4   6
TORSDOF 2
ENDMDL
