MODEL 1
REMARK VINA RESULT:      -4.4      0.000      0.000
REMARK  1 active torsions:
REMARK  status: ('A' for Active; 'I' for Inactive)
REMARK    1  A    between atoms: C1_1  and  C6_6 
ROOT
HETATM    1  C2  UNL     1     -34.653  17.030  -4.521  1.00 20.00     0.005 C 
HETATM    2  C3  UNL     1     -33.302  16.315  -4.661  1.00 20.00     0.006 C 
HETATM    3  C4  UNL     1     -35.586  15.078  -3.263  1.00 20.00     0.016 C 
HETATM    4  C5  UNL     1     -33.850  16.440  -2.358  1.00 20.00     0.010 C 
HETATM    5  C6  UNL     1     -34.246  14.336  -3.372  1.00 20.00     0.051 C 
HETATM    6  C7  UNL     1     -35.154  16.553  -3.148  1.00 20.00    -0.013 C 
HETATM    7  C8  UNL     1     -33.216  15.481  -3.369  1.00 20.00    -0.003 C 
ENDROOT
BRANCH   5   8
HETATM    8  C1  UNL     1     -34.157  13.445  -4.570  1.00 20.00     0.236 C 
HETATM    9  O9  UNL     1     -34.932  12.519  -4.784  1.00 20.00    -0.306 OA
ENDBRANCH   5   8
TORSDOF 1
ENDMDL
MODEL 2
REMARK VINA RESULT:      -4.4      1.556      2.415
REMARK  1 active torsions:
REMARK  status: ('A' for Active; 'I' for Inactive)
REMARK    1  A    between atoms: C1_1  and  C6_6 
ROOT
HETATM    1  C2  UNL     1     -33.573  15.886  -5.020  1.00 20.00     0.005 C 
HETATM    2  C3  UNL     1     -34.406  14.768  -5.662  1.00 20.00     0.006 C 
HETATM    3  C4  UNL     1     -34.704  15.504  -2.821  1.00 20.00     0.016 C 
HETATM    4  C5  UNL     1     -33.262  13.870  -3.790  1.00 20.00     0.010 C 
HETATM    5  C6  UNL     1     -35.549  14.371  -3.423  1.00 20.00     0.051 C 
HETATM    6  C7  UNL     1     -33.369  15.381  -3.582  1.00 20.00    -0.013 C 
HETATM    7  C8  UNL     1     -34.617  13.780  -4.498  1.00 20.00    -0.003 C 
ENDROOT
BRANCH   5   8
HETATM    8  C1  UNL     1     -36.868  14.833  -3.955  1.00 20.00     0.236 C 
HETATM    9  O9  UNL     1     -37.916  14.217  -3.791  1.00 20.00    -0.306 OA
ENDBRANCH   5   8
TORSDOF 1
ENDMDL
MODEL 3
REMARK VINA RESULT:      -4.3      0.980      1.999
REMARK  1 active torsions:
REMARK  status: ('A' for Active; 'I' for Inactive)
REMARK    1  A    between atoms: C1_1  and  C6_6 
ROOT
HETATM    1  C2  UNL     1     -34.832  15.835  -2.203  1.00 20.00     0.005 C 
HETATM    2  C3  UNL     1     -35.824  15.963  -3.367  1.00 20.00     0.006 C 
HETATM    3  C4  UNL     1     -33.175  14.710  -3.704  1.00 20.00     0.016 C 
HETATM    4  C5  UNL     1     -33.787  16.996  -4.001  1.00 20.00     0.010 C 
HETATM    5  C6  UNL     1     -34.136  14.830  -4.896  1.00 20.00     0.051 C 
HETATM    6  C7  UNL     1     -33.468  15.989  -2.895  1.00 20.00    -0.013 C 
HETATM    7  C8  UNL     1     -34.904  16.131  -4.591  1.00 20.00    -0.003 C 
ENDROOT
BRANCH   5   8
HETATM    8  C1  UNL     1     -35.017  13.635  -5.071  1.00 20.00     0.236 C 
HETATM    9  O9  UNL     1     -34.992  12.662  -4.326  1.00 20.00    -0.306 OA
ENDBRANCH   5   8
TORSDOF 1
ENDMDL
MODEL 4
REMARK VINA RESULT:      -4.1     11.227     12.552
REMARK  1 active torsions:
REMARK  status: ('A' for Active; 'I' for Inactive)
REMARK    1  A    between atoms: C1_1  and  C6_6 
ROOT
HETATM    1  C2  UNL     1     -40.650   4.697  -0.993  1.00 20.00     0.005 C 
HETATM    2  C3  UNL     1     -41.984   4.438  -1.707  1.00 20.00     0.006 C 
HETATM    3  C4  UNL     1     -41.124   7.154  -0.940  1.00 20.00     0.016 C 
HETATM    4  C5  UNL     1     -42.426   5.597   0.313  1.00 20.00     0.010 C 
HETATM    5  C6  UNL     1     -42.472   6.935  -1.643  1.00 20.00     0.051 C 
HETATM    6  C7  UNL     1     -40.976   5.887  -0.075  1.00 20.00    -0.013 C 
HETATM    7  C8  UNL     1     -42.899   5.542  -1.142  1.00 20.00    -0.003 C 
ENDROOT
BRANCH   5   8
HETATM    8  C1  UNL     1     -42.390   7.042  -3.132  1.00 20.00     0.236 C 
HETATM    9  O9  UNL     1     -43.325   6.783  -3.881  1.00 20.00    -0.306 OA
ENDBRANCH   5   8
TORSDOF 1
ENDMDL
MODEL 5
REMARK VINA RESULT:      -4.1      1.685      2.772
REMARK  1 active torsions:
REMARK  status: ('A' for Active; 'I' for Inactive)
REMARK    1  A    between atoms: C1_1  and  C6_6 
ROOT
HETATM    1  C2  UNL     1     -33.260  13.768  -3.709  1.00 20.00     0.005 C 
HETATM    2  C3  UNL     1     -34.741  13.503  -4.015  1.00 20.00     0.006 C 
HETATM    3  C4  UNL     1     -33.415  16.024  -4.779  1.00 20.00     0.016 C 
HETATM    4  C5  UNL     1     -34.581  15.509  -2.763  1.00 20.00     0.010 C 
HETATM    5  C6  UNL     1     -34.902  15.802  -5.093  1.00 20.00     0.051 C 
HETATM    6  C7  UNL     1     -33.230  15.281  -3.442  1.00 20.00    -0.013 C 
HETATM    7  C8  UNL     1     -35.369  14.907  -3.930  1.00 20.00    -0.003 C 
ENDROOT
BRANCH   5   8
HETATM    8  C1  UNL     1     -35.141  15.209  -6.445  1.00 20.00     0.236 C 
HETATM    9  O9  UNL     1     -34.241  14.921  -7.226  1.00 20.00    -0.306 OA
ENDBRANCH   5   8
TORSDOF 1
ENDMDL
MODEL 6
REMARK VINA RESULT:      -4.1      2.206      3.264
REMARK  1 active torsions:
REMARK  status: ('A' for Active; 'I' for Inactive)
REMARK    1  A    between atoms: C1_1  and  C6_6 
ROOT
HETATM    1  C2  UNL     1     -35.630  14.750  -3.550  1.00 20.00     0.005 C 
HETATM    2  C3  UNL     1     -34.643  15.569  -2.707  1.00 20.00     0.006 C 
HETATM    3  C4  UNL     1     -34.281  15.192  -5.610  1.00 20.00     0.016 C 
HETATM    4  C5  UNL     1     -33.439  13.858  -3.822  1.00 20.00     0.010 C 
HETATM    5  C6  UNL     1     -33.265  16.009  -4.801  1.00 20.00     0.051 C 
HETATM    6  C7  UNL     1     -34.725  14.105  -4.612  1.00 20.00    -0.013 C 
HETATM    7  C8  UNL     1     -33.297  15.329  -3.419  1.00 20.00    -0.003 C 
ENDROOT
BRANCH   5   8
HETATM    8  C1  UNL     1     -33.575  17.471  -4.761  1.00 20.00     0.236 C 
HETATM    9  O9  UNL     1     -33.428  18.220  -5.721  1.00 20.00    -0.306 OA
ENDBRANCH   5   8
TORSDOF 1
ENDMDL
MODEL 7
REMARK VINA RESULT:      -4.1     11.661     12.821
REMARK  1 active torsions:
REMARK  status: ('A' for Active; 'I' for Inactive)
REMARK    1  A    between atoms: C1_1  and  C6_6 
ROOT
HETATM    1  C2  UNL     1     -42.543   5.326   0.546  1.00 20.00     0.005 C 
HETATM    2  C3  UNL     1     -43.145   6.537  -0.179  1.00 20.00     0.006 C 
HETATM    3  C4  UNL     1     -41.366   4.623  -1.547  1.00 20.00     0.016 C 
HETATM    4  C5  UNL     1     -40.786   6.629  -0.394  1.00 20.00     0.010 C 
HETATM    5  C6  UNL     1     -41.938   5.830  -2.304  1.00 20.00     0.051 C 
HETATM    6  C7  UNL     1     -41.167   5.174  -0.121  1.00 20.00    -0.013 C 
HETATM    7  C8  UNL     1     -42.056   6.903  -1.205  1.00 20.00    -0.003 C 
ENDROOT
BRANCH   5   8
HETATM    8  C1  UNL     1     -43.228   5.536  -3.001  1.00 20.00     0.236 C 
HETATM    9  O9  UNL     1     -43.414   4.536  -3.687  1.00 20.00    -0.306 OA
ENDBRANCH   5   8
TORSDOF 1
ENDMDL
MODEL 8
REMARK VINA RESULT:      -4.0      2.071      3.129
REMARK  1 active torsions:
REMARK  status: ('A' for Active; 'I' for Inactive)
REMARK    1  A    between atoms: C1_1  and  C6_6 
ROOT
HETATM    1  C2  UNL     1     -33.684  13.732  -3.763  1.00 20.00     0.005 C 
HETATM    2  C3  UNL     1     -32.622  14.835  -3.664  1.00 20.00     0.006 C 
HETATM    3  C4  UNL     1     -35.484  15.378  -3.206  1.00 20.00     0.016 C 
HETATM    4  C5  UNL     1     -34.255  15.506  -5.246  1.00 20.00     0.010 C 
HETATM    5  C6  UNL     1     -34.453  16.512  -3.109  1.00 20.00     0.051 C 
HETATM    6  C7  UNL     1     -34.907  14.480  -4.318  1.00 20.00    -0.013 C 
HETATM    7  C8  UNL     1     -33.381  16.091  -4.132  1.00 20.00    -0.003 C 
ENDROOT
BRANCH   5   8
HETATM    8  C1  UNL     1     -33.922  16.714  -1.726  1.00 20.00     0.236 C 
HETATM    9  O9  UNL     1     -34.560  16.456  -0.712  1.00 20.00    -0.306 OA
ENDBRANCH   5   8
TORSDOF 1
ENDMDL
MODEL 9
REMARK VINA RESULT:      -4.0      2.006      3.209
REMARK  1 active torsions:
REMARK  status: ('A' for Active; 'I' for Inactive)
REMARK    1  A    between atoms: C1_1  and  C6_6 
ROOT
HETATM    1  C2  UNL     1     -35.872  15.204  -5.265  1.00 20.00     0.005 C 
HETATM    2  C3  UNL     1     -36.115  14.702  -3.835  1.00 20.00     0.006 C 
HETATM    3  C4  UNL     1     -33.547  15.900  -4.653  1.00 20.00     0.016 C 
HETATM    4  C5  UNL     1     -34.199  13.606  -4.699  1.00 20.00     0.010 C 
HETATM    5  C6  UNL     1     -33.748  15.399  -3.216  1.00 20.00     0.051 C 
HETATM    6  C7  UNL     1     -34.380  14.905  -5.485  1.00 20.00    -0.013 C 
HETATM    7  C8  UNL     1     -34.721  14.217  -3.395  1.00 20.00    -0.003 C 
ENDROOT
BRANCH   5   8
HETATM    8  C1  UNL     1     -34.247  16.455  -2.283  1.00 20.00     0.236 C 
HETATM    9  O9  UNL     1     -34.567  16.234  -1.120  1.00 20.00    -0.306 OA
ENDBRANCH   5   8
TORSDOF 1
ENDMDL
