MODEL 1
REMARK VINA RESULT:      -5.0      0.000      0.000
REMARK  5 active torsions:
REMARK  status: ('A' for Active; 'I' for Inactive)
REMARK    1  A    between atoms: C2_2  and  C5_5 
REMARK    2  A    between atoms: C5_5  and  C8_8 
REMARK    3  A    between atoms: C6_6  and  C7_7 
REMARK    4  A    between atoms: C7_7  and  C8_8 
REMARK    5  A    between atoms: C8_8  and  O9_9 
ROOT
HETATM    1  C1  UNL     1     -32.286   8.386   1.998  1.00 20.00    -0.111 C 
HETATM    2  C2  UNL     1     -32.229   7.355   2.613  1.00 20.00    -0.104 C 
HETATM    3  C3  UNL     1     -32.356   9.637   1.245  1.00 20.00     0.112 C 
ENDROOT
BRANCH   2   4
HETATM    4  C5  UNL     1     -32.156   6.095   3.368  1.00 20.00     0.125 C 
BRANCH   4   5
HETATM    5  C8  UNL     1     -33.516   5.646   3.918  1.00 20.00     0.129 C 
BRANCH   5   6
HETATM    6  C7  UNL     1     -34.055   6.450   5.109  1.00 20.00     0.032 C 
BRANCH   6   7
HETATM    7  C6  UNL     1     -34.471   5.583   6.295  1.00 20.00    -0.002 C 
HETATM    8  C4  UNL     1     -34.877   4.188   5.845  1.00 20.00     0.005 C 
ENDBRANCH   6   7
ENDBRANCH   5   6
BRANCH   5   9
HETATM    9  O9  UNL     1     -34.496   5.708   2.881  1.00 20.00    -0.395 OA
HETATM   10  H23 UNL     1     -35.339   5.456   3.287  1.00 20.00     0.210 HD
ENDBRANCH   5   9
ENDBRANCH   4   5
ENDBRANCH   2   4
TORSDOF 5
ENDMDL
MODEL 2
REMARK VINA RESULT:      -4.7      1.318      1.418
REMARK  5 active torsions:
REMARK  status: ('A' for Active; 'I' for Inactive)
REMARK    1  A    between atoms: C2_2  and  C5_5 
REMARK    2  A    between atoms: C5_5  and  C8_8 
REMARK    3  A    between atoms: C6_6  and  C7_7 
REMARK    4  A    between atoms: C7_7  and  C8_8 
REMARK    5  A    between atoms: C8_8  and  O9_9 
ROOT
HETATM    1  C1  UNL     1     -32.142   8.648   1.575  1.00 20.00    -0.111 C 
HETATM    2  C2  UNL     1     -32.177   7.768   2.392  1.00 20.00    -0.104 C 
HETATM    3  C3  UNL     1     -32.096   9.719   0.581  1.00 20.00     0.112 C 
ENDROOT
BRANCH   2   4
HETATM    4  C5  UNL     1     -32.221   6.693   3.396  1.00 20.00     0.125 C 
BRANCH   4   5
HETATM    5  C8  UNL     1     -33.601   6.540   4.048  1.00 20.00     0.129 C 
BRANCH   5   6
HETATM    6  C7  UNL     1     -34.350   5.238   3.733  1.00 20.00     0.032 C 
BRANCH   6   7
HETATM    7  C6  UNL     1     -35.424   4.886   4.761  1.00 20.00    -0.002 C 
HETATM    8  C4  UNL     1     -34.911   3.872   5.772  1.00 20.00     0.005 C 
ENDBRANCH   6   7
ENDBRANCH   5   6
BRANCH   5   9
HETATM    9  O9  UNL     1     -33.471   6.627   5.468  1.00 20.00    -0.395 OA
HETATM   10  H23 UNL     1     -34.286   7.039   5.792  1.00 20.00     0.210 HD
ENDBRANCH   5   9
ENDBRANCH   4   5
ENDBRANCH   2   4
TORSDOF 5
ENDMDL
MODEL 3
REMARK VINA RESULT:      -4.5      1.649      2.401
REMARK  5 active torsions:
REMARK  status: ('A' for Active; 'I' for Inactive)
REMARK    1  A    between atoms: C2_2  and  C5_5 
REMARK    2  A    between atoms: C5_5  and  C8_8 
REMARK    3  A    between atoms: C6_6  and  C7_7 
REMARK    4  A    between atoms: C7_7  and  C8_8 
REMARK    5  A    between atoms: C8_8  and  O9_9 
ROOT
HETATM    1  C1  UNL     1     -32.847   6.906   2.967  1.00 20.00    -0.111 C 
HETATM    2  C2  UNL     1     -33.768   6.226   3.329  1.00 20.00    -0.104 C 
HETATM    3  C3  UNL     1     -31.725   7.732   2.521  1.00 20.00     0.112 C 
ENDROOT
BRANCH   2   4
HETATM    4  C5  UNL     1     -34.894   5.391   3.775  1.00 20.00     0.125 C 
BRANCH   4   5
HETATM    5  C8  UNL     1     -34.476   4.309   4.778  1.00 20.00     0.129 C 
BRANCH   5   6
HETATM    6  C7  UNL     1     -33.873   4.813   6.096  1.00 20.00     0.032 C 
BRANCH   6   7
HETATM    7  C6  UNL     1     -34.519   6.098   6.613  1.00 20.00    -0.002 C 
HETATM    8  C4  UNL     1     -33.494   7.211   6.765  1.00 20.00     0.005 C 
ENDBRANCH   6   7
ENDBRANCH   5   6
BRANCH   5   9
HETATM    9  O9  UNL     1     -35.605   3.497   5.107  1.00 20.00    -0.395 OA
HETATM   10  H23 UNL     1     -35.255   2.629   5.353  1.00 20.00     0.210 HD
ENDBRANCH   5   9
ENDBRANCH   4   5
ENDBRANCH   2   4
TORSDOF 5
ENDMDL
MODEL 4
REMARK VINA RESULT:      -4.3     10.591     11.719
REMARK  5 active torsions:
REMARK  status: ('A' for Active; 'I' for Inactive)
REMARK    1  A    between atoms: C2_2  and  C5_5 
REMARK    2  A    between atoms: C5_5  and  C8_8 
REMARK    3  A    between atoms: C6_6  and  C7_7 
REMARK    4  A    between atoms: C7_7  and  C8_8 
REMARK    5  A    between atoms: C8_8  and  O9_9 
ROOT
HETATM    1  C1  UNL     1     -34.445  16.558  -1.195  1.00 20.00    -0.111 C 
HETATM    2  C2  UNL     1     -34.123  16.033  -2.226  1.00 20.00    -0.104 C 
HETATM    3  C3  UNL     1     -34.837  17.202   0.057  1.00 20.00     0.112 C 
ENDROOT
BRANCH   2   4
HETATM    4  C5  UNL     1     -33.725  15.388  -3.487  1.00 20.00     0.125 C 
BRANCH   4   5
HETATM    5  C8  UNL     1     -34.053  13.890  -3.523  1.00 20.00     0.129 C 
BRANCH   5   6
HETATM    6  C7  UNL     1     -35.225  13.482  -4.426  1.00 20.00     0.032 C 
BRANCH   6   7
HETATM    7  C6  UNL     1     -35.694  14.596  -5.360  1.00 20.00    -0.002 C 
HETATM    8  C4  UNL     1     -35.293  14.316  -6.801  1.00 20.00     0.005 C 
ENDBRANCH   6   7
ENDBRANCH   5   6
BRANCH   5   9
HETATM    9  O9  UNL     1     -32.905  13.158  -3.954  1.00 20.00    -0.395 OA
HETATM   10  H23 UNL     1     -32.598  12.654  -3.186  1.00 20.00     0.210 HD
ENDBRANCH   5   9
ENDBRANCH   4   5
ENDBRANCH   2   4
TORSDOF 5
ENDMDL
MODEL 5
REMARK VINA RESULT:      -4.2     11.028     12.224
REMARK  5 active torsions:
REMARK  status: ('A' for Active; 'I' for Inactive)
REMARK    1  A    between atoms: C2_2  and  C5_5 
REMARK    2  A    between atoms: C5_5  and  C8_8 
REMARK    3  A    between atoms: C6_6  and  C7_7 
REMARK    4  A    between atoms: C7_7  and  C8_8 
REMARK    5  A    between atoms: C8_8  and  O9_9 
ROOT
HETATM    1  C1  UNL     1     -34.531  16.288  -1.542  1.00 20.00    -0.111 C 
HETATM    2  C2  UNL     1     -34.303  15.549  -2.462  1.00 20.00    -0.104 C 
HETATM    3  C3  UNL     1     -34.812  17.184  -0.422  1.00 20.00     0.112 C 
ENDROOT
BRANCH   2   4
HETATM    4  C5  UNL     1     -34.025  14.647  -3.590  1.00 20.00     0.125 C 
BRANCH   4   5
HETATM    5  C8  UNL     1     -35.294  14.030  -4.190  1.00 20.00     0.129 C 
BRANCH   5   6
HETATM    6  C7  UNL     1     -35.651  14.480  -5.613  1.00 20.00     0.032 C 
BRANCH   6   7
HETATM    7  C6  UNL     1     -34.433  14.823  -6.470  1.00 20.00    -0.002 C 
HETATM    8  C4  UNL     1     -34.460  16.278  -6.913  1.00 20.00     0.005 C 
ENDBRANCH   6   7
ENDBRANCH   5   6
BRANCH   5   9
HETATM    9  O9  UNL     1     -35.172  12.606  -4.210  1.00 20.00    -0.395 OA
HETATM   10  H23 UNL     1     -34.992  12.361  -5.129  1.00 20.00     0.210 HD
ENDBRANCH   5   9
ENDBRANCH   4   5
ENDBRANCH   2   4
TORSDOF 5
ENDMDL
MODEL 6
REMARK VINA RESULT:      -4.1     11.168     12.591
REMARK  5 active torsions:
REMARK  status: ('A' for Active; 'I' for Inactive)
REMARK    1  A    between atoms: C2_2  and  C5_5 
REMARK    2  A    between atoms: C5_5  and  C8_8 
REMARK    3  A    between atoms: C6_6  and  C7_7 
REMARK    4  A    between atoms: C7_7  and  C8_8 
REMARK    5  A    between atoms: C8_8  and  O9_9 
ROOT
HETATM    1  C1  UNL     1     -34.327  16.662  -1.264  1.00 20.00    -0.111 C 
HETATM    2  C2  UNL     1     -34.385  15.842  -2.139  1.00 20.00    -0.104 C 
HETATM    3  C3  UNL     1     -34.261  17.659  -0.196  1.00 20.00     0.112 C 
ENDROOT
BRANCH   2   4
HETATM    4  C5  UNL     1     -34.456  14.840  -3.214  1.00 20.00     0.125 C 
BRANCH   4   5
HETATM    5  C8  UNL     1     -33.357  15.017  -4.270  1.00 20.00     0.129 C 
BRANCH   5   6
HETATM    6  C7  UNL     1     -33.234  16.419  -4.881  1.00 20.00     0.032 C 
BRANCH   6   7
HETATM    7  C6  UNL     1     -34.128  16.637  -6.100  1.00 20.00    -0.002 C 
HETATM    8  C4  UNL     1     -34.249  15.369  -6.931  1.00 20.00     0.005 C 
ENDBRANCH   6   7
ENDBRANCH   5   6
BRANCH   5   9
HETATM    9  O9  UNL     1     -32.089  14.684  -3.702  1.00 20.00    -0.395 OA
HETATM   10  H23 UNL     1     -31.429  15.205  -4.183  1.00 20.00     0.210 HD
ENDBRANCH   5   9
ENDBRANCH   4   5
ENDBRANCH   2   4
TORSDOF 5
ENDMDL
MODEL 7
REMARK VINA RESULT:      -4.1      1.268      4.957
REMARK  5 active torsions:
REMARK  status: ('A' for Active; 'I' for Inactive)
REMARK    1  A    between atoms: C2_2  and  C5_5 
REMARK    2  A    between atoms: C5_5  and  C8_8 
REMARK    3  A    between atoms: C6_6  and  C7_7 
REMARK    4  A    between atoms: C7_7  and  C8_8 
REMARK    5  A    between atoms: C8_8  and  O9_9 
ROOT
HETATM    1  C1  UNL     1     -34.729   5.034   5.162  1.00 20.00    -0.111 C 
HETATM    2  C2  UNL     1     -34.439   5.413   4.059  1.00 20.00    -0.104 C 
HETATM    3  C3  UNL     1     -35.075   4.573   6.505  1.00 20.00     0.112 C 
ENDROOT
BRANCH   2   4
HETATM    4  C5  UNL     1     -34.087   5.875   2.708  1.00 20.00     0.125 C 
BRANCH   4   5
HETATM    5  C8  UNL     1     -32.611   6.273   2.577  1.00 20.00     0.129 C 
BRANCH   5   6
HETATM    6  C7  UNL     1     -32.306   7.770   2.727  1.00 20.00     0.032 C 
BRANCH   6   7
HETATM    7  C6  UNL     1     -31.840   8.432   1.432  1.00 20.00    -0.002 C 
HETATM    8  C4  UNL     1     -32.447   9.818   1.270  1.00 20.00     0.005 C 
ENDBRANCH   6   7
ENDBRANCH   5   6
BRANCH   5   9
HETATM    9  O9  UNL     1     -31.838   5.578   3.557  1.00 20.00    -0.395 OA
HETATM   10  H23 UNL     1     -31.255   6.236   3.961  1.00 20.00     0.210 HD
ENDBRANCH   5   9
ENDBRANCH   4   5
ENDBRANCH   2   4
TORSDOF 5
ENDMDL
MODEL 8
REMARK VINA RESULT:      -4.0     11.303     12.455
REMARK  5 active torsions:
REMARK  status: ('A' for Active; 'I' for Inactive)
REMARK    1  A    between atoms: C2_2  and  C5_5 
REMARK    2  A    between atoms: C5_5  and  C8_8 
REMARK    3  A    between atoms: C6_6  and  C7_7 
REMARK    4  A    between atoms: C7_7  and  C8_8 
REMARK    5  A    between atoms: C8_8  and  O9_9 
ROOT
HETATM    1  C1  UNL     1     -34.694  15.202  -6.786  1.00 20.00    -0.111 C 
HETATM    2  C2  UNL     1     -34.045  15.785  -5.960  1.00 20.00    -0.104 C 
HETATM    3  C3  UNL     1     -35.479  14.490  -7.793  1.00 20.00     0.112 C 
ENDROOT
BRANCH   2   4
HETATM    4  C5  UNL     1     -33.253  16.503  -4.950  1.00 20.00     0.125 C 
BRANCH   4   5
HETATM    5  C8  UNL     1     -33.122  15.731  -3.632  1.00 20.00     0.129 C 
BRANCH   5   6
HETATM    6  C7  UNL     1     -34.432  15.202  -3.032  1.00 20.00     0.032 C 
BRANCH   6   7
HETATM    7  C6  UNL     1     -35.067  16.149  -2.016  1.00 20.00    -0.002 C 
HETATM    8  C4  UNL     1     -34.009  16.921  -1.242  1.00 20.00     0.005 C 
ENDBRANCH   6   7
ENDBRANCH   5   6
BRANCH   5   9
HETATM    9  O9  UNL     1     -32.253  14.612  -3.816  1.00 20.00    -0.395 OA
HETATM   10  H23 UNL     1     -31.489  14.762  -3.239  1.00 20.00     0.210 HD
ENDBRANCH   5   9
ENDBRANCH   4   5
ENDBRANCH   2   4
TORSDOF 5
ENDMDL
MODEL 9
REMARK VINA RESULT:      -3.9     11.126     12.361
REMARK  5 active torsions:
REMARK  status: ('A' for Active; 'I' for Inactive)
REMARK    1  A    between atoms: C2_2  and  C5_5 
REMARK    2  A    between atoms: C5_5  and  C8_8 
REMARK    3  A    between atoms: C6_6  and  C7_7 
REMARK    4  A    between atoms: C7_7  and  C8_8 
REMARK    5  A    between atoms: C8_8  and  O9_9 
ROOT
HETATM    1  C1  UNL     1     -34.557  16.542  -6.819  1.00 20.00    -0.111 C 
HETATM    2  C2  UNL     1     -34.740  15.415  -6.448  1.00 20.00    -0.104 C 
HETATM    3  C3  UNL     1     -34.339  17.917  -7.267  1.00 20.00     0.112 C 
ENDROOT
BRANCH   2   4
HETATM    4  C5  UNL     1     -34.965  14.032  -5.997  1.00 20.00     0.125 C 
BRANCH   4   5
HETATM    5  C8  UNL     1     -34.637  13.826  -4.513  1.00 20.00     0.129 C 
BRANCH   5   6
HETATM    6  C7  UNL     1     -35.188  14.887  -3.551  1.00 20.00     0.032 C 
BRANCH   6   7
HETATM    7  C6  UNL     1     -34.103  15.655  -2.799  1.00 20.00    -0.002 C 
HETATM    8  C4  UNL     1     -34.661  16.323  -1.552  1.00 20.00     0.005 C 
ENDBRANCH   6   7
ENDBRANCH   5   6
BRANCH   5   9
HETATM    9  O9  UNL     1     -35.136  12.558  -4.084  1.00 20.00    -0.395 OA
HETATM   10  H23 UNL     1     -36.092  12.664  -3.976  1.00 20.00     0.210 HD
ENDBRANCH   5   9
ENDBRANCH   4   5
ENDBRANCH   2   4
TORSDOF 5
ENDMDL
