MODEL 1
REMARK VINA RESULT:      -4.1      0.000      0.000
REMARK  3 active torsions:
REMARK  status: ('A' for Active; 'I' for Inactive)
REMARK    1  A    between atoms: C1_1  and  C4_4 
REMARK    2  A    between atoms: C4_4  and  C5_5 
REMARK    3  A    between atoms: C5_5  and  C6_6 
ROOT
HETATM    1  C5  UNL     1     -33.053   5.492   4.118  1.00 20.00     0.035 C 
ENDROOT
BRANCH   1   2
HETATM    2  C4  UNL     1     -33.135   6.377   2.872  1.00 20.00     0.115 C 
BRANCH   2   3
HETATM    3  C1  UNL     1     -32.103   7.510   2.813  1.00 20.00     0.172 C 
HETATM    4  O7  UNL     1     -32.101   8.223   1.773  1.00 20.00    -0.648 OA
HETATM    5  O8  UNL     1     -31.366   7.589   3.839  1.00 20.00    -0.648 OA
ENDBRANCH   2   3
ENDBRANCH   1   2
BRANCH   1   6
HETATM    6  C6  UNL     1     -34.358   5.358   4.937  1.00 20.00     0.030 C 
HETATM    7  C2  UNL     1     -35.554   5.730   4.049  1.00 20.00     0.032 C 
HETATM    8  C3  UNL     1     -34.555   3.942   5.489  1.00 20.00     0.032 C 
HETATM    9 CL9  UNL     1     -34.333   6.507   6.323  1.00 20.00    -0.120 Cl
ENDBRANCH   1   6
TORSDOF 3
ENDMDL
MODEL 2
REMARK VINA RESULT:      -4.1      1.091      1.508
REMARK  3 active torsions:
REMARK  status: ('A' for Active; 'I' for Inactive)
REMARK    1  A    between atoms: C1_1  and  C4_4 
REMARK    2  A    between atoms: C4_4  and  C5_5 
REMARK    3  A    between atoms: C5_5  and  C6_6 
ROOT
HETATM    1  C5  UNL     1     -33.045   5.455   4.051  1.00 20.00     0.035 C 
ENDROOT
BRANCH   1   2
HETATM    2  C4  UNL     1     -33.080   6.339   2.802  1.00 20.00     0.115 C 
BRANCH   2   3
HETATM    3  C1  UNL     1     -32.086   7.508   2.807  1.00 20.00     0.172 C 
HETATM    4  O7  UNL     1     -32.082   8.255   1.791  1.00 20.00    -0.648 OA
HETATM    5  O8  UNL     1     -31.379   7.577   3.855  1.00 20.00    -0.648 OA
ENDBRANCH   2   3
ENDBRANCH   1   2
BRANCH   1   6
HETATM    6  C6  UNL     1     -34.354   5.394   4.871  1.00 20.00     0.030 C 
HETATM    7  C2  UNL     1     -34.277   6.403   6.025  1.00 20.00     0.032 C 
HETATM    8  C3  UNL     1     -35.590   5.693   4.015  1.00 20.00     0.032 C 
HETATM    9 CL9  UNL     1     -34.550   3.756   5.593  1.00 20.00    -0.120 Cl
ENDBRANCH   1   6
TORSDOF 3
ENDMDL
MODEL 3
REMARK VINA RESULT:      -4.0      1.098      1.526
REMARK  3 active torsions:
REMARK  status: ('A' for Active; 'I' for Inactive)
REMARK    1  A    between atoms: C1_1  and  C4_4 
REMARK    2  A    between atoms: C4_4  and  C5_5 
REMARK    3  A    between atoms: C5_5  and  C6_6 
ROOT
HETATM    1  C5  UNL     1     -33.061   5.503   4.121  1.00 20.00     0.035 C 
ENDROOT
BRANCH   1   2
HETATM    2  C4  UNL     1     -33.158   6.420   2.899  1.00 20.00     0.115 C 
BRANCH   2   3
HETATM    3  C1  UNL     1     -32.080   7.509   2.820  1.00 20.00     0.172 C 
HETATM    4  O7  UNL     1     -32.036   8.187   1.758  1.00 20.00    -0.648 OA
HETATM    5  O8  UNL     1     -31.355   7.592   3.854  1.00 20.00    -0.648 OA
ENDBRANCH   2   3
ENDBRANCH   1   2
BRANCH   1   6
HETATM    6  C6  UNL     1     -34.352   5.361   4.961  1.00 20.00     0.030 C 
HETATM    7  C2  UNL     1     -34.480   3.911   5.450  1.00 20.00     0.032 C 
HETATM    8  C3  UNL     1     -34.369   6.307   6.166  1.00 20.00     0.032 C 
HETATM    9 CL9  UNL     1     -35.791   5.719   3.940  1.00 20.00    -0.120 Cl
ENDBRANCH   1   6
TORSDOF 3
ENDMDL
MODEL 4
REMARK VINA RESULT:      -4.0     10.849     11.951
REMARK  3 active torsions:
REMARK  status: ('A' for Active; 'I' for Inactive)
REMARK    1  A    between atoms: C1_1  and  C4_4 
REMARK    2  A    between atoms: C4_4  and  C5_5 
REMARK    3  A    between atoms: C5_5  and  C6_6 
ROOT
HETATM    1  C5  UNL     1     -33.996  15.635  -2.757  1.00 20.00     0.035 C 
ENDROOT
BRANCH   1   2
HETATM    2  C4  UNL     1     -34.942  14.649  -3.445  1.00 20.00     0.115 C 
BRANCH   2   3
HETATM    3  C1  UNL     1     -34.271  13.386  -4.001  1.00 20.00     0.172 C 
HETATM    4  O7  UNL     1     -34.984  12.633  -4.718  1.00 20.00    -0.648 OA
HETATM    5  O8  UNL     1     -33.058  13.257  -3.662  1.00 20.00    -0.648 OA
ENDBRANCH   2   3
ENDBRANCH   1   2
BRANCH   1   6
HETATM    6  C6  UNL     1     -34.657  16.899  -2.161  1.00 20.00     0.030 C 
HETATM    7  C2  UNL     1     -33.819  18.132  -2.532  1.00 20.00     0.032 C 
HETATM    8  C3  UNL     1     -36.094  17.093  -2.656  1.00 20.00     0.032 C 
HETATM    9 CL9  UNL     1     -34.688  16.787  -0.364  1.00 20.00    -0.120 Cl
ENDBRANCH   1   6
TORSDOF 3
ENDMDL
MODEL 5
REMARK VINA RESULT:      -4.0     11.219     11.977
REMARK  3 active torsions:
REMARK  status: ('A' for Active; 'I' for Inactive)
REMARK    1  A    between atoms: C1_1  and  C4_4 
REMARK    2  A    between atoms: C4_4  and  C5_5 
REMARK    3  A    between atoms: C5_5  and  C6_6 
ROOT
HETATM    1  C5  UNL     1     -33.881  15.637  -2.922  1.00 20.00     0.035 C 
ENDROOT
BRANCH   1   2
HETATM    2  C4  UNL     1     -34.836  14.574  -3.468  1.00 20.00     0.115 C 
BRANCH   2   3
HETATM    3  C1  UNL     1     -34.155  13.340  -4.073  1.00 20.00     0.172 C 
HETATM    4  O7  UNL     1     -34.863  12.607  -4.815  1.00 20.00    -0.648 OA
HETATM    5  O8  UNL     1     -32.939  13.210  -3.744  1.00 20.00    -0.648 OA
ENDBRANCH   2   3
ENDBRANCH   1   2
BRANCH   1   6
HETATM    6  C6  UNL     1     -34.546  16.852  -2.234  1.00 20.00     0.030 C 
HETATM    7  C2  UNL     1     -35.978  17.014  -2.765  1.00 20.00     0.032 C 
HETATM    8  C3  UNL     1     -34.583  16.708  -0.709  1.00 20.00     0.032 C 
HETATM    9 CL9  UNL     1     -33.644  18.357  -2.638  1.00 20.00    -0.120 Cl
ENDBRANCH   1   6
TORSDOF 3
ENDMDL
MODEL 6
REMARK VINA RESULT:      -3.9     11.380     13.051
REMARK  3 active torsions:
REMARK  status: ('A' for Active; 'I' for Inactive)
REMARK    1  A    between atoms: C1_1  and  C4_4 
REMARK    2  A    between atoms: C4_4  and  C5_5 
REMARK    3  A    between atoms: C5_5  and  C6_6 
ROOT
HETATM    1  C5  UNL     1     -33.391  15.896  -4.180  1.00 20.00     0.035 C 
ENDROOT
BRANCH   1   2
HETATM    2  C4  UNL     1     -34.161  14.865  -3.352  1.00 20.00     0.115 C 
BRANCH   2   3
HETATM    3  C1  UNL     1     -34.013  13.413  -3.824  1.00 20.00     0.172 C 
HETATM    4  O7  UNL     1     -35.053  12.851  -4.264  1.00 20.00    -0.648 OA
HETATM    5  O8  UNL     1     -32.840  12.952  -3.711  1.00 20.00    -0.648 OA
ENDBRANCH   2   3
ENDBRANCH   1   2
BRANCH   1   6
HETATM    6  C6  UNL     1     -34.172  16.545  -5.346  1.00 20.00     0.030 C 
HETATM    7  C2  UNL     1     -35.657  16.644  -4.968  1.00 20.00     0.032 C 
HETATM    8  C3  UNL     1     -33.642  17.940  -5.696  1.00 20.00     0.032 C 
HETATM    9 CL9  UNL     1     -34.054  15.510  -6.815  1.00 20.00    -0.120 Cl
ENDBRANCH   1   6
TORSDOF 3
ENDMDL
MODEL 7
REMARK VINA RESULT:      -3.8     11.558     13.209
REMARK  3 active torsions:
REMARK  status: ('A' for Active; 'I' for Inactive)
REMARK    1  A    between atoms: C1_1  and  C4_4 
REMARK    2  A    between atoms: C4_4  and  C5_5 
REMARK    3  A    between atoms: C5_5  and  C6_6 
ROOT
HETATM    1  C5  UNL     1     -35.499  15.498  -4.773  1.00 20.00     0.035 C 
ENDROOT
BRANCH   1   2
HETATM    2  C4  UNL     1     -34.695  14.866  -3.634  1.00 20.00     0.115 C 
BRANCH   2   3
HETATM    3  C1  UNL     1     -34.214  13.433  -3.897  1.00 20.00     0.172 C 
HETATM    4  O7  UNL     1     -33.012  13.177  -3.617  1.00 20.00    -0.648 OA
HETATM    5  O8  UNL     1     -35.105  12.670  -4.374  1.00 20.00    -0.648 OA
ENDBRANCH   2   3
ENDBRANCH   1   2
BRANCH   1   6
HETATM    6  C6  UNL     1     -34.670  16.199  -5.875  1.00 20.00     0.030 C 
HETATM    7  C2  UNL     1     -33.368  16.736  -5.264  1.00 20.00     0.032 C 
HETATM    8  C3  UNL     1     -34.337  15.259  -7.039  1.00 20.00     0.032 C 
HETATM    9 CL9  UNL     1     -35.585  17.606  -6.528  1.00 20.00    -0.120 Cl
ENDBRANCH   1   6
TORSDOF 3
ENDMDL
MODEL 8
REMARK VINA RESULT:      -3.8     11.719     12.537
REMARK  3 active torsions:
REMARK  status: ('A' for Active; 'I' for Inactive)
REMARK    1  A    between atoms: C1_1  and  C4_4 
REMARK    2  A    between atoms: C4_4  and  C5_5 
REMARK    3  A    between atoms: C5_5  and  C6_6 
ROOT
HETATM    1  C5  UNL     1     -33.404  15.926  -3.979  1.00 20.00     0.035 C 
ENDROOT
BRANCH   1   2
HETATM    2  C4  UNL     1     -33.532  14.418  -3.752  1.00 20.00     0.115 C 
BRANCH   2   3
HETATM    3  C1  UNL     1     -34.414  13.682  -4.769  1.00 20.00     0.172 C 
HETATM    4  O7  UNL     1     -34.995  12.638  -4.366  1.00 20.00    -0.648 OA
HETATM    5  O8  UNL     1     -34.449  14.228  -5.910  1.00 20.00    -0.648 OA
ENDBRANCH   2   3
ENDBRANCH   1   2
BRANCH   1   6
HETATM    6  C6  UNL     1     -34.324  16.819  -3.115  1.00 20.00     0.030 C 
HETATM    7  C2  UNL     1     -35.638  17.071  -3.868  1.00 20.00     0.032 C 
HETATM    8  C3  UNL     1     -34.632  16.189  -1.752  1.00 20.00     0.032 C 
HETATM    9 CL9  UNL     1     -33.542  18.417  -2.836  1.00 20.00    -0.120 Cl
ENDBRANCH   1   6
TORSDOF 3
ENDMDL
MODEL 9
REMARK VINA RESULT:      -3.8     11.559     12.511
REMARK  3 active torsions:
REMARK  status: ('A' for Active; 'I' for Inactive)
REMARK    1  A    between atoms: C1_1  and  C4_4 
REMARK    2  A    between atoms: C4_4  and  C5_5 
REMARK    3  A    between atoms: C5_5  and  C6_6 
ROOT
HETATM    1  C5  UNL     1     -35.312  16.279  -4.235  1.00 20.00     0.035 C 
ENDROOT
BRANCH   1   2
HETATM    2  C4  UNL     1     -35.236  14.979  -5.040  1.00 20.00     0.115 C 
BRANCH   2   3
HETATM    3  C1  UNL     1     -35.812  13.745  -4.334  1.00 20.00     0.172 C 
HETATM    4  O7  UNL     1     -35.098  12.706  -4.333  1.00 20.00    -0.648 OA
HETATM    5  O8  UNL     1     -36.959  13.929  -3.829  1.00 20.00    -0.648 OA
ENDBRANCH   2   3
ENDBRANCH   1   2
BRANCH   1   6
HETATM    6  C6  UNL     1     -34.203  16.484  -3.177  1.00 20.00     0.030 C 
HETATM    7  C2  UNL     1     -33.702  17.933  -3.244  1.00 20.00     0.032 C 
HETATM    8  C3  UNL     1     -34.691  16.179  -1.757  1.00 20.00     0.032 C 
HETATM    9 CL9  UNL     1     -32.805  15.408  -3.538  1.00 20.00    -0.120 Cl
ENDBRANCH   1   6
TORSDOF 3
ENDMDL
