MODEL 1
REMARK VINA RESULT:      -4.0      0.000      0.000
REMARK  2 active torsions:
REMARK  status: ('A' for Active; 'I' for Inactive)
REMARK    1  A    between atoms: C2_2  and  C5_5 
REMARK    2  A    between atoms: C3_3  and  C6_6 
ROOT
HETATM    1  C1  UNL     1     -33.709  13.603  -3.753  1.00 20.00     0.204 C 
HETATM    2  C2  UNL     1     -34.607  14.731  -3.307  1.00 20.00     0.162 C 
HETATM    3  C3  UNL     1     -35.390  13.883  -5.247  1.00 20.00     0.260 C 
HETATM    4  O7  UNL     1     -34.520  12.890  -4.688  1.00 20.00    -0.359 OA
HETATM    5  O8  UNL     1     -35.261  15.112  -4.520  1.00 20.00    -0.353 OA
ENDROOT
BRANCH   2   6
HETATM    6  C5  UNL     1     -33.865  15.906  -2.708  1.00 20.00     0.148 C 
HETATM    7 CL9  UNL     1     -34.592  16.379  -1.157  1.00 20.00    -0.128 Cl
ENDBRANCH   2   6
BRANCH   3   8
HETATM    8  C6  UNL     1     -35.034  14.122  -6.702  1.00 20.00     0.056 C 
HETATM    9  C4  UNL     1     -34.333  15.430  -6.901  1.00 20.00     0.010 C 
ENDBRANCH   3   8
TORSDOF 2
ENDMDL
MODEL 2
REMARK VINA RESULT:      -3.8     11.499     12.830
REMARK  2 active torsions:
REMARK  status: ('A' for Active; 'I' for Inactive)
REMARK    1  A    between atoms: C2_2  and  C5_5 
REMARK    2  A    between atoms: C3_3  and  C6_6 
ROOT
HETATM    1  C1  UNL     1     -35.102   5.838   3.282  1.00 20.00     0.204 C 
HETATM    2  C2  UNL     1     -33.603   5.675   3.216  1.00 20.00     0.162 C 
HETATM    3  C3  UNL     1     -34.346   4.898   5.201  1.00 20.00     0.260 C 
HETATM    4  O7  UNL     1     -35.483   4.942   4.327  1.00 20.00    -0.359 OA
HETATM    5  O8  UNL     1     -33.236   5.572   4.594  1.00 20.00    -0.353 OA
ENDROOT
BRANCH   2   6
HETATM    6  C5  UNL     1     -32.887   6.835   2.558  1.00 20.00     0.148 C 
HETATM    7 CL9  UNL     1     -31.614   7.470   3.623  1.00 20.00    -0.128 Cl
ENDBRANCH   2   6
BRANCH   3   8
HETATM    8  C6  UNL     1     -34.681   5.570   6.519  1.00 20.00     0.056 C 
HETATM    9  C4  UNL     1     -33.906   6.837   6.716  1.00 20.00     0.010 C 
ENDBRANCH   3   8
TORSDOF 2
ENDMDL
MODEL 3
REMARK VINA RESULT:      -3.8      2.168      3.648
REMARK  2 active torsions:
REMARK  status: ('A' for Active; 'I' for Inactive)
REMARK    1  A    between atoms: C2_2  and  C5_5 
REMARK    2  A    between atoms: C3_3  and  C6_6 
ROOT
HETATM    1  C1  UNL     1     -34.938  13.178  -4.598  1.00 20.00     0.204 C 
HETATM    2  C2  UNL     1     -34.443  14.227  -5.565  1.00 20.00     0.162 C 
HETATM    3  C3  UNL     1     -34.023  14.907  -3.453  1.00 20.00     0.260 C 
HETATM    4  O7  UNL     1     -34.241  13.491  -3.391  1.00 20.00    -0.359 OA
HETATM    5  O8  UNL     1     -34.380  15.400  -4.751  1.00 20.00    -0.353 OA
ENDROOT
BRANCH   2   6
HETATM    6  C5  UNL     1     -35.355  14.447  -6.752  1.00 20.00     0.148 C 
HETATM    7 CL9  UNL     1     -36.880  15.200  -6.238  1.00 20.00    -0.128 Cl
ENDBRANCH   2   6
BRANCH   3   8
HETATM    8  C6  UNL     1     -34.864  15.606  -2.402  1.00 20.00     0.056 C 
HETATM    9  C4  UNL     1     -34.087  16.653  -1.665  1.00 20.00     0.010 C 
ENDBRANCH   3   8
TORSDOF 2
ENDMDL
MODEL 4
REMARK VINA RESULT:      -3.6      2.384      4.163
REMARK  2 active torsions:
REMARK  status: ('A' for Active; 'I' for Inactive)
REMARK    1  A    between atoms: C2_2  and  C5_5 
REMARK    2  A    between atoms: C3_3  and  C6_6 
ROOT
HETATM    1  C1  UNL     1     -33.286  16.343  -4.779  1.00 20.00     0.204 C 
HETATM    2  C2  UNL     1     -34.645  15.845  -5.208  1.00 20.00     0.162 C 
HETATM    3  C3  UNL     1     -34.786  16.673  -3.113  1.00 20.00     0.260 C 
HETATM    4  O7  UNL     1     -33.585  17.210  -3.685  1.00 20.00    -0.359 OA
HETATM    5  O8  UNL     1     -35.315  15.646  -3.962  1.00 20.00    -0.353 OA
ENDROOT
BRANCH   2   6
HETATM    6  C5  UNL     1     -34.605  14.560  -6.006  1.00 20.00     0.148 C 
HETATM    7 CL9  UNL     1     -34.680  13.151  -4.925  1.00 20.00    -0.128 Cl
ENDBRANCH   2   6
BRANCH   3   8
HETATM    8  C6  UNL     1     -34.489  16.088  -1.745  1.00 20.00     0.056 C 
HETATM    9  C4  UNL     1     -34.651  17.101  -0.654  1.00 20.00     0.010 C 
ENDBRANCH   3   8
TORSDOF 2
ENDMDL
MODEL 5
REMARK VINA RESULT:      -3.6     10.378     11.526
REMARK  2 active torsions:
REMARK  status: ('A' for Active; 'I' for Inactive)
REMARK    1  A    between atoms: C2_2  and  C5_5 
REMARK    2  A    between atoms: C3_3  and  C6_6 
ROOT
HETATM    1  C1  UNL     1     -33.077   6.749   4.809  1.00 20.00     0.204 C 
HETATM    2  C2  UNL     1     -33.528   5.691   3.830  1.00 20.00     0.162 C 
HETATM    3  C3  UNL     1     -32.178   7.157   2.769  1.00 20.00     0.260 C 
HETATM    4  O7  UNL     1     -31.931   7.316   4.172  1.00 20.00    -0.359 OA
HETATM    5  O8  UNL     1     -33.330   6.327   2.566  1.00 20.00    -0.353 OA
ENDROOT
BRANCH   2   6
HETATM    6  C5  UNL     1     -34.973   5.275   3.999  1.00 20.00     0.148 C 
HETATM    7 CL9  UNL     1     -35.231   4.547   5.600  1.00 20.00    -0.128 Cl
ENDBRANCH   2   6
BRANCH   3   8
HETATM    8  C6  UNL     1     -32.417   8.511   2.129  1.00 20.00     0.056 C 
HETATM    9  C4  UNL     1     -31.732   8.636   0.804  1.00 20.00     0.010 C 
ENDBRANCH   3   8
TORSDOF 2
ENDMDL
MODEL 6
REMARK VINA RESULT:      -3.6      1.918      2.614
REMARK  2 active torsions:
REMARK  status: ('A' for Active; 'I' for Inactive)
REMARK    1  A    between atoms: C2_2  and  C5_5 
REMARK    2  A    between atoms: C3_3  and  C6_6 
ROOT
HETATM    1  C1  UNL     1     -33.682  16.966  -3.985  1.00 20.00     0.204 C 
HETATM    2  C2  UNL     1     -33.851  16.539  -2.547  1.00 20.00     0.162 C 
HETATM    3  C3  UNL     1     -33.320  14.737  -3.799  1.00 20.00     0.260 C 
HETATM    4  O7  UNL     1     -32.939  15.891  -4.561  1.00 20.00    -0.359 OA
HETATM    5  O8  UNL     1     -34.098  15.136  -2.663  1.00 20.00    -0.353 OA
ENDROOT
BRANCH   2   6
HETATM    6  C5  UNL     1     -34.994  17.227  -1.833  1.00 20.00     0.148 C 
HETATM    7 CL9  UNL     1     -34.853  17.010  -0.075  1.00 20.00    -0.128 Cl
ENDBRANCH   2   6
BRANCH   3   8
HETATM    8  C6  UNL     1     -34.139  13.795  -4.661  1.00 20.00     0.056 C 
HETATM    9  C4  UNL     1     -35.562  13.706  -4.201  1.00 20.00     0.010 C 
ENDBRANCH   3   8
TORSDOF 2
ENDMDL
MODEL 7
REMARK VINA RESULT:      -3.6      2.198      3.871
REMARK  2 active torsions:
REMARK  status: ('A' for Active; 'I' for Inactive)
REMARK    1  A    between atoms: C2_2  and  C5_5 
REMARK    2  A    between atoms: C3_3  and  C6_6 
ROOT
HETATM    1  C1  UNL     1     -36.238  14.861  -4.774  1.00 20.00     0.204 C 
HETATM    2  C2  UNL     1     -35.103  14.129  -5.449  1.00 20.00     0.162 C 
HETATM    3  C3  UNL     1     -34.483  14.683  -3.350  1.00 20.00     0.260 C 
HETATM    4  O7  UNL     1     -35.915  14.755  -3.387  1.00 20.00    -0.359 OA
HETATM    5  O8  UNL     1     -33.967  14.530  -4.679  1.00 20.00    -0.353 OA
ENDROOT
BRANCH   2   6
HETATM    6  C5  UNL     1     -34.917  14.495  -6.906  1.00 20.00     0.148 C 
HETATM    7 CL9  UNL     1     -34.243  16.132  -7.059  1.00 20.00    -0.128 Cl
ENDBRANCH   2   6
BRANCH   3   8
HETATM    8  C6  UNL     1     -33.917  15.949  -2.736  1.00 20.00     0.056 C 
HETATM    9  C4  UNL     1     -34.629  16.328  -1.474  1.00 20.00     0.010 C 
ENDBRANCH   3   8
TORSDOF 2
ENDMDL
MODEL 8
REMARK VINA RESULT:      -3.6     11.292     12.588
REMARK  2 active torsions:
REMARK  status: ('A' for Active; 'I' for Inactive)
REMARK    1  A    between atoms: C2_2  and  C5_5 
REMARK    2  A    between atoms: C3_3  and  C6_6 
ROOT
HETATM    1  C1  UNL     1     -33.299   6.767   5.004  1.00 20.00     0.204 C 
HETATM    2  C2  UNL     1     -33.376   6.825   3.497  1.00 20.00     0.162 C 
HETATM    3  C3  UNL     1     -35.007   5.470   4.272  1.00 20.00     0.260 C 
HETATM    4  O7  UNL     1     -34.588   6.280   5.379  1.00 20.00    -0.359 OA
HETATM    5  O8  UNL     1     -34.101   5.636   3.173  1.00 20.00    -0.353 OA
ENDROOT
BRANCH   2   6
HETATM    6  C5  UNL     1     -32.026   6.831   2.813  1.00 20.00     0.148 C 
HETATM    7 CL9  UNL     1     -31.880   8.233   1.731  1.00 20.00    -0.128 Cl
ENDBRANCH   2   6
BRANCH   3   8
HETATM    8  C6  UNL     1     -35.035   4.010   4.682  1.00 20.00     0.056 C 
HETATM    9  C4  UNL     1     -34.820   3.835   6.154  1.00 20.00     0.010 C 
ENDBRANCH   3   8
TORSDOF 2
ENDMDL
MODEL 9
REMARK VINA RESULT:      -3.6      1.784      2.758
REMARK  2 active torsions:
REMARK  status: ('A' for Active; 'I' for Inactive)
REMARK    1  A    between atoms: C2_2  and  C5_5 
REMARK    2  A    between atoms: C3_3  and  C6_6 
ROOT
HETATM    1  C1  UNL     1     -35.060  16.857  -3.883  1.00 20.00     0.204 C 
HETATM    2  C2  UNL     1     -33.842  17.208  -3.062  1.00 20.00     0.162 C 
HETATM    3  C3  UNL     1     -33.523  15.199  -4.040  1.00 20.00     0.260 C 
HETATM    4  O7  UNL     1     -34.577  15.845  -4.767  1.00 20.00    -0.359 OA
HETATM    5  O8  UNL     1     -33.231  15.935  -2.845  1.00 20.00    -0.353 OA
ENDROOT
BRANCH   2   6
HETATM    6  C5  UNL     1     -34.163  17.879  -1.744  1.00 20.00     0.148 C 
HETATM    7 CL9  UNL     1     -34.648  16.675  -0.531  1.00 20.00    -0.128 Cl
ENDBRANCH   2   6
BRANCH   3   8
HETATM    8  C6  UNL     1     -33.939  13.788  -3.671  1.00 20.00     0.056 C 
HETATM    9  C4  UNL     1     -34.932  13.223  -4.640  1.00 20.00     0.010 C 
ENDBRANCH   3   8
TORSDOF 2
ENDMDL
