MODEL 1
REMARK VINA RESULT:      -3.8      0.000      0.000
REMARK  4 active torsions:
REMARK  status: ('A' for Active; 'I' for Inactive)
REMARK    1  A    between atoms: C2_2  and  C3_3 
REMARK    2  A    between atoms: C2_2  and  C4_4 
REMARK    3  A    between atoms: C3_3  and  C5_5 
REMARK    4  A    between atoms: C4_4  and  S6_6 
ROOT
HETATM    1  C2  UNL     1     -34.239   6.305   3.836  1.00 20.00     0.011 C 
ENDROOT
BRANCH   1   2
HETATM    2  C3  UNL     1     -32.897   6.103   3.122  1.00 20.00     0.016 C 
BRANCH   2   3
HETATM    3  C5  UNL     1     -31.969   7.308   3.227  1.00 20.00     0.114 C 
HETATM    4 CL7  UNL     1     -32.042   8.336   1.777  1.00 20.00    -0.130 Cl
ENDBRANCH   2   3
ENDBRANCH   1   2
BRANCH   1   5
HETATM    5  C4  UNL     1     -34.945   4.968   4.053  1.00 20.00     0.073 C 
BRANCH   5   6
HETATM    6  S6  UNL     1     -34.910   4.501   5.808  1.00 20.00    -0.173 SA
HETATM    7  C1  UNL     1     -34.294   6.059   6.483  1.00 20.00     0.089 C 
ENDBRANCH   5   6
ENDBRANCH   1   5
TORSDOF 4
ENDMDL
MODEL 2
REMARK VINA RESULT:      -3.8      2.812      4.018
REMARK  4 active torsions:
REMARK  status: ('A' for Active; 'I' for Inactive)
REMARK    1  A    between atoms: C2_2  and  C3_3 
REMARK    2  A    between atoms: C2_2  and  C4_4 
REMARK    3  A    between atoms: C3_3  and  C5_5 
REMARK    4  A    between atoms: C4_4  and  S6_6 
ROOT
HETATM    1  C2  UNL     1     -34.756   5.988   3.796  1.00 20.00     0.011 C 
ENDROOT
BRANCH   1   2
HETATM    2  C3  UNL     1     -35.147   4.693   4.519  1.00 20.00     0.016 C 
BRANCH   2   3
HETATM    3  C5  UNL     1     -34.744   4.677   5.989  1.00 20.00     0.114 C 
HETATM    4 CL7  UNL     1     -34.209   6.276   6.554  1.00 20.00    -0.130 Cl
ENDBRANCH   2   3
ENDBRANCH   1   2
BRANCH   1   5
HETATM    5  C4  UNL     1     -33.498   5.780   2.955  1.00 20.00     0.073 C 
BRANCH   5   6
HETATM    6  S6  UNL     1     -32.157   6.861   3.529  1.00 20.00    -0.173 SA
HETATM    7  C1  UNL     1     -32.142   8.021   2.144  1.00 20.00     0.089 C 
ENDBRANCH   5   6
ENDBRANCH   1   5
TORSDOF 4
ENDMDL
MODEL 3
REMARK VINA RESULT:      -3.7      1.363      1.740
REMARK  4 active torsions:
REMARK  status: ('A' for Active; 'I' for Inactive)
REMARK    1  A    between atoms: C2_2  and  C3_3 
REMARK    2  A    between atoms: C2_2  and  C4_4 
REMARK    3  A    between atoms: C3_3  and  C5_5 
REMARK    4  A    between atoms: C4_4  and  S6_6 
ROOT
HETATM    1  C2  UNL     1     -32.801   6.279   3.120  1.00 20.00     0.011 C 
ENDROOT
BRANCH   1   2
HETATM    2  C3  UNL     1     -31.915   7.528   3.030  1.00 20.00     0.016 C 
BRANCH   2   3
HETATM    3  C5  UNL     1     -31.979   8.217   1.672  1.00 20.00     0.114 C 
HETATM    4 CL7  UNL     1     -32.611   9.875   1.791  1.00 20.00    -0.130 Cl
ENDBRANCH   2   3
ENDBRANCH   1   2
BRANCH   1   5
HETATM    5  C4  UNL     1     -33.727   6.357   4.332  1.00 20.00     0.073 C 
BRANCH   5   6
HETATM    6  S6  UNL     1     -35.039   5.107   4.218  1.00 20.00    -0.173 SA
HETATM    7  C1  UNL     1     -34.942   4.470   5.906  1.00 20.00     0.089 C 
ENDBRANCH   5   6
ENDBRANCH   1   5
TORSDOF 4
ENDMDL
MODEL 4
REMARK VINA RESULT:      -3.6      3.178      4.271
REMARK  4 active torsions:
REMARK  status: ('A' for Active; 'I' for Inactive)
REMARK    1  A    between atoms: C2_2  and  C3_3 
REMARK    2  A    between atoms: C2_2  and  C4_4 
REMARK    3  A    between atoms: C3_3  and  C5_5 
REMARK    4  A    between atoms: C4_4  and  S6_6 
ROOT
HETATM    1  C2  UNL     1     -34.315   6.115   3.906  1.00 20.00     0.011 C 
ENDROOT
BRANCH   1   2
HETATM    2  C3  UNL     1     -33.926   6.401   5.362  1.00 20.00     0.016 C 
BRANCH   2   3
HETATM    3  C5  UNL     1     -34.556   5.432   6.357  1.00 20.00     0.114 C 
HETATM    4 CL7  UNL     1     -34.986   3.881   5.599  1.00 20.00    -0.130 Cl
ENDBRANCH   2   3
ENDBRANCH   1   2
BRANCH   1   5
HETATM    5  C4  UNL     1     -33.071   5.964   3.033  1.00 20.00     0.073 C 
BRANCH   5   6
HETATM    6  S6  UNL     1     -31.857   7.259   3.415  1.00 20.00    -0.173 SA
HETATM    7  C1  UNL     1     -32.121   8.304   1.966  1.00 20.00     0.089 C 
ENDBRANCH   5   6
ENDBRANCH   1   5
TORSDOF 4
ENDMDL
MODEL 5
REMARK VINA RESULT:      -3.5      0.870      1.368
REMARK  4 active torsions:
REMARK  status: ('A' for Active; 'I' for Inactive)
REMARK    1  A    between atoms: C2_2  and  C3_3 
REMARK    2  A    between atoms: C2_2  and  C4_4 
REMARK    3  A    between atoms: C3_3  and  C5_5 
REMARK    4  A    between atoms: C4_4  and  S6_6 
ROOT
HETATM    1  C2  UNL     1     -33.842   6.015   3.718  1.00 20.00     0.011 C 
ENDROOT
BRANCH   1   2
HETATM    2  C3  UNL     1     -32.460   6.115   3.061  1.00 20.00     0.016 C 
BRANCH   2   3
HETATM    3  C5  UNL     1     -31.849   7.509   3.148  1.00 20.00     0.114 C 
HETATM    4 CL7  UNL     1     -31.977   8.393   1.610  1.00 20.00    -0.130 Cl
ENDBRANCH   2   3
ENDBRANCH   1   2
BRANCH   1   5
HETATM    5  C4  UNL     1     -33.785   6.474   5.173  1.00 20.00     0.073 C 
BRANCH   5   6
HETATM    6  S6  UNL     1     -34.606   5.271   6.258  1.00 20.00    -0.173 SA
HETATM    7  C1  UNL     1     -35.102   4.075   4.998  1.00 20.00     0.089 C 
ENDBRANCH   5   6
ENDBRANCH   1   5
TORSDOF 4
ENDMDL
MODEL 6
REMARK VINA RESULT:      -3.3      3.605      4.723
REMARK  4 active torsions:
REMARK  status: ('A' for Active; 'I' for Inactive)
REMARK    1  A    between atoms: C2_2  and  C3_3 
REMARK    2  A    between atoms: C2_2  and  C4_4 
REMARK    3  A    between atoms: C3_3  and  C5_5 
REMARK    4  A    between atoms: C4_4  and  S6_6 
ROOT
HETATM    1  C2  UNL     1     -32.594   6.286   3.118  1.00 20.00     0.011 C 
ENDROOT
BRANCH   1   2
HETATM    2  C3  UNL     1     -33.818   6.375   4.038  1.00 20.00     0.016 C 
BRANCH   2   3
HETATM    3  C5  UNL     1     -34.844   5.276   3.785  1.00 20.00     0.114 C 
HETATM    4 CL7  UNL     1     -35.070   4.233   5.208  1.00 20.00    -0.130 Cl
ENDBRANCH   2   3
ENDBRANCH   1   2
BRANCH   1   5
HETATM    5  C4  UNL     1     -31.868   7.628   3.050  1.00 20.00     0.073 C 
BRANCH   5   6
HETATM    6  S6  UNL     1     -31.926   8.303   1.365  1.00 20.00    -0.173 SA
HETATM    7  C1  UNL     1     -32.630   9.921   1.754  1.00 20.00     0.089 C 
ENDBRANCH   5   6
ENDBRANCH   1   5
TORSDOF 4
ENDMDL
MODEL 7
REMARK VINA RESULT:      -3.0     11.343     12.089
REMARK  4 active torsions:
REMARK  status: ('A' for Active; 'I' for Inactive)
REMARK    1  A    between atoms: C2_2  and  C3_3 
REMARK    2  A    between atoms: C2_2  and  C4_4 
REMARK    3  A    between atoms: C3_3  and  C5_5 
REMARK    4  A    between atoms: C4_4  and  S6_6 
ROOT
HETATM    1  C2  UNL     1     -33.412  15.413  -3.499  1.00 20.00     0.011 C 
ENDROOT
BRANCH   1   2
HETATM    2  C3  UNL     1     -34.419  15.805  -2.411  1.00 20.00     0.016 C 
BRANCH   2   3
HETATM    3  C5  UNL     1     -33.925  16.927  -1.505  1.00 20.00     0.114 C 
HETATM    4 CL7  UNL     1     -34.854  17.025   0.008  1.00 20.00    -0.130 Cl
ENDBRANCH   2   3
ENDBRANCH   1   2
BRANCH   1   5
HETATM    5  C4  UNL     1     -33.444  13.908  -3.751  1.00 20.00     0.073 C 
BRANCH   5   6
HETATM    6  S6  UNL     1     -35.036  13.413  -4.472  1.00 20.00    -0.173 SA
HETATM    7  C1  UNL     1     -34.907  14.307  -6.036  1.00 20.00     0.089 C 
ENDBRANCH   5   6
ENDBRANCH   1   5
TORSDOF 4
ENDMDL
MODEL 8
REMARK VINA RESULT:      -3.0     11.658     12.433
REMARK  4 active torsions:
REMARK  status: ('A' for Active; 'I' for Inactive)
REMARK    1  A    between atoms: C2_2  and  C3_3 
REMARK    2  A    between atoms: C2_2  and  C4_4 
REMARK    3  A    between atoms: C3_3  and  C5_5 
REMARK    4  A    between atoms: C4_4  and  S6_6 
ROOT
HETATM    1  C2  UNL     1     -33.960  13.966  -3.743  1.00 20.00     0.011 C 
ENDROOT
BRANCH   1   2
HETATM    2  C3  UNL     1     -34.806  15.043  -3.052  1.00 20.00     0.016 C 
BRANCH   2   3
HETATM    3  C5  UNL     1     -33.973  16.138  -2.397  1.00 20.00     0.114 C 
HETATM    4 CL7  UNL     1     -34.570  16.552  -0.774  1.00 20.00    -0.130 Cl
ENDBRANCH   2   3
ENDBRANCH   1   2
BRANCH   1   5
HETATM    5  C4  UNL     1     -34.733  13.324  -4.893  1.00 20.00     0.073 C 
BRANCH   5   6
HETATM    6  S6  UNL     1     -35.635  14.583  -5.842  1.00 20.00    -0.173 SA
HETATM    7  C1  UNL     1     -34.325  15.024  -7.005  1.00 20.00     0.089 C 
ENDBRANCH   5   6
ENDBRANCH   1   5
TORSDOF 4
ENDMDL
MODEL 9
REMARK VINA RESULT:      -3.0     11.505     12.017
REMARK  4 active torsions:
REMARK  status: ('A' for Active; 'I' for Inactive)
REMARK    1  A    between atoms: C2_2  and  C3_3 
REMARK    2  A    between atoms: C2_2  and  C4_4 
REMARK    3  A    between atoms: C3_3  and  C5_5 
REMARK    4  A    between atoms: C4_4  and  S6_6 
ROOT
HETATM    1  C2  UNL     1     -33.098  14.960  -3.738  1.00 20.00     0.011 C 
ENDROOT
BRANCH   1   2
HETATM    2  C3  UNL     1     -34.188  13.895  -3.569  1.00 20.00     0.016 C 
BRANCH   2   3
HETATM    3  C5  UNL     1     -34.598  13.235  -4.880  1.00 20.00     0.114 C 
HETATM    4 CL7  UNL     1     -34.637  14.395  -6.229  1.00 20.00    -0.130 Cl
ENDBRANCH   2   3
ENDBRANCH   1   2
BRANCH   1   5
HETATM    5  C4  UNL     1     -33.612  16.334  -3.316  1.00 20.00     0.073 C 
BRANCH   5   6
HETATM    6  S6  UNL     1     -35.185  16.183  -2.421  1.00 20.00    -0.173 SA
HETATM    7  C1  UNL     1     -34.602  16.664  -0.780  1.00 20.00     0.089 C 
ENDBRANCH   5   6
ENDBRANCH   1   5
TORSDOF 4
ENDMDL
