MODEL 1
REMARK VINA RESULT:      -4.8      0.000      0.000
REMARK  3 active torsions:
REMARK  status: ('A' for Active; 'I' for Inactive)
REMARK    1  A    between atoms: C1_1  and  C4_4 
REMARK    2  A    between atoms: C2_2  and  C5_5 
REMARK    3  A    between atoms: C3_3  and  C4_4 
ROOT
HETATM    1  C1  UNL     1     -34.012   6.452   3.902  1.00 20.00    -0.019 C 
HETATM    2  C2  UNL     1     -32.796   6.258   3.371  1.00 20.00    -0.015 C 
ENDROOT
BRANCH   1   3
HETATM    3  C4  UNL     1     -35.058   5.384   3.994  1.00 20.00     0.140 C 
BRANCH   3   4
HETATM    4  C3  UNL     1     -34.945   4.735   5.368  1.00 20.00     0.176 C 
HETATM    5  O6  UNL     1     -35.030   3.474   5.374  1.00 20.00    -0.648 OA
HETATM    6  O7  UNL     1     -34.792   5.538   6.331  1.00 20.00    -0.648 OA
ENDBRANCH   3   4
ENDBRANCH   1   3
BRANCH   2   7
HETATM    7  C5  UNL     1     -31.760   7.328   3.265  1.00 20.00     0.141 C 
HETATM    8 CL8  UNL     1     -32.042   8.299   1.803  1.00 20.00    -0.126 Cl
ENDBRANCH   2   7
TORSDOF 3
ENDMDL
MODEL 2
REMARK VINA RESULT:      -4.2      3.460      4.519
REMARK  3 active torsions:
REMARK  status: ('A' for Active; 'I' for Inactive)
REMARK    1  A    between atoms: C1_1  and  C4_4 
REMARK    2  A    between atoms: C2_2  and  C5_5 
REMARK    3  A    between atoms: C3_3  and  C4_4 
ROOT
HETATM    1  C1  UNL     1     -33.393   5.969   3.875  1.00 20.00    -0.019 C 
HETATM    2  C2  UNL     1     -34.534   5.275   4.003  1.00 20.00    -0.015 C 
ENDROOT
BRANCH   1   3
HETATM    3  C4  UNL     1     -32.771   6.307   2.556  1.00 20.00     0.140 C 
BRANCH   3   4
HETATM    4  C3  UNL     1     -31.977   7.596   2.730  1.00 20.00     0.176 C 
HETATM    5  O6  UNL     1     -31.371   7.709   3.833  1.00 20.00    -0.648 OA
HETATM    6  O7  UNL     1     -32.033   8.398   1.755  1.00 20.00    -0.648 OA
ENDBRANCH   3   4
ENDBRANCH   1   3
BRANCH   2   7
HETATM    7  C5  UNL     1     -35.144   4.923   5.320  1.00 20.00     0.141 C 
HETATM    8 CL8  UNL     1     -34.452   5.944   6.599  1.00 20.00    -0.126 Cl
ENDBRANCH   2   7
TORSDOF 3
ENDMDL
MODEL 3
REMARK VINA RESULT:      -4.1      1.270      1.513
REMARK  3 active torsions:
REMARK  status: ('A' for Active; 'I' for Inactive)
REMARK    1  A    between atoms: C1_1  and  C4_4 
REMARK    2  A    between atoms: C2_2  and  C5_5 
REMARK    3  A    between atoms: C3_3  and  C4_4 
ROOT
HETATM    1  C1  UNL     1     -33.398   6.502   3.549  1.00 20.00    -0.019 C 
HETATM    2  C2  UNL     1     -32.356   7.324   3.358  1.00 20.00    -0.015 C 
ENDROOT
BRANCH   1   3
HETATM    3  C4  UNL     1     -33.826   6.003   4.895  1.00 20.00     0.140 C 
BRANCH   3   4
HETATM    4  C3  UNL     1     -34.974   5.022   4.686  1.00 20.00     0.176 C 
HETATM    5  O6  UNL     1     -35.810   5.356   3.799  1.00 20.00    -0.648 OA
HETATM    6  O7  UNL     1     -34.954   4.005   5.435  1.00 20.00    -0.648 OA
ENDBRANCH   3   4
ENDBRANCH   1   3
BRANCH   2   7
HETATM    7  C5  UNL     1     -31.920   7.808   2.014  1.00 20.00     0.141 C 
HETATM    8 CL8  UNL     1     -32.502   9.466   1.751  1.00 20.00    -0.126 Cl
ENDBRANCH   2   7
TORSDOF 3
ENDMDL
MODEL 4
REMARK VINA RESULT:      -4.1     11.481     11.900
REMARK  3 active torsions:
REMARK  status: ('A' for Active; 'I' for Inactive)
REMARK    1  A    between atoms: C1_1  and  C4_4 
REMARK    2  A    between atoms: C2_2  and  C5_5 
REMARK    3  A    between atoms: C3_3  and  C4_4 
ROOT
HETATM    1  C1  UNL     1     -34.386  15.467  -2.831  1.00 20.00    -0.019 C 
HETATM    2  C2  UNL     1     -34.904  16.179  -1.820  1.00 20.00    -0.015 C 
ENDROOT
BRANCH   1   3
HETATM    3  C4  UNL     1     -35.195  14.568  -3.714  1.00 20.00     0.140 C 
BRANCH   3   4
HETATM    4  C3  UNL     1     -34.316  13.388  -4.111  1.00 20.00     0.176 C 
HETATM    5  O6  UNL     1     -33.139  13.416  -3.650  1.00 20.00    -0.648 OA
HETATM    6  O7  UNL     1     -34.868  12.535  -4.862  1.00 20.00    -0.648 OA
ENDBRANCH   3   4
ENDBRANCH   1   3
BRANCH   2   7
HETATM    7  C5  UNL     1     -34.094  17.062  -0.929  1.00 20.00     0.141 C 
HETATM    8 CL8  UNL     1     -34.957  17.333   0.601  1.00 20.00    -0.126 Cl
ENDBRANCH   2   7
TORSDOF 3
ENDMDL
MODEL 5
REMARK VINA RESULT:      -4.1     11.484     11.866
REMARK  3 active torsions:
REMARK  status: ('A' for Active; 'I' for Inactive)
REMARK    1  A    between atoms: C1_1  and  C4_4 
REMARK    2  A    between atoms: C2_2  and  C5_5 
REMARK    3  A    between atoms: C3_3  and  C4_4 
ROOT
HETATM    1  C1  UNL     1     -34.364  15.453  -2.803  1.00 20.00    -0.019 C 
HETATM    2  C2  UNL     1     -34.905  16.218  -1.842  1.00 20.00    -0.015 C 
ENDROOT
BRANCH   1   3
HETATM    3  C4  UNL     1     -35.167  14.598  -3.733  1.00 20.00     0.140 C 
BRANCH   3   4
HETATM    4  C3  UNL     1     -34.314  13.395  -4.117  1.00 20.00     0.176 C 
HETATM    5  O6  UNL     1     -34.895  12.532  -4.834  1.00 20.00    -0.648 OA
HETATM    6  O7  UNL     1     -33.136  13.403  -3.659  1.00 20.00    -0.648 OA
ENDBRANCH   3   4
ENDBRANCH   1   3
BRANCH   2   7
HETATM    7  C5  UNL     1     -34.102  17.057  -0.904  1.00 20.00     0.141 C 
HETATM    8 CL8  UNL     1     -35.003  17.304   0.608  1.00 20.00    -0.126 Cl
ENDBRANCH   2   7
TORSDOF 3
ENDMDL
MODEL 6
REMARK VINA RESULT:      -4.1      4.053      5.112
REMARK  3 active torsions:
REMARK  status: ('A' for Active; 'I' for Inactive)
REMARK    1  A    between atoms: C1_1  and  C4_4 
REMARK    2  A    between atoms: C2_2  and  C5_5 
REMARK    3  A    between atoms: C3_3  and  C4_4 
ROOT
HETATM    1  C1  UNL     1     -32.908   6.621   2.955  1.00 20.00    -0.019 C 
HETATM    2  C2  UNL     1     -33.748   6.372   3.970  1.00 20.00    -0.015 C 
ENDROOT
BRANCH   1   3
HETATM    3  C4  UNL     1     -31.839   7.668   2.999  1.00 20.00     0.140 C 
BRANCH   3   4
HETATM    4  C3  UNL     1     -32.070   8.622   1.833  1.00 20.00     0.176 C 
HETATM    5  O6  UNL     1     -32.816   9.609   2.087  1.00 20.00    -0.648 OA
HETATM    6  O7  UNL     1     -31.497   8.300   0.753  1.00 20.00    -0.648 OA
ENDBRANCH   3   4
ENDBRANCH   1   3
BRANCH   2   7
HETATM    7  C5  UNL     1     -34.825   5.340   3.919  1.00 20.00     0.141 C 
HETATM    8 CL8  UNL     1     -35.058   4.628   5.530  1.00 20.00    -0.126 Cl
ENDBRANCH   2   7
TORSDOF 3
ENDMDL
MODEL 7
REMARK VINA RESULT:      -3.6     11.656     12.349
REMARK  3 active torsions:
REMARK  status: ('A' for Active; 'I' for Inactive)
REMARK    1  A    between atoms: C1_1  and  C4_4 
REMARK    2  A    between atoms: C2_2  and  C5_5 
REMARK    3  A    between atoms: C3_3  and  C4_4 
ROOT
HETATM    1  C1  UNL     1     -33.564  15.278  -3.229  1.00 20.00    -0.019 C 
HETATM    2  C2  UNL     1     -34.653  15.588  -2.509  1.00 20.00    -0.015 C 
ENDROOT
BRANCH   1   3
HETATM    3  C4  UNL     1     -33.283  13.906  -3.759  1.00 20.00     0.140 C 
BRANCH   3   4
HETATM    4  C3  UNL     1     -34.391  13.549  -4.742  1.00 20.00     0.176 C 
HETATM    5  O6  UNL     1     -35.137  12.593  -4.386  1.00 20.00    -0.648 OA
HETATM    6  O7  UNL     1     -34.417  14.243  -5.798  1.00 20.00    -0.648 OA
ENDBRANCH   3   4
ENDBRANCH   1   3
BRANCH   2   7
HETATM    7  C5  UNL     1     -34.924  16.953  -1.966  1.00 20.00     0.141 C 
HETATM    8 CL8  UNL     1     -33.724  18.103  -2.596  1.00 20.00    -0.126 Cl
ENDBRANCH   2   7
TORSDOF 3
ENDMDL
MODEL 8
REMARK VINA RESULT:      -3.5     11.715     12.180
REMARK  3 active torsions:
REMARK  status: ('A' for Active; 'I' for Inactive)
REMARK    1  A    between atoms: C1_1  and  C4_4 
REMARK    2  A    between atoms: C2_2  and  C5_5 
REMARK    3  A    between atoms: C3_3  and  C4_4 
ROOT
HETATM    1  C1  UNL     1     -34.616  15.965  -1.991  1.00 20.00    -0.019 C 
HETATM    2  C2  UNL     1     -34.182  16.853  -1.084  1.00 20.00    -0.015 C 
ENDROOT
BRANCH   1   3
HETATM    3  C4  UNL     1     -33.800  15.507  -3.160  1.00 20.00     0.140 C 
BRANCH   3   4
HETATM    4  C3  UNL     1     -34.323  14.141  -3.589  1.00 20.00     0.176 C 
HETATM    5  O6  UNL     1     -35.572  14.078  -3.774  1.00 20.00    -0.648 OA
HETATM    6  O7  UNL     1     -33.446  13.238  -3.693  1.00 20.00    -0.648 OA
ENDBRANCH   3   4
ENDBRANCH   1   3
BRANCH   2   7
HETATM    7  C5  UNL     1     -35.003  17.322   0.072  1.00 20.00     0.141 C 
HETATM    8 CL8  UNL     1     -36.354  18.318  -0.511  1.00 20.00    -0.126 Cl
ENDBRANCH   2   7
TORSDOF 3
ENDMDL
MODEL 9
REMARK VINA RESULT:      -3.4     12.052     12.845
REMARK  3 active torsions:
REMARK  status: ('A' for Active; 'I' for Inactive)
REMARK    1  A    between atoms: C1_1  and  C4_4 
REMARK    2  A    between atoms: C2_2  and  C5_5 
REMARK    3  A    between atoms: C3_3  and  C4_4 
ROOT
HETATM    1  C1  UNL     1     -34.658  15.834  -4.227  1.00 20.00    -0.019 C 
HETATM    2  C2  UNL     1     -33.602  16.606  -4.523  1.00 20.00    -0.015 C 
ENDROOT
BRANCH   1   3
HETATM    3  C4  UNL     1     -34.650  14.795  -3.148  1.00 20.00     0.140 C 
BRANCH   3   4
HETATM    4  C3  UNL     1     -34.205  13.477  -3.771  1.00 20.00     0.176 C 
HETATM    5  O6  UNL     1     -32.970  13.228  -3.675  1.00 20.00    -0.648 OA
HETATM    6  O7  UNL     1     -35.124  12.803  -4.317  1.00 20.00    -0.648 OA
ENDBRANCH   3   4
ENDBRANCH   1   3
BRANCH   2   7
HETATM    7  C5  UNL     1     -33.605  17.629  -5.611  1.00 20.00     0.141 C 
HETATM    8 CL8  UNL     1     -34.392  16.968  -7.060  1.00 20.00    -0.126 Cl
ENDBRANCH   2   7
TORSDOF 3
ENDMDL
