MODEL 1
REMARK VINA RESULT:      -3.5      0.000      0.000
REMARK  0 active torsions:
REMARK  status: ('A' for Active; 'I' for Inactive)
ROOT
HETATM    1  C1  UNL     1     -35.855  14.813  -3.637  1.00 20.00     0.050 C 
HETATM    2  C2  UNL     1     -34.649  14.761  -5.898  1.00 20.00     0.050 C 
HETATM    3  C3  UNL     1     -33.638  13.476  -3.877  1.00 20.00     0.207 A 
HETATM    4  C4  UNL     1     -37.242  14.742  -4.266  1.00 20.00     0.077 C 
HETATM    5  C5  UNL     1     -35.945  14.688  -6.697  1.00 20.00     0.077 C 
HETATM    6  C6  UNL     1     -34.803  14.196  -4.515  1.00 20.00     0.084 A 
HETATM    7  O7  UNL     1     -34.745  12.763  -4.451  1.00 20.00    -0.375 OA
HETATM    8  S8  UNL     1     -37.292  15.594  -5.872  1.00 20.00    -0.169 SA
ENDROOT
TORSDOF 0
ENDMDL
MODEL 2
REMARK VINA RESULT:      -3.5      2.171      3.216
REMARK  0 active torsions:
REMARK  status: ('A' for Active; 'I' for Inactive)
ROOT
HETATM    1  C1  UNL     1     -34.182  15.431  -5.425  1.00 20.00     0.050 C 
HETATM    2  C2  UNL     1     -35.152  15.077  -3.079  1.00 20.00     0.050 C 
HETATM    3  C3  UNL     1     -34.844  13.036  -4.660  1.00 20.00     0.207 A 
HETATM    4  C4  UNL     1     -33.185  16.486  -4.958  1.00 20.00     0.077 C 
HETATM    5  C5  UNL     1     -34.230  16.106  -2.437  1.00 20.00     0.077 C 
HETATM    6  C6  UNL     1     -34.558  14.481  -4.323  1.00 20.00     0.084 A 
HETATM    7  O7  UNL     1     -33.594  13.445  -4.082  1.00 20.00    -0.375 OA
HETATM    8  S8  UNL     1     -33.850  17.470  -3.580  1.00 20.00    -0.169 SA
ENDROOT
TORSDOF 0
ENDMDL
MODEL 3
REMARK VINA RESULT:      -3.4      2.645      3.153
REMARK  0 active torsions:
REMARK  status: ('A' for Active; 'I' for Inactive)
ROOT
HETATM    1  C1  UNL     1     -33.818  15.374  -3.313  1.00 20.00     0.050 C 
HETATM    2  C2  UNL     1     -35.159  15.879  -5.438  1.00 20.00     0.050 C 
HETATM    3  C3  UNL     1     -33.685  17.741  -4.380  1.00 20.00     0.207 A 
HETATM    4  C4  UNL     1     -33.464  13.959  -3.756  1.00 20.00     0.077 C 
HETATM    5  C5  UNL     1     -34.907  14.501  -6.040  1.00 20.00     0.077 C 
HETATM    6  C6  UNL     1     -34.076  16.285  -4.479  1.00 20.00     0.084 A 
HETATM    7  O7  UNL     1     -32.889  16.792  -5.107  1.00 20.00    -0.375 OA
HETATM    8  S8  UNL     1     -34.794  13.219  -4.754  1.00 20.00    -0.169 SA
ENDROOT
TORSDOF 0
ENDMDL
MODEL 4
REMARK VINA RESULT:      -3.4      2.500      3.136
REMARK  0 active torsions:
REMARK  status: ('A' for Active; 'I' for Inactive)
ROOT
HETATM    1  C1  UNL     1     -35.592  15.895  -3.930  1.00 20.00     0.050 C 
HETATM    2  C2  UNL     1     -33.127  15.250  -3.654  1.00 20.00     0.050 C 
HETATM    3  C3  UNL     1     -34.091  17.242  -2.289  1.00 20.00     0.207 A 
HETATM    4  C4  UNL     1     -36.059  14.448  -4.040  1.00 20.00     0.077 C 
HETATM    5  C5  UNL     1     -33.408  13.754  -3.744  1.00 20.00     0.077 C 
HETATM    6  C6  UNL     1     -34.314  16.020  -3.150  1.00 20.00     0.084 A 
HETATM    7  O7  UNL     1     -34.484  15.980  -1.726  1.00 20.00    -0.375 OA
HETATM    8  S8  UNL     1     -34.810  13.403  -4.851  1.00 20.00    -0.169 SA
ENDROOT
TORSDOF 0
ENDMDL
MODEL 5
REMARK VINA RESULT:      -3.4     11.980     13.064
REMARK  0 active torsions:
REMARK  status: ('A' for Active; 'I' for Inactive)
ROOT
HETATM    1  C1  UNL     1     -33.645   6.904   5.316  1.00 20.00     0.050 C 
HETATM    2  C2  UNL     1     -34.691   5.453   3.480  1.00 20.00     0.050 C 
HETATM    3  C3  UNL     1     -32.746   7.072   2.882  1.00 20.00     0.207 A 
HETATM    4  C4  UNL     1     -33.734   5.806   6.369  1.00 20.00     0.077 C 
HETATM    5  C5  UNL     1     -34.861   4.247   4.396  1.00 20.00     0.077 C 
HETATM    6  C6  UNL     1     -33.568   6.347   3.923  1.00 20.00     0.084 A 
HETATM    7  O7  UNL     1     -32.262   5.891   3.540  1.00 20.00    -0.375 OA
HETATM    8  S8  UNL     1     -35.194   4.751   6.113  1.00 20.00    -0.169 SA
ENDROOT
TORSDOF 0
ENDMDL
MODEL 6
REMARK VINA RESULT:      -3.3      2.689      3.540
REMARK  0 active torsions:
REMARK  status: ('A' for Active; 'I' for Inactive)
ROOT
HETATM    1  C1  UNL     1     -34.127  15.551  -6.322  1.00 20.00     0.050 C 
HETATM    2  C2  UNL     1     -33.291  15.605  -3.900  1.00 20.00     0.050 C 
HETATM    3  C3  UNL     1     -33.493  17.826  -5.236  1.00 20.00     0.207 A 
HETATM    4  C4  UNL     1     -35.157  14.462  -6.044  1.00 20.00     0.077 C 
HETATM    5  C5  UNL     1     -34.256  14.519  -3.440  1.00 20.00     0.077 C 
HETATM    6  C6  UNL     1     -33.808  16.355  -5.094  1.00 20.00     0.084 A 
HETATM    7  O7  UNL     1     -34.777  17.368  -4.782  1.00 20.00    -0.375 OA
HETATM    8  S8  UNL     1     -34.580  13.308  -4.761  1.00 20.00    -0.169 SA
ENDROOT
TORSDOF 0
ENDMDL
MODEL 7
REMARK VINA RESULT:      -3.2      2.265      2.598
REMARK  0 active torsions:
REMARK  status: ('A' for Active; 'I' for Inactive)
ROOT
HETATM    1  C1  UNL     1     -33.326  15.306  -3.968  1.00 20.00     0.050 C 
HETATM    2  C2  UNL     1     -34.358  15.279  -6.314  1.00 20.00     0.050 C 
HETATM    3  C3  UNL     1     -34.619  13.200  -4.776  1.00 20.00     0.207 A 
HETATM    4  C4  UNL     1     -33.674  16.770  -3.726  1.00 20.00     0.077 C 
HETATM    5  C5  UNL     1     -34.781  16.742  -6.250  1.00 20.00     0.077 C 
HETATM    6  C6  UNL     1     -34.259  14.657  -4.951  1.00 20.00     0.084 A 
HETATM    7  O7  UNL     1     -35.518  14.252  -4.393  1.00 20.00    -0.375 OA
HETATM    8  S8  UNL     1     -33.614  17.735  -5.268  1.00 20.00    -0.169 SA
ENDROOT
TORSDOF 0
ENDMDL
MODEL 8
REMARK VINA RESULT:      -3.2      2.406      3.200
REMARK  0 active torsions:
REMARK  status: ('A' for Active; 'I' for Inactive)
ROOT
HETATM    1  C1  UNL     1     -34.684  13.545  -5.291  1.00 20.00     0.050 C 
HETATM    2  C2  UNL     1     -33.893  15.788  -6.247  1.00 20.00     0.050 C 
HETATM    3  C3  UNL     1     -35.802  14.488  -7.441  1.00 20.00     0.207 A 
HETATM    4  C4  UNL     1     -34.549  14.005  -3.844  1.00 20.00     0.077 C 
HETATM    5  C5  UNL     1     -33.696  16.415  -4.872  1.00 20.00     0.077 C 
HETATM    6  C6  UNL     1     -34.922  14.694  -6.230  1.00 20.00     0.084 A 
HETATM    7  O7  UNL     1     -36.279  15.158  -6.264  1.00 20.00    -0.375 OA
HETATM    8  S8  UNL     1     -33.175  15.180  -3.641  1.00 20.00    -0.169 SA
ENDROOT
TORSDOF 0
ENDMDL
MODEL 9
REMARK VINA RESULT:      -3.2      2.061      2.440
REMARK  0 active torsions:
REMARK  status: ('A' for Active; 'I' for Inactive)
ROOT
HETATM    1  C1  UNL     1     -35.150  14.232  -3.837  1.00 20.00     0.050 C 
HETATM    2  C2  UNL     1     -34.591  16.475  -4.944  1.00 20.00     0.050 C 
HETATM    3  C3  UNL     1     -34.020  16.107  -2.434  1.00 20.00     0.207 A 
HETATM    4  C4  UNL     1     -34.774  13.420  -5.071  1.00 20.00     0.077 C 
HETATM    5  C5  UNL     1     -34.175  15.832  -6.261  1.00 20.00     0.077 C 
HETATM    6  C6  UNL     1     -34.419  15.544  -3.779  1.00 20.00     0.084 A 
HETATM    7  O7  UNL     1     -33.073  15.449  -3.290  1.00 20.00    -0.375 OA
HETATM    8  S8  UNL     1     -35.139  14.327  -6.605  1.00 20.00    -0.169 SA
ENDROOT
TORSDOF 0
ENDMDL
