MODEL 1
REMARK VINA RESULT:      -4.1      0.000      0.000
REMARK  3 active torsions:
REMARK  status: ('A' for Active; 'I' for Inactive)
REMARK    1  A    between atoms: C1_1  and  C2_2 
REMARK    2  A    between atoms: C1_1  and  O10_10 
REMARK    3  A    between atoms: C3_3  and  C7_7 
ROOT
HETATM    1  C2  UNL     1     -33.667  14.754  -3.749  1.00 20.00     0.256 A 
HETATM    2  C3  UNL     1     -34.369  15.937  -3.114  1.00 20.00     0.093 A 
HETATM    3  C4  UNL     1     -35.827  16.185  -3.341  1.00 20.00     0.049 C 
HETATM    4  O9  UNL     1     -33.568  16.080  -4.293  1.00 20.00    -0.359 OA
ENDROOT
BRANCH   1   5
HETATM    5  C1  UNL     1     -34.373  13.815  -4.621  1.00 20.00     0.290 C 
HETATM    6  O8  UNL     1     -34.936  12.802  -4.225  1.00 20.00    -0.262 OA
BRANCH   5   7
HETATM    7  O10 UNL     1     -34.298  14.247  -5.912  1.00 20.00    -0.324 OA
HETATM    8  C6  UNL     1     -35.551  14.361  -6.596  1.00 20.00     0.213 C 
ENDBRANCH   5   7
ENDBRANCH   1   5
BRANCH   2   9
HETATM    9  C7  UNL     1     -33.767  16.563  -1.896  1.00 20.00     0.036 C 
HETATM   10  C5  UNL     1     -34.737  16.656  -0.749  1.00 20.00     0.008 C 
ENDBRANCH   2   9
TORSDOF 3
ENDMDL
MODEL 2
REMARK VINA RESULT:      -3.8     10.897     11.787
REMARK  3 active torsions:
REMARK  status: ('A' for Active; 'I' for Inactive)
REMARK    1  A    between atoms: C1_1  and  C2_2 
REMARK    2  A    between atoms: C1_1  and  O10_10 
REMARK    3  A    between atoms: C3_3  and  C7_7 
ROOT
HETATM    1  C2  UNL     1     -33.054   6.497   3.038  1.00 20.00     0.256 A 
HETATM    2  C3  UNL     1     -33.801   6.042   4.275  1.00 20.00     0.093 A 
HETATM    3  C4  UNL     1     -33.644   6.758   5.580  1.00 20.00     0.049 C 
HETATM    4  O9  UNL     1     -32.607   5.385   3.830  1.00 20.00    -0.359 OA
ENDROOT
BRANCH   1   5
HETATM    5  C1  UNL     1     -32.140   7.639   3.064  1.00 20.00     0.290 C 
HETATM    6  O8  UNL     1     -31.126   7.689   3.747  1.00 20.00    -0.262 OA
BRANCH   5   7
HETATM    7  O10 UNL     1     -32.598   8.609   2.222  1.00 20.00    -0.324 OA
HETATM    8  C6  UNL     1     -31.870   8.756   0.999  1.00 20.00     0.213 C 
ENDBRANCH   5   7
ENDBRANCH   1   5
BRANCH   2   9
HETATM    9  C7  UNL     1     -35.040   5.221   4.108  1.00 20.00     0.036 C 
HETATM   10  C5  UNL     1     -35.183   4.162   5.168  1.00 20.00     0.008 C 
ENDBRANCH   2   9
TORSDOF 3
ENDMDL
MODEL 3
REMARK VINA RESULT:      -3.7      1.903      2.702
REMARK  3 active torsions:
REMARK  status: ('A' for Active; 'I' for Inactive)
REMARK    1  A    between atoms: C1_1  and  C2_2 
REMARK    2  A    between atoms: C1_1  and  O10_10 
REMARK    3  A    between atoms: C3_3  and  C7_7 
ROOT
HETATM    1  C2  UNL     1     -34.638  14.790  -3.741  1.00 20.00     0.256 A 
HETATM    2  C3  UNL     1     -33.982  15.699  -4.761  1.00 20.00     0.093 A 
HETATM    3  C4  UNL     1     -34.119  15.441  -6.228  1.00 20.00     0.049 C 
HETATM    4  O9  UNL     1     -33.241  14.689  -4.064  1.00 20.00    -0.359 OA
ENDROOT
BRANCH   1   5
HETATM    5  C1  UNL     1     -35.417  13.618  -4.140  1.00 20.00     0.290 C 
HETATM    6  O8  UNL     1     -34.937  12.625  -4.671  1.00 20.00    -0.262 OA
BRANCH   5   7
HETATM    7  O10 UNL     1     -36.729  13.815  -3.828  1.00 20.00    -0.324 OA
HETATM    8  C6  UNL     1     -37.168  15.177  -3.848  1.00 20.00     0.213 C 
ENDBRANCH   5   7
ENDBRANCH   1   5
BRANCH   2   9
HETATM    9  C7  UNL     1     -33.625  17.095  -4.358  1.00 20.00     0.036 C 
HETATM   10  C5  UNL     1     -33.600  18.048  -5.522  1.00 20.00     0.008 C 
ENDBRANCH   2   9
TORSDOF 3
ENDMDL
MODEL 4
REMARK VINA RESULT:      -3.6      1.187      1.767
REMARK  3 active torsions:
REMARK  status: ('A' for Active; 'I' for Inactive)
REMARK    1  A    between atoms: C1_1  and  C2_2 
REMARK    2  A    between atoms: C1_1  and  O10_10 
REMARK    3  A    between atoms: C3_3  and  C7_7 
ROOT
HETATM    1  C2  UNL     1     -33.647  15.332  -4.568  1.00 20.00     0.256 A 
HETATM    2  C3  UNL     1     -34.014  16.546  -3.737  1.00 20.00     0.093 A 
HETATM    3  C4  UNL     1     -35.147  17.439  -4.132  1.00 20.00     0.049 C 
HETATM    4  O9  UNL     1     -32.915  16.565  -4.658  1.00 20.00    -0.359 OA
ENDROOT
BRANCH   1   5
HETATM    5  C1  UNL     1     -34.368  14.989  -5.794  1.00 20.00     0.290 C 
HETATM    6  O8  UNL     1     -34.107  15.456  -6.895  1.00 20.00    -0.262 OA
BRANCH   5   7
HETATM    7  O10 UNL     1     -35.351  14.089  -5.508  1.00 20.00    -0.324 OA
HETATM    8  C6  UNL     1     -35.103  13.245  -4.379  1.00 20.00     0.213 C 
ENDBRANCH   5   7
ENDBRANCH   1   5
BRANCH   2   9
HETATM    9  C7  UNL     1     -33.599  16.588  -2.301  1.00 20.00     0.036 C 
HETATM   10  C5  UNL     1     -34.759  16.434  -1.355  1.00 20.00     0.008 C 
ENDBRANCH   2   9
TORSDOF 3
ENDMDL
MODEL 5
REMARK VINA RESULT:      -3.5      1.439      2.254
REMARK  3 active torsions:
REMARK  status: ('A' for Active; 'I' for Inactive)
REMARK    1  A    between atoms: C1_1  and  C2_2 
REMARK    2  A    between atoms: C1_1  and  O10_10 
REMARK    3  A    between atoms: C3_3  and  C7_7 
ROOT
HETATM    1  C2  UNL     1     -36.254  14.705  -4.629  1.00 20.00     0.256 A 
HETATM    2  C3  UNL     1     -36.217  15.651  -3.445  1.00 20.00     0.093 A 
HETATM    3  C4  UNL     1     -35.057  15.662  -2.500  1.00 20.00     0.049 C 
HETATM    4  O9  UNL     1     -36.975  14.434  -3.415  1.00 20.00    -0.359 OA
ENDROOT
BRANCH   1   5
HETATM    5  C1  UNL     1     -35.174  13.755  -4.892  1.00 20.00     0.290 C 
HETATM    6  O8  UNL     1     -35.061  12.673  -4.331  1.00 20.00    -0.262 OA
BRANCH   5   7
HETATM    7  O10 UNL     1     -34.338  14.266  -5.840  1.00 20.00    -0.324 OA
HETATM    8  C6  UNL     1     -34.966  14.660  -7.065  1.00 20.00     0.213 C 
ENDBRANCH   5   7
ENDBRANCH   1   5
BRANCH   2   9
HETATM    9  C7  UNL     1     -37.061  16.885  -3.483  1.00 20.00     0.036 C 
HETATM   10  C5  UNL     1     -36.614  17.926  -2.491  1.00 20.00     0.008 C 
ENDBRANCH   2   9
TORSDOF 3
ENDMDL
MODEL 6
REMARK VINA RESULT:      -3.5      2.067      2.632
REMARK  3 active torsions:
REMARK  status: ('A' for Active; 'I' for Inactive)
REMARK    1  A    between atoms: C1_1  and  C2_2 
REMARK    2  A    between atoms: C1_1  and  O10_10 
REMARK    3  A    between atoms: C3_3  and  C7_7 
ROOT
HETATM    1  C2  UNL     1     -35.722  14.909  -3.573  1.00 20.00     0.256 A 
HETATM    2  C3  UNL     1     -35.382  16.198  -2.853  1.00 20.00     0.093 A 
HETATM    3  C4  UNL     1     -36.285  17.389  -2.931  1.00 20.00     0.049 C 
HETATM    4  O9  UNL     1     -34.776  15.850  -4.105  1.00 20.00    -0.359 OA
ENDROOT
BRANCH   1   5
HETATM    5  C1  UNL     1     -36.932  14.774  -4.385  1.00 20.00     0.290 C 
HETATM    6  O8  UNL     1     -36.998  15.073  -5.570  1.00 20.00    -0.262 OA
BRANCH   5   7
HETATM    7  O10 UNL     1     -37.942  14.273  -3.619  1.00 20.00    -0.324 OA
HETATM    8  C6  UNL     1     -39.149  15.043  -3.613  1.00 20.00     0.213 C 
ENDBRANCH   5   7
ENDBRANCH   1   5
BRANCH   2   9
HETATM    9  C7  UNL     1     -34.441  16.148  -1.692  1.00 20.00     0.036 C 
HETATM   10  C5  UNL     1     -34.867  17.041  -0.558  1.00 20.00     0.008 C 
ENDBRANCH   2   9
TORSDOF 3
ENDMDL
MODEL 7
REMARK VINA RESULT:      -3.5     11.281     12.099
REMARK  3 active torsions:
REMARK  status: ('A' for Active; 'I' for Inactive)
REMARK    1  A    between atoms: C1_1  and  C2_2 
REMARK    2  A    between atoms: C1_1  and  O10_10 
REMARK    3  A    between atoms: C3_3  and  C7_7 
ROOT
HETATM    1  C2  UNL     1     -32.922   6.552   4.418  1.00 20.00     0.256 A 
HETATM    2  C3  UNL     1     -34.254   5.896   4.721  1.00 20.00     0.093 A 
HETATM    3  C4  UNL     1     -35.113   5.347   3.626  1.00 20.00     0.049 C 
HETATM    4  O9  UNL     1     -34.107   7.321   4.681  1.00 20.00    -0.359 OA
ENDROOT
BRANCH   1   5
HETATM    5  C1  UNL     1     -32.425   6.693   3.050  1.00 20.00     0.290 C 
HETATM    6  O8  UNL     1     -31.959   5.772   2.392  1.00 20.00    -0.262 OA
BRANCH   5   7
HETATM    7  O10 UNL     1     -32.563   7.987   2.645  1.00 20.00    -0.324 OA
HETATM    8  C6  UNL     1     -31.839   8.343   1.463  1.00 20.00     0.213 C 
ENDBRANCH   5   7
ENDBRANCH   1   5
BRANCH   2   9
HETATM    9  C7  UNL     1     -34.495   5.353   6.094  1.00 20.00     0.036 C 
HETATM   10  C5  UNL     1     -35.134   3.991   6.078  1.00 20.00     0.008 C 
ENDBRANCH   2   9
TORSDOF 3
ENDMDL
MODEL 8
REMARK VINA RESULT:      -3.5      1.613      4.160
REMARK  3 active torsions:
REMARK  status: ('A' for Active; 'I' for Inactive)
REMARK    1  A    between atoms: C1_1  and  C2_2 
REMARK    2  A    between atoms: C1_1  and  O10_10 
REMARK    3  A    between atoms: C3_3  and  C7_7 
ROOT
HETATM    1  C2  UNL     1     -34.903  15.915  -4.479  1.00 20.00     0.256 A 
HETATM    2  C3  UNL     1     -34.513  14.805  -5.433  1.00 20.00     0.093 A 
HETATM    3  C4  UNL     1     -34.740  13.368  -5.083  1.00 20.00     0.049 C 
HETATM    4  O9  UNL     1     -33.546  15.457  -4.600  1.00 20.00    -0.359 OA
ENDROOT
BRANCH   1   5
HETATM    5  C1  UNL     1     -35.499  15.636  -3.172  1.00 20.00     0.290 C 
HETATM    6  O8  UNL     1     -36.697  15.465  -2.989  1.00 20.00    -0.262 OA
BRANCH   5   7
HETATM    7  O10 UNL     1     -34.522  15.600  -2.223  1.00 20.00    -0.324 OA
HETATM    8  C6  UNL     1     -34.650  16.564  -1.172  1.00 20.00     0.213 C 
ENDBRANCH   5   7
ENDBRANCH   1   5
BRANCH   2   9
HETATM    9  C7  UNL     1     -34.369  15.123  -6.888  1.00 20.00     0.036 C 
HETATM   10  C5  UNL     1     -35.434  14.479  -7.733  1.00 20.00     0.008 C 
ENDBRANCH   2   9
TORSDOF 3
ENDMDL
MODEL 9
REMARK VINA RESULT:      -3.4      2.297      3.188
REMARK  3 active torsions:
REMARK  status: ('A' for Active; 'I' for Inactive)
REMARK    1  A    between atoms: C1_1  and  C2_2 
REMARK    2  A    between atoms: C1_1  and  O10_10 
REMARK    3  A    between atoms: C3_3  and  C7_7 
ROOT
HETATM    1  C2  UNL     1     -36.113  14.353  -4.544  1.00 20.00     0.256 A 
HETATM    2  C3  UNL     1     -34.932  14.751  -3.682  1.00 20.00     0.093 A 
HETATM    3  C4  UNL     1     -35.102  15.668  -2.512  1.00 20.00     0.049 C 
HETATM    4  O9  UNL     1     -35.187  15.376  -4.947  1.00 20.00    -0.359 OA
ENDROOT
BRANCH   1   5
HETATM    5  C1  UNL     1     -37.462  14.855  -4.284  1.00 20.00     0.290 C 
HETATM    6  O8  UNL     1     -38.273  14.296  -3.558  1.00 20.00    -0.262 OA
BRANCH   5   7
HETATM    7  O10 UNL     1     -37.656  16.018  -4.970  1.00 20.00    -0.324 OA
HETATM    8  C6  UNL     1     -38.177  17.106  -4.201  1.00 20.00     0.213 C 
ENDBRANCH   5   7
ENDBRANCH   1   5
BRANCH   2   9
HETATM    9  C7  UNL     1     -33.718  13.878  -3.675  1.00 20.00     0.036 C 
HETATM   10  C5  UNL     1     -32.436  14.662  -3.599  1.00 20.00     0.008 C 
ENDBRANCH   2   9
TORSDOF 3
ENDMDL
