MODEL 1
REMARK VINA RESULT:      -4.5      0.000      0.000
REMARK  0 active torsions:
REMARK  status: ('A' for Active; 'I' for Inactive)
ROOT
HETATM    1  C1  UNL     1     -34.513  16.666  -6.825  1.00 20.00     0.064 C 
HETATM    2  C2  UNL     1     -34.415  13.570  -4.627  1.00 20.00     0.128 C 
HETATM    3  C3  UNL     1     -33.238  13.906  -3.740  1.00 20.00     0.078 C 
HETATM    4  C4  UNL     1     -34.561  14.387  -5.892  1.00 20.00     0.097 C 
HETATM    5  C5  UNL     1     -33.180  15.403  -3.472  1.00 20.00     0.009 C 
HETATM    6  C6  UNL     1     -33.226  16.213  -4.767  1.00 20.00     0.020 C 
HETATM    7  C7  UNL     1     -34.485  15.883  -5.579  1.00 20.00     0.100 C 
HETATM    8  N8  UNL     1     -34.535  17.284  -7.807  1.00 20.00    -0.197 NA
HETATM    9  O9  UNL     1     -35.153  12.616  -4.386  1.00 20.00    -0.298 OA
ENDROOT
TORSDOF 0
ENDMDL
MODEL 2
REMARK VINA RESULT:      -4.5      2.633      3.399
REMARK  0 active torsions:
REMARK  status: ('A' for Active; 'I' for Inactive)
ROOT
HETATM    1  C1  UNL     1     -34.375  16.234  -1.709  1.00 20.00     0.064 C 
HETATM    2  C2  UNL     1     -34.608  13.904  -4.699  1.00 20.00     0.128 C 
HETATM    3  C3  UNL     1     -34.462  14.898  -5.828  1.00 20.00     0.078 C 
HETATM    4  C4  UNL     1     -34.939  14.473  -3.337  1.00 20.00     0.097 C 
HETATM    5  C5  UNL     1     -33.520  16.025  -5.428  1.00 20.00     0.009 C 
HETATM    6  C6  UNL     1     -33.926  16.660  -4.099  1.00 20.00     0.020 C 
HETATM    7  C7  UNL     1     -33.977  15.610  -2.981  1.00 20.00     0.100 C 
HETATM    8  N8  UNL     1     -34.688  16.726  -0.705  1.00 20.00    -0.197 NA
HETATM    9  O9  UNL     1     -34.566  12.691  -4.898  1.00 20.00    -0.298 OA
ENDROOT
TORSDOF 0
ENDMDL
MODEL 3
REMARK VINA RESULT:      -4.5     12.242     13.513
REMARK  0 active torsions:
REMARK  status: ('A' for Active; 'I' for Inactive)
ROOT
HETATM    1  C1  UNL     1     -32.792   7.211   3.095  1.00 20.00     0.064 C 
HETATM    2  C2  UNL     1     -34.798   4.540   4.903  1.00 20.00     0.128 C 
HETATM    3  C3  UNL     1     -34.439   4.857   6.336  1.00 20.00     0.078 C 
HETATM    4  C4  UNL     1     -33.913   5.147   3.836  1.00 20.00     0.097 C 
HETATM    5  C5  UNL     1     -34.254   6.357   6.522  1.00 20.00     0.009 C 
HETATM    6  C6  UNL     1     -33.277   6.938   5.501  1.00 20.00     0.020 C 
HETATM    7  C7  UNL     1     -33.744   6.650   4.067  1.00 20.00     0.100 C 
HETATM    8  N8  UNL     1     -32.042   7.654   2.328  1.00 20.00    -0.197 NA
HETATM    9  O9  UNL     1     -35.696   3.748   4.622  1.00 20.00    -0.298 OA
ENDROOT
TORSDOF 0
ENDMDL
MODEL 4
REMARK VINA RESULT:      -4.4      2.887      3.555
REMARK  0 active torsions:
REMARK  status: ('A' for Active; 'I' for Inactive)
ROOT
HETATM    1  C1  UNL     1     -34.036  16.794  -1.876  1.00 20.00     0.064 C 
HETATM    2  C2  UNL     1     -36.333  14.525  -3.878  1.00 20.00     0.128 C 
HETATM    3  C3  UNL     1     -35.329  13.867  -4.796  1.00 20.00     0.078 C 
HETATM    4  C4  UNL     1     -35.874  15.778  -3.164  1.00 20.00     0.097 C 
HETATM    5  C5  UNL     1     -33.999  13.671  -4.081  1.00 20.00     0.009 C 
HETATM    6  C6  UNL     1     -33.497  14.970  -3.451  1.00 20.00     0.020 C 
HETATM    7  C7  UNL     1     -34.530  15.541  -2.471  1.00 20.00     0.100 C 
HETATM    8  N8  UNL     1     -33.646  17.781  -1.407  1.00 20.00    -0.197 NA
HETATM    9  O9  UNL     1     -37.493  14.125  -3.797  1.00 20.00    -0.298 OA
ENDROOT
TORSDOF 0
ENDMDL
MODEL 5
REMARK VINA RESULT:      -4.4     11.867     13.243
REMARK  0 active torsions:
REMARK  status: ('A' for Active; 'I' for Inactive)
ROOT
HETATM    1  C1  UNL     1     -32.362   7.264   2.782  1.00 20.00     0.064 C 
HETATM    2  C2  UNL     1     -34.349   5.765   5.651  1.00 20.00     0.128 C 
HETATM    3  C3  UNL     1     -35.358   4.944   4.880  1.00 20.00     0.078 C 
HETATM    4  C4  UNL     1     -33.596   6.816   4.867  1.00 20.00     0.097 C 
HETATM    5  C5  UNL     1     -34.733   4.382   3.611  1.00 20.00     0.009 C 
HETATM    6  C6  UNL     1     -34.063   5.474   2.777  1.00 20.00     0.020 C 
HETATM    7  C7  UNL     1     -32.995   6.213   3.595  1.00 20.00     0.100 C 
HETATM    8  N8  UNL     1     -31.863   8.092   2.141  1.00 20.00    -0.197 NA
HETATM    9  O9  UNL     1     -34.224   5.655   6.869  1.00 20.00    -0.298 OA
ENDROOT
TORSDOF 0
ENDMDL
MODEL 6
REMARK VINA RESULT:      -4.4      2.910      3.539
REMARK  0 active torsions:
REMARK  status: ('A' for Active; 'I' for Inactive)
ROOT
HETATM    1  C1  UNL     1     -36.955  14.496  -4.056  1.00 20.00     0.064 C 
HETATM    2  C2  UNL     1     -33.557  16.159  -4.392  1.00 20.00     0.128 C 
HETATM    3  C3  UNL     1     -32.693  15.157  -3.663  1.00 20.00     0.078 C 
HETATM    4  C4  UNL     1     -35.049  16.053  -4.167  1.00 20.00     0.097 C 
HETATM    5  C5  UNL     1     -33.212  13.742  -3.884  1.00 20.00     0.009 C 
HETATM    6  C6  UNL     1     -34.700  13.626  -3.554  1.00 20.00     0.020 C 
HETATM    7  C7  UNL     1     -35.526  14.616  -4.387  1.00 20.00     0.100 C 
HETATM    8  N8  UNL     1     -38.082  14.402  -3.795  1.00 20.00    -0.197 NA
HETATM    9  O9  UNL     1     -33.067  17.077  -5.048  1.00 20.00    -0.298 OA
ENDROOT
TORSDOF 0
ENDMDL
MODEL 7
REMARK VINA RESULT:      -4.3      2.689      3.029
REMARK  0 active torsions:
REMARK  status: ('A' for Active; 'I' for Inactive)
ROOT
HETATM    1  C1  UNL     1     -37.292  14.741  -3.866  1.00 20.00     0.064 C 
HETATM    2  C2  UNL     1     -33.588  13.901  -3.836  1.00 20.00     0.128 C 
HETATM    3  C3  UNL     1     -32.999  15.281  -3.653  1.00 20.00     0.078 C 
HETATM    4  C4  UNL     1     -35.036  13.837  -4.269  1.00 20.00     0.097 C 
HETATM    5  C5  UNL     1     -33.904  16.135  -2.775  1.00 20.00     0.009 C 
HETATM    6  C6  UNL     1     -35.345  16.144  -3.284  1.00 20.00     0.020 C 
HETATM    7  C7  UNL     1     -35.906  14.718  -3.370  1.00 20.00     0.100 C 
HETATM    8  N8  UNL     1     -38.384  14.759  -4.257  1.00 20.00    -0.197 NA
HETATM    9  O9  UNL     1     -32.897  12.887  -3.741  1.00 20.00    -0.298 OA
ENDROOT
TORSDOF 0
ENDMDL
MODEL 8
REMARK VINA RESULT:      -4.2      1.655      2.481
REMARK  0 active torsions:
REMARK  status: ('A' for Active; 'I' for Inactive)
ROOT
HETATM    1  C1  UNL     1     -33.597  17.513  -4.628  1.00 20.00     0.064 C 
HETATM    2  C2  UNL     1     -33.590  13.766  -4.010  1.00 20.00     0.128 C 
HETATM    3  C3  UNL     1     -34.831  13.364  -4.773  1.00 20.00     0.078 C 
HETATM    4  C4  UNL     1     -33.437  15.238  -3.697  1.00 20.00     0.097 C 
HETATM    5  C5  UNL     1     -35.008  14.239  -6.007  1.00 20.00     0.009 C 
HETATM    6  C6  UNL     1     -34.953  15.726  -5.659  1.00 20.00     0.020 C 
HETATM    7  C7  UNL     1     -33.634  16.080  -4.960  1.00 20.00     0.100 C 
HETATM    8  N8  UNL     1     -33.568  18.643  -4.366  1.00 20.00    -0.197 NA
HETATM    9  O9  UNL     1     -32.800  12.928  -3.576  1.00 20.00    -0.298 OA
ENDROOT
TORSDOF 0
ENDMDL
MODEL 9
REMARK VINA RESULT:      -4.2      3.060      3.864
REMARK  0 active torsions:
REMARK  status: ('A' for Active; 'I' for Inactive)
ROOT
HETATM    1  C1  UNL     1     -34.432  13.740  -4.312  1.00 20.00     0.064 C 
HETATM    2  C2  UNL     1     -33.825  17.484  -4.521  1.00 20.00     0.128 C 
HETATM    3  C3  UNL     1     -34.233  17.902  -3.127  1.00 20.00     0.078 C 
HETATM    4  C4  UNL     1     -34.268  16.109  -4.970  1.00 20.00     0.097 C 
HETATM    5  C5  UNL     1     -33.873  16.820  -2.118  1.00 20.00     0.009 C 
HETATM    6  C6  UNL     1     -34.415  15.453  -2.534  1.00 20.00     0.020 C 
HETATM    7  C7  UNL     1     -33.898  15.056  -3.923  1.00 20.00     0.100 C 
HETATM    8  N8  UNL     1     -34.853  12.704  -4.619  1.00 20.00    -0.197 NA
HETATM    9  O9  UNL     1     -33.256  18.260  -5.287  1.00 20.00    -0.298 OA
ENDROOT
TORSDOF 0
ENDMDL
