MODEL 1
REMARK VINA RESULT:      -4.9      0.000      0.000
REMARK  2 active torsions:
REMARK  status: ('A' for Active; 'I' for Inactive)
REMARK    1  A    between atoms: C2_2  and  C3_3 
REMARK    2  A    between atoms: C3_3  and  C4_4 
ROOT
HETATM    1  C3  UNL     1     -34.191   5.944   5.463  1.00 20.00     0.254 C 
HETATM    2  O5  UNL     1     -33.939   6.684   6.412  1.00 20.00    -0.283 OA
ENDROOT
BRANCH   1   3
HETATM    3  C2  UNL     1     -33.965   6.357   4.053  1.00 20.00     0.049 C 
HETATM    4  C1  UNL     1     -32.756   6.252   3.494  1.00 20.00     0.015 C 
ENDBRANCH   1   3
BRANCH   1   5
HETATM    5  C4  UNL     1     -34.749   4.565   5.666  1.00 20.00     0.455 C 
HETATM    6  F6  UNL     1     -35.686   4.536   6.647  1.00 20.00    -0.163 F 
HETATM    7  F7  UNL     1     -35.338   4.085   4.542  1.00 20.00    -0.163 F 
HETATM    8  F8  UNL     1     -33.788   3.673   6.016  1.00 20.00    -0.163 F 
ENDBRANCH   1   5
TORSDOF 2
ENDMDL
MODEL 2
REMARK VINA RESULT:      -4.9      0.016      1.337
REMARK  2 active torsions:
REMARK  status: ('A' for Active; 'I' for Inactive)
REMARK    1  A    between atoms: C2_2  and  C3_3 
REMARK    2  A    between atoms: C3_3  and  C4_4 
ROOT
HETATM    1  C3  UNL     1     -34.198   5.940   5.452  1.00 20.00     0.254 C 
HETATM    2  O5  UNL     1     -33.943   6.681   6.399  1.00 20.00    -0.283 OA
ENDROOT
BRANCH   1   3
HETATM    3  C2  UNL     1     -33.981   6.352   4.040  1.00 20.00     0.049 C 
HETATM    4  C1  UNL     1     -32.774   6.257   3.477  1.00 20.00     0.015 C 
ENDBRANCH   1   3
BRANCH   1   5
HETATM    5  C4  UNL     1     -34.749   4.560   5.659  1.00 20.00     0.455 C 
HETATM    6  F6  UNL     1     -35.333   4.072   4.535  1.00 20.00    -0.163 F 
HETATM    7  F7  UNL     1     -33.784   3.675   6.017  1.00 20.00    -0.163 F 
HETATM    8  F8  UNL     1     -35.692   4.527   6.636  1.00 20.00    -0.163 F 
ENDBRANCH   1   5
TORSDOF 2
ENDMDL
MODEL 3
REMARK VINA RESULT:      -4.9      0.010      1.334
REMARK  2 active torsions:
REMARK  status: ('A' for Active; 'I' for Inactive)
REMARK    1  A    between atoms: C2_2  and  C3_3 
REMARK    2  A    between atoms: C3_3  and  C4_4 
ROOT
HETATM    1  C3  UNL     1     -34.198   5.940   5.470  1.00 20.00     0.254 C 
HETATM    2  O5  UNL     1     -33.947   6.678   6.420  1.00 20.00    -0.283 OA
ENDROOT
BRANCH   1   3
HETATM    3  C2  UNL     1     -33.969   6.354   4.061  1.00 20.00     0.049 C 
HETATM    4  C1  UNL     1     -32.759   6.253   3.504  1.00 20.00     0.015 C 
ENDBRANCH   1   3
BRANCH   1   5
HETATM    5  C4  UNL     1     -34.754   4.560   5.669  1.00 20.00     0.455 C 
HETATM    6  F6  UNL     1     -33.791   3.670   6.020  1.00 20.00    -0.163 F 
HETATM    7  F7  UNL     1     -35.696   4.529   6.647  1.00 20.00    -0.163 F 
HETATM    8  F8  UNL     1     -35.342   4.079   4.544  1.00 20.00    -0.163 F 
ENDBRANCH   1   5
TORSDOF 2
ENDMDL
MODEL 4
REMARK VINA RESULT:      -4.8      2.433      3.253
REMARK  2 active torsions:
REMARK  status: ('A' for Active; 'I' for Inactive)
REMARK    1  A    between atoms: C2_2  and  C3_3 
REMARK    2  A    between atoms: C3_3  and  C4_4 
ROOT
HETATM    1  C3  UNL     1     -33.921   6.014   4.709  1.00 20.00     0.254 C 
HETATM    2  O5  UNL     1     -33.619   6.718   5.670  1.00 20.00    -0.283 OA
ENDROOT
BRANCH   1   3
HETATM    3  C2  UNL     1     -34.985   4.979   4.786  1.00 20.00     0.049 C 
HETATM    4  C1  UNL     1     -35.028   4.115   5.804  1.00 20.00     0.015 C 
ENDBRANCH   1   3
BRANCH   1   5
HETATM    5  C4  UNL     1     -33.231   6.152   3.383  1.00 20.00     0.455 C 
HETATM    6  F6  UNL     1     -33.857   5.446   2.408  1.00 20.00    -0.163 F 
HETATM    7  F7  UNL     1     -33.185   7.444   2.967  1.00 20.00    -0.163 F 
HETATM    8  F8  UNL     1     -31.948   5.709   3.426  1.00 20.00    -0.163 F 
ENDBRANCH   1   5
TORSDOF 2
ENDMDL
MODEL 5
REMARK VINA RESULT:      -4.8      2.432      3.316
REMARK  2 active torsions:
REMARK  status: ('A' for Active; 'I' for Inactive)
REMARK    1  A    between atoms: C2_2  and  C3_3 
REMARK    2  A    between atoms: C3_3  and  C4_4 
ROOT
HETATM    1  C3  UNL     1     -33.917   6.008   4.711  1.00 20.00     0.254 C 
HETATM    2  O5  UNL     1     -33.612   6.710   5.673  1.00 20.00    -0.283 OA
ENDROOT
BRANCH   1   3
HETATM    3  C2  UNL     1     -34.986   4.979   4.787  1.00 20.00     0.049 C 
HETATM    4  C1  UNL     1     -35.024   4.103   5.796  1.00 20.00     0.015 C 
ENDBRANCH   1   3
BRANCH   1   5
HETATM    5  C4  UNL     1     -33.226   6.145   3.386  1.00 20.00     0.455 C 
HETATM    6  F6  UNL     1     -31.944   5.702   3.434  1.00 20.00    -0.163 F 
HETATM    7  F7  UNL     1     -33.851   5.438   2.411  1.00 20.00    -0.163 F 
HETATM    8  F8  UNL     1     -33.179   7.435   2.965  1.00 20.00    -0.163 F 
ENDBRANCH   1   5
TORSDOF 2
ENDMDL
MODEL 6
REMARK VINA RESULT:      -4.8      1.532      2.050
REMARK  2 active torsions:
REMARK  status: ('A' for Active; 'I' for Inactive)
REMARK    1  A    between atoms: C2_2  and  C3_3 
REMARK    2  A    between atoms: C3_3  and  C4_4 
ROOT
HETATM    1  C3  UNL     1     -34.506   5.596   4.493  1.00 20.00     0.254 C 
HETATM    2  O5  UNL     1     -35.403   5.282   3.714  1.00 20.00    -0.283 OA
ENDROOT
BRANCH   1   3
HETATM    3  C2  UNL     1     -33.393   6.499   4.098  1.00 20.00     0.049 C 
HETATM    4  C1  UNL     1     -32.489   6.117   3.191  1.00 20.00     0.015 C 
ENDBRANCH   1   3
BRANCH   1   5
HETATM    5  C4  UNL     1     -34.474   5.087   5.904  1.00 20.00     0.455 C 
HETATM    6  F6  UNL     1     -33.720   3.965   6.022  1.00 20.00    -0.163 F 
HETATM    7  F7  UNL     1     -33.957   6.002   6.763  1.00 20.00    -0.163 F 
HETATM    8  F8  UNL     1     -35.714   4.776   6.363  1.00 20.00    -0.163 F 
ENDBRANCH   1   5
TORSDOF 2
ENDMDL
MODEL 7
REMARK VINA RESULT:      -4.8      1.536      1.750
REMARK  2 active torsions:
REMARK  status: ('A' for Active; 'I' for Inactive)
REMARK    1  A    between atoms: C2_2  and  C3_3 
REMARK    2  A    between atoms: C3_3  and  C4_4 
ROOT
HETATM    1  C3  UNL     1     -34.498   5.604   4.480  1.00 20.00     0.254 C 
HETATM    2  O5  UNL     1     -35.398   5.296   3.703  1.00 20.00    -0.283 OA
ENDROOT
BRANCH   1   3
HETATM    3  C2  UNL     1     -33.377   6.496   4.083  1.00 20.00     0.049 C 
HETATM    4  C1  UNL     1     -32.471   6.100   3.184  1.00 20.00     0.015 C 
ENDBRANCH   1   3
BRANCH   1   5
HETATM    5  C4  UNL     1     -34.469   5.097   5.892  1.00 20.00     0.455 C 
HETATM    6  F6  UNL     1     -35.711   4.799   6.350  1.00 20.00    -0.163 F 
HETATM    7  F7  UNL     1     -33.723   3.969   6.012  1.00 20.00    -0.163 F 
HETATM    8  F8  UNL     1     -33.943   6.007   6.751  1.00 20.00    -0.163 F 
ENDBRANCH   1   5
TORSDOF 2
ENDMDL
MODEL 8
REMARK VINA RESULT:      -4.8      1.532      1.680
REMARK  2 active torsions:
REMARK  status: ('A' for Active; 'I' for Inactive)
REMARK    1  A    between atoms: C2_2  and  C3_3 
REMARK    2  A    between atoms: C3_3  and  C4_4 
ROOT
HETATM    1  C3  UNL     1     -34.459   5.620   4.485  1.00 20.00     0.254 C 
HETATM    2  O5  UNL     1     -35.354   5.331   3.695  1.00 20.00    -0.283 OA
ENDROOT
BRANCH   1   3
HETATM    3  C2  UNL     1     -33.316   6.490   4.106  1.00 20.00     0.049 C 
HETATM    4  C1  UNL     1     -32.461   6.121   3.147  1.00 20.00     0.015 C 
ENDBRANCH   1   3
BRANCH   1   5
HETATM    5  C4  UNL     1     -34.460   5.110   5.897  1.00 20.00     0.455 C 
HETATM    6  F6  UNL     1     -33.963   6.025   6.767  1.00 20.00    -0.163 F 
HETATM    7  F7  UNL     1     -35.710   4.797   6.324  1.00 20.00    -0.163 F 
HETATM    8  F8  UNL     1     -33.707   3.989   6.036  1.00 20.00    -0.163 F 
ENDBRANCH   1   5
TORSDOF 2
ENDMDL
MODEL 9
REMARK VINA RESULT:      -4.8      1.717      2.806
REMARK  2 active torsions:
REMARK  status: ('A' for Active; 'I' for Inactive)
REMARK    1  A    between atoms: C2_2  and  C3_3 
REMARK    2  A    between atoms: C3_3  and  C4_4 
ROOT
HETATM    1  C3  UNL     1     -33.916   6.025   4.543  1.00 20.00     0.254 C 
HETATM    2  O5  UNL     1     -32.965   6.613   4.031  1.00 20.00    -0.283 OA
ENDROOT
BRANCH   1   3
HETATM    3  C2  UNL     1     -34.198   6.090   6.000  1.00 20.00     0.049 C 
HETATM    4  C1  UNL     1     -33.713   7.085   6.749  1.00 20.00     0.015 C 
ENDBRANCH   1   3
BRANCH   1   5
HETATM    5  C4  UNL     1     -34.862   5.197   3.723  1.00 20.00     0.455 C 
HETATM    6  F6  UNL     1     -34.374   4.947   2.482  1.00 20.00    -0.163 F 
HETATM    7  F7  UNL     1     -35.113   3.993   4.298  1.00 20.00    -0.163 F 
HETATM    8  F8  UNL     1     -36.063   5.808   3.556  1.00 20.00    -0.163 F 
ENDBRANCH   1   5
TORSDOF 2
ENDMDL
