MODEL 1
REMARK VINA RESULT:      -3.3      0.000      0.000
REMARK  0 active torsions:
REMARK  status: ('A' for Active; 'I' for Inactive)
ROOT
HETATM    1  C1  UNL     1     -34.493  13.664  -4.240  1.00 20.00     0.080 C 
HETATM    2  C2  UNL     1     -32.355  14.678  -3.536  1.00 20.00     0.043 C 
HETATM    3  C3  UNL     1     -34.549  15.602  -2.712  1.00 20.00     0.043 C 
HETATM    4  C4  UNL     1     -33.825  14.922  -3.872  1.00 20.00     0.099 C 
HETATM    5  N5  UNL     1     -35.019  12.670  -4.526  1.00 20.00    -0.196 NA
HETATM    6 BR6  UNL     1     -33.891  16.144  -5.419  1.00 20.00    -0.070 Br
ENDROOT
TORSDOF 0
ENDMDL
MODEL 2
REMARK VINA RESULT:      -3.3      1.422      1.931
REMARK  0 active torsions:
REMARK  status: ('A' for Active; 'I' for Inactive)
ROOT
HETATM    1  C1  UNL     1     -34.453  13.709  -4.249  1.00 20.00     0.080 C 
HETATM    2  C2  UNL     1     -33.861  15.915  -5.186  1.00 20.00     0.043 C 
HETATM    3  C3  UNL     1     -32.320  14.750  -3.570  1.00 20.00     0.043 C 
HETATM    4  C4  UNL     1     -33.773  14.985  -3.978  1.00 20.00     0.099 C 
HETATM    5  N5  UNL     1     -34.987  12.702  -4.466  1.00 20.00    -0.196 NA
HETATM    6 BR6  UNL     1     -34.682  15.874  -2.471  1.00 20.00    -0.070 Br
ENDROOT
TORSDOF 0
ENDMDL
MODEL 3
REMARK VINA RESULT:      -3.1      2.042      2.759
REMARK  0 active torsions:
REMARK  status: ('A' for Active; 'I' for Inactive)
ROOT
HETATM    1  C1  UNL     1     -34.801  13.794  -5.059  1.00 20.00     0.080 C 
HETATM    2  C2  UNL     1     -36.129  15.823  -5.521  1.00 20.00     0.043 C 
HETATM    3  C3  UNL     1     -34.437  14.987  -7.189  1.00 20.00     0.043 C 
HETATM    4  C4  UNL     1     -34.789  15.113  -5.709  1.00 20.00     0.099 C 
HETATM    5  N5  UNL     1     -34.813  12.752  -4.549  1.00 20.00    -0.196 NA
HETATM    6 BR6  UNL     1     -33.399  16.223  -4.855  1.00 20.00    -0.070 Br
ENDROOT
TORSDOF 0
ENDMDL
MODEL 4
REMARK VINA RESULT:      -3.1      2.357      2.728
REMARK  0 active torsions:
REMARK  status: ('A' for Active; 'I' for Inactive)
ROOT
HETATM    1  C1  UNL     1     -36.668  14.596  -3.798  1.00 20.00     0.080 C 
HETATM    2  C2  UNL     1     -34.882  15.746  -5.055  1.00 20.00     0.043 C 
HETATM    3  C3  UNL     1     -34.390  13.646  -3.755  1.00 20.00     0.043 C 
HETATM    4  C4  UNL     1     -35.233  14.917  -3.821  1.00 20.00     0.099 C 
HETATM    5  N5  UNL     1     -37.800  14.340  -3.783  1.00 20.00    -0.196 NA
HETATM    6 BR6  UNL     1     -34.807  16.003  -2.230  1.00 20.00    -0.070 Br
ENDROOT
TORSDOF 0
ENDMDL
MODEL 5
REMARK VINA RESULT:      -3.1      1.620      1.786
REMARK  0 active torsions:
REMARK  status: ('A' for Active; 'I' for Inactive)
ROOT
HETATM    1  C1  UNL     1     -36.341  14.574  -3.769  1.00 20.00     0.080 C 
HETATM    2  C2  UNL     1     -34.045  13.672  -3.694  1.00 20.00     0.043 C 
HETATM    3  C3  UNL     1     -34.641  15.774  -2.442  1.00 20.00     0.043 C 
HETATM    4  C4  UNL     1     -34.916  14.926  -3.682  1.00 20.00     0.099 C 
HETATM    5  N5  UNL     1     -37.466  14.294  -3.835  1.00 20.00    -0.196 NA
HETATM    6 BR6  UNL     1     -34.437  16.004  -5.263  1.00 20.00    -0.070 Br
ENDROOT
TORSDOF 0
ENDMDL
MODEL 6
REMARK VINA RESULT:      -3.1      2.332      2.596
REMARK  0 active torsions:
REMARK  status: ('A' for Active; 'I' for Inactive)
ROOT
HETATM    1  C1  UNL     1     -36.568  14.747  -3.695  1.00 20.00     0.080 C 
HETATM    2  C2  UNL     1     -34.924  15.870  -2.235  1.00 20.00     0.043 C 
HETATM    3  C3  UNL     1     -34.947  16.304  -4.716  1.00 20.00     0.043 C 
HETATM    4  C4  UNL     1     -35.198  15.275  -3.615  1.00 20.00     0.099 C 
HETATM    5  N5  UNL     1     -37.650  14.333  -3.757  1.00 20.00    -0.196 NA
HETATM    6 BR6  UNL     1     -33.933  13.786  -3.887  1.00 20.00    -0.070 Br
ENDROOT
TORSDOF 0
ENDMDL
MODEL 7
REMARK VINA RESULT:      -3.0      1.862      2.362
REMARK  0 active torsions:
REMARK  status: ('A' for Active; 'I' for Inactive)
ROOT
HETATM    1  C1  UNL     1     -34.779  14.028  -4.160  1.00 20.00     0.080 C 
HETATM    2  C2  UNL     1     -35.751  16.204  -4.804  1.00 20.00     0.043 C 
HETATM    3  C3  UNL     1     -33.260  15.933  -4.558  1.00 20.00     0.043 C 
HETATM    4  C4  UNL     1     -34.630  15.488  -4.053  1.00 20.00     0.099 C 
HETATM    5  N5  UNL     1     -34.895  12.877  -4.248  1.00 20.00    -0.196 NA
HETATM    6 BR6  UNL     1     -34.763  15.996  -2.152  1.00 20.00    -0.070 Br
ENDROOT
TORSDOF 0
ENDMDL
MODEL 8
REMARK VINA RESULT:      -3.0     11.820     12.535
REMARK  0 active torsions:
REMARK  status: ('A' for Active; 'I' for Inactive)
ROOT
HETATM    1  C1  UNL     1     -42.569   5.591  -2.429  1.00 20.00     0.080 C 
HETATM    2  C2  UNL     1     -41.083   7.026  -1.078  1.00 20.00     0.043 C 
HETATM    3  C3  UNL     1     -40.746   4.531  -1.145  1.00 20.00     0.043 C 
HETATM    4  C4  UNL     1     -41.767   5.666  -1.198  1.00 20.00     0.099 C 
HETATM    5  N5  UNL     1     -43.199   5.532  -3.401  1.00 20.00    -0.196 NA
HETATM    6 BR6  UNL     1     -42.970   5.462   0.351  1.00 20.00    -0.070 Br
ENDROOT
TORSDOF 0
ENDMDL
MODEL 9
REMARK VINA RESULT:      -2.9      2.527      2.939
REMARK  0 active torsions:
REMARK  status: ('A' for Active; 'I' for Inactive)
ROOT
HETATM    1  C1  UNL     1     -36.579  14.506  -4.243  1.00 20.00     0.080 C 
HETATM    2  C2  UNL     1     -34.943  16.273  -4.787  1.00 20.00     0.043 C 
HETATM    3  C3  UNL     1     -35.225  14.274  -6.294  1.00 20.00     0.043 C 
HETATM    4  C4  UNL     1     -35.270  14.782  -4.855  1.00 20.00     0.099 C 
HETATM    5  N5  UNL     1     -37.613  14.289  -3.764  1.00 20.00    -0.196 NA
HETATM    6 BR6  UNL     1     -33.884  13.819  -3.835  1.00 20.00    -0.070 Br
ENDROOT
TORSDOF 0
ENDMDL
