MODEL 1
REMARK VINA RESULT:      -4.8      0.000      0.000
REMARK  1 active torsions:
REMARK  status: ('A' for Active; 'I' for Inactive)
REMARK    1  A    between atoms: C3_3  and  C5_5 
ROOT
HETATM    1  C1  UNL     1     -33.178  15.646  -3.888  1.00 20.00    -0.015 C 
HETATM    2  C2  UNL     1     -33.210  16.387  -4.999  1.00 20.00    -0.021 C 
HETATM    3  C4  UNL     1     -35.377  15.428  -4.761  1.00 20.00     0.032 C 
HETATM    4  C5  UNL     1     -34.439  14.886  -3.680  1.00 20.00     0.110 C 
HETATM    5  C6  UNL     1     -34.503  16.240  -5.751  1.00 20.00    -0.029 C 
HETATM    6  C7  UNL     1     -35.129  17.606  -6.047  1.00 20.00     0.019 C 
HETATM    7  C8  UNL     1     -34.277  15.474  -7.060  1.00 20.00     0.019 C 
ENDROOT
BRANCH   4   8
HETATM    8  C3  UNL     1     -34.143  13.417  -3.880  1.00 20.00     0.180 C 
HETATM    9  O9  UNL     1     -35.103  12.729  -4.323  1.00 20.00    -0.647 OA
HETATM   10  O10 UNL     1     -32.967  13.069  -3.579  1.00 20.00    -0.647 OA
ENDBRANCH   4   8
TORSDOF 1
ENDMDL
MODEL 2
REMARK VINA RESULT:      -4.7      1.344      2.541
REMARK  1 active torsions:
REMARK  status: ('A' for Active; 'I' for Inactive)
REMARK    1  A    between atoms: C3_3  and  C5_5 
ROOT
HETATM    1  C1  UNL     1     -35.454  15.278  -4.803  1.00 20.00    -0.015 C 
HETATM    2  C2  UNL     1     -35.618  16.273  -3.928  1.00 20.00    -0.021 C 
HETATM    3  C4  UNL     1     -33.288  15.778  -3.964  1.00 20.00     0.032 C 
HETATM    4  C5  UNL     1     -34.052  14.782  -4.838  1.00 20.00     0.110 C 
HETATM    5  C6  UNL     1     -34.347  16.613  -3.199  1.00 20.00    -0.029 C 
HETATM    6  C7  UNL     1     -34.041  18.110  -3.290  1.00 20.00     0.019 C 
HETATM    7  C8  UNL     1     -34.444  16.188  -1.729  1.00 20.00     0.019 C 
ENDROOT
BRANCH   4   8
HETATM    8  C3  UNL     1     -34.031  13.389  -4.250  1.00 20.00     0.180 C 
HETATM    9  O9  UNL     1     -35.106  12.740  -4.364  1.00 20.00    -0.647 OA
HETATM   10  O10 UNL     1     -32.933  13.055  -3.720  1.00 20.00    -0.647 OA
ENDBRANCH   4   8
TORSDOF 1
ENDMDL
MODEL 3
REMARK VINA RESULT:      -4.5      1.637      2.134
REMARK  1 active torsions:
REMARK  status: ('A' for Active; 'I' for Inactive)
REMARK    1  A    between atoms: C3_3  and  C5_5 
ROOT
HETATM    1  C1  UNL     1     -33.209  14.713  -4.027  1.00 20.00    -0.015 C 
HETATM    2  C2  UNL     1     -33.171  16.038  -4.189  1.00 20.00    -0.021 C 
HETATM    3  C4  UNL     1     -34.998  15.583  -2.729  1.00 20.00     0.032 C 
HETATM    4  C5  UNL     1     -34.384  14.274  -3.228  1.00 20.00     0.110 C 
HETATM    5  C6  UNL     1     -34.337  16.729  -3.537  1.00 20.00    -0.029 C 
HETATM    6  C7  UNL     1     -33.866  17.855  -2.613  1.00 20.00     0.019 C 
HETATM    7  C8  UNL     1     -35.289  17.290  -4.601  1.00 20.00     0.019 C 
ENDROOT
BRANCH   4   8
HETATM    8  C3  UNL     1     -35.325  13.528  -4.147  1.00 20.00     0.180 C 
HETATM    9  O9  UNL     1     -36.524  13.920  -4.124  1.00 20.00    -0.647 OA
HETATM   10  O10 UNL     1     -34.786  12.606  -4.821  1.00 20.00    -0.647 OA
ENDBRANCH   4   8
TORSDOF 1
ENDMDL
MODEL 4
REMARK VINA RESULT:      -4.5      1.789      2.752
REMARK  1 active torsions:
REMARK  status: ('A' for Active; 'I' for Inactive)
REMARK    1  A    between atoms: C3_3  and  C5_5 
ROOT
HETATM    1  C1  UNL     1     -33.115  15.749  -4.349  1.00 20.00    -0.015 C 
HETATM    2  C2  UNL     1     -33.726  16.729  -3.677  1.00 20.00    -0.021 C 
HETATM    3  C4  UNL     1     -34.465  14.680  -2.712  1.00 20.00     0.032 C 
HETATM    4  C5  UNL     1     -33.579  14.400  -3.929  1.00 20.00     0.110 C 
HETATM    5  C6  UNL     1     -34.733  16.207  -2.690  1.00 20.00    -0.029 C 
HETATM    6  C7  UNL     1     -34.493  16.789  -1.295  1.00 20.00     0.019 C 
HETATM    7  C8  UNL     1     -36.157  16.535  -3.155  1.00 20.00     0.019 C 
ENDROOT
BRANCH   4   8
HETATM    8  C3  UNL     1     -34.367  13.798  -5.069  1.00 20.00     0.180 C 
HETATM    9  O9  UNL     1     -34.426  14.501  -6.115  1.00 20.00    -0.647 OA
HETATM   10  O10 UNL     1     -34.866  12.662  -4.826  1.00 20.00    -0.647 OA
ENDBRANCH   4   8
TORSDOF 1
ENDMDL
MODEL 5
REMARK VINA RESULT:      -4.2      1.502      2.337
REMARK  1 active torsions:
REMARK  status: ('A' for Active; 'I' for Inactive)
REMARK    1  A    between atoms: C3_3  and  C5_5 
ROOT
HETATM    1  C1  UNL     1     -36.279  14.774  -4.419  1.00 20.00    -0.015 C 
HETATM    2  C2  UNL     1     -36.309  15.449  -5.571  1.00 20.00    -0.021 C 
HETATM    3  C4  UNL     1     -34.874  13.579  -5.916  1.00 20.00     0.032 C 
HETATM    4  C5  UNL     1     -35.319  13.639  -4.453  1.00 20.00     0.110 C 
HETATM    5  C6  UNL     1     -35.350  14.893  -6.587  1.00 20.00    -0.029 C 
HETATM    6  C7  UNL     1     -36.055  14.609  -7.916  1.00 20.00     0.019 C 
HETATM    7  C8  UNL     1     -34.185  15.865  -6.811  1.00 20.00     0.019 C 
ENDROOT
BRANCH   4   8
HETATM    8  C3  UNL     1     -34.168  13.969  -3.530  1.00 20.00     0.180 C 
HETATM    9  O9  UNL     1     -34.356  14.953  -2.763  1.00 20.00    -0.647 OA
HETATM   10  O10 UNL     1     -33.163  13.212  -3.646  1.00 20.00    -0.647 OA
ENDBRANCH   4   8
TORSDOF 1
ENDMDL
MODEL 6
REMARK VINA RESULT:      -4.2      1.435      2.402
REMARK  1 active torsions:
REMARK  status: ('A' for Active; 'I' for Inactive)
REMARK    1  A    between atoms: C3_3  and  C5_5 
ROOT
HETATM    1  C1  UNL     1     -35.078  14.545  -6.307  1.00 20.00    -0.015 C 
HETATM    2  C2  UNL     1     -36.312  15.044  -6.204  1.00 20.00    -0.021 C 
HETATM    3  C4  UNL     1     -35.175  15.629  -4.194  1.00 20.00     0.032 C 
HETATM    4  C5  UNL     1     -34.287  14.733  -5.061  1.00 20.00     0.110 C 
HETATM    5  C6  UNL     1     -36.579  15.645  -4.852  1.00 20.00    -0.029 C 
HETATM    6  C7  UNL     1     -37.114  17.074  -4.976  1.00 20.00     0.019 C 
HETATM    7  C8  UNL     1     -37.576  14.780  -4.070  1.00 20.00     0.019 C 
ENDROOT
BRANCH   4   8
HETATM    8  C3  UNL     1     -34.075  13.376  -4.429  1.00 20.00     0.180 C 
HETATM    9  O9  UNL     1     -34.923  12.497  -4.744  1.00 20.00    -0.647 OA
HETATM   10  O10 UNL     1     -33.070  13.299  -3.667  1.00 20.00    -0.647 OA
ENDBRANCH   4   8
TORSDOF 1
ENDMDL
MODEL 7
REMARK VINA RESULT:      -4.1      2.066      3.071
REMARK  1 active torsions:
REMARK  status: ('A' for Active; 'I' for Inactive)
REMARK    1  A    between atoms: C3_3  and  C5_5 
ROOT
HETATM    1  C1  UNL     1     -33.940  14.266  -3.739  1.00 20.00    -0.015 C 
HETATM    2  C2  UNL     1     -33.498  15.312  -3.036  1.00 20.00    -0.021 C 
HETATM    3  C4  UNL     1     -35.877  15.444  -3.026  1.00 20.00     0.032 C 
HETATM    4  C5  UNL     1     -35.417  14.289  -3.918  1.00 20.00     0.110 C 
HETATM    5  C6  UNL     1     -34.608  16.242  -2.631  1.00 20.00    -0.029 C 
HETATM    6  C7  UNL     1     -34.576  16.518  -1.126  1.00 20.00     0.019 C 
HETATM    7  C8  UNL     1     -34.509  17.562  -3.406  1.00 20.00     0.019 C 
ENDROOT
BRANCH   4   8
HETATM    8  C3  UNL     1     -35.710  14.556  -5.377  1.00 20.00     0.180 C 
HETATM    9  O9  UNL     1     -36.581  15.441  -5.598  1.00 20.00    -0.647 OA
HETATM   10  O10 UNL     1     -35.041  13.855  -6.188  1.00 20.00    -0.647 OA
ENDBRANCH   4   8
TORSDOF 1
ENDMDL
MODEL 8
REMARK VINA RESULT:      -4.1      2.166      3.472
REMARK  1 active torsions:
REMARK  status: ('A' for Active; 'I' for Inactive)
REMARK    1  A    between atoms: C3_3  and  C5_5 
ROOT
HETATM    1  C1  UNL     1     -35.149  15.617  -5.556  1.00 20.00    -0.015 C 
HETATM    2  C2  UNL     1     -34.080  15.976  -4.840  1.00 20.00    -0.021 C 
HETATM    3  C4  UNL     1     -34.963  14.020  -3.807  1.00 20.00     0.032 C 
HETATM    4  C5  UNL     1     -35.876  14.470  -4.949  1.00 20.00     0.110 C 
HETATM    5  C6  UNL     1     -33.909  15.138  -3.603  1.00 20.00    -0.029 C 
HETATM    6  C7  UNL     1     -32.495  14.556  -3.521  1.00 20.00     0.019 C 
HETATM    7  C8  UNL     1     -34.205  15.969  -2.349  1.00 20.00     0.019 C 
ENDROOT
BRANCH   4   8
HETATM    8  C3  UNL     1     -37.206  14.974  -4.438  1.00 20.00     0.180 C 
HETATM    9  O9  UNL     1     -37.508  16.148  -4.787  1.00 20.00    -0.647 OA
HETATM   10  O10 UNL     1     -37.846  14.150  -3.726  1.00 20.00    -0.647 OA
ENDBRANCH   4   8
TORSDOF 1
ENDMDL
MODEL 9
REMARK VINA RESULT:      -4.1     12.204     13.829
REMARK  1 active torsions:
REMARK  status: ('A' for Active; 'I' for Inactive)
REMARK    1  A    between atoms: C3_3  and  C5_5 
ROOT
HETATM    1  C1  UNL     1     -34.838   5.576   3.544  1.00 20.00    -0.015 C 
HETATM    2  C2  UNL     1     -35.161   4.653   4.454  1.00 20.00    -0.021 C 
HETATM    3  C4  UNL     1     -33.896   6.317   5.596  1.00 20.00     0.032 C 
HETATM    4  C5  UNL     1     -33.937   6.623   4.097  1.00 20.00     0.110 C 
HETATM    5  C6  UNL     1     -34.513   4.908   5.787  1.00 20.00    -0.029 C 
HETATM    6  C7  UNL     1     -35.548   4.908   6.914  1.00 20.00     0.019 C 
HETATM    7  C8  UNL     1     -33.435   3.854   6.068  1.00 20.00     0.019 C 
ENDROOT
BRANCH   4   8
HETATM    8  C3  UNL     1     -32.579   6.461   3.454  1.00 20.00     0.180 C 
HETATM    9  O9  UNL     1     -32.470   5.484   2.663  1.00 20.00    -0.647 OA
HETATM   10  O10 UNL     1     -31.727   7.330   3.793  1.00 20.00    -0.647 OA
ENDBRANCH   4   8
TORSDOF 1
ENDMDL
