MODEL 1
REMARK VINA RESULT:      -5.1      0.000      0.000
REMARK  4 active torsions:
REMARK  status: ('A' for Active; 'I' for Inactive)
REMARK    1  A    between atoms: C2_2  and  C7_7 
REMARK    2  A    between atoms: C5_5  and  C6_6 
REMARK    3  A    between atoms: C6_6  and  C7_7 
REMARK    4  A    between atoms: C7_7  and  O8_8 
ROOT
HETATM    1  C7  UNL     1     -34.374   6.180   4.076  1.00 20.00     0.146 C 
ENDROOT
BRANCH   1   2
HETATM    2  C2  UNL     1     -34.344   5.736   5.523  1.00 20.00    -0.065 C 
HETATM    3  C1  UNL     1     -33.941   6.567   6.496  1.00 20.00     0.016 C 
HETATM    4  C3  UNL     1     -34.771   4.328   5.838  1.00 20.00     0.045 C 
ENDBRANCH   1   2
BRANCH   1   5
HETATM    5  C6  UNL     1     -33.066   5.939   3.306  1.00 20.00     0.036 C 
BRANCH   5   6
HETATM    6  C5  UNL     1     -32.036   7.067   3.385  1.00 20.00    -0.002 C 
HETATM    7  C4  UNL     1     -32.098   8.026   2.206  1.00 20.00     0.005 C 
ENDBRANCH   5   6
ENDBRANCH   1   5
BRANCH   1   8
HETATM    8  O8  UNL     1     -35.423   5.468   3.413  1.00 20.00    -0.391 OA
HETATM    9  H22 UNL     1     -35.847   6.102   2.817  1.00 20.00     0.210 HD
ENDBRANCH   1   8
TORSDOF 4
ENDMDL
MODEL 2
REMARK VINA RESULT:      -4.4      1.502      1.782
REMARK  4 active torsions:
REMARK  status: ('A' for Active; 'I' for Inactive)
REMARK    1  A    between atoms: C2_2  and  C7_7 
REMARK    2  A    between atoms: C5_5  and  C6_6 
REMARK    3  A    between atoms: C6_6  and  C7_7 
REMARK    4  A    between atoms: C7_7  and  O8_8 
ROOT
HETATM    1  C7  UNL     1     -33.414   5.788   4.587  1.00 20.00     0.146 C 
ENDROOT
BRANCH   1   2
HETATM    2  C2  UNL     1     -34.787   5.156   4.659  1.00 20.00    -0.065 C 
HETATM    3  C1  UNL     1     -35.743   5.469   3.771  1.00 20.00     0.016 C 
HETATM    4  C3  UNL     1     -35.054   4.172   5.765  1.00 20.00     0.045 C 
ENDBRANCH   1   2
BRANCH   1   5
HETATM    5  C6  UNL     1     -32.996   6.251   3.182  1.00 20.00     0.036 C 
BRANCH   5   6
HETATM    6  C5  UNL     1     -31.924   7.342   3.138  1.00 20.00    -0.002 C 
HETATM    7  C4  UNL     1     -32.074   8.290   1.959  1.00 20.00     0.005 C 
ENDBRANCH   5   6
ENDBRANCH   1   5
BRANCH   1   8
HETATM    8  O8  UNL     1     -33.400   6.924   5.457  1.00 20.00    -0.391 OA
HETATM    9  H22 UNL     1     -32.597   6.846   5.992  1.00 20.00     0.210 HD
ENDBRANCH   1   8
TORSDOF 4
ENDMDL
MODEL 3
REMARK VINA RESULT:      -4.4      1.549      1.998
REMARK  4 active torsions:
REMARK  status: ('A' for Active; 'I' for Inactive)
REMARK    1  A    between atoms: C2_2  and  C7_7 
REMARK    2  A    between atoms: C5_5  and  C6_6 
REMARK    3  A    between atoms: C6_6  and  C7_7 
REMARK    4  A    between atoms: C7_7  and  O8_8 
ROOT
HETATM    1  C7  UNL     1     -33.669   6.040   5.228  1.00 20.00     0.146 C 
ENDROOT
BRANCH   1   2
HETATM    2  C2  UNL     1     -34.816   5.077   5.008  1.00 20.00    -0.065 C 
HETATM    3  C1  UNL     1     -35.032   4.052   5.848  1.00 20.00     0.016 C 
HETATM    4  C3  UNL     1     -35.702   5.294   3.813  1.00 20.00     0.045 C 
ENDBRANCH   1   2
BRANCH   1   5
HETATM    5  C6  UNL     1     -33.468   7.063   4.098  1.00 20.00     0.036 C 
BRANCH   5   6
HETATM    6  C5  UNL     1     -32.252   6.825   3.200  1.00 20.00    -0.002 C 
HETATM    7  C4  UNL     1     -32.017   7.940   2.193  1.00 20.00     0.005 C 
ENDBRANCH   5   6
ENDBRANCH   1   5
BRANCH   1   8
HETATM    8  O8  UNL     1     -33.914   6.755   6.443  1.00 20.00    -0.391 OA
HETATM    9  H22 UNL     1     -33.999   7.686   6.196  1.00 20.00     0.210 HD
ENDBRANCH   1   8
TORSDOF 4
ENDMDL
MODEL 4
REMARK VINA RESULT:      -4.1      1.530      3.319
REMARK  4 active torsions:
REMARK  status: ('A' for Active; 'I' for Inactive)
REMARK    1  A    between atoms: C2_2  and  C7_7 
REMARK    2  A    between atoms: C5_5  and  C6_6 
REMARK    3  A    between atoms: C6_6  and  C7_7 
REMARK    4  A    between atoms: C7_7  and  O8_8 
ROOT
HETATM    1  C7  UNL     1     -34.348   4.362   4.943  1.00 20.00     0.146 C 
ENDROOT
BRANCH   1   2
HETATM    2  C2  UNL     1     -34.520   5.414   3.868  1.00 20.00    -0.065 C 
HETATM    3  C1  UNL     1     -35.741   5.791   3.457  1.00 20.00     0.016 C 
HETATM    4  C3  UNL     1     -33.282   6.017   3.266  1.00 20.00     0.045 C 
ENDBRANCH   1   2
BRANCH   1   5
HETATM    5  C6  UNL     1     -34.022   4.920   6.337  1.00 20.00     0.036 C 
BRANCH   5   6
HETATM    6  C5  UNL     1     -34.441   6.371   6.583  1.00 20.00    -0.002 C 
HETATM    7  C4  UNL     1     -33.266   7.317   6.769  1.00 20.00     0.005 C 
ENDBRANCH   5   6
ENDBRANCH   1   5
BRANCH   1   8
HETATM    8  O8  UNL     1     -35.564   3.613   5.033  1.00 20.00    -0.391 OA
HETATM    9  H22 UNL     1     -35.309   2.680   5.024  1.00 20.00     0.210 HD
ENDBRANCH   1   8
TORSDOF 4
ENDMDL
MODEL 5
REMARK VINA RESULT:      -4.0      1.668      2.158
REMARK  4 active torsions:
REMARK  status: ('A' for Active; 'I' for Inactive)
REMARK    1  A    between atoms: C2_2  and  C7_7 
REMARK    2  A    between atoms: C5_5  and  C6_6 
REMARK    3  A    between atoms: C6_6  and  C7_7 
REMARK    4  A    between atoms: C7_7  and  O8_8 
ROOT
HETATM    1  C7  UNL     1     -32.907   6.335   3.061  1.00 20.00     0.146 C 
ENDROOT
BRANCH   1   2
HETATM    2  C2  UNL     1     -33.938   6.097   4.144  1.00 20.00    -0.065 C 
HETATM    3  C1  UNL     1     -33.717   6.484   5.410  1.00 20.00     0.016 C 
HETATM    4  C3  UNL     1     -35.217   5.403   3.761  1.00 20.00     0.045 C 
ENDBRANCH   1   2
BRANCH   1   5
HETATM    5  C6  UNL     1     -32.314   7.754   3.044  1.00 20.00     0.036 C 
BRANCH   5   6
HETATM    6  C5  UNL     1     -31.963   8.305   1.661  1.00 20.00    -0.002 C 
HETATM    7  C4  UNL     1     -32.442   9.731   1.440  1.00 20.00     0.005 C 
ENDBRANCH   5   6
ENDBRANCH   1   5
BRANCH   1   8
HETATM    8  O8  UNL     1     -31.838   5.404   3.253  1.00 20.00    -0.391 OA
HETATM    9  H22 UNL     1     -31.428   5.280   2.385  1.00 20.00     0.210 HD
ENDBRANCH   1   8
TORSDOF 4
ENDMDL
MODEL 6
REMARK VINA RESULT:      -4.0     11.191     12.322
REMARK  4 active torsions:
REMARK  status: ('A' for Active; 'I' for Inactive)
REMARK    1  A    between atoms: C2_2  and  C7_7 
REMARK    2  A    between atoms: C5_5  and  C6_6 
REMARK    3  A    between atoms: C6_6  and  C7_7 
REMARK    4  A    between atoms: C7_7  and  O8_8 
ROOT
HETATM    1  C7  UNL     1     -35.574  13.951  -4.005  1.00 20.00     0.146 C 
ENDROOT
BRANCH   1   2
HETATM    2  C2  UNL     1     -34.310  14.515  -3.393  1.00 20.00    -0.065 C 
HETATM    3  C1  UNL     1     -33.119  13.932  -3.600  1.00 20.00     0.016 C 
HETATM    4  C3  UNL     1     -34.428  15.745  -2.535  1.00 20.00     0.045 C 
ENDBRANCH   1   2
BRANCH   1   5
HETATM    5  C6  UNL     1     -36.037  14.664  -5.286  1.00 20.00     0.036 C 
BRANCH   5   6
HETATM    6  C5  UNL     1     -35.299  14.266  -6.566  1.00 20.00    -0.002 C 
HETATM    7  C4  UNL     1     -34.287  15.304  -7.026  1.00 20.00     0.005 C 
ENDBRANCH   5   6
ENDBRANCH   1   5
BRANCH   1   8
HETATM    8  O8  UNL     1     -35.342  12.574  -4.316  1.00 20.00    -0.391 OA
HETATM    9  H22 UNL     1     -34.551  12.551  -4.872  1.00 20.00     0.210 HD
ENDBRANCH   1   8
TORSDOF 4
ENDMDL
MODEL 7
REMARK VINA RESULT:      -4.0     11.215     12.490
REMARK  4 active torsions:
REMARK  status: ('A' for Active; 'I' for Inactive)
REMARK    1  A    between atoms: C2_2  and  C7_7 
REMARK    2  A    between atoms: C5_5  and  C6_6 
REMARK    3  A    between atoms: C6_6  and  C7_7 
REMARK    4  A    between atoms: C7_7  and  O8_8 
ROOT
HETATM    1  C7  UNL     1     -34.403  13.327  -4.819  1.00 20.00     0.146 C 
ENDROOT
BRANCH   1   2
HETATM    2  C2  UNL     1     -35.113  14.406  -5.609  1.00 20.00    -0.065 C 
HETATM    3  C1  UNL     1     -36.277  14.922  -5.186  1.00 20.00     0.016 C 
HETATM    4  C3  UNL     1     -34.479  14.876  -6.889  1.00 20.00     0.045 C 
ENDBRANCH   1   2
BRANCH   1   5
HETATM    5  C6  UNL     1     -33.433  13.853  -3.748  1.00 20.00     0.036 C 
BRANCH   5   6
HETATM    6  C5  UNL     1     -33.145  15.355  -3.798  1.00 20.00    -0.002 C 
HETATM    7  C4  UNL     1     -33.753  16.125  -2.636  1.00 20.00     0.005 C 
ENDBRANCH   5   6
ENDBRANCH   1   5
BRANCH   1   8
HETATM    8  O8  UNL     1     -35.394  12.524  -4.171  1.00 20.00    -0.391 OA
HETATM    9  H22 UNL     1     -36.131  12.449  -4.793  1.00 20.00     0.210 HD
ENDBRANCH   1   8
TORSDOF 4
ENDMDL
MODEL 8
REMARK VINA RESULT:      -3.9     11.956     12.917
REMARK  4 active torsions:
REMARK  status: ('A' for Active; 'I' for Inactive)
REMARK    1  A    between atoms: C2_2  and  C7_7 
REMARK    2  A    between atoms: C5_5  and  C6_6 
REMARK    3  A    between atoms: C6_6  and  C7_7 
REMARK    4  A    between atoms: C7_7  and  O8_8 
ROOT
HETATM    1  C7  UNL     1     -33.885  15.704  -4.570  1.00 20.00     0.146 C 
ENDROOT
BRANCH   1   2
HETATM    2  C2  UNL     1     -34.403  14.592  -5.457  1.00 20.00    -0.065 C 
HETATM    3  C1  UNL     1     -34.588  14.783  -6.773  1.00 20.00     0.016 C 
HETATM    4  C3  UNL     1     -34.716  13.267  -4.819  1.00 20.00     0.045 C 
ENDBRANCH   1   2
BRANCH   1   5
HETATM    5  C6  UNL     1     -33.985  15.417  -3.063  1.00 20.00     0.036 C 
BRANCH   5   6
HETATM    6  C5  UNL     1     -33.784  16.626  -2.147  1.00 20.00    -0.002 C 
HETATM    7  C4  UNL     1     -34.648  16.587  -0.896  1.00 20.00     0.005 C 
ENDBRANCH   5   6
ENDBRANCH   1   5
BRANCH   1   8
HETATM    8  O8  UNL     1     -32.510  15.928  -4.894  1.00 20.00    -0.391 OA
HETATM    9  H22 UNL     1     -32.171  16.542  -4.228  1.00 20.00     0.210 HD
ENDBRANCH   1   8
TORSDOF 4
ENDMDL
MODEL 9
REMARK VINA RESULT:      -3.9      0.950      3.822
REMARK  4 active torsions:
REMARK  status: ('A' for Active; 'I' for Inactive)
REMARK    1  A    between atoms: C2_2  and  C7_7 
REMARK    2  A    between atoms: C5_5  and  C6_6 
REMARK    3  A    between atoms: C6_6  and  C7_7 
REMARK    4  A    between atoms: C7_7  and  O8_8 
ROOT
HETATM    1  C7  UNL     1     -33.011   6.109   3.786  1.00 20.00     0.146 C 
ENDROOT
BRANCH   1   2
HETATM    2  C2  UNL     1     -32.092   7.248   3.396  1.00 20.00    -0.065 C 
HETATM    3  C1  UNL     1     -31.184   7.732   4.257  1.00 20.00     0.016 C 
HETATM    4  C3  UNL     1     -32.235   7.829   2.016  1.00 20.00     0.045 C 
ENDBRANCH   1   2
BRANCH   1   5
HETATM    5  C6  UNL     1     -34.148   6.504   4.743  1.00 20.00     0.036 C 
BRANCH   5   6
HETATM    6  C5  UNL     1     -34.274   5.649   6.005  1.00 20.00    -0.002 C 
HETATM    7  C4  UNL     1     -34.869   4.274   5.747  1.00 20.00     0.005 C 
ENDBRANCH   5   6
ENDBRANCH   1   5
BRANCH   1   8
HETATM    8  O8  UNL     1     -33.594   5.578   2.592  1.00 20.00    -0.391 OA
HETATM    9  H22 UNL     1     -34.546   5.735   2.662  1.00 20.00     0.210 HD
ENDBRANCH   1   8
TORSDOF 4
ENDMDL
