MODEL 1
REMARK VINA RESULT:      -4.1      0.000      0.000
REMARK  2 active torsions:
REMARK  status: ('A' for Active; 'I' for Inactive)
REMARK    1  A    between atoms: C1_1  and  C6_6 
REMARK    2  A    between atoms: C6_6  and  N7_7 
ROOT
HETATM    1  C3  UNL     1     -35.147   5.037   6.206  1.00 20.00     0.060 C 
HETATM    2  C4  UNL     1     -34.708   4.703   4.768  1.00 20.00     0.274 C 
HETATM    3  C5  UNL     1     -34.044   6.112   6.142  1.00 20.00     0.274 C 
HETATM    4  N7  UNL     1     -34.215   6.102   4.666  1.00 20.00     0.091 N 
ENDROOT
BRANCH   4   5
HETATM    5  C6  UNL     1     -32.918   6.142   3.999  1.00 20.00     0.300 C 
BRANCH   5   6
HETATM    6  C1  UNL     1     -32.955   7.008   2.776  1.00 20.00     0.010 C 
HETATM    7  C2  UNL     1     -32.034   7.940   2.506  1.00 20.00     0.053 C 
HETATM    8 BR8  UNL     1     -32.048   9.016   0.996  1.00 20.00    -0.064 Br
ENDBRANCH   5   6
ENDBRANCH   4   5
TORSDOF 2
ENDMDL
MODEL 2
REMARK VINA RESULT:      -3.6     11.159     11.721
REMARK  2 active torsions:
REMARK  status: ('A' for Active; 'I' for Inactive)
REMARK    1  A    between atoms: C1_1  and  C6_6 
REMARK    2  A    between atoms: C6_6  and  N7_7 
ROOT
HETATM    1  C3  UNL     1     -34.900  13.263  -4.343  1.00 20.00     0.060 C 
HETATM    2  C4  UNL     1     -35.419  14.691  -4.092  1.00 20.00     0.274 C 
HETATM    3  C5  UNL     1     -33.566  13.803  -3.791  1.00 20.00     0.274 C 
HETATM    4  N7  UNL     1     -34.361  14.822  -3.056  1.00 20.00     0.091 N 
ENDROOT
BRANCH   4   5
HETATM    5  C6  UNL     1     -33.721  16.129  -3.138  1.00 20.00     0.300 C 
BRANCH   5   6
HETATM    6  C1  UNL     1     -33.813  16.869  -1.837  1.00 20.00     0.010 C 
HETATM    7  C2  UNL     1     -34.786  16.667  -0.942  1.00 20.00     0.053 C 
HETATM    8 BR8  UNL     1     -34.918  17.559   0.678  1.00 20.00    -0.064 Br
ENDBRANCH   5   6
ENDBRANCH   4   5
TORSDOF 2
ENDMDL
MODEL 3
REMARK VINA RESULT:      -3.4      2.954      5.018
REMARK  2 active torsions:
REMARK  status: ('A' for Active; 'I' for Inactive)
REMARK    1  A    between atoms: C1_1  and  C6_6 
REMARK    2  A    between atoms: C6_6  and  N7_7 
ROOT
HETATM    1  C3  UNL     1     -32.238   9.807   0.775  1.00 20.00     0.060 C 
HETATM    2  C4  UNL     1     -32.693   9.597   2.231  1.00 20.00     0.274 C 
HETATM    3  C5  UNL     1     -31.609   8.407   0.919  1.00 20.00     0.274 C 
HETATM    4  N7  UNL     1     -32.622   8.135   1.972  1.00 20.00     0.091 N 
ENDROOT
BRANCH   4   5
HETATM    5  C6  UNL     1     -32.015   7.441   3.101  1.00 20.00     0.300 C 
BRANCH   5   6
HETATM    6  C1  UNL     1     -32.825   6.250   3.516  1.00 20.00     0.010 C 
HETATM    7  C2  UNL     1     -33.898   6.330   4.312  1.00 20.00     0.053 C 
HETATM    8 BR8  UNL     1     -34.924   4.877   4.831  1.00 20.00    -0.064 Br
ENDBRANCH   5   6
ENDBRANCH   4   5
TORSDOF 2
ENDMDL
MODEL 4
REMARK VINA RESULT:      -3.3     11.786     12.881
REMARK  2 active torsions:
REMARK  status: ('A' for Active; 'I' for Inactive)
REMARK    1  A    between atoms: C1_1  and  C6_6 
REMARK    2  A    between atoms: C6_6  and  N7_7 
ROOT
HETATM    1  C3  UNL     1     -34.834  14.820  -7.114  1.00 20.00     0.060 C 
HETATM    2  C4  UNL     1     -34.036  15.835  -6.274  1.00 20.00     0.274 C 
HETATM    3  C5  UNL     1     -34.881  13.995  -5.813  1.00 20.00     0.274 C 
HETATM    4  N7  UNL     1     -34.713  15.274  -5.076  1.00 20.00     0.091 N 
ENDROOT
BRANCH   4   5
HETATM    5  C6  UNL     1     -33.767  15.114  -3.978  1.00 20.00     0.300 C 
BRANCH   5   6
HETATM    6  C1  UNL     1     -34.366  15.528  -2.668  1.00 20.00     0.010 C 
HETATM    7  C2  UNL     1     -33.964  16.603  -1.981  1.00 20.00     0.053 C 
HETATM    8 BR8  UNL     1     -34.695  17.145  -0.366  1.00 20.00    -0.064 Br
ENDBRANCH   5   6
ENDBRANCH   4   5
TORSDOF 2
ENDMDL
MODEL 5
REMARK VINA RESULT:      -3.2     11.899     13.121
REMARK  2 active torsions:
REMARK  status: ('A' for Active; 'I' for Inactive)
REMARK    1  A    between atoms: C1_1  and  C6_6 
REMARK    2  A    between atoms: C6_6  and  N7_7 
ROOT
HETATM    1  C3  UNL     1     -34.019  16.604  -6.181  1.00 20.00     0.060 C 
HETATM    2  C4  UNL     1     -33.485  17.260  -4.894  1.00 20.00     0.274 C 
HETATM    3  C5  UNL     1     -34.401  15.431  -5.257  1.00 20.00     0.274 C 
HETATM    4  N7  UNL     1     -34.450  16.414  -4.143  1.00 20.00     0.091 N 
ENDROOT
BRANCH   4   5
HETATM    5  C6  UNL     1     -33.827  15.864  -2.945  1.00 20.00     0.300 C 
BRANCH   5   6
HETATM    6  C1  UNL     1     -34.595  16.227  -1.709  1.00 20.00     0.010 C 
HETATM    7  C2  UNL     1     -34.181  17.145  -0.829  1.00 20.00     0.053 C 
HETATM    8 BR8  UNL     1     -35.114  17.622   0.700  1.00 20.00    -0.064 Br
ENDBRANCH   5   6
ENDBRANCH   4   5
TORSDOF 2
ENDMDL
MODEL 6
REMARK VINA RESULT:      -3.2     10.365     11.056
REMARK  2 active torsions:
REMARK  status: ('A' for Active; 'I' for Inactive)
REMARK    1  A    between atoms: C1_1  and  C6_6 
REMARK    2  A    between atoms: C6_6  and  N7_7 
ROOT
HETATM    1  C3  UNL     1     -41.153   7.241  -0.799  1.00 20.00     0.060 C 
HETATM    2  C4  UNL     1     -41.850   6.624  -2.026  1.00 20.00     0.274 C 
HETATM    3  C5  UNL     1     -41.196   5.809  -0.231  1.00 20.00     0.274 C 
HETATM    4  N7  UNL     1     -41.238   5.327  -1.636  1.00 20.00     0.091 N 
ENDROOT
BRANCH   4   5
HETATM    5  C6  UNL     1     -42.202   4.242  -1.778  1.00 20.00     0.300 C 
BRANCH   5   6
HETATM    6  C1  UNL     1     -41.670   3.142  -2.647  1.00 20.00     0.010 C 
HETATM    7  C2  UNL     1     -42.404   2.097  -3.045  1.00 20.00     0.053 C 
HETATM    8 BR8  UNL     1     -41.776   0.731  -4.129  1.00 20.00    -0.064 Br
ENDBRANCH   5   6
ENDBRANCH   4   5
TORSDOF 2
ENDMDL
MODEL 7
REMARK VINA RESULT:      -3.2     11.468     11.928
REMARK  2 active torsions:
REMARK  status: ('A' for Active; 'I' for Inactive)
REMARK    1  A    between atoms: C1_1  and  C6_6 
REMARK    2  A    between atoms: C6_6  and  N7_7 
ROOT
HETATM    1  C3  UNL     1     -33.845  18.339   0.770  1.00 20.00     0.060 C 
HETATM    2  C4  UNL     1     -33.524  18.243  -0.733  1.00 20.00     0.274 C 
HETATM    3  C5  UNL     1     -34.982  17.350   0.447  1.00 20.00     0.274 C 
HETATM    4  N7  UNL     1     -34.171  16.904  -0.716  1.00 20.00     0.091 N 
ENDROOT
BRANCH   4   5
HETATM    5  C6  UNL     1     -35.015  16.727  -1.892  1.00 20.00     0.300 C 
BRANCH   5   6
HETATM    6  C1  UNL     1     -34.599  15.528  -2.692  1.00 20.00     0.010 C 
HETATM    7  C2  UNL     1     -35.426  14.864  -3.507  1.00 20.00     0.053 C 
HETATM    8 BR8  UNL     1     -34.937  13.388  -4.515  1.00 20.00    -0.064 Br
ENDBRANCH   5   6
ENDBRANCH   4   5
TORSDOF 2
ENDMDL
MODEL 8
REMARK VINA RESULT:      -3.0     11.777     12.818
REMARK  2 active torsions:
REMARK  status: ('A' for Active; 'I' for Inactive)
REMARK    1  A    between atoms: C1_1  and  C6_6 
REMARK    2  A    between atoms: C6_6  and  N7_7 
ROOT
HETATM    1  C3  UNL     1     -34.450  14.985  -6.722  1.00 20.00     0.060 C 
HETATM    2  C4  UNL     1     -34.794  14.044  -5.553  1.00 20.00     0.274 C 
HETATM    3  C5  UNL     1     -34.766  16.113  -5.720  1.00 20.00     0.274 C 
HETATM    4  N7  UNL     1     -34.425  15.155  -4.637  1.00 20.00     0.091 N 
ENDROOT
BRANCH   4   5
HETATM    5  C6  UNL     1     -35.381  15.258  -3.541  1.00 20.00     0.300 C 
BRANCH   5   6
HETATM    6  C1  UNL     1     -34.735  15.784  -2.294  1.00 20.00     0.010 C 
HETATM    7  C2  UNL     1     -34.524  17.085  -2.067  1.00 20.00     0.053 C 
HETATM    8 BR8  UNL     1     -33.740  17.763  -0.531  1.00 20.00    -0.064 Br
ENDBRANCH   5   6
ENDBRANCH   4   5
TORSDOF 2
ENDMDL
MODEL 9
REMARK VINA RESULT:      -2.9     10.428     10.893
REMARK  2 active torsions:
REMARK  status: ('A' for Active; 'I' for Inactive)
REMARK    1  A    between atoms: C1_1  and  C6_6 
REMARK    2  A    between atoms: C6_6  and  N7_7 
ROOT
HETATM    1  C3  UNL     1     -40.726   4.416  -1.217  1.00 20.00     0.060 C 
HETATM    2  C4  UNL     1     -40.929   5.861  -0.727  1.00 20.00     0.274 C 
HETATM    3  C5  UNL     1     -41.976   4.683  -2.079  1.00 20.00     0.274 C 
HETATM    4  N7  UNL     1     -41.631   6.127  -2.010  1.00 20.00     0.091 N 
ENDROOT
BRANCH   4   5
HETATM    5  C6  UNL     1     -42.827   6.930  -1.785  1.00 20.00     0.300 C 
BRANCH   5   6
HETATM    6  C1  UNL     1     -42.975   8.000  -2.825  1.00 20.00     0.010 C 
HETATM    7  C2  UNL     1     -42.293   8.008  -3.976  1.00 20.00     0.053 C 
HETATM    8 BR8  UNL     1     -42.465   9.311  -5.283  1.00 20.00    -0.064 Br
ENDBRANCH   5   6
ENDBRANCH   4   5
TORSDOF 2
ENDMDL
