MODEL 1
REMARK VINA RESULT:      -3.7      0.000      0.000
REMARK  2 active torsions:
REMARK  status: ('A' for Active; 'I' for Inactive)
REMARK    1  A    between atoms: C2_2  and  C6_6 
REMARK    2  A    between atoms: C6_6  and  N7_7 
ROOT
HETATM    1  C3  UNL     1     -35.187   4.650   6.222  1.00 20.00     0.060 C 
HETATM    2  C4  UNL     1     -34.289   5.902   6.210  1.00 20.00     0.274 C 
HETATM    3  C5  UNL     1     -35.186   4.810   4.690  1.00 20.00     0.274 C 
HETATM    4  N7  UNL     1     -33.889   5.519   4.830  1.00 20.00     0.093 N 
ENDROOT
BRANCH   4   5
HETATM    5  C6  UNL     1     -33.847   6.690   3.963  1.00 20.00     0.317 C 
BRANCH   5   6
HETATM    6  C2  UNL     1     -32.630   6.715   3.082  1.00 20.00     0.007 C 
HETATM    7  C1  UNL     1     -31.843   5.648   2.889  1.00 20.00     0.029 C 
HETATM    8 BR8  UNL     1     -32.308   8.332   2.190  1.00 20.00    -0.055 Br
ENDBRANCH   5   6
ENDBRANCH   4   5
TORSDOF 2
ENDMDL
MODEL 2
REMARK VINA RESULT:      -3.3      1.164      1.723
REMARK  2 active torsions:
REMARK  status: ('A' for Active; 'I' for Inactive)
REMARK    1  A    between atoms: C2_2  and  C6_6 
REMARK    2  A    between atoms: C6_6  and  N7_7 
ROOT
HETATM    1  C3  UNL     1     -35.244   5.043   5.051  1.00 20.00     0.060 C 
HETATM    2  C4  UNL     1     -35.062   5.398   3.563  1.00 20.00     0.274 C 
HETATM    3  C5  UNL     1     -33.773   5.483   5.189  1.00 20.00     0.274 C 
HETATM    4  N7  UNL     1     -33.984   6.330   3.986  1.00 20.00     0.093 N 
ENDROOT
BRANCH   4   5
HETATM    5  C6  UNL     1     -32.841   6.236   3.086  1.00 20.00     0.317 C 
BRANCH   5   6
HETATM    6  C2  UNL     1     -32.000   7.483   3.087  1.00 20.00     0.007 C 
HETATM    7  C1  UNL     1     -31.231   7.848   4.122  1.00 20.00     0.029 C 
HETATM    8 BR8  UNL     1     -32.031   8.481   1.501  1.00 20.00    -0.055 Br
ENDBRANCH   5   6
ENDBRANCH   4   5
TORSDOF 2
ENDMDL
MODEL 3
REMARK VINA RESULT:      -3.3     11.779     12.402
REMARK  2 active torsions:
REMARK  status: ('A' for Active; 'I' for Inactive)
REMARK    1  A    between atoms: C2_2  and  C6_6 
REMARK    2  A    between atoms: C6_6  and  N7_7 
ROOT
HETATM    1  C3  UNL     1     -34.814  13.297  -4.398  1.00 20.00     0.060 C 
HETATM    2  C4  UNL     1     -35.368  14.728  -4.253  1.00 20.00     0.274 C 
HETATM    3  C5  UNL     1     -33.550  13.873  -3.730  1.00 20.00     0.274 C 
HETATM    4  N7  UNL     1     -34.424  14.907  -3.119  1.00 20.00     0.093 N 
ENDROOT
BRANCH   4   5
HETATM    5  C6  UNL     1     -33.789  16.218  -3.180  1.00 20.00     0.317 C 
BRANCH   5   6
HETATM    6  C2  UNL     1     -34.068  17.053  -1.962  1.00 20.00     0.007 C 
HETATM    7  C1  UNL     1     -34.615  16.559  -0.843  1.00 20.00     0.029 C 
HETATM    8 BR8  UNL     1     -33.527  18.844  -2.068  1.00 20.00    -0.055 Br
ENDBRANCH   5   6
ENDBRANCH   4   5
TORSDOF 2
ENDMDL
MODEL 4
REMARK VINA RESULT:      -3.2     11.637     12.720
REMARK  2 active torsions:
REMARK  status: ('A' for Active; 'I' for Inactive)
REMARK    1  A    between atoms: C2_2  and  C6_6 
REMARK    2  A    between atoms: C6_6  and  N7_7 
ROOT
HETATM    1  C3  UNL     1     -34.907  13.277  -4.483  1.00 20.00     0.060 C 
HETATM    2  C4  UNL     1     -35.329  14.751  -4.646  1.00 20.00     0.274 C 
HETATM    3  C5  UNL     1     -33.637  13.862  -3.834  1.00 20.00     0.274 C 
HETATM    4  N7  UNL     1     -34.444  15.061  -3.492  1.00 20.00     0.093 N 
ENDROOT
BRANCH   4   5
HETATM    5  C6  UNL     1     -33.683  16.280  -3.741  1.00 20.00     0.317 C 
BRANCH   5   6
HETATM    6  C2  UNL     1     -33.910  17.329  -2.689  1.00 20.00     0.007 C 
HETATM    7  C1  UNL     1     -33.709  18.637  -2.902  1.00 20.00     0.029 C 
HETATM    8 BR8  UNL     1     -34.576  16.703  -1.053  1.00 20.00    -0.055 Br
ENDBRANCH   5   6
ENDBRANCH   4   5
TORSDOF 2
ENDMDL
MODEL 5
REMARK VINA RESULT:      -3.2     11.988     12.534
REMARK  2 active torsions:
REMARK  status: ('A' for Active; 'I' for Inactive)
REMARK    1  A    between atoms: C2_2  and  C6_6 
REMARK    2  A    between atoms: C6_6  and  N7_7 
ROOT
HETATM    1  C3  UNL     1     -33.493  17.738  -0.752  1.00 20.00     0.060 C 
HETATM    2  C4  UNL     1     -33.827  17.740  -2.257  1.00 20.00     0.274 C 
HETATM    3  C5  UNL     1     -34.670  16.749  -0.638  1.00 20.00     0.274 C 
HETATM    4  N7  UNL     1     -34.419  16.391  -2.058  1.00 20.00     0.093 N 
ENDROOT
BRANCH   4   5
HETATM    5  C6  UNL     1     -35.676  16.269  -2.786  1.00 20.00     0.317 C 
BRANCH   5   6
HETATM    6  C2  UNL     1     -35.802  14.956  -3.508  1.00 20.00     0.007 C 
HETATM    7  C1  UNL     1     -36.948  14.524  -4.049  1.00 20.00     0.029 C 
HETATM    8 BR8  UNL     1     -34.217  13.971  -3.676  1.00 20.00    -0.055 Br
ENDBRANCH   5   6
ENDBRANCH   4   5
TORSDOF 2
ENDMDL
MODEL 6
REMARK VINA RESULT:      -3.2     12.226     12.693
REMARK  2 active torsions:
REMARK  status: ('A' for Active; 'I' for Inactive)
REMARK    1  A    between atoms: C2_2  and  C6_6 
REMARK    2  A    between atoms: C6_6  and  N7_7 
ROOT
HETATM    1  C3  UNL     1     -34.784  16.593  -1.337  1.00 20.00     0.060 C 
HETATM    2  C4  UNL     1     -33.660  16.357  -2.365  1.00 20.00     0.274 C 
HETATM    3  C5  UNL     1     -35.730  16.311  -2.520  1.00 20.00     0.274 C 
HETATM    4  N7  UNL     1     -34.626  15.526  -3.130  1.00 20.00     0.093 N 
ENDROOT
BRANCH   4   5
HETATM    5  C6  UNL     1     -34.527  15.804  -4.558  1.00 20.00     0.317 C 
BRANCH   5   6
HETATM    6  C2  UNL     1     -34.591  14.557  -5.395  1.00 20.00     0.007 C 
HETATM    7  C1  UNL     1     -34.562  13.322  -4.876  1.00 20.00     0.029 C 
HETATM    8 BR8  UNL     1     -34.792  14.830  -7.238  1.00 20.00    -0.055 Br
ENDBRANCH   5   6
ENDBRANCH   4   5
TORSDOF 2
ENDMDL
MODEL 7
REMARK VINA RESULT:      -3.1      2.118      3.966
REMARK  2 active torsions:
REMARK  status: ('A' for Active; 'I' for Inactive)
REMARK    1  A    between atoms: C2_2  and  C6_6 
REMARK    2  A    between atoms: C6_6  and  N7_7 
ROOT
HETATM    1  C3  UNL     1     -31.873   7.578   2.467  1.00 20.00     0.060 C 
HETATM    2  C4  UNL     1     -31.960   6.154   3.050  1.00 20.00     0.274 C 
HETATM    3  C5  UNL     1     -33.354   7.683   2.876  1.00 20.00     0.274 C 
HETATM    4  N7  UNL     1     -33.076   6.644   3.901  1.00 20.00     0.093 N 
ENDROOT
BRANCH   4   5
HETATM    5  C6  UNL     1     -34.155   5.664   3.946  1.00 20.00     0.317 C 
BRANCH   5   6
HETATM    6  C2  UNL     1     -34.511   5.261   5.350  1.00 20.00     0.007 C 
HETATM    7  C1  UNL     1     -35.033   4.066   5.659  1.00 20.00     0.029 C 
HETATM    8 BR8  UNL     1     -34.107   6.517   6.680  1.00 20.00    -0.055 Br
ENDBRANCH   5   6
ENDBRANCH   4   5
TORSDOF 2
ENDMDL
MODEL 8
REMARK VINA RESULT:      -3.1     11.929     12.721
REMARK  2 active torsions:
REMARK  status: ('A' for Active; 'I' for Inactive)
REMARK    1  A    between atoms: C2_2  and  C6_6 
REMARK    2  A    between atoms: C6_6  and  N7_7 
ROOT
HETATM    1  C3  UNL     1     -33.855  17.537  -1.084  1.00 20.00     0.060 C 
HETATM    2  C4  UNL     1     -33.766  17.726  -2.611  1.00 20.00     0.274 C 
HETATM    3  C5  UNL     1     -34.634  16.254  -1.432  1.00 20.00     0.274 C 
HETATM    4  N7  UNL     1     -33.920  16.253  -2.735  1.00 20.00     0.093 N 
ENDROOT
BRANCH   4   5
HETATM    5  C6  UNL     1     -34.834  15.921  -3.821  1.00 20.00     0.317 C 
BRANCH   5   6
HETATM    6  C2  UNL     1     -34.362  14.750  -4.636  1.00 20.00     0.007 C 
HETATM    7  C1  UNL     1     -33.848  13.638  -4.093  1.00 20.00     0.029 C 
HETATM    8 BR8  UNL     1     -34.606  14.902  -6.488  1.00 20.00    -0.055 Br
ENDBRANCH   5   6
ENDBRANCH   4   5
TORSDOF 2
ENDMDL
MODEL 9
REMARK VINA RESULT:      -3.0     12.229     13.575
REMARK  2 active torsions:
REMARK  status: ('A' for Active; 'I' for Inactive)
REMARK    1  A    between atoms: C2_2  and  C6_6 
REMARK    2  A    between atoms: C6_6  and  N7_7 
ROOT
HETATM    1  C3  UNL     1     -35.697  14.743  -7.913  1.00 20.00     0.060 C 
HETATM    2  C4  UNL     1     -36.446  15.068  -6.605  1.00 20.00     0.274 C 
HETATM    3  C5  UNL     1     -34.432  15.101  -7.109  1.00 20.00     0.274 C 
HETATM    4  N7  UNL     1     -35.189  14.740  -5.883  1.00 20.00     0.093 N 
ENDROOT
BRANCH   4   5
HETATM    5  C6  UNL     1     -34.938  15.708  -4.821  1.00 20.00     0.317 C 
BRANCH   5   6
HETATM    6  C2  UNL     1     -34.526  15.057  -3.531  1.00 20.00     0.007 C 
HETATM    7  C1  UNL     1     -34.093  13.791  -3.453  1.00 20.00     0.029 C 
HETATM    8 BR8  UNL     1     -34.583  16.157  -2.015  1.00 20.00    -0.055 Br
ENDBRANCH   5   6
ENDBRANCH   4   5
TORSDOF 2
ENDMDL
