MODEL 1
REMARK VINA RESULT:      -4.8      0.000      0.000
REMARK  0 active torsions:
REMARK  status: ('A' for Active; 'I' for Inactive)
ROOT
HETATM    1  C1  UNL     1     -37.263  14.524  -3.936  1.00 20.00     0.069 C 
HETATM    2  C2  UNL     1     -33.379  16.946  -5.261  1.00 20.00     0.000 C 
HETATM    3  C3  UNL     1     -33.613  17.203  -3.778  1.00 20.00     0.000 C 
HETATM    4  C4  UNL     1     -34.087  15.744  -5.875  1.00 20.00     0.002 C 
HETATM    5  C5  UNL     1     -33.761  15.951  -2.920  1.00 20.00     0.002 C 
HETATM    6  C6  UNL     1     -35.539  15.544  -5.435  1.00 20.00     0.024 C 
HETATM    7  C7  UNL     1     -35.205  15.443  -2.866  1.00 20.00     0.024 C 
HETATM    8  C8  UNL     1     -35.745  14.737  -4.129  1.00 20.00     0.045 C 
HETATM    9  C9  UNL     1     -35.126  13.395  -4.252  1.00 20.00     0.031 C 
HETATM   10  N10 UNL     1     -38.403  14.364  -3.790  1.00 20.00    -0.196 NA
ENDROOT
TORSDOF 0
ENDMDL
MODEL 2
REMARK VINA RESULT:      -4.6     11.273     12.985
REMARK  0 active torsions:
REMARK  status: ('A' for Active; 'I' for Inactive)
ROOT
HETATM    1  C1  UNL     1     -41.746   2.850  -2.926  1.00 20.00     0.069 C 
HETATM    2  C2  UNL     1     -41.088   7.078  -0.828  1.00 20.00     0.000 C 
HETATM    3  C3  UNL     1     -41.819   7.312  -2.144  1.00 20.00     0.000 C 
HETATM    4  C4  UNL     1     -41.098   5.658  -0.274  1.00 20.00     0.002 C 
HETATM    5  C5  UNL     1     -43.084   6.482  -2.337  1.00 20.00     0.002 C 
HETATM    6  C6  UNL     1     -40.880   4.550  -1.308  1.00 20.00     0.024 C 
HETATM    7  C7  UNL     1     -42.798   5.111  -2.958  1.00 20.00     0.024 C 
HETATM    8  C8  UNL     1     -42.149   4.051  -2.041  1.00 20.00     0.045 C 
HETATM    9  C9  UNL     1     -43.148   3.560  -1.063  1.00 20.00     0.031 C 
HETATM   10  N10 UNL     1     -41.444   1.947  -3.590  1.00 20.00    -0.196 NA
ENDROOT
TORSDOF 0
ENDMDL
MODEL 3
REMARK VINA RESULT:      -4.6      1.768      2.236
REMARK  0 active torsions:
REMARK  status: ('A' for Active; 'I' for Inactive)
ROOT
HETATM    1  C1  UNL     1     -34.586  13.681  -4.184  1.00 20.00     0.069 C 
HETATM    2  C2  UNL     1     -34.131  18.423  -4.303  1.00 20.00     0.000 C 
HETATM    3  C3  UNL     1     -34.854  18.050  -3.015  1.00 20.00     0.000 C 
HETATM    4  C4  UNL     1     -33.374  17.311  -5.019  1.00 20.00     0.002 C 
HETATM    5  C5  UNL     1     -34.150  17.004  -2.158  1.00 20.00     0.002 C 
HETATM    6  C6  UNL     1     -34.098  15.964  -5.085  1.00 20.00     0.024 C 
HETATM    7  C7  UNL     1     -34.519  15.572  -2.558  1.00 20.00     0.024 C 
HETATM    8  C8  UNL     1     -33.902  15.030  -3.866  1.00 20.00     0.045 C 
HETATM    9  C9  UNL     1     -32.460  14.753  -3.658  1.00 20.00     0.031 C 
HETATM   10  N10 UNL     1     -35.098  12.668  -4.422  1.00 20.00    -0.196 NA
ENDROOT
TORSDOF 0
ENDMDL
MODEL 4
REMARK VINA RESULT:      -4.5      1.948      3.184
REMARK  0 active torsions:
REMARK  status: ('A' for Active; 'I' for Inactive)
ROOT
HETATM    1  C1  UNL     1     -34.371  15.955  -2.200  1.00 20.00     0.069 C 
HETATM    2  C2  UNL     1     -35.320  14.248  -6.547  1.00 20.00     0.000 C 
HETATM    3  C3  UNL     1     -35.106  15.752  -6.666  1.00 20.00     0.000 C 
HETATM    4  C4  UNL     1     -34.808  13.574  -5.279  1.00 20.00     0.002 C 
HETATM    5  C5  UNL     1     -33.805  16.270  -6.061  1.00 20.00     0.002 C 
HETATM    6  C6  UNL     1     -35.068  14.340  -3.979  1.00 20.00     0.024 C 
HETATM    7  C7  UNL     1     -33.939  16.597  -4.571  1.00 20.00     0.024 C 
HETATM    8  C8  UNL     1     -34.008  15.401  -3.596  1.00 20.00     0.045 C 
HETATM    9  C9  UNL     1     -32.669  14.773  -3.485  1.00 20.00     0.031 C 
HETATM   10  N10 UNL     1     -34.643  16.370  -1.151  1.00 20.00    -0.196 NA
ENDROOT
TORSDOF 0
ENDMDL
MODEL 5
REMARK VINA RESULT:      -4.5      2.467      3.853
REMARK  0 active torsions:
REMARK  status: ('A' for Active; 'I' for Inactive)
ROOT
HETATM    1  C1  UNL     1     -33.714  17.865  -4.065  1.00 20.00     0.069 C 
HETATM    2  C2  UNL     1     -35.715  13.547  -4.310  1.00 20.00     0.000 C 
HETATM    3  C3  UNL     1     -34.248  13.411  -4.700  1.00 20.00     0.000 C 
HETATM    4  C4  UNL     1     -36.118  14.814  -3.565  1.00 20.00     0.002 C 
HETATM    5  C5  UNL     1     -33.256  13.994  -3.699  1.00 20.00     0.002 C 
HETATM    6  C6  UNL     1     -35.497  16.110  -4.092  1.00 20.00     0.024 C 
HETATM    7  C7  UNL     1     -32.986  15.483  -3.938  1.00 20.00     0.024 C 
HETATM    8  C8  UNL     1     -34.101  16.469  -3.526  1.00 20.00     0.045 C 
HETATM    9  C9  UNL     1     -34.156  16.569  -2.048  1.00 20.00     0.031 C 
HETATM   10  N10 UNL     1     -33.423  18.914  -4.468  1.00 20.00    -0.196 NA
ENDROOT
TORSDOF 0
ENDMDL
MODEL 6
REMARK VINA RESULT:      -4.4      1.105      2.171
REMARK  0 active torsions:
REMARK  status: ('A' for Active; 'I' for Inactive)
ROOT
HETATM    1  C1  UNL     1     -37.636  14.832  -3.877  1.00 20.00     0.069 C 
HETATM    2  C2  UNL     1     -32.900  15.356  -3.791  1.00 20.00     0.000 C 
HETATM    3  C3  UNL     1     -33.215  13.873  -3.629  1.00 20.00     0.000 C 
HETATM    4  C4  UNL     1     -34.011  16.243  -4.337  1.00 20.00     0.002 C 
HETATM    5  C5  UNL     1     -34.132  13.287  -4.697  1.00 20.00     0.002 C 
HETATM    6  C6  UNL     1     -35.408  15.966  -3.775  1.00 20.00     0.024 C 
HETATM    7  C7  UNL     1     -35.616  13.447  -4.348  1.00 20.00     0.024 C 
HETATM    8  C8  UNL     1     -36.219  14.861  -4.494  1.00 20.00     0.045 C 
HETATM    9  C9  UNL     1     -36.374  15.190  -5.931  1.00 20.00     0.031 C 
HETATM   10  N10 UNL     1     -38.700  14.811  -3.414  1.00 20.00    -0.196 NA
ENDROOT
TORSDOF 0
ENDMDL
MODEL 7
REMARK VINA RESULT:      -4.4      1.696      2.810
REMARK  0 active torsions:
REMARK  status: ('A' for Active; 'I' for Inactive)
ROOT
HETATM    1  C1  UNL     1     -34.983  13.646  -4.449  1.00 20.00     0.069 C 
HETATM    2  C2  UNL     1     -33.881  17.766  -2.322  1.00 20.00     0.000 C 
HETATM    3  C3  UNL     1     -33.815  17.979  -3.830  1.00 20.00     0.000 C 
HETATM    4  C4  UNL     1     -34.638  16.538  -1.830  1.00 20.00     0.002 C 
HETATM    5  C5  UNL     1     -35.063  17.558  -4.598  1.00 20.00     0.002 C 
HETATM    6  C6  UNL     1     -34.390  15.254  -2.626  1.00 20.00     0.024 C 
HETATM    7  C7  UNL     1     -35.036  16.079  -4.996  1.00 20.00     0.024 C 
HETATM    8  C8  UNL     1     -35.284  15.049  -3.873  1.00 20.00     0.045 C 
HETATM    9  C9  UNL     1     -36.715  15.067  -3.488  1.00 20.00     0.031 C 
HETATM   10  N10 UNL     1     -34.758  12.593  -4.881  1.00 20.00    -0.196 NA
ENDROOT
TORSDOF 0
ENDMDL
MODEL 8
REMARK VINA RESULT:      -4.4      1.922      2.932
REMARK  0 active torsions:
REMARK  status: ('A' for Active; 'I' for Inactive)
ROOT
HETATM    1  C1  UNL     1     -34.831  13.738  -4.360  1.00 20.00     0.069 C 
HETATM    2  C2  UNL     1     -36.021  17.410  -1.566  1.00 20.00     0.000 C 
HETATM    3  C3  UNL     1     -34.681  16.866  -1.086  1.00 20.00     0.000 C 
HETATM    4  C4  UNL     1     -36.467  17.012  -2.967  1.00 20.00     0.002 C 
HETATM    5  C5  UNL     1     -33.610  16.742  -2.165  1.00 20.00     0.002 C 
HETATM    6  C6  UNL     1     -36.226  15.547  -3.340  1.00 20.00     0.024 C 
HETATM    7  C7  UNL     1     -33.675  15.403  -2.905  1.00 20.00     0.024 C 
HETATM    8  C8  UNL     1     -34.827  15.219  -3.917  1.00 20.00     0.045 C 
HETATM    9  C9  UNL     1     -34.564  16.037  -5.125  1.00 20.00     0.031 C 
HETATM   10  N10 UNL     1     -34.833  12.626  -4.693  1.00 20.00    -0.196 NA
ENDROOT
TORSDOF 0
ENDMDL
MODEL 9
REMARK VINA RESULT:      -4.2      2.100      2.949
REMARK  0 active torsions:
REMARK  status: ('A' for Active; 'I' for Inactive)
ROOT
HETATM    1  C1  UNL     1     -34.780  14.749  -6.761  1.00 20.00     0.069 C 
HETATM    2  C2  UNL     1     -34.191  16.359  -2.314  1.00 20.00     0.000 C 
HETATM    3  C3  UNL     1     -35.662  16.512  -2.682  1.00 20.00     0.000 C 
HETATM    4  C4  UNL     1     -33.359  15.414  -3.172  1.00 20.00     0.002 C 
HETATM    5  C5  UNL     1     -36.334  15.245  -3.201  1.00 20.00     0.002 C 
HETATM    6  C6  UNL     1     -33.613  15.502  -4.679  1.00 20.00     0.024 C 
HETATM    7  C7  UNL     1     -36.169  15.071  -4.714  1.00 20.00     0.024 C 
HETATM    8  C8  UNL     1     -34.776  14.634  -5.219  1.00 20.00     0.045 C 
HETATM    9  C9  UNL     1     -34.551  13.207  -4.886  1.00 20.00     0.031 C 
HETATM   10  N10 UNL     1     -34.782  14.834  -7.918  1.00 20.00    -0.196 NA
ENDROOT
TORSDOF 0
ENDMDL
