MODEL 1
REMARK VINA RESULT:      -4.9      0.000      0.000
REMARK  2 active torsions:
REMARK  status: ('A' for Active; 'I' for Inactive)
REMARK    1  A    between atoms: C3_3  and  C5_5 
REMARK    2  A    between atoms: C4_4  and  C5_5 
ROOT
HETATM    1  C1  UNL     1     -32.058   7.047   3.359  1.00 20.00     0.012 C 
HETATM    2  C2  UNL     1     -32.954   6.281   3.137  1.00 20.00    -0.117 C 
HETATM    3  C4  UNL     1     -34.051   5.338   2.865  1.00 20.00     0.101 C 
ENDROOT
BRANCH   3   4
HETATM    4  C5  UNL     1     -35.186   5.476   3.879  1.00 20.00     0.108 C 
BRANCH   4   5
HETATM    5  C3  UNL     1     -34.911   4.768   5.197  1.00 20.00     0.219 C 
HETATM    6  O6  UNL     1     -35.046   3.558   5.348  1.00 20.00    -0.280 OA
HETATM    7 CL7  UNL     1     -34.424   5.891   6.437  1.00 20.00    -0.044 Cl
ENDBRANCH   4   5
ENDBRANCH   3   4
TORSDOF 2
ENDMDL
MODEL 2
REMARK VINA RESULT:      -4.6      2.471      3.075
REMARK  2 active torsions:
REMARK  status: ('A' for Active; 'I' for Inactive)
REMARK    1  A    between atoms: C3_3  and  C5_5 
REMARK    2  A    between atoms: C4_4  and  C5_5 
ROOT
HETATM    1  C1  UNL     1     -33.688   7.004   6.622  1.00 20.00     0.012 C 
HETATM    2  C2  UNL     1     -34.289   5.981   6.439  1.00 20.00    -0.117 C 
HETATM    3  C4  UNL     1     -35.029   4.729   6.216  1.00 20.00     0.101 C 
ENDROOT
BRANCH   3   4
HETATM    4  C5  UNL     1     -34.872   4.223   4.782  1.00 20.00     0.108 C 
BRANCH   4   5
HETATM    5  C3  UNL     1     -35.053   5.309   3.733  1.00 20.00     0.219 C 
HETATM    6  O6  UNL     1     -36.143   5.799   3.456  1.00 20.00    -0.280 OA
HETATM    7 CL7  UNL     1     -33.540   5.724   2.975  1.00 20.00    -0.044 Cl
ENDBRANCH   4   5
ENDBRANCH   3   4
TORSDOF 2
ENDMDL
MODEL 3
REMARK VINA RESULT:      -4.6      1.755      1.892
REMARK  2 active torsions:
REMARK  status: ('A' for Active; 'I' for Inactive)
REMARK    1  A    between atoms: C3_3  and  C5_5 
REMARK    2  A    between atoms: C4_4  and  C5_5 
ROOT
HETATM    1  C1  UNL     1     -32.101   8.277   2.100  1.00 20.00     0.012 C 
HETATM    2  C2  UNL     1     -32.354   7.275   2.709  1.00 20.00    -0.117 C 
HETATM    3  C4  UNL     1     -32.662   6.047   3.459  1.00 20.00     0.101 C 
ENDROOT
BRANCH   3   4
HETATM    4  C5  UNL     1     -34.120   6.009   3.916  1.00 20.00     0.108 C 
BRANCH   4   5
HETATM    5  C3  UNL     1     -34.282   5.746   5.406  1.00 20.00     0.219 C 
HETATM    6  O6  UNL     1     -33.983   6.567   6.267  1.00 20.00    -0.280 OA
HETATM    7 CL7  UNL     1     -34.901   4.146   5.710  1.00 20.00    -0.044 Cl
ENDBRANCH   4   5
ENDBRANCH   3   4
TORSDOF 2
ENDMDL
MODEL 4
REMARK VINA RESULT:      -4.5      2.664      3.743
REMARK  2 active torsions:
REMARK  status: ('A' for Active; 'I' for Inactive)
REMARK    1  A    between atoms: C3_3  and  C5_5 
REMARK    2  A    between atoms: C4_4  and  C5_5 
ROOT
HETATM    1  C1  UNL     1     -35.104   4.235   6.014  1.00 20.00     0.012 C 
HETATM    2  C2  UNL     1     -34.958   4.786   4.958  1.00 20.00    -0.117 C 
HETATM    3  C4  UNL     1     -34.783   5.461   3.662  1.00 20.00     0.101 C 
ENDROOT
BRANCH   3   4
HETATM    4  C5  UNL     1     -33.936   6.727   3.789  1.00 20.00     0.108 C 
BRANCH   4   5
HETATM    5  C3  UNL     1     -32.598   6.636   3.070  1.00 20.00     0.219 C 
HETATM    6  O6  UNL     1     -31.902   5.626   3.075  1.00 20.00    -0.280 OA
HETATM    7 CL7  UNL     1     -32.189   8.138   2.287  1.00 20.00    -0.044 Cl
ENDBRANCH   4   5
ENDBRANCH   3   4
TORSDOF 2
ENDMDL
MODEL 5
REMARK VINA RESULT:      -4.4      2.014      2.461
REMARK  2 active torsions:
REMARK  status: ('A' for Active; 'I' for Inactive)
REMARK    1  A    between atoms: C3_3  and  C5_5 
REMARK    2  A    between atoms: C4_4  and  C5_5 
ROOT
HETATM    1  C1  UNL     1     -32.150   8.869   1.418  1.00 20.00     0.012 C 
HETATM    2  C2  UNL     1     -32.108   8.021   2.267  1.00 20.00    -0.117 C 
HETATM    3  C4  UNL     1     -32.055   6.984   3.309  1.00 20.00     0.101 C 
ENDROOT
BRANCH   3   4
HETATM    4  C5  UNL     1     -33.275   6.064   3.260  1.00 20.00     0.108 C 
BRANCH   4   5
HETATM    5  C3  UNL     1     -34.028   5.986   4.580  1.00 20.00     0.219 C 
HETATM    6  O6  UNL     1     -33.677   6.589   5.589  1.00 20.00    -0.280 OA
HETATM    7 CL7  UNL     1     -35.402   4.920   4.470  1.00 20.00    -0.044 Cl
ENDBRANCH   4   5
ENDBRANCH   3   4
TORSDOF 2
ENDMDL
MODEL 6
REMARK VINA RESULT:      -4.3      3.172      4.143
REMARK  2 active torsions:
REMARK  status: ('A' for Active; 'I' for Inactive)
REMARK    1  A    between atoms: C3_3  and  C5_5 
REMARK    2  A    between atoms: C4_4  and  C5_5 
ROOT
HETATM    1  C1  UNL     1     -34.777   4.541   5.802  1.00 20.00     0.012 C 
HETATM    2  C2  UNL     1     -34.498   5.360   4.970  1.00 20.00    -0.117 C 
HETATM    3  C4  UNL     1     -34.158   6.367   3.953  1.00 20.00     0.101 C 
ENDROOT
BRANCH   3   4
HETATM    4  C5  UNL     1     -32.787   6.107   3.330  1.00 20.00     0.108 C 
BRANCH   4   5
HETATM    5  C3  UNL     1     -31.901   7.342   3.275  1.00 20.00     0.219 C 
HETATM    6  O6  UNL     1     -31.161   7.677   4.195  1.00 20.00    -0.280 OA
HETATM    7 CL7  UNL     1     -32.104   8.210   1.778  1.00 20.00    -0.044 Cl
ENDBRANCH   4   5
ENDBRANCH   3   4
TORSDOF 2
ENDMDL
MODEL 7
REMARK VINA RESULT:      -4.1      2.558      3.703
REMARK  2 active torsions:
REMARK  status: ('A' for Active; 'I' for Inactive)
REMARK    1  A    between atoms: C3_3  and  C5_5 
REMARK    2  A    between atoms: C4_4  and  C5_5 
ROOT
HETATM    1  C1  UNL     1     -35.118   4.010   5.935  1.00 20.00     0.012 C 
HETATM    2  C2  UNL     1     -34.569   5.077   5.908  1.00 20.00    -0.117 C 
HETATM    3  C4  UNL     1     -33.894   6.383   5.876  1.00 20.00     0.101 C 
ENDROOT
BRANCH   3   4
HETATM    4  C5  UNL     1     -33.883   6.985   4.472  1.00 20.00     0.108 C 
BRANCH   4   5
HETATM    5  C3  UNL     1     -33.152   6.127   3.450  1.00 20.00     0.219 C 
HETATM    6  O6  UNL     1     -31.931   6.128   3.325  1.00 20.00    -0.280 OA
HETATM    7 CL7  UNL     1     -34.263   5.193   2.486  1.00 20.00    -0.044 Cl
ENDBRANCH   4   5
ENDBRANCH   3   4
TORSDOF 2
ENDMDL
MODEL 8
REMARK VINA RESULT:      -4.0     11.617     12.127
REMARK  2 active torsions:
REMARK  status: ('A' for Active; 'I' for Inactive)
REMARK    1  A    between atoms: C3_3  and  C5_5 
REMARK    2  A    between atoms: C4_4  and  C5_5 
ROOT
HETATM    1  C1  UNL     1     -34.749  16.906  -0.321  1.00 20.00     0.012 C 
HETATM    2  C2  UNL     1     -34.459  16.484  -1.406  1.00 20.00    -0.117 C 
HETATM    3  C4  UNL     1     -34.101  15.967  -2.736  1.00 20.00     0.101 C 
ENDROOT
BRANCH   3   4
HETATM    4  C5  UNL     1     -35.110  14.933  -3.236  1.00 20.00     0.108 C 
BRANCH   4   5
HETATM    5  C3  UNL     1     -34.463  13.665  -3.772  1.00 20.00     0.219 C 
HETATM    6  O6  UNL     1     -35.103  12.746  -4.274  1.00 20.00    -0.280 OA
HETATM    7 CL7  UNL     1     -32.735  13.683  -3.547  1.00 20.00    -0.044 Cl
ENDBRANCH   4   5
ENDBRANCH   3   4
TORSDOF 2
ENDMDL
MODEL 9
REMARK VINA RESULT:      -4.0     12.137     12.544
REMARK  2 active torsions:
REMARK  status: ('A' for Active; 'I' for Inactive)
REMARK    1  A    between atoms: C3_3  and  C5_5 
REMARK    2  A    between atoms: C4_4  and  C5_5 
ROOT
HETATM    1  C1  UNL     1     -34.741  16.319  -1.500  1.00 20.00     0.012 C 
HETATM    2  C2  UNL     1     -34.064  15.940  -2.415  1.00 20.00    -0.117 C 
HETATM    3  C4  UNL     1     -33.231  15.477  -3.536  1.00 20.00     0.101 C 
ENDROOT
BRANCH   3   4
HETATM    4  C5  UNL     1     -33.307  13.961  -3.715  1.00 20.00     0.108 C 
BRANCH   4   5
HETATM    5  C3  UNL     1     -34.414  13.517  -4.659  1.00 20.00     0.219 C 
HETATM    6  O6  UNL     1     -35.140  12.553  -4.435  1.00 20.00    -0.280 OA
HETATM    7 CL7  UNL     1     -34.485  14.522  -6.081  1.00 20.00    -0.044 Cl
ENDBRANCH   4   5
ENDBRANCH   3   4
TORSDOF 2
ENDMDL
