MODEL 1
REMARK VINA RESULT:      -5.4      0.000      0.000
REMARK  0 active torsions:
REMARK  status: ('A' for Active; 'I' for Inactive)
ROOT
HETATM    1  C1  UNL     1     -33.376  16.227  -4.200  1.00 20.00    -0.023 C 
HETATM    2  C2  UNL     1     -34.037  15.669  -5.226  1.00 20.00    -0.014 C 
HETATM    3  C3  UNL     1     -35.846  14.846  -3.651  1.00 20.00     0.144 C 
HETATM    4  C4  UNL     1     -33.673  15.967  -2.793  1.00 20.00     0.028 A 
HETATM    5  C5  UNL     1     -34.946  15.203  -2.520  1.00 20.00     0.073 A 
HETATM    6  C6  UNL     1     -35.222  14.740  -5.055  1.00 20.00     0.031 C 
HETATM    7  C7  UNL     1     -34.812  16.643  -2.054  1.00 20.00    -0.029 A 
HETATM    8  C8  UNL     1     -36.291  15.117  -6.093  1.00 20.00     0.027 C 
HETATM    9  C9  UNL     1     -34.776  13.290  -5.272  1.00 20.00     0.027 C 
HETATM   10  C10 UNL     1     -34.627  16.871  -0.573  1.00 20.00     0.016 C 
HETATM   11  C11 UNL     1     -35.614  17.736  -2.721  1.00 20.00     0.016 C 
HETATM   12  O12 UNL     1     -37.023  14.590  -3.415  1.00 20.00    -0.296 OA
ENDROOT
TORSDOF 0
ENDMDL
MODEL 2
REMARK VINA RESULT:      -5.2      1.807      4.172
REMARK  0 active torsions:
REMARK  status: ('A' for Active; 'I' for Inactive)
ROOT
HETATM    1  C1  UNL     1     -35.160  13.343  -4.441  1.00 20.00    -0.023 C 
HETATM    2  C2  UNL     1     -34.541  13.962  -3.424  1.00 20.00    -0.014 C 
HETATM    3  C3  UNL     1     -33.908  15.892  -4.941  1.00 20.00     0.144 C 
HETATM    4  C4  UNL     1     -35.026  13.735  -5.843  1.00 20.00     0.028 A 
HETATM    5  C5  UNL     1     -34.328  15.049  -6.095  1.00 20.00     0.073 A 
HETATM    6  C6  UNL     1     -33.667  15.188  -3.593  1.00 20.00     0.031 C 
HETATM    7  C7  UNL     1     -35.797  14.891  -6.451  1.00 20.00    -0.029 A 
HETATM    8  C8  UNL     1     -33.991  16.178  -2.463  1.00 20.00     0.027 C 
HETATM    9  C9  UNL     1     -32.190  14.783  -3.522  1.00 20.00     0.027 C 
HETATM   10  C10 UNL     1     -36.139  14.788  -7.918  1.00 20.00     0.016 C 
HETATM   11  C11 UNL     1     -36.855  15.610  -5.649  1.00 20.00     0.016 C 
HETATM   12  O12 UNL     1     -33.710  17.090  -5.122  1.00 20.00    -0.296 OA
ENDROOT
TORSDOF 0
ENDMDL
MODEL 3
REMARK VINA RESULT:      -5.0      1.647      2.577
REMARK  0 active torsions:
REMARK  status: ('A' for Active; 'I' for Inactive)
ROOT
HETATM    1  C1  UNL     1     -35.177  13.580  -4.262  1.00 20.00    -0.023 C 
HETATM    2  C2  UNL     1     -35.156  13.711  -5.597  1.00 20.00    -0.014 C 
HETATM    3  C3  UNL     1     -35.162  16.237  -5.381  1.00 20.00     0.144 C 
HETATM    4  C4  UNL     1     -35.457  14.674  -3.335  1.00 20.00     0.028 A 
HETATM    5  C5  UNL     1     -35.492  16.056  -3.940  1.00 20.00     0.073 A 
HETATM    6  C6  UNL     1     -35.361  15.029  -6.316  1.00 20.00     0.031 C 
HETATM    7  C7  UNL     1     -34.413  15.698  -2.932  1.00 20.00    -0.029 A 
HETATM    8  C8  UNL     1     -34.338  15.126  -7.459  1.00 20.00     0.027 C 
HETATM    9  C9  UNL     1     -36.783  15.092  -6.884  1.00 20.00     0.027 C 
HETATM   10  C10 UNL     1     -34.538  16.295  -1.551  1.00 20.00     0.016 C 
HETATM   11  C11 UNL     1     -32.978  15.543  -3.377  1.00 20.00     0.016 C 
HETATM   12  O12 UNL     1     -34.812  17.345  -5.775  1.00 20.00    -0.296 OA
ENDROOT
TORSDOF 0
ENDMDL
MODEL 4
REMARK VINA RESULT:      -5.0      1.766      2.465
REMARK  0 active torsions:
REMARK  status: ('A' for Active; 'I' for Inactive)
ROOT
HETATM    1  C1  UNL     1     -36.138  16.694  -3.955  1.00 20.00    -0.023 C 
HETATM    2  C2  UNL     1     -36.051  15.456  -4.464  1.00 20.00    -0.014 C 
HETATM    3  C3  UNL     1     -33.566  15.391  -3.965  1.00 20.00     0.144 C 
HETATM    4  C4  UNL     1     -34.984  17.536  -3.643  1.00 20.00     0.028 A 
HETATM    5  C5  UNL     1     -33.639  16.854  -3.697  1.00 20.00     0.073 A 
HETATM    6  C6  UNL     1     -34.739  14.745  -4.726  1.00 20.00     0.031 C 
HETATM    7  C7  UNL     1     -34.170  17.378  -2.373  1.00 20.00    -0.029 A 
HETATM    8  C8  UNL     1     -34.874  13.285  -4.264  1.00 20.00     0.027 C 
HETATM    9  C9  UNL     1     -34.419  14.789  -6.224  1.00 20.00     0.027 C 
HETATM   10  C10 UNL     1     -33.521  18.623  -1.818  1.00 20.00     0.016 C 
HETATM   11  C11 UNL     1     -34.612  16.417  -1.296  1.00 20.00     0.016 C 
HETATM   12  O12 UNL     1     -32.558  14.775  -3.631  1.00 20.00    -0.296 OA
ENDROOT
TORSDOF 0
ENDMDL
MODEL 5
REMARK VINA RESULT:      -4.9      1.449      3.971
REMARK  0 active torsions:
REMARK  status: ('A' for Active; 'I' for Inactive)
ROOT
HETATM    1  C1  UNL     1     -34.577  16.715  -5.645  1.00 20.00    -0.023 C 
HETATM    2  C2  UNL     1     -33.822  16.142  -4.696  1.00 20.00    -0.014 C 
HETATM    3  C3  UNL     1     -35.502  14.258  -4.455  1.00 20.00     0.144 C 
HETATM    4  C4  UNL     1     -35.957  16.332  -5.939  1.00 20.00     0.028 A 
HETATM    5  C5  UNL     1     -36.445  15.069  -5.274  1.00 20.00     0.073 A 
HETATM    6  C6  UNL     1     -34.286  14.978  -3.843  1.00 20.00     0.031 C 
HETATM    7  C7  UNL     1     -36.313  15.126  -6.787  1.00 20.00    -0.029 A 
HETATM    8  C8  UNL     1     -33.132  13.968  -3.726  1.00 20.00     0.027 C 
HETATM    9  C9  UNL     1     -34.679  15.482  -2.451  1.00 20.00     0.027 C 
HETATM   10  C10 UNL     1     -37.593  15.205  -7.584  1.00 20.00     0.016 C 
HETATM   11  C11 UNL     1     -35.232  14.338  -7.486  1.00 20.00     0.016 C 
HETATM   12  O12 UNL     1     -35.762  13.076  -4.247  1.00 20.00    -0.296 OA
ENDROOT
TORSDOF 0
ENDMDL
MODEL 6
REMARK VINA RESULT:      -4.7      1.462      1.682
REMARK  0 active torsions:
REMARK  status: ('A' for Active; 'I' for Inactive)
ROOT
HETATM    1  C1  UNL     1     -33.060  15.533  -3.816  1.00 20.00    -0.023 C 
HETATM    2  C2  UNL     1     -33.436  15.791  -5.078  1.00 20.00    -0.014 C 
HETATM    3  C3  UNL     1     -35.659  16.699  -4.262  1.00 20.00     0.144 C 
HETATM    4  C4  UNL     1     -33.965  15.555  -2.669  1.00 20.00     0.028 A 
HETATM    5  C5  UNL     1     -35.339  16.124  -2.926  1.00 20.00     0.073 A 
HETATM    6  C6  UNL     1     -34.843  16.198  -5.469  1.00 20.00     0.031 C 
HETATM    7  C7  UNL     1     -34.388  16.837  -1.979  1.00 20.00    -0.029 A 
HETATM    8  C8  UNL     1     -34.754  17.333  -6.501  1.00 20.00     0.027 C 
HETATM    9  C9  UNL     1     -35.577  14.998  -6.078  1.00 20.00     0.027 C 
HETATM   10  C10 UNL     1     -34.696  16.750  -0.503  1.00 20.00     0.016 C 
HETATM   11  C11 UNL     1     -33.769  18.157  -2.373  1.00 20.00     0.016 C 
HETATM   12  O12 UNL     1     -36.592  17.490  -4.361  1.00 20.00    -0.296 OA
ENDROOT
TORSDOF 0
ENDMDL
MODEL 7
REMARK VINA RESULT:      -4.7      1.007      3.915
REMARK  0 active torsions:
REMARK  status: ('A' for Active; 'I' for Inactive)
ROOT
HETATM    1  C1  UNL     1     -33.266  16.485  -4.952  1.00 20.00    -0.023 C 
HETATM    2  C2  UNL     1     -33.488  16.814  -3.671  1.00 20.00    -0.014 C 
HETATM    3  C3  UNL     1     -35.890  16.022  -3.850  1.00 20.00     0.144 C 
HETATM    4  C4  UNL     1     -34.320  16.151  -5.908  1.00 20.00     0.028 A 
HETATM    5  C5  UNL     1     -35.699  15.957  -5.326  1.00 20.00     0.073 A 
HETATM    6  C6  UNL     1     -34.862  16.826  -3.032  1.00 20.00     0.031 C 
HETATM    7  C7  UNL     1     -34.975  14.784  -5.967  1.00 20.00    -0.029 A 
HETATM    8  C8  UNL     1     -34.756  16.197  -1.633  1.00 20.00     0.027 C 
HETATM    9  C9  UNL     1     -35.366  18.269  -2.916  1.00 20.00     0.027 C 
HETATM   10  C10 UNL     1     -35.475  14.324  -7.315  1.00 20.00     0.016 C 
HETATM   11  C11 UNL     1     -34.457  13.651  -5.114  1.00 20.00     0.016 C 
HETATM   12  O12 UNL     1     -36.881  15.494  -3.356  1.00 20.00    -0.296 OA
ENDROOT
TORSDOF 0
ENDMDL
MODEL 8
REMARK VINA RESULT:      -4.6      1.754      2.431
REMARK  0 active torsions:
REMARK  status: ('A' for Active; 'I' for Inactive)
ROOT
HETATM    1  C1  UNL     1     -33.536  18.669  -2.208  1.00 20.00    -0.023 C 
HETATM    2  C2  UNL     1     -33.740  18.259  -3.468  1.00 20.00    -0.014 C 
HETATM    3  C3  UNL     1     -34.983  16.212  -2.634  1.00 20.00     0.144 C 
HETATM    4  C4  UNL     1     -33.763  17.838  -1.027  1.00 20.00     0.028 A 
HETATM    5  C5  UNL     1     -34.480  16.532  -1.270  1.00 20.00     0.073 A 
HETATM    6  C6  UNL     1     -34.290  16.893  -3.829  1.00 20.00     0.031 C 
HETATM    7  C7  UNL     1     -35.139  17.614  -0.429  1.00 20.00    -0.029 A 
HETATM    8  C8  UNL     1     -35.321  17.064  -4.956  1.00 20.00     0.027 C 
HETATM    9  C9  UNL     1     -33.149  15.985  -4.301  1.00 20.00     0.027 C 
HETATM   10  C10 UNL     1     -35.207  17.379   1.060  1.00 20.00     0.016 C 
HETATM   11  C11 UNL     1     -36.334  18.368  -0.962  1.00 20.00     0.016 C 
HETATM   12  O12 UNL     1     -35.876  15.380  -2.758  1.00 20.00    -0.296 OA
ENDROOT
TORSDOF 0
ENDMDL
MODEL 9
REMARK VINA RESULT:      -4.6      1.575      2.831
REMARK  0 active torsions:
REMARK  status: ('A' for Active; 'I' for Inactive)
ROOT
HETATM    1  C1  UNL     1     -34.850  16.383  -5.755  1.00 20.00    -0.023 C 
HETATM    2  C2  UNL     1     -36.129  16.786  -5.783  1.00 20.00    -0.014 C 
HETATM    3  C3  UNL     1     -36.849  14.693  -4.547  1.00 20.00     0.144 C 
HETATM    4  C4  UNL     1     -34.424  15.033  -5.392  1.00 20.00     0.028 A 
HETATM    5  C5  UNL     1     -35.490  14.142  -4.803  1.00 20.00     0.073 A 
HETATM    6  C6  UNL     1     -37.297  15.907  -5.382  1.00 20.00     0.031 C 
HETATM    7  C7  UNL     1     -34.303  14.567  -3.953  1.00 20.00    -0.029 A 
HETATM    8  C8  UNL     1     -38.271  16.744  -4.538  1.00 20.00     0.027 C 
HETATM    9  C9  UNL     1     -38.008  15.389  -6.636  1.00 20.00     0.027 C 
HETATM   10  C10 UNL     1     -33.259  13.517  -3.659  1.00 20.00     0.016 C 
HETATM   11  C11 UNL     1     -34.493  15.542  -2.816  1.00 20.00     0.016 C 
HETATM   12  O12 UNL     1     -37.577  14.126  -3.737  1.00 20.00    -0.296 OA
ENDROOT
TORSDOF 0
ENDMDL
