MODEL 1
REMARK VINA RESULT:      -4.4      0.000      0.000
REMARK  2 active torsions:
REMARK  status: ('A' for Active; 'I' for Inactive)
REMARK    1  A    between atoms: C5_5  and  C6_6 
REMARK    2  A    between atoms: C6_6  and  N7_7 
ROOT
HETATM    1  C1  UNL     1     -35.167   4.255   6.270  1.00 20.00     0.012 C 
HETATM    2  C2  UNL     1     -34.568   5.226   5.894  1.00 20.00    -0.115 C 
HETATM    3  C5  UNL     1     -33.833   6.417   5.441  1.00 20.00     0.128 C 
ENDROOT
BRANCH   3   4
HETATM    4  C6  UNL     1     -33.786   6.520   3.910  1.00 20.00     0.227 C 
HETATM    5  C3  UNL     1     -34.534   5.375   3.226  1.00 20.00     0.043 C 
BRANCH   4   6
HETATM    6  N7  UNL     1     -32.387   6.490   3.473  1.00 20.00     0.084 N 
HETATM    7  C4  UNL     1     -32.098   7.617   2.603  1.00 20.00     0.307 C 
HETATM    8  H18 UNL     1     -31.787   6.528   4.293  1.00 20.00     0.315 HD
ENDBRANCH   4   6
ENDBRANCH   3   4
TORSDOF 2
ENDMDL
MODEL 2
REMARK VINA RESULT:      -4.4      1.674      3.837
REMARK  2 active torsions:
REMARK  status: ('A' for Active; 'I' for Inactive)
REMARK    1  A    between atoms: C5_5  and  C6_6 
REMARK    2  A    between atoms: C6_6  and  N7_7 
ROOT
HETATM    1  C1  UNL     1     -31.751   7.317   3.278  1.00 20.00     0.012 C 
HETATM    2  C2  UNL     1     -32.687   6.565   3.255  1.00 20.00    -0.115 C 
HETATM    3  C5  UNL     1     -33.832   5.641   3.220  1.00 20.00     0.128 C 
ENDROOT
BRANCH   3   4
HETATM    4  C6  UNL     1     -34.778   5.847   4.411  1.00 20.00     0.227 C 
HETATM    5  C3  UNL     1     -34.038   6.297   5.672  1.00 20.00     0.043 C 
BRANCH   4   6
HETATM    6  N7  UNL     1     -35.463   4.584   4.700  1.00 20.00     0.084 N 
HETATM    7  C4  UNL     1     -34.873   3.932   5.857  1.00 20.00     0.307 C 
HETATM    8  H18 UNL     1     -36.445   4.778   4.881  1.00 20.00     0.315 HD
ENDBRANCH   4   6
ENDBRANCH   3   4
TORSDOF 2
ENDMDL
MODEL 3
REMARK VINA RESULT:      -4.2      1.707      3.445
REMARK  2 active torsions:
REMARK  status: ('A' for Active; 'I' for Inactive)
REMARK    1  A    between atoms: C5_5  and  C6_6 
REMARK    2  A    between atoms: C6_6  and  N7_7 
ROOT
HETATM    1  C1  UNL     1     -32.145   6.779   2.899  1.00 20.00     0.012 C 
HETATM    2  C2  UNL     1     -33.171   6.453   3.430  1.00 20.00    -0.115 C 
HETATM    3  C5  UNL     1     -34.432   6.058   4.077  1.00 20.00     0.128 C 
ENDROOT
BRANCH   3   4
HETATM    4  C6  UNL     1     -34.198   5.156   5.297  1.00 20.00     0.227 C 
HETATM    5  C3  UNL     1     -35.027   3.872   5.239  1.00 20.00     0.043 C 
BRANCH   4   6
HETATM    6  N7  UNL     1     -34.562   5.891   6.511  1.00 20.00     0.084 N 
HETATM    7  C4  UNL     1     -33.721   7.065   6.671  1.00 20.00     0.307 C 
HETATM    8  H18 UNL     1     -35.536   6.176   6.442  1.00 20.00     0.315 HD
ENDBRANCH   4   6
ENDBRANCH   3   4
TORSDOF 2
ENDMDL
MODEL 4
REMARK VINA RESULT:      -4.0     11.753     12.282
REMARK  2 active torsions:
REMARK  status: ('A' for Active; 'I' for Inactive)
REMARK    1  A    between atoms: C5_5  and  C6_6 
REMARK    2  A    between atoms: C6_6  and  N7_7 
ROOT
HETATM    1  C1  UNL     1     -34.640  16.932  -0.493  1.00 20.00     0.012 C 
HETATM    2  C2  UNL     1     -34.641  16.276  -1.498  1.00 20.00    -0.115 C 
HETATM    3  C5  UNL     1     -34.649  15.470  -2.729  1.00 20.00     0.128 C 
ENDROOT
BRANCH   3   4
HETATM    4  C6  UNL     1     -33.292  15.497  -3.448  1.00 20.00     0.227 C 
HETATM    5  C3  UNL     1     -33.286  16.449  -4.644  1.00 20.00     0.043 C 
BRANCH   4   6
HETATM    6  N7  UNL     1     -32.977  14.147  -3.924  1.00 20.00     0.084 N 
HETATM    7  C4  UNL     1     -34.170  13.491  -4.432  1.00 20.00     0.307 C 
HETATM    8  H18 UNL     1     -32.283  14.215  -4.663  1.00 20.00     0.315 HD
ENDBRANCH   4   6
ENDBRANCH   3   4
TORSDOF 2
ENDMDL
MODEL 5
REMARK VINA RESULT:      -3.9      1.465      3.584
REMARK  2 active torsions:
REMARK  status: ('A' for Active; 'I' for Inactive)
REMARK    1  A    between atoms: C5_5  and  C6_6 
REMARK    2  A    between atoms: C6_6  and  N7_7 
ROOT
HETATM    1  C1  UNL     1     -31.723   7.641   2.951  1.00 20.00     0.012 C 
HETATM    2  C2  UNL     1     -32.597   6.819   2.967  1.00 20.00    -0.115 C 
HETATM    3  C5  UNL     1     -33.669   5.812   2.978  1.00 20.00     0.128 C 
ENDROOT
BRANCH   3   4
HETATM    4  C6  UNL     1     -33.993   5.327   4.399  1.00 20.00     0.227 C 
HETATM    5  C3  UNL     1     -35.380   4.692   4.495  1.00 20.00     0.043 C 
BRANCH   4   6
HETATM    6  N7  UNL     1     -33.938   6.469   5.316  1.00 20.00     0.084 N 
HETATM    7  C4  UNL     1     -34.320   6.066   6.659  1.00 20.00     0.307 C 
HETATM    8  H18 UNL     1     -32.990   6.835   5.327  1.00 20.00     0.315 HD
ENDBRANCH   4   6
ENDBRANCH   3   4
TORSDOF 2
ENDMDL
MODEL 6
REMARK VINA RESULT:      -3.7      0.806      1.494
REMARK  2 active torsions:
REMARK  status: ('A' for Active; 'I' for Inactive)
REMARK    1  A    between atoms: C5_5  and  C6_6 
REMARK    2  A    between atoms: C6_6  and  N7_7 
ROOT
HETATM    1  C1  UNL     1     -35.243   4.216   6.061  1.00 20.00     0.012 C 
HETATM    2  C2  UNL     1     -34.967   4.755   5.024  1.00 20.00    -0.115 C 
HETATM    3  C5  UNL     1     -34.635   5.413   3.751  1.00 20.00     0.128 C 
ENDROOT
BRANCH   3   4
HETATM    4  C6  UNL     1     -33.252   6.078   3.786  1.00 20.00     0.227 C 
HETATM    5  C3  UNL     1     -33.055   6.946   5.029  1.00 20.00     0.043 C 
BRANCH   4   6
HETATM    6  N7  UNL     1     -33.098   6.922   2.599  1.00 20.00     0.084 N 
HETATM    7  C4  UNL     1     -31.923   7.770   2.721  1.00 20.00     0.307 C 
HETATM    8  H18 UNL     1     -33.004   6.324   1.782  1.00 20.00     0.315 HD
ENDBRANCH   4   6
ENDBRANCH   3   4
TORSDOF 2
ENDMDL
MODEL 7
REMARK VINA RESULT:      -3.7     11.821     12.637
REMARK  2 active torsions:
REMARK  status: ('A' for Active; 'I' for Inactive)
REMARK    1  A    between atoms: C5_5  and  C6_6 
REMARK    2  A    between atoms: C6_6  and  N7_7 
ROOT
HETATM    1  C1  UNL     1     -36.423  14.257  -4.123  1.00 20.00     0.012 C 
HETATM    2  C2  UNL     1     -35.247  14.075  -3.967  1.00 20.00    -0.115 C 
HETATM    3  C5  UNL     1     -33.806  13.846  -3.776  1.00 20.00     0.128 C 
ENDROOT
BRANCH   3   4
HETATM    4  C6  UNL     1     -33.021  15.160  -3.661  1.00 20.00     0.227 C 
HETATM    5  C3  UNL     1     -33.670  16.143  -2.687  1.00 20.00     0.043 C 
BRANCH   4   6
HETATM    6  N7  UNL     1     -32.951  15.791  -4.982  1.00 20.00     0.084 N 
HETATM    7  C4  UNL     1     -33.437  17.160  -4.924  1.00 20.00     0.307 C 
HETATM    8  H18 UNL     1     -31.984  15.785  -5.297  1.00 20.00     0.315 HD
ENDBRANCH   4   6
ENDBRANCH   3   4
TORSDOF 2
ENDMDL
MODEL 8
REMARK VINA RESULT:      -3.7     11.788     12.649
REMARK  2 active torsions:
REMARK  status: ('A' for Active; 'I' for Inactive)
REMARK    1  A    between atoms: C5_5  and  C6_6 
REMARK    2  A    between atoms: C6_6  and  N7_7 
ROOT
HETATM    1  C1  UNL     1     -34.616  16.544  -1.182  1.00 20.00     0.012 C 
HETATM    2  C2  UNL     1     -34.109  16.174  -2.205  1.00 20.00    -0.115 C 
HETATM    3  C5  UNL     1     -33.481  15.723  -3.457  1.00 20.00     0.128 C 
ENDROOT
BRANCH   3   4
HETATM    4  C6  UNL     1     -34.478  15.007  -4.379  1.00 20.00     0.227 C 
HETATM    5  C3  UNL     1     -34.752  13.569  -3.937  1.00 20.00     0.043 C 
BRANCH   4   6
HETATM    6  N7  UNL     1     -33.935  14.981  -5.740  1.00 20.00     0.084 N 
HETATM    7  C4  UNL     1     -34.948  14.550  -6.689  1.00 20.00     0.307 C 
HETATM    8  H18 UNL     1     -33.615  15.915  -5.983  1.00 20.00     0.315 HD
ENDBRANCH   4   6
ENDBRANCH   3   4
TORSDOF 2
ENDMDL
MODEL 9
REMARK VINA RESULT:      -3.5      8.809     10.101
REMARK  2 active torsions:
REMARK  status: ('A' for Active; 'I' for Inactive)
REMARK    1  A    between atoms: C5_5  and  C6_6 
REMARK    2  A    between atoms: C6_6  and  N7_7 
ROOT
HETATM    1  C1  UNL     1     -42.517   7.079  -2.954  1.00 20.00     0.012 C 
HETATM    2  C2  UNL     1     -41.815   7.076  -1.980  1.00 20.00    -0.115 C 
HETATM    3  C5  UNL     1     -40.954   7.080  -0.787  1.00 20.00     0.128 C 
ENDROOT
BRANCH   3   4
HETATM    4  C6  UNL     1     -40.883   5.699  -0.120  1.00 20.00     0.227 C 
HETATM    5  C3  UNL     1     -40.777   4.565  -1.140  1.00 20.00     0.043 C 
BRANCH   4   6
HETATM    6  N7  UNL     1     -42.092   5.493   0.682  1.00 20.00     0.084 N 
HETATM    7  C4  UNL     1     -42.759   4.260   0.298  1.00 20.00     0.307 C 
HETATM    8  H18 UNL     1     -41.830   5.448   1.664  1.00 20.00     0.315 HD
ENDBRANCH   4   6
ENDBRANCH   3   4
TORSDOF 2
ENDMDL
