MODEL 1
REMARK VINA RESULT:      -5.6      0.000      0.000
REMARK  3 active torsions:
REMARK  status: ('A' for Active; 'I' for Inactive)
REMARK    1  A    between atoms: C2_2  and  C3_3 
REMARK    2  A    between atoms: C3_3  and  C4_4 
REMARK    3  A    between atoms: C3_3  and  O5_5 
ROOT
HETATM    1  C3  UNL     1     -33.974   6.109   4.429  1.00 20.00     0.362 C 
HETATM    2  F8  UNL     1     -34.422   7.372   4.192  1.00 20.00    -0.195 F 
ENDROOT
BRANCH   1   3
HETATM    3  C2  UNL     1     -33.948   5.861   5.930  1.00 20.00     0.429 C 
HETATM    4  F6  UNL     1     -35.204   5.628   6.388  1.00 20.00    -0.208 F 
HETATM    5  F7  UNL     1     -33.511   6.968   6.580  1.00 20.00    -0.208 F 
ENDBRANCH   1   3
BRANCH   1   6
HETATM    6  C4  UNL     1     -34.913   5.149   3.724  1.00 20.00     0.455 C 
HETATM    7  F9  UNL     1     -34.998   3.972   4.380  1.00 20.00    -0.165 F 
HETATM    8  F10 UNL     1     -34.482   4.885   2.471  1.00 20.00    -0.165 F 
HETATM    9  F11 UNL     1     -36.160   5.658   3.630  1.00 20.00    -0.165 F 
ENDBRANCH   1   6
BRANCH   1  10
HETATM   10  O5  UNL     1     -32.693   5.960   3.815  1.00 20.00    -0.345 OA
HETATM   11  C1  UNL     1     -32.185   7.129   3.193  1.00 20.00     0.206 C 
ENDBRANCH   1  10
TORSDOF 3
ENDMDL
MODEL 2
REMARK VINA RESULT:      -5.1      1.612      3.317
REMARK  3 active torsions:
REMARK  status: ('A' for Active; 'I' for Inactive)
REMARK    1  A    between atoms: C2_2  and  C3_3 
REMARK    2  A    between atoms: C3_3  and  C4_4 
REMARK    3  A    between atoms: C3_3  and  O5_5 
ROOT
HETATM    1  C3  UNL     1     -33.834   6.524   4.066  1.00 20.00     0.362 C 
HETATM    2  F8  UNL     1     -34.555   7.649   3.804  1.00 20.00    -0.195 F 
ENDROOT
BRANCH   1   3
HETATM    3  C2  UNL     1     -34.566   5.317   3.498  1.00 20.00     0.429 C 
HETATM    4  F6  UNL     1     -34.167   5.086   2.222  1.00 20.00    -0.208 F 
HETATM    5  F7  UNL     1     -35.898   5.563   3.436  1.00 20.00    -0.208 F 
ENDBRANCH   1   3
BRANCH   1   6
HETATM    6  C4  UNL     1     -32.468   6.696   3.429  1.00 20.00     0.455 C 
HETATM    7  F9  UNL     1     -31.853   5.507   3.252  1.00 20.00    -0.165 F 
HETATM    8  F10 UNL     1     -31.665   7.456   4.206  1.00 20.00    -0.165 F 
HETATM    9  F11 UNL     1     -32.558   7.295   2.222  1.00 20.00    -0.165 F 
ENDBRANCH   1   6
BRANCH   1  10
HETATM   10  O5  UNL     1     -33.624   6.438   5.476  1.00 20.00    -0.345 OA
HETATM   11  C1  UNL     1     -34.466   5.519   6.155  1.00 20.00     0.206 C 
ENDBRANCH   1  10
TORSDOF 3
ENDMDL
MODEL 3
REMARK VINA RESULT:      -5.1      1.612      3.356
REMARK  3 active torsions:
REMARK  status: ('A' for Active; 'I' for Inactive)
REMARK    1  A    between atoms: C2_2  and  C3_3 
REMARK    2  A    between atoms: C3_3  and  C4_4 
REMARK    3  A    between atoms: C3_3  and  O5_5 
ROOT
HETATM    1  C3  UNL     1     -33.833   6.524   4.068  1.00 20.00     0.362 C 
HETATM    2  F8  UNL     1     -34.553   7.649   3.805  1.00 20.00    -0.195 F 
ENDROOT
BRANCH   1   3
HETATM    3  C2  UNL     1     -34.564   5.317   3.500  1.00 20.00     0.429 C 
HETATM    4  F6  UNL     1     -34.166   5.087   2.223  1.00 20.00    -0.208 F 
HETATM    5  F7  UNL     1     -35.896   5.562   3.439  1.00 20.00    -0.208 F 
ENDBRANCH   1   3
BRANCH   1   6
HETATM    6  C4  UNL     1     -32.466   6.695   3.433  1.00 20.00     0.455 C 
HETATM    7  F9  UNL     1     -31.658   7.458   4.199  1.00 20.00    -0.165 F 
HETATM    8  F10 UNL     1     -32.565   7.295   2.226  1.00 20.00    -0.165 F 
HETATM    9  F11 UNL     1     -31.855   5.505   3.251  1.00 20.00    -0.165 F 
ENDBRANCH   1   6
BRANCH   1  10
HETATM   10  O5  UNL     1     -33.626   6.439   5.479  1.00 20.00    -0.345 OA
HETATM   11  C1  UNL     1     -34.467   5.519   6.156  1.00 20.00     0.206 C 
ENDBRANCH   1  10
TORSDOF 3
ENDMDL
MODEL 4
REMARK VINA RESULT:      -4.8      1.745      2.938
REMARK  3 active torsions:
REMARK  status: ('A' for Active; 'I' for Inactive)
REMARK    1  A    between atoms: C2_2  and  C3_3 
REMARK    2  A    between atoms: C3_3  and  C4_4 
REMARK    3  A    between atoms: C3_3  and  O5_5 
ROOT
HETATM    1  C3  UNL     1     -34.246   5.619   4.927  1.00 20.00     0.362 C 
HETATM    2  F8  UNL     1     -32.908   5.533   4.694  1.00 20.00    -0.195 F 
ENDROOT
BRANCH   1   3
HETATM    3  C2  UNL     1     -34.971   5.836   3.608  1.00 20.00     0.429 C 
HETATM    4  F6  UNL     1     -36.273   5.473   3.724  1.00 20.00    -0.208 F 
HETATM    5  F7  UNL     1     -34.443   5.040   2.646  1.00 20.00    -0.208 F 
ENDBRANCH   1   3
BRANCH   1   6
HETATM    6  C4  UNL     1     -34.681   4.327   5.594  1.00 20.00     0.455 C 
HETATM    7  F9  UNL     1     -35.670   4.542   6.487  1.00 20.00    -0.165 F 
HETATM    8  F10 UNL     1     -33.652   3.757   6.258  1.00 20.00    -0.165 F 
HETATM    9  F11 UNL     1     -35.132   3.433   4.688  1.00 20.00    -0.165 F 
ENDBRANCH   1   6
BRANCH   1  10
HETATM   10  O5  UNL     1     -34.475   6.668   5.871  1.00 20.00    -0.345 OA
HETATM   11  C1  UNL     1     -33.330   7.081   6.599  1.00 20.00     0.206 C 
ENDBRANCH   1  10
TORSDOF 3
ENDMDL
MODEL 5
REMARK VINA RESULT:      -4.8      1.199      1.895
REMARK  3 active torsions:
REMARK  status: ('A' for Active; 'I' for Inactive)
REMARK    1  A    between atoms: C2_2  and  C3_3 
REMARK    2  A    between atoms: C3_3  and  C4_4 
REMARK    3  A    between atoms: C3_3  and  O5_5 
ROOT
HETATM    1  C3  UNL     1     -34.313   5.683   4.941  1.00 20.00     0.362 C 
HETATM    2  F8  UNL     1     -35.295   6.054   4.075  1.00 20.00    -0.195 F 
ENDROOT
BRANCH   1   3
HETATM    3  C2  UNL     1     -34.204   6.721   6.048  1.00 20.00     0.429 C 
HETATM    4  F6  UNL     1     -32.901   6.944   6.354  1.00 20.00    -0.208 F 
HETATM    5  F7  UNL     1     -34.781   6.257   7.184  1.00 20.00    -0.208 F 
ENDBRANCH   1   3
BRANCH   1   6
HETATM    6  C4  UNL     1     -34.678   4.318   5.493  1.00 20.00     0.455 C 
HETATM    7  F9  UNL     1     -33.638   3.755   6.144  1.00 20.00    -0.165 F 
HETATM    8  F10 UNL     1     -35.038   3.476   4.499  1.00 20.00    -0.165 F 
HETATM    9  F11 UNL     1     -35.711   4.397   6.359  1.00 20.00    -0.165 F 
ENDBRANCH   1   6
BRANCH   1  10
HETATM   10  O5  UNL     1     -33.099   5.520   4.205  1.00 20.00    -0.345 OA
HETATM   11  C1  UNL     1     -32.921   6.429   3.130  1.00 20.00     0.206 C 
ENDBRANCH   1  10
TORSDOF 3
ENDMDL
MODEL 6
REMARK VINA RESULT:      -4.6      1.108      3.032
REMARK  3 active torsions:
REMARK  status: ('A' for Active; 'I' for Inactive)
REMARK    1  A    between atoms: C2_2  and  C3_3 
REMARK    2  A    between atoms: C3_3  and  C4_4 
REMARK    3  A    between atoms: C3_3  and  O5_5 
ROOT
HETATM    1  C3  UNL     1     -34.101   5.586   4.855  1.00 20.00     0.362 C 
HETATM    2  F8  UNL     1     -33.129   4.693   4.523  1.00 20.00    -0.195 F 
ENDROOT
BRANCH   1   3
HETATM    3  C2  UNL     1     -35.444   5.069   4.363  1.00 20.00     0.429 C 
HETATM    4  F6  UNL     1     -35.434   3.713   4.311  1.00 20.00    -0.208 F 
HETATM    5  F7  UNL     1     -35.673   5.491   3.095  1.00 20.00    -0.208 F 
ENDBRANCH   1   3
BRANCH   1   6
HETATM    6  C4  UNL     1     -34.085   5.744   6.364  1.00 20.00     0.455 C 
HETATM    7  F9  UNL     1     -33.432   4.723   6.959  1.00 20.00    -0.165 F 
HETATM    8  F10 UNL     1     -35.342   5.766   6.860  1.00 20.00    -0.165 F 
HETATM    9  F11 UNL     1     -33.477   6.891   6.733  1.00 20.00    -0.165 F 
ENDBRANCH   1   6
BRANCH   1  10
HETATM   10  O5  UNL     1     -33.754   6.858   4.303  1.00 20.00    -0.345 OA
HETATM   11  C1  UNL     1     -32.652   6.845   3.410  1.00 20.00     0.206 C 
ENDBRANCH   1  10
TORSDOF 3
ENDMDL
MODEL 7
REMARK VINA RESULT:      -4.6      1.535      2.802
REMARK  3 active torsions:
REMARK  status: ('A' for Active; 'I' for Inactive)
REMARK    1  A    between atoms: C2_2  and  C3_3 
REMARK    2  A    between atoms: C3_3  and  C4_4 
REMARK    3  A    between atoms: C3_3  and  O5_5 
ROOT
HETATM    1  C3  UNL     1     -33.686   5.902   4.269  1.00 20.00     0.362 C 
HETATM    2  F8  UNL     1     -33.050   4.933   4.982  1.00 20.00    -0.195 F 
ENDROOT
BRANCH   1   3
HETATM    3  C2  UNL     1     -32.706   6.529   3.290  1.00 20.00     0.429 C 
HETATM    4  F6  UNL     1     -31.904   5.574   2.754  1.00 20.00    -0.208 F 
HETATM    5  F7  UNL     1     -31.882   7.390   3.937  1.00 20.00    -0.208 F 
ENDBRANCH   1   3
BRANCH   1   6
HETATM    6  C4  UNL     1     -34.852   5.252   3.548  1.00 20.00     0.455 C 
HETATM    7  F9  UNL     1     -35.951   6.035   3.581  1.00 20.00    -0.165 F 
HETATM    8  F10 UNL     1     -35.178   4.073   4.123  1.00 20.00    -0.165 F 
HETATM    9  F11 UNL     1     -34.558   5.010   2.253  1.00 20.00    -0.165 F 
ENDBRANCH   1   6
BRANCH   1  10
HETATM   10  O5  UNL     1     -34.243   6.847   5.185  1.00 20.00    -0.345 OA
HETATM   11  C1  UNL     1     -34.065   6.531   6.557  1.00 20.00     0.206 C 
ENDBRANCH   1  10
TORSDOF 3
ENDMDL
MODEL 8
REMARK VINA RESULT:      -4.5      1.661      2.579
REMARK  3 active torsions:
REMARK  status: ('A' for Active; 'I' for Inactive)
REMARK    1  A    between atoms: C2_2  and  C3_3 
REMARK    2  A    between atoms: C3_3  and  C4_4 
REMARK    3  A    between atoms: C3_3  and  O5_5 
ROOT
HETATM    1  C3  UNL     1     -34.777   5.606   4.565  1.00 20.00     0.362 C 
HETATM    2  F8  UNL     1     -36.000   5.604   3.970  1.00 20.00    -0.195 F 
ENDROOT
BRANCH   1   3
HETATM    3  C2  UNL     1     -34.583   4.298   5.317  1.00 20.00     0.429 C 
HETATM    4  F6  UNL     1     -34.879   3.247   4.511  1.00 20.00    -0.208 F 
HETATM    5  F7  UNL     1     -35.444   4.225   6.361  1.00 20.00    -0.208 F 
ENDBRANCH   1   3
BRANCH   1   6
HETATM    6  C4  UNL     1     -33.735   5.780   3.475  1.00 20.00     0.455 C 
HETATM    7  F9  UNL     1     -32.542   5.271   3.847  1.00 20.00    -0.165 F 
HETATM    8  F10 UNL     1     -33.547   7.088   3.192  1.00 20.00    -0.165 F 
HETATM    9  F11 UNL     1     -34.108   5.162   2.334  1.00 20.00    -0.165 F 
ENDBRANCH   1   6
BRANCH   1  10
HETATM   10  O5  UNL     1     -34.686   6.755   5.409  1.00 20.00    -0.345 OA
HETATM   11  C1  UNL     1     -33.741   6.654   6.463  1.00 20.00     0.206 C 
ENDBRANCH   1  10
TORSDOF 3
ENDMDL
MODEL 9
REMARK VINA RESULT:      -4.2      8.010      9.391
REMARK  3 active torsions:
REMARK  status: ('A' for Active; 'I' for Inactive)
REMARK    1  A    between atoms: C2_2  and  C3_3 
REMARK    2  A    between atoms: C3_3  and  C4_4 
REMARK    3  A    between atoms: C3_3  and  O5_5 
ROOT
HETATM    1  C3  UNL     1     -41.680   5.138  -0.388  1.00 20.00     0.362 C 
HETATM    2  F8  UNL     1     -41.303   4.283   0.602  1.00 20.00    -0.195 F 
ENDROOT
BRANCH   1   3
HETATM    3  C2  UNL     1     -40.693   6.293  -0.454  1.00 20.00     0.429 C 
HETATM    4  F6  UNL     1     -40.063   6.440   0.739  1.00 20.00    -0.208 F 
HETATM    5  F7  UNL     1     -41.350   7.458  -0.677  1.00 20.00    -0.208 F 
ENDBRANCH   1   3
BRANCH   1   6
HETATM    6  C4  UNL     1     -41.704   4.354  -1.687  1.00 20.00     0.455 C 
HETATM    7  F9  UNL     1     -40.526   3.734  -1.912  1.00 20.00    -0.165 F 
HETATM    8  F10 UNL     1     -41.941   5.170  -2.739  1.00 20.00    -0.165 F 
HETATM    9  F11 UNL     1     -42.670   3.410  -1.675  1.00 20.00    -0.165 F 
ENDBRANCH   1   6
BRANCH   1  10
HETATM   10  O5  UNL     1     -43.021   5.560  -0.136  1.00 20.00    -0.345 OA
HETATM   11  C1  UNL     1     -43.417   5.520   1.226  1.00 20.00     0.206 C 
ENDBRANCH   1  10
TORSDOF 3
ENDMDL
