MODEL 1
REMARK VINA RESULT:      -4.3      0.000      0.000
REMARK  1 active torsions:
REMARK  status: ('A' for Active; 'I' for Inactive)
REMARK    1  A    between atoms: C3_3  and  C7_7 
ROOT
HETATM    1  C1  UNL     1     -32.596   7.044   2.937  1.00 20.00     0.220 A 
HETATM    2  C2  UNL     1     -33.317   5.722   2.620  1.00 20.00     0.128 A 
HETATM    3  C3  UNL     1     -33.180   5.422   4.133  1.00 20.00     0.100 A 
HETATM    4  N8  UNL     1     -32.530   6.722   4.257  1.00 20.00    -0.355 N 
HETATM    5  O9  UNL     1     -32.222   8.008   2.312  1.00 20.00    -0.274 OA
HETATM    6  H22 UNL     1     -32.132   7.232   5.034  1.00 20.00     0.162 HD
ENDROOT
BRANCH   3   7
HETATM    7  C7  UNL     1     -34.474   5.360   4.956  1.00 20.00    -0.030 C 
HETATM    8  C4  UNL     1     -35.668   5.726   4.062  1.00 20.00     0.016 C 
HETATM    9  C5  UNL     1     -34.386   6.352   6.124  1.00 20.00     0.016 C 
HETATM   10  C6  UNL     1     -34.664   3.938   5.505  1.00 20.00     0.016 C 
ENDBRANCH   3   7
TORSDOF 1
ENDMDL
MODEL 2
REMARK VINA RESULT:      -4.2      0.002      1.448
REMARK  1 active torsions:
REMARK  status: ('A' for Active; 'I' for Inactive)
REMARK    1  A    between atoms: C3_3  and  C7_7 
ROOT
HETATM    1  C1  UNL     1     -32.597   7.044   2.937  1.00 20.00     0.220 A 
HETATM    2  C2  UNL     1     -33.319   5.723   2.619  1.00 20.00     0.128 A 
HETATM    3  C3  UNL     1     -33.182   5.421   4.131  1.00 20.00     0.100 A 
HETATM    4  N8  UNL     1     -32.530   6.720   4.256  1.00 20.00    -0.355 N 
HETATM    5  O9  UNL     1     -32.222   8.009   2.313  1.00 20.00    -0.274 OA
HETATM    6  H22 UNL     1     -32.130   7.229   5.033  1.00 20.00     0.162 HD
ENDROOT
BRANCH   3   7
HETATM    7  C7  UNL     1     -34.475   5.360   4.955  1.00 20.00    -0.030 C 
HETATM    8  C4  UNL     1     -34.663   3.939   5.508  1.00 20.00     0.016 C 
HETATM    9  C5  UNL     1     -35.669   5.725   4.063  1.00 20.00     0.016 C 
HETATM   10  C6  UNL     1     -34.386   6.354   6.123  1.00 20.00     0.016 C 
ENDBRANCH   3   7
TORSDOF 1
ENDMDL
MODEL 3
REMARK VINA RESULT:      -4.1     11.628     12.744
REMARK  1 active torsions:
REMARK  status: ('A' for Active; 'I' for Inactive)
REMARK    1  A    between atoms: C3_3  and  C7_7 
ROOT
HETATM    1  C1  UNL     1     -37.394  14.839  -3.886  1.00 20.00     0.220 A 
HETATM    2  C2  UNL     1     -36.395  15.163  -5.011  1.00 20.00     0.128 A 
HETATM    3  C3  UNL     1     -35.702  16.076  -3.970  1.00 20.00     0.100 A 
HETATM    4  N8  UNL     1     -36.722  15.644  -3.021  1.00 20.00    -0.355 N 
HETATM    5  O9  UNL     1     -38.384  14.156  -3.764  1.00 20.00    -0.274 OA
HETATM    6  H22 UNL     1     -36.911  15.864  -2.052  1.00 20.00     0.162 HD
ENDROOT
BRANCH   3   7
HETATM    7  C7  UNL     1     -34.296  15.671  -3.508  1.00 20.00    -0.030 C 
HETATM    8  C4  UNL     1     -34.186  14.139  -3.481  1.00 20.00     0.016 C 
HETATM    9  C5  UNL     1     -34.039  16.227  -2.100  1.00 20.00     0.016 C 
HETATM   10  C6  UNL     1     -33.253  16.240  -4.481  1.00 20.00     0.016 C 
ENDBRANCH   3   7
TORSDOF 1
ENDMDL
MODEL 4
REMARK VINA RESULT:      -4.1     11.630     12.762
REMARK  1 active torsions:
REMARK  status: ('A' for Active; 'I' for Inactive)
REMARK    1  A    between atoms: C3_3  and  C7_7 
ROOT
HETATM    1  C1  UNL     1     -37.392  14.840  -3.889  1.00 20.00     0.220 A 
HETATM    2  C2  UNL     1     -36.395  15.163  -5.016  1.00 20.00     0.128 A 
HETATM    3  C3  UNL     1     -35.699  16.075  -3.977  1.00 20.00     0.100 A 
HETATM    4  N8  UNL     1     -36.717  15.644  -3.025  1.00 20.00    -0.355 N 
HETATM    5  O9  UNL     1     -38.382  14.158  -3.765  1.00 20.00    -0.274 OA
HETATM    6  H22 UNL     1     -36.904  15.864  -2.056  1.00 20.00     0.162 HD
ENDROOT
BRANCH   3   7
HETATM    7  C7  UNL     1     -34.292  15.669  -3.517  1.00 20.00    -0.030 C 
HETATM    8  C4  UNL     1     -33.251  16.234  -4.494  1.00 20.00     0.016 C 
HETATM    9  C5  UNL     1     -34.186  14.137  -3.485  1.00 20.00     0.016 C 
HETATM   10  C6  UNL     1     -34.031  16.229  -2.111  1.00 20.00     0.016 C 
ENDBRANCH   3   7
TORSDOF 1
ENDMDL
MODEL 5
REMARK VINA RESULT:      -4.0     11.366     12.675
REMARK  1 active torsions:
REMARK  status: ('A' for Active; 'I' for Inactive)
REMARK    1  A    between atoms: C3_3  and  C7_7 
ROOT
HETATM    1  C1  UNL     1     -34.253  13.484  -4.663  1.00 20.00     0.220 A 
HETATM    2  C2  UNL     1     -33.546  13.973  -3.387  1.00 20.00     0.128 A 
HETATM    3  C3  UNL     1     -33.351  15.307  -4.149  1.00 20.00     0.100 A 
HETATM    4  N8  UNL     1     -34.063  14.690  -5.263  1.00 20.00    -0.355 N 
HETATM    5  O9  UNL     1     -34.781  12.462  -5.034  1.00 20.00    -0.274 OA
HETATM    6  H22 UNL     1     -34.323  15.007  -6.186  1.00 20.00     0.162 HD
ENDROOT
BRANCH   3   7
HETATM    7  C7  UNL     1     -34.100  16.536  -3.615  1.00 20.00    -0.030 C 
HETATM    8  C4  UNL     1     -35.608  16.357  -3.846  1.00 20.00     0.016 C 
HETATM    9  C5  UNL     1     -33.614  17.791  -4.353  1.00 20.00     0.016 C 
HETATM   10  C6  UNL     1     -33.828  16.688  -2.111  1.00 20.00     0.016 C 
ENDBRANCH   3   7
TORSDOF 1
ENDMDL
MODEL 6
REMARK VINA RESULT:      -4.0     11.357     12.732
REMARK  1 active torsions:
REMARK  status: ('A' for Active; 'I' for Inactive)
REMARK    1  A    between atoms: C3_3  and  C7_7 
ROOT
HETATM    1  C1  UNL     1     -34.250  13.479  -4.662  1.00 20.00     0.220 A 
HETATM    2  C2  UNL     1     -33.549  13.965  -3.381  1.00 20.00     0.128 A 
HETATM    3  C3  UNL     1     -33.348  15.299  -4.139  1.00 20.00     0.100 A 
HETATM    4  N8  UNL     1     -34.055  14.686  -5.258  1.00 20.00    -0.355 N 
HETATM    5  O9  UNL     1     -34.779  12.459  -5.037  1.00 20.00    -0.274 OA
HETATM    6  H22 UNL     1     -34.310  15.006  -6.182  1.00 20.00     0.162 HD
ENDROOT
BRANCH   3   7
HETATM    7  C7  UNL     1     -34.096  16.529  -3.607  1.00 20.00    -0.030 C 
HETATM    8  C4  UNL     1     -33.822  16.684  -2.104  1.00 20.00     0.016 C 
HETATM    9  C5  UNL     1     -35.603  16.350  -3.837  1.00 20.00     0.016 C 
HETATM   10  C6  UNL     1     -33.610  17.784  -4.347  1.00 20.00     0.016 C 
ENDBRANCH   3   7
TORSDOF 1
ENDMDL
MODEL 7
REMARK VINA RESULT:      -4.0     11.379     12.688
REMARK  1 active torsions:
REMARK  status: ('A' for Active; 'I' for Inactive)
REMARK    1  A    between atoms: C3_3  and  C7_7 
ROOT
HETATM    1  C1  UNL     1     -34.251  13.488  -4.665  1.00 20.00     0.220 A 
HETATM    2  C2  UNL     1     -33.535  13.984  -3.397  1.00 20.00     0.128 A 
HETATM    3  C3  UNL     1     -33.351  15.316  -4.165  1.00 20.00     0.100 A 
HETATM    4  N8  UNL     1     -34.070  14.693  -5.270  1.00 20.00    -0.355 N 
HETATM    5  O9  UNL     1     -34.779  12.464  -5.028  1.00 20.00    -0.274 OA
HETATM    6  H22 UNL     1     -34.339  15.006  -6.193  1.00 20.00     0.162 HD
ENDROOT
BRANCH   3   7
HETATM    7  C7  UNL     1     -34.098  16.545  -3.629  1.00 20.00    -0.030 C 
HETATM    8  C4  UNL     1     -33.611  17.802  -4.365  1.00 20.00     0.016 C 
HETATM    9  C5  UNL     1     -33.827  16.694  -2.126  1.00 20.00     0.016 C 
HETATM   10  C6  UNL     1     -35.606  16.368  -3.862  1.00 20.00     0.016 C 
ENDBRANCH   3   7
TORSDOF 1
ENDMDL
MODEL 8
REMARK VINA RESULT:      -3.9     11.951     13.038
REMARK  1 active torsions:
REMARK  status: ('A' for Active; 'I' for Inactive)
REMARK    1  A    between atoms: C3_3  and  C7_7 
ROOT
HETATM    1  C1  UNL     1     -33.645  17.358  -5.259  1.00 20.00     0.220 A 
HETATM    2  C2  UNL     1     -34.991  16.619  -5.342  1.00 20.00     0.128 A 
HETATM    3  C3  UNL     1     -34.150  15.322  -5.251  1.00 20.00     0.100 A 
HETATM    4  N8  UNL     1     -32.973  16.180  -5.163  1.00 20.00    -0.355 N 
HETATM    5  O9  UNL     1     -33.276  18.510  -5.266  1.00 20.00    -0.274 OA
HETATM    6  H22 UNL     1     -31.982  15.998  -5.083  1.00 20.00     0.162 HD
ENDROOT
BRANCH   3   7
HETATM    7  C7  UNL     1     -34.316  14.464  -3.990  1.00 20.00    -0.030 C 
HETATM    8  C4  UNL     1     -35.287  13.310  -4.279  1.00 20.00     0.016 C 
HETATM    9  C5  UNL     1     -34.874  15.330  -2.851  1.00 20.00     0.016 C 
HETATM   10  C6  UNL     1     -32.952  13.892  -3.577  1.00 20.00     0.016 C 
ENDBRANCH   3   7
TORSDOF 1
ENDMDL
MODEL 9
REMARK VINA RESULT:      -3.9     11.845     13.485
REMARK  1 active torsions:
REMARK  status: ('A' for Active; 'I' for Inactive)
REMARK    1  A    between atoms: C3_3  and  C7_7 
ROOT
HETATM    1  C1  UNL     1     -34.592  13.707  -4.350  1.00 20.00     0.220 A 
HETATM    2  C2  UNL     1     -34.464  14.888  -3.373  1.00 20.00     0.128 A 
HETATM    3  C3  UNL     1     -33.700  15.599  -4.516  1.00 20.00     0.100 A 
HETATM    4  N8  UNL     1     -33.930  14.400  -5.315  1.00 20.00    -0.355 N 
HETATM    5  O9  UNL     1     -35.074  12.599  -4.326  1.00 20.00    -0.274 OA
HETATM    6  H22 UNL     1     -33.678  14.129  -6.257  1.00 20.00     0.162 HD
ENDROOT
BRANCH   3   7
HETATM    7  C7  UNL     1     -34.365  16.830  -5.146  1.00 20.00    -0.030 C 
HETATM    8  C4  UNL     1     -33.561  18.087  -4.786  1.00 20.00     0.016 C 
HETATM    9  C5  UNL     1     -35.798  16.968  -4.611  1.00 20.00     0.016 C 
HETATM   10  C6  UNL     1     -34.403  16.666  -6.673  1.00 20.00     0.016 C 
ENDBRANCH   3   7
TORSDOF 1
ENDMDL
