MODEL 1
REMARK VINA RESULT:      -4.9      0.000      0.000
REMARK  0 active torsions:
REMARK  status: ('A' for Active; 'I' for Inactive)
ROOT
HETATM    1  C1  UNL     1     -34.004   6.220   5.323  1.00 20.00    -0.032 A 
HETATM    2  C2  UNL     1     -34.714   5.089   5.284  1.00 20.00     0.056 A 
HETATM    3  C3  UNL     1     -33.786   6.592   3.896  1.00 20.00     0.157 A 
HETATM    4  C4  UNL     1     -33.513   7.034   6.459  1.00 20.00     0.048 C 
HETATM    5  C5  UNL     1     -35.226   4.269   6.414  1.00 20.00     0.072 C 
HETATM    6  C6  UNL     1     -32.325   6.621   3.474  1.00 20.00     0.041 C 
HETATM    7  N7  UNL     1     -34.977   4.681   3.998  1.00 20.00    -0.160 NA
HETATM    8  N8  UNL     1     -34.477   5.492   3.169  1.00 20.00    -0.183 NA
ENDROOT
TORSDOF 0
ENDMDL
MODEL 2
REMARK VINA RESULT:      -4.4      1.798      3.469
REMARK  0 active torsions:
REMARK  status: ('A' for Active; 'I' for Inactive)
ROOT
HETATM    1  C1  UNL     1     -34.154   5.703   3.975  1.00 20.00    -0.032 A 
HETATM    2  C2  UNL     1     -33.176   6.528   4.358  1.00 20.00     0.056 A 
HETATM    3  C3  UNL     1     -34.935   5.421   5.213  1.00 20.00     0.157 A 
HETATM    4  C4  UNL     1     -34.509   5.148   2.647  1.00 20.00     0.048 C 
HETATM    5  C5  UNL     1     -32.099   7.143   3.538  1.00 20.00     0.072 C 
HETATM    6  C6  UNL     1     -34.940   3.958   5.628  1.00 20.00     0.041 C 
HETATM    7  N7  UNL     1     -33.228   6.809   5.702  1.00 20.00    -0.160 NA
HETATM    8  N8  UNL     1     -34.203   6.212   6.239  1.00 20.00    -0.183 NA
ENDROOT
TORSDOF 0
ENDMDL
MODEL 3
REMARK VINA RESULT:      -4.1     12.003     13.248
REMARK  0 active torsions:
REMARK  status: ('A' for Active; 'I' for Inactive)
ROOT
HETATM    1  C1  UNL     1     -34.054  15.174  -5.044  1.00 20.00    -0.032 A 
HETATM    2  C2  UNL     1     -34.726  14.218  -5.692  1.00 20.00     0.056 A 
HETATM    3  C3  UNL     1     -33.800  14.619  -3.684  1.00 20.00     0.157 A 
HETATM    4  C4  UNL     1     -33.582  16.510  -5.478  1.00 20.00     0.048 C 
HETATM    5  C5  UNL     1     -35.234  14.218  -7.089  1.00 20.00     0.072 C 
HETATM    6  C6  UNL     1     -34.446  15.409  -2.556  1.00 20.00     0.041 C 
HETATM    7  N7  UNL     1     -34.941  13.110  -4.908  1.00 20.00    -0.160 NA
HETATM    8  N8  UNL     1     -34.440  13.278  -3.761  1.00 20.00    -0.183 NA
ENDROOT
TORSDOF 0
ENDMDL
MODEL 4
REMARK VINA RESULT:      -3.9     11.868     12.372
REMARK  0 active torsions:
REMARK  status: ('A' for Active; 'I' for Inactive)
ROOT
HETATM    1  C1  UNL     1     -34.940  14.819  -3.376  1.00 20.00    -0.032 A 
HETATM    2  C2  UNL     1     -33.928  14.025  -3.735  1.00 20.00     0.056 A 
HETATM    3  C3  UNL     1     -36.162  14.163  -3.921  1.00 20.00     0.157 A 
HETATM    4  C4  UNL     1     -34.974  16.074  -2.589  1.00 20.00     0.048 C 
HETATM    5  C5  UNL     1     -32.475  14.180  -3.456  1.00 20.00     0.072 C 
HETATM    6  C6  UNL     1     -36.913  14.996  -4.949  1.00 20.00     0.041 C 
HETATM    7  N7  UNL     1     -34.351  12.933  -4.454  1.00 20.00    -0.160 NA
HETATM    8  N8  UNL     1     -35.606  12.956  -4.591  1.00 20.00    -0.183 NA
ENDROOT
TORSDOF 0
ENDMDL
MODEL 5
REMARK VINA RESULT:      -3.8      1.236      2.644
REMARK  0 active torsions:
REMARK  status: ('A' for Active; 'I' for Inactive)
ROOT
HETATM    1  C1  UNL     1     -33.517   6.047   4.272  1.00 20.00    -0.032 A 
HETATM    2  C2  UNL     1     -34.568   5.480   3.674  1.00 20.00     0.056 A 
HETATM    3  C3  UNL     1     -33.705   5.780   5.726  1.00 20.00     0.157 A 
HETATM    4  C4  UNL     1     -32.348   6.774   3.723  1.00 20.00     0.048 C 
HETATM    5  C5  UNL     1     -34.900   5.425   2.225  1.00 20.00     0.072 C 
HETATM    6  C6  UNL     1     -33.861   7.032   6.575  1.00 20.00     0.041 C 
HETATM    7  N7  UNL     1     -35.419   4.882   4.572  1.00 20.00    -0.160 NA
HETATM    8  N8  UNL     1     -34.983   5.019   5.749  1.00 20.00    -0.183 NA
ENDROOT
TORSDOF 0
ENDMDL
MODEL 6
REMARK VINA RESULT:      -3.7     12.590     13.777
REMARK  0 active torsions:
REMARK  status: ('A' for Active; 'I' for Inactive)
ROOT
HETATM    1  C1  UNL     1     -33.961  16.471  -2.760  1.00 20.00    -0.032 A 
HETATM    2  C2  UNL     1     -33.900  17.493  -3.619  1.00 20.00     0.056 A 
HETATM    3  C3  UNL     1     -33.204  15.366  -3.415  1.00 20.00     0.157 A 
HETATM    4  C4  UNL     1     -34.579  16.349  -1.419  1.00 20.00     0.048 C 
HETATM    5  C5  UNL     1     -34.475  18.858  -3.487  1.00 20.00     0.072 C 
HETATM    6  C6  UNL     1     -34.039  14.131  -3.717  1.00 20.00     0.041 C 
HETATM    7  N7  UNL     1     -33.198  17.177  -4.757  1.00 20.00    -0.160 NA
HETATM    8  N8  UNL     1     -32.779  15.987  -4.699  1.00 20.00    -0.183 NA
ENDROOT
TORSDOF 0
ENDMDL
MODEL 7
REMARK VINA RESULT:      -3.7     12.050     12.654
REMARK  0 active torsions:
REMARK  status: ('A' for Active; 'I' for Inactive)
ROOT
HETATM    1  C1  UNL     1     -35.086  15.171  -4.363  1.00 20.00    -0.032 A 
HETATM    2  C2  UNL     1     -36.119  14.340  -4.200  1.00 20.00     0.056 A 
HETATM    3  C3  UNL     1     -33.914  14.288  -4.626  1.00 20.00     0.157 A 
HETATM    4  C4  UNL     1     -35.001  16.650  -4.343  1.00 20.00     0.048 C 
HETATM    5  C5  UNL     1     -37.543  14.666  -3.921  1.00 20.00     0.072 C 
HETATM    6  C6  UNL     1     -32.811  14.388  -3.583  1.00 20.00     0.041 C 
HETATM    7  N7  UNL     1     -35.753  13.021  -4.321  1.00 20.00    -0.160 NA
HETATM    8  N8  UNL     1     -34.517  12.929  -4.562  1.00 20.00    -0.183 NA
ENDROOT
TORSDOF 0
ENDMDL
MODEL 8
REMARK VINA RESULT:      -3.7     12.747     13.809
REMARK  0 active torsions:
REMARK  status: ('A' for Active; 'I' for Inactive)
ROOT
HETATM    1  C1  UNL     1     -33.619  15.546  -3.792  1.00 20.00    -0.032 A 
HETATM    2  C2  UNL     1     -34.014  16.478  -2.920  1.00 20.00     0.056 A 
HETATM    3  C3  UNL     1     -33.218  16.300  -5.014  1.00 20.00     0.157 A 
HETATM    4  C4  UNL     1     -33.524  14.072  -3.680  1.00 20.00     0.048 C 
HETATM    5  C5  UNL     1     -34.513  16.303  -1.530  1.00 20.00     0.072 C 
HETATM    6  C6  UNL     1     -34.045  15.975  -6.248  1.00 20.00     0.041 C 
HETATM    7  N7  UNL     1     -33.922  17.748  -3.436  1.00 20.00    -0.160 NA
HETATM    8  N8  UNL     1     -33.477  17.711  -4.618  1.00 20.00    -0.183 NA
ENDROOT
TORSDOF 0
ENDMDL
MODEL 9
REMARK VINA RESULT:      -3.7     12.090     12.512
REMARK  0 active torsions:
REMARK  status: ('A' for Active; 'I' for Inactive)
ROOT
HETATM    1  C1  UNL     1     -35.674  14.612  -3.738  1.00 20.00    -0.032 A 
HETATM    2  C2  UNL     1     -34.651  15.007  -2.975  1.00 20.00     0.056 A 
HETATM    3  C3  UNL     1     -35.118  13.537  -4.609  1.00 20.00     0.157 A 
HETATM    4  C4  UNL     1     -37.091  15.043  -3.783  1.00 20.00     0.048 C 
HETATM    5  C5  UNL     1     -34.626  16.049  -1.915  1.00 20.00     0.072 C 
HETATM    6  C6  UNL     1     -35.160  13.854  -6.096  1.00 20.00     0.041 C 
HETATM    7  N7  UNL     1     -33.496  14.317  -3.253  1.00 20.00    -0.160 NA
HETATM    8  N8  UNL     1     -33.698  13.471  -4.170  1.00 20.00    -0.183 NA
ENDROOT
TORSDOF 0
ENDMDL
