MODEL 1
REMARK VINA RESULT:      -4.9      0.000      0.000
REMARK  2 active torsions:
REMARK  status: ('A' for Active; 'I' for Inactive)
REMARK    1  A    between atoms: C1_1  and  C7_7 
REMARK    2  A    between atoms: C7_7  and  C10_10 
ROOT
HETATM    1  C2  UNL     1     -35.891  16.241  -6.946  1.00 20.00     0.000 C 
HETATM    2  C3  UNL     1     -36.756  16.315  -5.693  1.00 20.00     0.001 C 
HETATM    3  C4  UNL     1     -35.023  14.989  -6.955  1.00 20.00     0.001 C 
HETATM    4  C5  UNL     1     -35.915  16.226  -4.418  1.00 20.00     0.021 C 
HETATM    5  C6  UNL     1     -34.165  14.886  -5.692  1.00 20.00     0.021 C 
HETATM    6  C7  UNL     1     -34.984  15.010  -4.405  1.00 20.00     0.051 C 
ENDROOT
BRANCH   6   7
HETATM    7  C1  UNL     1     -35.805  13.740  -4.197  1.00 20.00     0.182 C 
HETATM    8  O11 UNL     1     -37.008  13.924  -3.861  1.00 20.00    -0.647 OA
HETATM    9  O12 UNL     1     -35.173  12.663  -4.387  1.00 20.00    -0.647 OA
ENDBRANCH   6   7
BRANCH   6  10
HETATM   10  C10 UNL     1     -34.076  15.026  -3.176  1.00 20.00    -0.004 C 
HETATM   11  C8  UNL     1     -32.611  15.090  -3.596  1.00 20.00     0.011 C 
HETATM   12  C9  UNL     1     -34.431  16.199  -2.268  1.00 20.00     0.011 C 
ENDBRANCH   6  10
TORSDOF 2
ENDMDL
MODEL 2
REMARK VINA RESULT:      -4.9      0.697      3.555
REMARK  2 active torsions:
REMARK  status: ('A' for Active; 'I' for Inactive)
REMARK    1  A    between atoms: C1_1  and  C7_7 
REMARK    2  A    between atoms: C7_7  and  C10_10 
ROOT
HETATM    1  C2  UNL     1     -33.937  16.451  -2.511  1.00 20.00     0.000 C 
HETATM    2  C3  UNL     1     -33.309  15.229  -3.170  1.00 20.00     0.001 C 
HETATM    3  C4  UNL     1     -35.457  16.423  -2.613  1.00 20.00     0.001 C 
HETATM    4  C5  UNL     1     -33.754  15.079  -4.626  1.00 20.00     0.021 C 
HETATM    5  C6  UNL     1     -35.925  16.284  -4.063  1.00 20.00     0.021 C 
HETATM    6  C7  UNL     1     -35.276  15.100  -4.786  1.00 20.00     0.051 C 
ENDROOT
BRANCH   6   7
HETATM    7  C1  UNL     1     -35.865  13.794  -4.257  1.00 20.00     0.182 C 
HETATM    8  O11 UNL     1     -35.097  12.794  -4.316  1.00 20.00    -0.647 OA
HETATM    9  O12 UNL     1     -37.049  13.882  -3.826  1.00 20.00    -0.647 OA
ENDBRANCH   6   7
BRANCH   6  10
HETATM   10  C10 UNL     1     -35.675  15.073  -6.262  1.00 20.00    -0.004 C 
HETATM   11  C8  UNL     1     -36.555  16.271  -6.598  1.00 20.00     0.011 C 
HETATM   12  C9  UNL     1     -34.433  15.047  -7.147  1.00 20.00     0.011 C 
ENDBRANCH   6  10
TORSDOF 2
ENDMDL
MODEL 3
REMARK VINA RESULT:      -4.9      1.167      3.523
REMARK  2 active torsions:
REMARK  status: ('A' for Active; 'I' for Inactive)
REMARK    1  A    between atoms: C1_1  and  C7_7 
REMARK    2  A    between atoms: C7_7  and  C10_10 
ROOT
HETATM    1  C2  UNL     1     -33.998  16.469  -2.444  1.00 20.00     0.000 C 
HETATM    2  C3  UNL     1     -32.926  15.847  -3.332  1.00 20.00     0.001 C 
HETATM    3  C4  UNL     1     -35.254  15.607  -2.395  1.00 20.00     0.001 C 
HETATM    4  C5  UNL     1     -33.451  15.568  -4.742  1.00 20.00     0.021 C 
HETATM    5  C6  UNL     1     -35.802  15.324  -3.795  1.00 20.00     0.021 C 
HETATM    6  C7  UNL     1     -34.745  14.749  -4.742  1.00 20.00     0.051 C 
ENDROOT
BRANCH   6   7
HETATM    7  C1  UNL     1     -34.437  13.306  -4.349  1.00 20.00     0.182 C 
HETATM    8  O11 UNL     1     -35.441  12.545  -4.260  1.00 20.00    -0.647 OA
HETATM    9  O12 UNL     1     -33.212  13.057  -4.163  1.00 20.00    -0.647 OA
ENDBRANCH   6   7
BRANCH   6  10
HETATM   10  C10 UNL     1     -35.300  14.598  -6.159  1.00 20.00    -0.004 C 
HETATM   11  C8  UNL     1     -36.649  15.299  -6.279  1.00 20.00     0.011 C 
HETATM   12  C9  UNL     1     -34.310  15.150  -7.179  1.00 20.00     0.011 C 
ENDBRANCH   6  10
TORSDOF 2
ENDMDL
MODEL 4
REMARK VINA RESULT:      -4.9      1.306      3.422
REMARK  2 active torsions:
REMARK  status: ('A' for Active; 'I' for Inactive)
REMARK    1  A    between atoms: C1_1  and  C7_7 
REMARK    2  A    between atoms: C7_7  and  C10_10 
ROOT
HETATM    1  C2  UNL     1     -35.188  16.500  -2.279  1.00 20.00     0.000 C 
HETATM    2  C3  UNL     1     -33.752  16.105  -2.599  1.00 20.00     0.001 C 
HETATM    3  C4  UNL     1     -36.184  15.485  -2.827  1.00 20.00     0.001 C 
HETATM    4  C5  UNL     1     -33.543  15.891  -4.099  1.00 20.00     0.021 C 
HETATM    5  C6  UNL     1     -36.000  15.264  -4.330  1.00 20.00     0.021 C 
HETATM    6  C7  UNL     1     -34.557  14.919  -4.707  1.00 20.00     0.051 C 
ENDROOT
BRANCH   6   7
HETATM    7  C1  UNL     1     -34.236  13.496  -4.253  1.00 20.00     0.182 C 
HETATM    8  O11 UNL     1     -33.067  13.322  -3.811  1.00 20.00    -0.647 OA
HETATM    9  O12 UNL     1     -35.186  12.673  -4.378  1.00 20.00    -0.647 OA
ENDBRANCH   6   7
BRANCH   6  10
HETATM   10  C10 UNL     1     -34.392  14.830  -6.224  1.00 20.00    -0.004 C 
HETATM   11  C8  UNL     1     -35.721  14.478  -6.884  1.00 20.00     0.011 C 
HETATM   12  C9  UNL     1     -33.843  16.141  -6.777  1.00 20.00     0.011 C 
ENDBRANCH   6  10
TORSDOF 2
ENDMDL
MODEL 5
REMARK VINA RESULT:      -4.7      1.571      2.129
REMARK  2 active torsions:
REMARK  status: ('A' for Active; 'I' for Inactive)
REMARK    1  A    between atoms: C1_1  and  C7_7 
REMARK    2  A    between atoms: C7_7  and  C10_10 
ROOT
HETATM    1  C2  UNL     1     -35.780  15.134  -6.274  1.00 20.00     0.000 C 
HETATM    2  C3  UNL     1     -36.170  14.472  -4.958  1.00 20.00     0.001 C 
HETATM    3  C4  UNL     1     -34.279  15.380  -6.354  1.00 20.00     0.001 C 
HETATM    4  C5  UNL     1     -35.684  15.279  -3.752  1.00 20.00     0.021 C 
HETATM    5  C6  UNL     1     -33.773  16.196  -5.163  1.00 20.00     0.021 C 
HETATM    6  C7  UNL     1     -34.188  15.599  -3.816  1.00 20.00     0.051 C 
ENDROOT
BRANCH   6   7
HETATM    7  C1  UNL     1     -33.382  14.330  -3.549  1.00 20.00     0.182 C 
HETATM    8  O11 UNL     1     -34.066  13.286  -3.360  1.00 20.00    -0.647 OA
HETATM    9  O12 UNL     1     -32.129  14.488  -3.551  1.00 20.00    -0.647 OA
ENDBRANCH   6   7
BRANCH   6  10
HETATM   10  C10 UNL     1     -33.771  16.509  -2.660  1.00 20.00    -0.004 C 
HETATM   11  C8  UNL     1     -33.798  17.970  -3.095  1.00 20.00     0.011 C 
HETATM   12  C9  UNL     1     -34.678  16.286  -1.454  1.00 20.00     0.011 C 
ENDBRANCH   6  10
TORSDOF 2
ENDMDL
MODEL 6
REMARK VINA RESULT:      -4.7      1.558      2.336
REMARK  2 active torsions:
REMARK  status: ('A' for Active; 'I' for Inactive)
REMARK    1  A    between atoms: C1_1  and  C7_7 
REMARK    2  A    between atoms: C7_7  and  C10_10 
ROOT
HETATM    1  C2  UNL     1     -34.433  16.012  -7.225  1.00 20.00     0.000 C 
HETATM    2  C3  UNL     1     -35.252  14.732  -7.110  1.00 20.00     0.001 C 
HETATM    3  C4  UNL     1     -33.515  16.199  -6.024  1.00 20.00     0.001 C 
HETATM    4  C5  UNL     1     -36.047  14.684  -5.804  1.00 20.00     0.021 C 
HETATM    5  C6  UNL     1     -34.291  16.165  -4.706  1.00 20.00     0.021 C 
HETATM    6  C7  UNL     1     -35.174  14.922  -4.569  1.00 20.00     0.051 C 
ENDROOT
BRANCH   6   7
HETATM    7  C1  UNL     1     -34.297  13.697  -4.319  1.00 20.00     0.182 C 
HETATM    8  O11 UNL     1     -33.164  13.938  -3.817  1.00 20.00    -0.647 OA
HETATM    9  O12 UNL     1     -34.820  12.595  -4.647  1.00 20.00    -0.647 OA
ENDBRANCH   6   7
BRANCH   6  10
HETATM   10  C10 UNL     1     -36.024  14.990  -3.299  1.00 20.00    -0.004 C 
HETATM   11  C8  UNL     1     -35.570  16.147  -2.416  1.00 20.00     0.011 C 
HETATM   12  C9  UNL     1     -37.501  15.126  -3.655  1.00 20.00     0.011 C 
ENDBRANCH   6  10
TORSDOF 2
ENDMDL
MODEL 7
REMARK VINA RESULT:      -4.6      1.272      3.627
REMARK  2 active torsions:
REMARK  status: ('A' for Active; 'I' for Inactive)
REMARK    1  A    between atoms: C1_1  and  C7_7 
REMARK    2  A    between atoms: C7_7  and  C10_10 
ROOT
HETATM    1  C2  UNL     1     -32.743  14.828  -3.671  1.00 20.00     0.000 C 
HETATM    2  C3  UNL     1     -33.655  13.610  -3.758  1.00 20.00     0.001 C 
HETATM    3  C4  UNL     1     -33.542  16.125  -3.643  1.00 20.00     0.001 C 
HETATM    4  C5  UNL     1     -34.601  13.695  -4.957  1.00 20.00     0.021 C 
HETATM    5  C6  UNL     1     -34.487  16.235  -4.841  1.00 20.00     0.021 C 
HETATM    6  C7  UNL     1     -35.387  15.008  -5.002  1.00 20.00     0.051 C 
ENDROOT
BRANCH   6   7
HETATM    7  C1  UNL     1     -36.449  15.005  -3.905  1.00 20.00     0.182 C 
HETATM    8  O11 UNL     1     -37.173  13.971  -3.857  1.00 20.00    -0.647 OA
HETATM    9  O12 UNL     1     -36.469  16.042  -3.183  1.00 20.00    -0.647 OA
ENDBRANCH   6   7
BRANCH   6  10
HETATM   10  C10 UNL     1     -36.224  15.104  -6.277  1.00 20.00    -0.004 C 
HETATM   11  C8  UNL     1     -36.534  16.562  -6.602  1.00 20.00     0.011 C 
HETATM   12  C9  UNL     1     -35.501  14.432  -7.440  1.00 20.00     0.011 C 
ENDBRANCH   6  10
TORSDOF 2
ENDMDL
MODEL 8
REMARK VINA RESULT:      -4.5      1.407      1.955
REMARK  2 active torsions:
REMARK  status: ('A' for Active; 'I' for Inactive)
REMARK    1  A    between atoms: C1_1  and  C7_7 
REMARK    2  A    between atoms: C7_7  and  C10_10 
ROOT
HETATM    1  C2  UNL     1     -38.145  15.770  -4.989  1.00 20.00     0.000 C 
HETATM    2  C3  UNL     1     -37.741  14.743  -3.938  1.00 20.00     0.001 C 
HETATM    3  C4  UNL     1     -37.152  15.808  -6.145  1.00 20.00     0.001 C 
HETATM    4  C5  UNL     1     -36.319  14.983  -3.428  1.00 20.00     0.021 C 
HETATM    5  C6  UNL     1     -35.724  16.059  -5.657  1.00 20.00     0.021 C 
HETATM    6  C7  UNL     1     -35.292  15.084  -4.558  1.00 20.00     0.051 C 
ENDROOT
BRANCH   6   7
HETATM    7  C1  UNL     1     -35.060  13.701  -5.164  1.00 20.00     0.182 C 
HETATM    8  O11 UNL     1     -34.919  13.678  -6.418  1.00 20.00    -0.647 OA
HETATM    9  O12 UNL     1     -35.039  12.754  -4.328  1.00 20.00    -0.647 OA
ENDBRANCH   6   7
BRANCH   6  10
HETATM   10  C10 UNL     1     -33.910  15.447  -4.015  1.00 20.00    -0.004 C 
HETATM   11  C8  UNL     1     -33.230  16.465  -4.924  1.00 20.00     0.011 C 
HETATM   12  C9  UNL     1     -34.022  15.982  -2.591  1.00 20.00     0.011 C 
ENDBRANCH   6  10
TORSDOF 2
ENDMDL
MODEL 9
REMARK VINA RESULT:      -4.4      2.119      3.772
REMARK  2 active torsions:
REMARK  status: ('A' for Active; 'I' for Inactive)
REMARK    1  A    between atoms: C1_1  and  C7_7 
REMARK    2  A    between atoms: C7_7  and  C10_10 
ROOT
HETATM    1  C2  UNL     1     -35.536  17.528  -1.947  1.00 20.00     0.000 C 
HETATM    2  C3  UNL     1     -35.253  18.046  -3.352  1.00 20.00     0.001 C 
HETATM    3  C4  UNL     1     -34.690  16.304  -1.620  1.00 20.00     0.001 C 
HETATM    4  C5  UNL     1     -35.443  16.954  -4.407  1.00 20.00     0.021 C 
HETATM    5  C6  UNL     1     -34.873  15.194  -2.657  1.00 20.00     0.021 C 
HETATM    6  C7  UNL     1     -34.653  15.681  -4.092  1.00 20.00     0.051 C 
ENDROOT
BRANCH   6   7
HETATM    7  C1  UNL     1     -33.165  15.932  -4.324  1.00 20.00     0.182 C 
HETATM    8  O11 UNL     1     -32.383  15.190  -3.666  1.00 20.00    -0.647 OA
HETATM    9  O12 UNL     1     -32.905  16.854  -5.148  1.00 20.00    -0.647 OA
ENDBRANCH   6   7
BRANCH   6  10
HETATM   10  C10 UNL     1     -34.967  14.576  -5.101  1.00 20.00    -0.004 C 
HETATM   11  C8  UNL     1     -35.207  13.252  -4.383  1.00 20.00     0.011 C 
HETATM   12  C9  UNL     1     -36.174  14.958  -5.950  1.00 20.00     0.011 C 
ENDBRANCH   6  10
TORSDOF 2
ENDMDL
