MODEL 1
REMARK VINA RESULT:      -5.5      0.000      0.000
REMARK  0 active torsions:
REMARK  status: ('A' for Active; 'I' for Inactive)
ROOT
HETATM    1  C1  UNL     1     -33.981   5.203   2.838  1.00 20.00    -0.008 C 
HETATM    2  C2  UNL     1     -34.427   5.295   4.086  1.00 20.00    -0.037 C 
HETATM    3  C3  UNL     1     -33.708   6.208   4.987  1.00 20.00     0.044 C 
HETATM    4  C4  UNL     1     -32.360   7.101   3.353  1.00 20.00     0.246 C 
HETATM    5  C5  UNL     1     -32.844   6.042   2.359  1.00 20.00     0.133 C 
HETATM    6  C6  UNL     1     -35.477   4.584   4.859  1.00 20.00     0.040 C 
HETATM    7  C7  UNL     1     -34.235   6.065   6.382  1.00 20.00     0.060 C 
HETATM    8  C8  UNL     1     -34.971   4.722   6.300  1.00 20.00     0.011 C 
HETATM    9  N9  UNL     1     -32.769   7.031   4.671  1.00 20.00    -0.218 NA
HETATM   10  O10 UNL     1     -31.582   7.969   2.957  1.00 20.00    -0.271 OA
ENDROOT
TORSDOF 0
ENDMDL
MODEL 2
REMARK VINA RESULT:      -4.7     12.184     13.803
REMARK  0 active torsions:
REMARK  status: ('A' for Active; 'I' for Inactive)
ROOT
HETATM    1  C1  UNL     1     -33.324  15.517  -3.443  1.00 20.00    -0.008 C 
HETATM    2  C2  UNL     1     -33.724  16.369  -4.381  1.00 20.00    -0.037 C 
HETATM    3  C3  UNL     1     -34.309  15.793  -5.601  1.00 20.00     0.044 C 
HETATM    4  C4  UNL     1     -34.353  13.634  -4.817  1.00 20.00     0.246 C 
HETATM    5  C5  UNL     1     -33.525  14.047  -3.598  1.00 20.00     0.133 C 
HETATM    6  C6  UNL     1     -33.628  17.842  -4.542  1.00 20.00     0.040 C 
HETATM    7  C7  UNL     1     -34.549  16.876  -6.608  1.00 20.00     0.060 C 
HETATM    8  C8  UNL     1     -33.666  18.007  -6.066  1.00 20.00     0.011 C 
HETATM    9  N9  UNL     1     -34.599  14.557  -5.815  1.00 20.00    -0.218 NA
HETATM   10  O10 UNL     1     -34.746  12.469  -4.896  1.00 20.00    -0.271 OA
ENDROOT
TORSDOF 0
ENDMDL
MODEL 3
REMARK VINA RESULT:      -4.6     10.188     10.964
REMARK  0 active torsions:
REMARK  status: ('A' for Active; 'I' for Inactive)
ROOT
HETATM    1  C1  UNL     1     -40.899   3.961  -1.541  1.00 20.00    -0.008 C 
HETATM    2  C2  UNL     1     -41.243   5.209  -1.244  1.00 20.00    -0.037 C 
HETATM    3  C3  UNL     1     -42.227   5.859  -2.122  1.00 20.00     0.044 C 
HETATM    4  C4  UNL     1     -42.703   3.970  -3.341  1.00 20.00     0.246 C 
HETATM    5  C5  UNL     1     -41.538   3.233  -2.676  1.00 20.00     0.133 C 
HETATM    6  C6  UNL     1     -40.771   6.194  -0.237  1.00 20.00     0.040 C 
HETATM    7  C7  UNL     1     -42.372   7.301  -1.742  1.00 20.00     0.060 C 
HETATM    8  C8  UNL     1     -41.106   7.532  -0.908  1.00 20.00     0.011 C 
HETATM    9  N9  UNL     1     -42.896   5.312  -3.076  1.00 20.00    -0.218 NA
HETATM   10  O10 UNL     1     -43.417   3.352  -4.131  1.00 20.00    -0.271 OA
ENDROOT
TORSDOF 0
ENDMDL
MODEL 4
REMARK VINA RESULT:      -4.6     11.835     12.896
REMARK  0 active torsions:
REMARK  status: ('A' for Active; 'I' for Inactive)
ROOT
HETATM    1  C1  UNL     1     -34.086  16.014  -5.524  1.00 20.00    -0.008 C 
HETATM    2  C2  UNL     1     -34.014  16.433  -4.266  1.00 20.00    -0.037 C 
HETATM    3  C3  UNL     1     -34.421  15.483  -3.221  1.00 20.00     0.044 C 
HETATM    4  C4  UNL     1     -34.664  13.694  -4.643  1.00 20.00     0.246 C 
HETATM    5  C5  UNL     1     -34.498  14.618  -5.852  1.00 20.00     0.133 C 
HETATM    6  C6  UNL     1     -33.694  17.738  -3.632  1.00 20.00     0.040 C 
HETATM    7  C7  UNL     1     -34.434  16.169  -1.889  1.00 20.00     0.060 C 
HETATM    8  C8  UNL     1     -34.446  17.646  -2.299  1.00 20.00     0.011 C 
HETATM    9  N9  UNL     1     -34.720  14.240  -3.374  1.00 20.00    -0.218 NA
HETATM   10  O10 UNL     1     -34.786  12.484  -4.837  1.00 20.00    -0.271 OA
ENDROOT
TORSDOF 0
ENDMDL
MODEL 5
REMARK VINA RESULT:      -4.5      2.060      3.585
REMARK  0 active torsions:
REMARK  status: ('A' for Active; 'I' for Inactive)
ROOT
HETATM    1  C1  UNL     1     -34.490   5.250   3.093  1.00 20.00    -0.008 C 
HETATM    2  C2  UNL     1     -33.395   6.003   3.108  1.00 20.00    -0.037 C 
HETATM    3  C3  UNL     1     -33.028   6.624   4.389  1.00 20.00     0.044 C 
HETATM    4  C4  UNL     1     -34.625   5.523   5.623  1.00 20.00     0.246 C 
HETATM    5  C5  UNL     1     -35.269   4.995   4.339  1.00 20.00     0.133 C 
HETATM    6  C6  UNL     1     -32.455   6.472   2.058  1.00 20.00     0.040 C 
HETATM    7  C7  UNL     1     -31.876   7.560   4.188  1.00 20.00     0.060 C 
HETATM    8  C8  UNL     1     -31.906   7.767   2.669  1.00 20.00     0.011 C 
HETATM    9  N9  UNL     1     -33.575   6.418   5.537  1.00 20.00    -0.218 NA
HETATM   10  O10 UNL     1     -35.089   5.165   6.706  1.00 20.00    -0.271 OA
ENDROOT
TORSDOF 0
ENDMDL
MODEL 6
REMARK VINA RESULT:      -4.5     12.225     13.120
REMARK  0 active torsions:
REMARK  status: ('A' for Active; 'I' for Inactive)
ROOT
HETATM    1  C1  UNL     1     -34.540  14.944  -2.956  1.00 20.00    -0.008 C 
HETATM    2  C2  UNL     1     -34.409  16.108  -2.329  1.00 20.00    -0.037 C 
HETATM    3  C3  UNL     1     -33.837  17.221  -3.099  1.00 20.00     0.044 C 
HETATM    4  C4  UNL     1     -33.822  16.104  -5.107  1.00 20.00     0.246 C 
HETATM    5  C5  UNL     1     -34.183  14.798  -4.397  1.00 20.00     0.133 C 
HETATM    6  C6  UNL     1     -34.626  16.552  -0.928  1.00 20.00     0.040 C 
HETATM    7  C7  UNL     1     -33.611  18.398  -2.199  1.00 20.00     0.060 C 
HETATM    8  C8  UNL     1     -33.669  17.745  -0.813  1.00 20.00     0.011 C 
HETATM    9  N9  UNL     1     -33.564  17.236  -4.357  1.00 20.00    -0.218 NA
HETATM   10  O10 UNL     1     -33.730  16.102  -6.336  1.00 20.00    -0.271 OA
ENDROOT
TORSDOF 0
ENDMDL
MODEL 7
REMARK VINA RESULT:      -4.4     12.042     13.055
REMARK  0 active torsions:
REMARK  status: ('A' for Active; 'I' for Inactive)
ROOT
HETATM    1  C1  UNL     1     -34.603  14.192  -3.463  1.00 20.00    -0.008 C 
HETATM    2  C2  UNL     1     -34.507  15.445  -3.031  1.00 20.00    -0.037 C 
HETATM    3  C3  UNL     1     -34.114  16.463  -4.016  1.00 20.00     0.044 C 
HETATM    4  C4  UNL     1     -34.213  15.054  -5.829  1.00 20.00     0.246 C 
HETATM    5  C5  UNL     1     -34.386  13.851  -4.899  1.00 20.00     0.133 C 
HETATM    6  C6  UNL     1     -34.614  16.084  -1.695  1.00 20.00     0.040 C 
HETATM    7  C7  UNL     1     -33.897  17.777  -3.329  1.00 20.00     0.060 C 
HETATM    8  C8  UNL     1     -33.755  17.342  -1.865  1.00 20.00     0.011 C 
HETATM    9  N9  UNL     1     -33.975  16.303  -5.286  1.00 20.00    -0.218 NA
HETATM   10  O10 UNL     1     -34.250  14.869  -7.046  1.00 20.00    -0.271 OA
ENDROOT
TORSDOF 0
ENDMDL
MODEL 8
REMARK VINA RESULT:      -4.4     11.664     12.476
REMARK  0 active torsions:
REMARK  status: ('A' for Active; 'I' for Inactive)
ROOT
HETATM    1  C1  UNL     1     -33.785  15.373  -2.877  1.00 20.00    -0.008 C 
HETATM    2  C2  UNL     1     -34.980  15.927  -2.706  1.00 20.00    -0.037 C 
HETATM    3  C3  UNL     1     -36.101  15.346  -3.459  1.00 20.00     0.044 C 
HETATM    4  C4  UNL     1     -34.907  13.558  -4.269  1.00 20.00     0.246 C 
HETATM    5  C5  UNL     1     -33.607  14.173  -3.745  1.00 20.00     0.133 C 
HETATM    6  C6  UNL     1     -35.464  17.122  -1.967  1.00 20.00     0.040 C 
HETATM    7  C7  UNL     1     -37.327  16.188  -3.275  1.00 20.00     0.060 C 
HETATM    8  C8  UNL     1     -36.728  17.498  -2.749  1.00 20.00     0.011 C 
HETATM    9  N9  UNL     1     -36.084  14.275  -4.173  1.00 20.00    -0.218 NA
HETATM   10  O10 UNL     1     -34.861  12.449  -4.805  1.00 20.00    -0.271 OA
ENDROOT
TORSDOF 0
ENDMDL
MODEL 9
REMARK VINA RESULT:      -4.4     11.676     12.884
REMARK  0 active torsions:
REMARK  status: ('A' for Active; 'I' for Inactive)
ROOT
HETATM    1  C1  UNL     1     -35.847  16.695  -3.996  1.00 20.00    -0.008 C 
HETATM    2  C2  UNL     1     -34.827  15.852  -4.115  1.00 20.00    -0.037 C 
HETATM    3  C3  UNL     1     -35.122  14.420  -3.958  1.00 20.00     0.044 C 
HETATM    4  C4  UNL     1     -37.403  14.681  -3.870  1.00 20.00     0.246 C 
HETATM    5  C5  UNL     1     -37.238  16.200  -3.779  1.00 20.00     0.133 C 
HETATM    6  C6  UNL     1     -33.362  16.026  -4.283  1.00 20.00     0.040 C 
HETATM    7  C7  UNL     1     -33.845  13.636  -3.959  1.00 20.00     0.060 C 
HETATM    8  C8  UNL     1     -32.808  14.731  -3.679  1.00 20.00     0.011 C 
HETATM    9  N9  UNL     1     -36.282  13.873  -3.845  1.00 20.00    -0.218 NA
HETATM   10  O10 UNL     1     -38.542  14.214  -3.922  1.00 20.00    -0.271 OA
ENDROOT
TORSDOF 0
ENDMDL
