MODEL 1
REMARK VINA RESULT:      -3.8      0.000      0.000
REMARK  0 active torsions:
REMARK  status: ('A' for Active; 'I' for Inactive)
ROOT
HETATM    1  C1  UNL     1     -33.931   6.237   4.797  1.00 20.00     0.158 C 
HETATM    2  C2  UNL     1     -34.048   6.319   6.121  1.00 20.00     0.277 C 
HETATM    3  F3  UNL     1     -33.207   7.113   6.816  1.00 20.00    -0.172 F 
HETATM    4  F4  UNL     1     -34.997   5.617   6.776  1.00 20.00    -0.172 F 
HETATM    5 CL5  UNL     1     -34.939   5.264   3.816  1.00 20.00    -0.091 Cl
ENDROOT
TORSDOF 0
ENDMDL
MODEL 2
REMARK VINA RESULT:      -3.7      2.674      2.985
REMARK  0 active torsions:
REMARK  status: ('A' for Active; 'I' for Inactive)
ROOT
HETATM    1  C1  UNL     1     -33.820   6.057   4.672  1.00 20.00     0.158 C 
HETATM    2  C2  UNL     1     -34.693   5.466   3.858  1.00 20.00     0.277 C 
HETATM    3  F3  UNL     1     -34.362   5.252   2.568  1.00 20.00    -0.172 F 
HETATM    4  F4  UNL     1     -35.905   5.079   4.309  1.00 20.00    -0.172 F 
HETATM    5 CL5  UNL     1     -34.132   6.380   6.323  1.00 20.00    -0.091 Cl
ENDROOT
TORSDOF 0
ENDMDL
MODEL 3
REMARK VINA RESULT:      -3.7      2.700      3.076
REMARK  0 active torsions:
REMARK  status: ('A' for Active; 'I' for Inactive)
ROOT
HETATM    1  C1  UNL     1     -34.439   5.180   6.166  1.00 20.00     0.158 C 
HETATM    2  C2  UNL     1     -34.925   4.811   4.982  1.00 20.00     0.277 C 
HETATM    3  F3  UNL     1     -35.255   3.520   4.771  1.00 20.00    -0.172 F 
HETATM    4  F4  UNL     1     -35.091   5.713   3.991  1.00 20.00    -0.172 F 
HETATM    5 CL5  UNL     1     -33.987   6.786   6.545  1.00 20.00    -0.091 Cl
ENDROOT
TORSDOF 0
ENDMDL
MODEL 4
REMARK VINA RESULT:      -3.7      1.369      2.022
REMARK  0 active torsions:
REMARK  status: ('A' for Active; 'I' for Inactive)
ROOT
HETATM    1  C1  UNL     1     -34.425   5.287   4.585  1.00 20.00     0.158 C 
HETATM    2  C2  UNL     1     -34.731   5.304   5.881  1.00 20.00     0.277 C 
HETATM    3  F3  UNL     1     -35.451   4.292   6.408  1.00 20.00    -0.172 F 
HETATM    4  F4  UNL     1     -34.330   6.322   6.672  1.00 20.00    -0.172 F 
HETATM    5 CL5  UNL     1     -33.520   6.514   3.809  1.00 20.00    -0.091 Cl
ENDROOT
TORSDOF 0
ENDMDL
MODEL 5
REMARK VINA RESULT:      -3.5      2.742      3.166
REMARK  0 active torsions:
REMARK  status: ('A' for Active; 'I' for Inactive)
ROOT
HETATM    1  C1  UNL     1     -34.871   5.012   4.751  1.00 20.00     0.158 C 
HETATM    2  C2  UNL     1     -34.249   5.649   3.760  1.00 20.00     0.277 C 
HETATM    3  F3  UNL     1     -34.415   5.228   2.490  1.00 20.00    -0.172 F 
HETATM    4  F4  UNL     1     -33.457   6.712   4.013  1.00 20.00    -0.172 F 
HETATM    5 CL5  UNL     1     -34.734   5.456   6.397  1.00 20.00    -0.091 Cl
ENDROOT
TORSDOF 0
ENDMDL
MODEL 6
REMARK VINA RESULT:      -3.5      2.811      3.283
REMARK  0 active torsions:
REMARK  status: ('A' for Active; 'I' for Inactive)
ROOT
HETATM    1  C1  UNL     1     -33.665   6.254   4.245  1.00 20.00     0.158 C 
HETATM    2  C2  UNL     1     -34.582   5.509   3.631  1.00 20.00     0.277 C 
HETATM    3  F3  UNL     1     -35.715   5.175   4.284  1.00 20.00    -0.172 F 
HETATM    4  F4  UNL     1     -34.392   5.084   2.364  1.00 20.00    -0.172 F 
HETATM    5 CL5  UNL     1     -32.193   6.735   3.518  1.00 20.00    -0.091 Cl
ENDROOT
TORSDOF 0
ENDMDL
MODEL 7
REMARK VINA RESULT:      -3.4      2.544      2.683
REMARK  0 active torsions:
REMARK  status: ('A' for Active; 'I' for Inactive)
ROOT
HETATM    1  C1  UNL     1     -34.251   5.664   5.284  1.00 20.00     0.158 C 
HETATM    2  C2  UNL     1     -34.137   5.887   3.976  1.00 20.00     0.277 C 
HETATM    3  F3  UNL     1     -33.524   7.007   3.542  1.00 20.00    -0.172 F 
HETATM    4  F4  UNL     1     -34.627   5.004   3.080  1.00 20.00    -0.172 F 
HETATM    5 CL5  UNL     1     -35.007   4.281   5.948  1.00 20.00    -0.091 Cl
ENDROOT
TORSDOF 0
ENDMDL
MODEL 8
REMARK VINA RESULT:      -3.3      2.876      3.113
REMARK  0 active torsions:
REMARK  status: ('A' for Active; 'I' for Inactive)
ROOT
HETATM    1  C1  UNL     1     -33.674   6.488   3.970  1.00 20.00     0.158 C 
HETATM    2  C2  UNL     1     -32.441   6.514   3.468  1.00 20.00     0.277 C 
HETATM    3  F3  UNL     1     -31.605   7.516   3.808  1.00 20.00    -0.172 F 
HETATM    4  F4  UNL     1     -32.019   5.550   2.622  1.00 20.00    -0.172 F 
HETATM    5 CL5  UNL     1     -34.818   5.268   3.609  1.00 20.00    -0.091 Cl
ENDROOT
TORSDOF 0
ENDMDL
MODEL 9
REMARK VINA RESULT:      -3.0      3.824      4.085
REMARK  0 active torsions:
REMARK  status: ('A' for Active; 'I' for Inactive)
ROOT
HETATM    1  C1  UNL     1     -31.883   7.875   2.227  1.00 20.00     0.158 C 
HETATM    2  C2  UNL     1     -32.457   6.948   2.992  1.00 20.00     0.277 C 
HETATM    3  F3  UNL     1     -31.800   5.800   3.255  1.00 20.00    -0.172 F 
HETATM    4  F4  UNL     1     -33.689   7.145   3.508  1.00 20.00    -0.172 F 
HETATM    5 CL5  UNL     1     -32.621   9.365   1.827  1.00 20.00    -0.091 Cl
ENDROOT
TORSDOF 0
ENDMDL
