MODEL 1
REMARK VINA RESULT:      -4.5      0.000      0.000
REMARK  2 active torsions:
REMARK  status: ('A' for Active; 'I' for Inactive)
REMARK    1  A    between atoms: C3_3  and  C8_8 
REMARK    2  A    between atoms: C7_7  and  C8_8 
ROOT
HETATM    1  C1  UNL     1     -34.300  13.949  -3.740  1.00 20.00     0.018 A 
HETATM    2  C2  UNL     1     -34.696  13.390  -4.989  1.00 20.00     0.032 A 
HETATM    3  C3  UNL     1     -34.226  15.324  -3.789  1.00 20.00     0.003 A 
HETATM    4  C4  UNL     1     -34.911  14.358  -5.945  1.00 20.00     0.075 A 
HETATM    5  S9  UNL     1     -34.634  15.935  -5.336  1.00 20.00    -0.081 SA
HETATM    6 CL10 UNL     1     -35.397  14.138  -7.574  1.00 20.00    -0.076 Cl
ENDROOT
BRANCH   3   7
HETATM    7  C8  UNL     1     -33.843  16.295  -2.676  1.00 20.00     0.126 C 
HETATM    8 CL11 UNL     1     -33.652  17.935  -3.399  1.00 20.00    -0.119 Cl
BRANCH   7   9
HETATM    9  C7  UNL     1     -34.780  16.328  -1.519  1.00 20.00     0.009 A 
HETATM   10  C5  UNL     1     -34.414  17.079  -0.269  1.00 20.00     0.007 A 
HETATM   11  C6  UNL     1     -35.503  17.598  -1.167  1.00 20.00     0.007 A 
ENDBRANCH   7   9
ENDBRANCH   3   7
TORSDOF 2
ENDMDL
MODEL 2
REMARK VINA RESULT:      -4.4      1.295      1.326
REMARK  2 active torsions:
REMARK  status: ('A' for Active; 'I' for Inactive)
REMARK    1  A    between atoms: C3_3  and  C8_8 
REMARK    2  A    between atoms: C7_7  and  C8_8 
ROOT
HETATM    1  C1  UNL     1     -34.377  14.658  -3.397  1.00 20.00     0.018 A 
HETATM    2  C2  UNL     1     -34.453  13.919  -4.613  1.00 20.00     0.032 A 
HETATM    3  C3  UNL     1     -34.881  15.932  -3.534  1.00 20.00     0.003 A 
HETATM    4  C4  UNL     1     -35.014  14.657  -5.633  1.00 20.00     0.075 A 
HETATM    5  S9  UNL     1     -35.445  16.234  -5.122  1.00 20.00    -0.081 SA
HETATM    6 CL10 UNL     1     -35.298  14.168  -7.250  1.00 20.00    -0.076 Cl
ENDROOT
BRANCH   3   7
HETATM    7  C8  UNL     1     -34.984  17.031  -2.480  1.00 20.00     0.126 C 
HETATM    8 CL11 UNL     1     -36.720  17.478  -2.298  1.00 20.00    -0.119 Cl
BRANCH   7   9
HETATM    9  C7  UNL     1     -34.377  16.699  -1.162  1.00 20.00     0.009 A 
HETATM   10  C5  UNL     1     -33.602  17.738  -0.400  1.00 20.00     0.007 A 
HETATM   11  C6  UNL     1     -34.944  17.284   0.101  1.00 20.00     0.007 A 
ENDBRANCH   7   9
ENDBRANCH   3   7
TORSDOF 2
ENDMDL
MODEL 3
REMARK VINA RESULT:      -4.3      1.717      5.009
REMARK  2 active torsions:
REMARK  status: ('A' for Active; 'I' for Inactive)
REMARK    1  A    between atoms: C3_3  and  C8_8 
REMARK    2  A    between atoms: C7_7  and  C8_8 
ROOT
HETATM    1  C1  UNL     1     -34.656  15.529  -2.377  1.00 20.00     0.018 A 
HETATM    2  C2  UNL     1     -34.387  16.685  -1.589  1.00 20.00     0.032 A 
HETATM    3  C3  UNL     1     -34.305  15.710  -3.697  1.00 20.00     0.003 A 
HETATM    4  C4  UNL     1     -33.842  17.706  -2.336  1.00 20.00     0.075 A 
HETATM    5  S9  UNL     1     -33.655  17.268  -3.981  1.00 20.00    -0.081 SA
HETATM    6 CL10 UNL     1     -33.367  19.263  -1.800  1.00 20.00    -0.076 Cl
ENDROOT
BRANCH   3   7
HETATM    7  C8  UNL     1     -34.428  14.726  -4.856  1.00 20.00     0.126 C 
HETATM    8 CL11 UNL     1     -35.231  13.232  -4.245  1.00 20.00    -0.119 Cl
BRANCH   7   9
HETATM    9  C7  UNL     1     -35.129  15.253  -6.060  1.00 20.00     0.009 A 
HETATM   10  C5  UNL     1     -34.399  15.380  -7.367  1.00 20.00     0.007 A 
HETATM   11  C6  UNL     1     -35.467  14.336  -7.202  1.00 20.00     0.007 A 
ENDBRANCH   7   9
ENDBRANCH   3   7
TORSDOF 2
ENDMDL
MODEL 4
REMARK VINA RESULT:      -4.2      2.087      5.012
REMARK  2 active torsions:
REMARK  status: ('A' for Active; 'I' for Inactive)
REMARK    1  A    between atoms: C3_3  and  C8_8 
REMARK    2  A    between atoms: C7_7  and  C8_8 
ROOT
HETATM    1  C1  UNL     1     -34.288  16.639  -1.168  1.00 20.00     0.018 A 
HETATM    2  C2  UNL     1     -34.882  17.538  -0.236  1.00 20.00     0.032 A 
HETATM    3  C3  UNL     1     -34.996  16.574  -2.348  1.00 20.00     0.003 A 
HETATM    4  C4  UNL     1     -36.022  18.126  -0.739  1.00 20.00     0.075 A 
HETATM    5  S9  UNL     1     -36.371  17.593  -2.329  1.00 20.00    -0.081 SA
HETATM    6 CL10 UNL     1     -37.046  19.263   0.032  1.00 20.00    -0.076 Cl
ENDROOT
BRANCH   3   7
HETATM    7  C8  UNL     1     -34.698  15.739  -3.590  1.00 20.00     0.126 C 
HETATM    8 CL11 UNL     1     -33.166  16.345  -4.322  1.00 20.00    -0.119 Cl
BRANCH   7   9
HETATM    9  C7  UNL     1     -34.635  14.269  -3.361  1.00 20.00     0.009 A 
HETATM   10  C5  UNL     1     -34.913  13.314  -4.488  1.00 20.00     0.007 A 
HETATM   11  C6  UNL     1     -33.516  13.458  -3.954  1.00 20.00     0.007 A 
ENDBRANCH   7   9
ENDBRANCH   3   7
TORSDOF 2
ENDMDL
MODEL 5
REMARK VINA RESULT:      -4.2      2.376      5.246
REMARK  2 active torsions:
REMARK  status: ('A' for Active; 'I' for Inactive)
REMARK    1  A    between atoms: C3_3  and  C8_8 
REMARK    2  A    between atoms: C7_7  and  C8_8 
ROOT
HETATM    1  C1  UNL     1     -33.656  18.377  -2.746  1.00 20.00     0.018 A 
HETATM    2  C2  UNL     1     -33.571  19.028  -1.482  1.00 20.00     0.032 A 
HETATM    3  C3  UNL     1     -34.155  17.097  -2.637  1.00 20.00     0.003 A 
HETATM    4  C4  UNL     1     -34.010  18.222  -0.454  1.00 20.00     0.075 A 
HETATM    5  S9  UNL     1     -34.520  16.686  -1.016  1.00 20.00    -0.081 SA
HETATM    6 CL10 UNL     1     -34.084  18.595   1.216  1.00 20.00    -0.076 Cl
ENDROOT
BRANCH   3   7
HETATM    7  C8  UNL     1     -34.400  16.076  -3.744  1.00 20.00     0.126 C 
HETATM    8 CL11 UNL     1     -33.139  16.304  -5.011  1.00 20.00    -0.119 Cl
BRANCH   7   9
HETATM    9  C7  UNL     1     -34.454  14.658  -3.293  1.00 20.00     0.009 A 
HETATM   10  C5  UNL     1     -35.143  13.621  -4.135  1.00 20.00     0.007 A 
HETATM   11  C6  UNL     1     -33.646  13.607  -4.002  1.00 20.00     0.007 A 
ENDBRANCH   7   9
ENDBRANCH   3   7
TORSDOF 2
ENDMDL
MODEL 6
REMARK VINA RESULT:      -4.2      1.727      2.137
REMARK  2 active torsions:
REMARK  status: ('A' for Active; 'I' for Inactive)
REMARK    1  A    between atoms: C3_3  and  C8_8 
REMARK    2  A    between atoms: C7_7  and  C8_8 
ROOT
HETATM    1  C1  UNL     1     -34.413  14.669  -6.005  1.00 20.00     0.018 A 
HETATM    2  C2  UNL     1     -35.323  14.660  -7.101  1.00 20.00     0.032 A 
HETATM    3  C3  UNL     1     -35.036  14.986  -4.818  1.00 20.00     0.003 A 
HETATM    4  C4  UNL     1     -36.607  14.970  -6.710  1.00 20.00     0.075 A 
HETATM    5  S9  UNL     1     -36.711  15.271  -5.027  1.00 20.00    -0.081 SA
HETATM    6 CL10 UNL     1     -38.008  15.074  -7.691  1.00 20.00    -0.076 Cl
ENDROOT
BRANCH   3   7
HETATM    7  C8  UNL     1     -34.424  15.101  -3.425  1.00 20.00     0.126 C 
HETATM    8 CL11 UNL     1     -32.643  14.868  -3.571  1.00 20.00    -0.119 Cl
BRANCH   7   9
HETATM    9  C7  UNL     1     -34.739  16.362  -2.699  1.00 20.00     0.009 A 
HETATM   10  C5  UNL     1     -34.758  16.388  -1.197  1.00 20.00     0.007 A 
HETATM   11  C6  UNL     1     -33.662  17.092  -1.946  1.00 20.00     0.007 A 
ENDBRANCH   7   9
ENDBRANCH   3   7
TORSDOF 2
ENDMDL
MODEL 7
REMARK VINA RESULT:      -4.2      2.220      4.997
REMARK  2 active torsions:
REMARK  status: ('A' for Active; 'I' for Inactive)
REMARK    1  A    between atoms: C3_3  and  C8_8 
REMARK    2  A    between atoms: C7_7  and  C8_8 
ROOT
HETATM    1  C1  UNL     1     -34.906  15.956  -2.311  1.00 20.00     0.018 A 
HETATM    2  C2  UNL     1     -34.619  16.446  -1.004  1.00 20.00     0.032 A 
HETATM    3  C3  UNL     1     -34.508  16.837  -3.293  1.00 20.00     0.003 A 
HETATM    4  C4  UNL     1     -34.012  17.683  -1.037  1.00 20.00     0.075 A 
HETATM    5  S9  UNL     1     -33.791  18.247  -2.639  1.00 20.00    -0.081 SA
HETATM    6 CL10 UNL     1     -33.495  18.635   0.290  1.00 20.00    -0.076 Cl
ENDROOT
BRANCH   3   7
HETATM    7  C8  UNL     1     -34.633  16.690  -4.807  1.00 20.00     0.126 C 
HETATM    8 CL11 UNL     1     -33.543  17.899  -5.581  1.00 20.00    -0.119 Cl
BRANCH   7   9
HETATM    9  C7  UNL     1     -34.370  15.322  -5.332  1.00 20.00     0.009 A 
HETATM   10  C5  UNL     1     -35.479  14.527  -5.963  1.00 20.00     0.007 A 
HETATM   11  C6  UNL     1     -34.363  15.068  -6.813  1.00 20.00     0.007 A 
ENDBRANCH   7   9
ENDBRANCH   3   7
TORSDOF 2
ENDMDL
MODEL 8
REMARK VINA RESULT:      -4.1      1.906      2.028
REMARK  2 active torsions:
REMARK  status: ('A' for Active; 'I' for Inactive)
REMARK    1  A    between atoms: C3_3  and  C8_8 
REMARK    2  A    between atoms: C7_7  and  C8_8 
ROOT
HETATM    1  C1  UNL     1     -37.105  15.144  -3.614  1.00 20.00     0.018 A 
HETATM    2  C2  UNL     1     -37.755  15.007  -4.875  1.00 20.00     0.032 A 
HETATM    3  C3  UNL     1     -35.749  15.348  -3.752  1.00 20.00     0.003 A 
HETATM    4  C4  UNL     1     -36.872  15.114  -5.927  1.00 20.00     0.075 A 
HETATM    5  S9  UNL     1     -35.266  15.376  -5.394  1.00 20.00    -0.081 SA
HETATM    6 CL10 UNL     1     -37.218  15.014  -7.602  1.00 20.00    -0.076 Cl
ENDROOT
BRANCH   3   7
HETATM    7  C8  UNL     1     -34.702  15.542  -2.658  1.00 20.00     0.126 C 
HETATM    8 CL11 UNL     1     -33.070  15.376  -3.405  1.00 20.00    -0.119 Cl
BRANCH   7   9
HETATM    9  C7  UNL     1     -34.814  16.817  -1.897  1.00 20.00     0.009 A 
HETATM   10  C5  UNL     1     -34.715  16.816  -0.397  1.00 20.00     0.007 A 
HETATM   11  C6  UNL     1     -33.605  17.404  -1.223  1.00 20.00     0.007 A 
ENDBRANCH   7   9
ENDBRANCH   3   7
TORSDOF 2
ENDMDL
MODEL 9
REMARK VINA RESULT:      -4.1      4.610      7.566
REMARK  2 active torsions:
REMARK  status: ('A' for Active; 'I' for Inactive)
REMARK    1  A    between atoms: C3_3  and  C8_8 
REMARK    2  A    between atoms: C7_7  and  C8_8 
ROOT
HETATM    1  C1  UNL     1     -34.759  18.023   2.675  1.00 20.00     0.018 A 
HETATM    2  C2  UNL     1     -34.231  18.147   3.992  1.00 20.00     0.032 A 
HETATM    3  C3  UNL     1     -33.849  18.408   1.715  1.00 20.00     0.003 A 
HETATM    4  C4  UNL     1     -32.938  18.623   3.989  1.00 20.00     0.075 A 
HETATM    5  S9  UNL     1     -32.366  18.917   2.402  1.00 20.00    -0.081 SA
HETATM    6 CL10 UNL     1     -31.926  18.923   5.339  1.00 20.00    -0.076 Cl
ENDROOT
BRANCH   3   7
HETATM    7  C8  UNL     1     -34.019  18.425   0.198  1.00 20.00     0.126 C 
HETATM    8 CL11 UNL     1     -32.500  19.066  -0.532  1.00 20.00    -0.119 Cl
BRANCH   7   9
HETATM    9  C7  UNL     1     -34.391  17.117  -0.409  1.00 20.00     0.009 A 
HETATM   10  C5  UNL     1     -35.341  17.066  -1.572  1.00 20.00     0.007 A 
HETATM   11  C6  UNL     1     -33.887  16.746  -1.775  1.00 20.00     0.007 A 
ENDBRANCH   7   9
ENDBRANCH   3   7
TORSDOF 2
ENDMDL
