MODEL 1
REMARK VINA RESULT:      -4.3      0.000      0.000
REMARK  2 active torsions:
REMARK  status: ('A' for Active; 'I' for Inactive)
REMARK    1  A    between atoms: C4_4  and  C9_9 
REMARK    2  A    between atoms: C7_7  and  C9_9 
ROOT
HETATM    1  C1  UNL     1     -34.947  17.463  -0.141  1.00 20.00     0.015 A 
HETATM    2  C2  UNL     1     -34.457  16.539  -1.110  1.00 20.00     0.017 A 
HETATM    3  C3  UNL     1     -36.006  18.201  -0.621  1.00 20.00    -0.021 A 
HETATM    4  C4  UNL     1     -35.160  16.608  -2.292  1.00 20.00    -0.002 A 
HETATM    5  C8  UNL     1     -36.783  19.253   0.072  1.00 20.00     0.056 C 
HETATM    6  S10 UNL     1     -36.405  17.781  -2.232  1.00 20.00    -0.099 SA
ENDROOT
BRANCH   4   7
HETATM    7  C9  UNL     1     -34.957  15.802  -3.556  1.00 20.00     0.102 C 
HETATM    8 BR11 UNL     1     -33.494  16.593  -4.593  1.00 20.00    -0.085 Br
BRANCH   7   9
HETATM    9  C7  UNL     1     -34.686  14.360  -3.305  1.00 20.00     0.005 A 
HETATM   10  C5  UNL     1     -35.063  13.328  -4.333  1.00 20.00     0.006 A 
HETATM   11  C6  UNL     1     -33.615  13.644  -4.081  1.00 20.00     0.006 A 
ENDBRANCH   7   9
ENDBRANCH   4   7
TORSDOF 2
ENDMDL
MODEL 2
REMARK VINA RESULT:      -4.2      2.029      4.976
REMARK  2 active torsions:
REMARK  status: ('A' for Active; 'I' for Inactive)
REMARK    1  A    between atoms: C4_4  and  C9_9 
REMARK    2  A    between atoms: C7_7  and  C9_9 
ROOT
HETATM    1  C1  UNL     1     -34.495  13.934  -4.642  1.00 20.00     0.015 A 
HETATM    2  C2  UNL     1     -34.441  14.679  -3.429  1.00 20.00     0.017 A 
HETATM    3  C3  UNL     1     -34.905  14.707  -5.706  1.00 20.00    -0.021 A 
HETATM    4  C4  UNL     1     -34.810  15.993  -3.612  1.00 20.00    -0.002 A 
HETATM    5  C8  UNL     1     -35.087  14.307  -7.119  1.00 20.00     0.056 C 
HETATM    6  S10 UNL     1     -35.221  16.324  -5.241  1.00 20.00    -0.099 SA
ENDROOT
BRANCH   4   7
HETATM    7  C9  UNL     1     -34.883  17.103  -2.587  1.00 20.00     0.102 C 
HETATM    8 BR11 UNL     1     -36.746  17.685  -2.403  1.00 20.00    -0.085 Br
BRANCH   7   9
HETATM    9  C7  UNL     1     -34.332  16.721  -1.257  1.00 20.00     0.005 A 
HETATM   10  C5  UNL     1     -33.566  17.724  -0.438  1.00 20.00     0.006 A 
HETATM   11  C6  UNL     1     -34.934  17.282   0.002  1.00 20.00     0.006 A 
ENDBRANCH   7   9
ENDBRANCH   4   7
TORSDOF 2
ENDMDL
MODEL 3
REMARK VINA RESULT:      -4.1      2.535      2.937
REMARK  2 active torsions:
REMARK  status: ('A' for Active; 'I' for Inactive)
REMARK    1  A    between atoms: C4_4  and  C9_9 
REMARK    2  A    between atoms: C7_7  and  C9_9 
ROOT
HETATM    1  C1  UNL     1     -34.239  16.797  -1.563  1.00 20.00     0.015 A 
HETATM    2  C2  UNL     1     -34.434  15.662  -2.402  1.00 20.00     0.017 A 
HETATM    3  C3  UNL     1     -33.837  17.904  -2.277  1.00 20.00    -0.021 A 
HETATM    4  C4  UNL     1     -34.174  15.945  -3.724  1.00 20.00    -0.002 A 
HETATM    5  C8  UNL     1     -33.535  19.263  -1.775  1.00 20.00     0.056 C 
HETATM    6  S10 UNL     1     -33.698  17.573  -3.951  1.00 20.00    -0.099 SA
ENDROOT
BRANCH   4   7
HETATM    7  C9  UNL     1     -34.264  15.022  -4.919  1.00 20.00     0.102 C 
HETATM    8 BR11 UNL     1     -34.987  13.293  -4.344  1.00 20.00    -0.085 Br
BRANCH   7   9
HETATM    9  C7  UNL     1     -35.080  15.572  -6.036  1.00 20.00     0.005 A 
HETATM   10  C5  UNL     1     -34.563  15.525  -7.448  1.00 20.00     0.006 A 
HETATM   11  C6  UNL     1     -35.714  14.648  -7.039  1.00 20.00     0.006 A 
ENDBRANCH   7   9
ENDBRANCH   4   7
TORSDOF 2
ENDMDL
MODEL 4
REMARK VINA RESULT:      -4.1      1.968      2.129
REMARK  2 active torsions:
REMARK  status: ('A' for Active; 'I' for Inactive)
REMARK    1  A    between atoms: C4_4  and  C9_9 
REMARK    2  A    between atoms: C7_7  and  C9_9 
ROOT
HETATM    1  C1  UNL     1     -34.485  16.645  -0.838  1.00 20.00     0.015 A 
HETATM    2  C2  UNL     1     -34.863  16.099  -2.099  1.00 20.00     0.017 A 
HETATM    3  C3  UNL     1     -33.877  17.875  -0.968  1.00 20.00    -0.021 A 
HETATM    4  C4  UNL     1     -34.530  16.932  -3.144  1.00 20.00    -0.002 A 
HETATM    5  C8  UNL     1     -33.346  18.756   0.095  1.00 20.00     0.056 C 
HETATM    6  S10 UNL     1     -33.765  18.365  -2.605  1.00 20.00    -0.099 SA
ENDROOT
BRANCH   4   7
HETATM    7  C9  UNL     1     -34.759  16.722  -4.624  1.00 20.00     0.102 C 
HETATM    8 BR11 UNL     1     -33.754  18.074  -5.627  1.00 20.00    -0.085 Br
BRANCH   7   9
HETATM    9  C7  UNL     1     -34.393  15.358  -5.096  1.00 20.00     0.005 A 
HETATM   10  C5  UNL     1     -35.438  14.459  -5.697  1.00 20.00     0.006 A 
HETATM   11  C6  UNL     1     -34.362  15.048  -6.567  1.00 20.00     0.006 A 
ENDBRANCH   7   9
ENDBRANCH   4   7
TORSDOF 2
ENDMDL
MODEL 5
REMARK VINA RESULT:      -4.0      1.576      1.808
REMARK  2 active torsions:
REMARK  status: ('A' for Active; 'I' for Inactive)
REMARK    1  A    between atoms: C4_4  and  C9_9 
REMARK    2  A    between atoms: C7_7  and  C9_9 
ROOT
HETATM    1  C1  UNL     1     -33.486  18.924  -1.658  1.00 20.00     0.015 A 
HETATM    2  C2  UNL     1     -33.715  18.294  -2.915  1.00 20.00     0.017 A 
HETATM    3  C3  UNL     1     -33.921  18.150  -0.604  1.00 20.00    -0.021 A 
HETATM    4  C4  UNL     1     -34.317  17.063  -2.775  1.00 20.00    -0.002 A 
HETATM    5  C8  UNL     1     -33.862  18.448   0.843  1.00 20.00     0.056 C 
HETATM    6  S10 UNL     1     -34.602  16.670  -1.133  1.00 20.00    -0.099 SA
ENDROOT
BRANCH   4   7
HETATM    7  C9  UNL     1     -34.723  16.085  -3.855  1.00 20.00     0.102 C 
HETATM    8 BR11 UNL     1     -33.608  16.380  -5.440  1.00 20.00    -0.085 Br
BRANCH   7   9
HETATM    9  C7  UNL     1     -34.640  14.660  -3.429  1.00 20.00     0.005 A 
HETATM   10  C5  UNL     1     -35.445  13.608  -4.143  1.00 20.00     0.006 A 
HETATM   11  C6  UNL     1     -33.950  13.647  -4.301  1.00 20.00     0.006 A 
ENDBRANCH   7   9
ENDBRANCH   4   7
TORSDOF 2
ENDMDL
MODEL 6
REMARK VINA RESULT:      -4.0      2.610      3.223
REMARK  2 active torsions:
REMARK  status: ('A' for Active; 'I' for Inactive)
REMARK    1  A    between atoms: C4_4  and  C9_9 
REMARK    2  A    between atoms: C7_7  and  C9_9 
ROOT
HETATM    1  C1  UNL     1     -33.846  17.833  -2.834  1.00 20.00     0.015 A 
HETATM    2  C2  UNL     1     -33.784  17.306  -4.157  1.00 20.00     0.017 A 
HETATM    3  C3  UNL     1     -34.310  16.904  -1.929  1.00 20.00    -0.021 A 
HETATM    4  C4  UNL     1     -34.203  15.995  -4.211  1.00 20.00    -0.002 A 
HETATM    5  C8  UNL     1     -34.515  17.062  -0.472  1.00 20.00     0.056 C 
HETATM    6  S10 UNL     1     -34.667  15.404  -2.673  1.00 20.00    -0.099 SA
ENDROOT
BRANCH   4   7
HETATM    7  C9  UNL     1     -34.286  15.082  -5.415  1.00 20.00     0.102 C 
HETATM    8 BR11 UNL     1     -34.694  13.262  -4.813  1.00 20.00    -0.085 Br
BRANCH   7   9
HETATM    9  C7  UNL     1     -35.284  15.523  -6.428  1.00 20.00     0.005 A 
HETATM   10  C5  UNL     1     -34.832  15.980  -7.788  1.00 20.00     0.006 A 
HETATM   11  C6  UNL     1     -35.561  14.674  -7.638  1.00 20.00     0.006 A 
ENDBRANCH   7   9
ENDBRANCH   4   7
TORSDOF 2
ENDMDL
MODEL 7
REMARK VINA RESULT:      -3.9      2.479      5.045
REMARK  2 active torsions:
REMARK  status: ('A' for Active; 'I' for Inactive)
REMARK    1  A    between atoms: C4_4  and  C9_9 
REMARK    2  A    between atoms: C7_7  and  C9_9 
ROOT
HETATM    1  C1  UNL     1     -33.697  15.850  -6.205  1.00 20.00     0.015 A 
HETATM    2  C2  UNL     1     -33.507  16.657  -5.046  1.00 20.00     0.017 A 
HETATM    3  C3  UNL     1     -34.962  15.307  -6.254  1.00 20.00    -0.021 A 
HETATM    4  C4  UNL     1     -34.634  16.700  -4.255  1.00 20.00    -0.002 A 
HETATM    5  C8  UNL     1     -35.544  14.421  -7.287  1.00 20.00     0.056 C 
HETATM    6  S10 UNL     1     -35.914  15.771  -4.909  1.00 20.00    -0.099 SA
ENDROOT
BRANCH   4   7
HETATM    7  C9  UNL     1     -34.841  17.439  -2.951  1.00 20.00     0.102 C 
HETATM    8 BR11 UNL     1     -36.763  17.563  -2.583  1.00 20.00    -0.085 Br
BRANCH   7   9
HETATM    9  C7  UNL     1     -34.138  16.818  -1.796  1.00 20.00     0.005 A 
HETATM   10  C5  UNL     1     -33.506  17.683  -0.739  1.00 20.00     0.006 A 
HETATM   11  C6  UNL     1     -34.738  16.883  -0.419  1.00 20.00     0.006 A 
ENDBRANCH   7   9
ENDBRANCH   4   7
TORSDOF 2
ENDMDL
MODEL 8
REMARK VINA RESULT:      -3.9     13.215     15.386
REMARK  2 active torsions:
REMARK  status: ('A' for Active; 'I' for Inactive)
REMARK    1  A    between atoms: C4_4  and  C9_9 
REMARK    2  A    between atoms: C7_7  and  C9_9 
ROOT
HETATM    1  C1  UNL     1     -41.382   1.734  -3.585  1.00 20.00     0.015 A 
HETATM    2  C2  UNL     1     -41.196   3.039  -3.045  1.00 20.00     0.017 A 
HETATM    3  C3  UNL     1     -42.550   1.153  -3.144  1.00 20.00    -0.021 A 
HETATM    4  C4  UNL     1     -42.229   3.406  -2.211  1.00 20.00    -0.002 A 
HETATM    5  C8  UNL     1     -43.096  -0.182  -3.473  1.00 20.00     0.056 C 
HETATM    6  S10 UNL     1     -43.417   2.180  -2.083  1.00 20.00    -0.099 SA
ENDROOT
BRANCH   4   7
HETATM    7  C9  UNL     1     -42.410   4.700  -1.449  1.00 20.00     0.102 C 
HETATM    8 BR11 UNL     1     -43.082   4.297   0.348  1.00 20.00    -0.085 Br
BRANCH   7   9
HETATM    9  C7  UNL     1     -41.169   5.517  -1.360  1.00 20.00     0.005 A 
HETATM   10  C5  UNL     1     -41.253   7.016  -1.275  1.00 20.00     0.006 A 
HETATM   11  C6  UNL     1     -40.813   6.219  -0.079  1.00 20.00     0.006 A 
ENDBRANCH   7   9
ENDBRANCH   4   7
TORSDOF 2
ENDMDL
MODEL 9
REMARK VINA RESULT:      -3.9      3.046      3.857
REMARK  2 active torsions:
REMARK  status: ('A' for Active; 'I' for Inactive)
REMARK    1  A    between atoms: C4_4  and  C9_9 
REMARK    2  A    between atoms: C7_7  and  C9_9 
ROOT
HETATM    1  C1  UNL     1     -31.854  19.065   1.789  1.00 20.00     0.015 A 
HETATM    2  C2  UNL     1     -32.137  18.848   0.410  1.00 20.00     0.017 A 
HETATM    3  C3  UNL     1     -32.946  18.804   2.588  1.00 20.00    -0.021 A 
HETATM    4  C4  UNL     1     -33.433  18.430   0.207  1.00 20.00    -0.002 A 
HETATM    5  C8  UNL     1     -33.055  18.908   4.059  1.00 20.00     0.056 C 
HETATM    6  S10 UNL     1     -34.303  18.300   1.675  1.00 20.00    -0.099 SA
ENDROOT
BRANCH   4   7
HETATM    7  C9  UNL     1     -34.121  18.094  -1.098  1.00 20.00     0.102 C 
HETATM    8 BR11 UNL     1     -33.425  19.263  -2.510  1.00 20.00    -0.085 Br
BRANCH   7   9
HETATM    9  C7  UNL     1     -33.975  16.667  -1.497  1.00 20.00     0.005 A 
HETATM   10  C5  UNL     1     -35.089  15.967  -2.227  1.00 20.00     0.006 A 
HETATM   11  C6  UNL     1     -33.810  16.298  -2.945  1.00 20.00     0.006 A 
ENDBRANCH   7   9
ENDBRANCH   4   7
TORSDOF 2
ENDMDL
