MODEL 1
REMARK VINA RESULT:      -4.6      0.000      0.000
REMARK  2 active torsions:
REMARK  status: ('A' for Active; 'I' for Inactive)
REMARK    1  A    between atoms: C4_4  and  C10_10 
REMARK    2  A    between atoms: C7_7  and  C10_10 
ROOT
HETATM    1  C1  UNL     1     -34.263  16.897  -1.146  1.00 20.00     0.015 A 
HETATM    2  C2  UNL     1     -34.784  15.901  -2.022  1.00 20.00     0.017 A 
HETATM    3  C3  UNL     1     -33.728  17.963  -1.833  1.00 20.00    -0.021 A 
HETATM    4  C4  UNL     1     -34.628  16.245  -3.346  1.00 20.00    -0.002 A 
HETATM    5  C8  UNL     1     -33.096  19.186  -1.291  1.00 20.00     0.056 C 
HETATM    6  S11 UNL     1     -33.855  17.763  -3.529  1.00 20.00    -0.099 SA
ENDROOT
BRANCH   4   7
HETATM    7  C10 UNL     1     -35.043  15.469  -4.576  1.00 20.00     0.102 C 
HETATM    8 BR12 UNL     1     -34.811  13.554  -4.230  1.00 20.00    -0.085 Br
BRANCH   7   9
HETATM    9  C7  UNL     1     -34.307  15.869  -5.808  1.00 20.00     0.009 A 
HETATM   10  C5  UNL     1     -34.399  15.027  -7.053  1.00 20.00     0.011 A 
HETATM   11  C6  UNL     1     -35.062  16.379  -7.007  1.00 20.00    -0.013 A 
HETATM   12  C9  UNL     1     -34.515  17.508  -7.811  1.00 20.00     0.010 C 
ENDBRANCH   7   9
ENDBRANCH   4   7
TORSDOF 2
ENDMDL
MODEL 2
REMARK VINA RESULT:      -4.5      2.109      2.842
REMARK  2 active torsions:
REMARK  status: ('A' for Active; 'I' for Inactive)
REMARK    1  A    between atoms: C4_4  and  C10_10 
REMARK    2  A    between atoms: C7_7  and  C10_10 
ROOT
HETATM    1  C1  UNL     1     -34.792  17.016  -0.050  1.00 20.00     0.015 A 
HETATM    2  C2  UNL     1     -34.735  16.423  -1.344  1.00 20.00     0.017 A 
HETATM    3  C3  UNL     1     -34.061  18.181   0.018  1.00 20.00    -0.021 A 
HETATM    4  C4  UNL     1     -33.962  17.157  -2.216  1.00 20.00    -0.002 A 
HETATM    5  C8  UNL     1     -33.871  19.083   1.175  1.00 20.00     0.056 C 
HETATM    6  S11 UNL     1     -33.309  18.556  -1.474  1.00 20.00    -0.099 SA
ENDROOT
BRANCH   4   7
HETATM    7  C10 UNL     1     -33.652  16.872  -3.669  1.00 20.00     0.102 C 
HETATM    8 BR12 UNL     1     -33.719  18.552  -4.676  1.00 20.00    -0.085 Br
BRANCH   7   9
HETATM    9  C7  UNL     1     -34.556  15.860  -4.282  1.00 20.00     0.009 A 
HETATM   10  C5  UNL     1     -34.312  15.379  -5.688  1.00 20.00     0.011 A 
HETATM   11  C6  UNL     1     -34.065  14.456  -4.524  1.00 20.00    -0.013 A 
HETATM   12  C9  UNL     1     -34.969  13.297  -4.284  1.00 20.00     0.010 C 
ENDBRANCH   7   9
ENDBRANCH   4   7
TORSDOF 2
ENDMDL
MODEL 3
REMARK VINA RESULT:      -4.4      2.934      5.840
REMARK  2 active torsions:
REMARK  status: ('A' for Active; 'I' for Inactive)
REMARK    1  A    between atoms: C4_4  and  C10_10 
REMARK    2  A    between atoms: C7_7  and  C10_10 
ROOT
HETATM    1  C1  UNL     1     -33.309  14.855  -3.806  1.00 20.00     0.015 A 
HETATM    2  C2  UNL     1     -33.432  15.916  -2.864  1.00 20.00     0.017 A 
HETATM    3  C3  UNL     1     -34.532  14.334  -4.162  1.00 20.00    -0.021 A 
HETATM    4  C4  UNL     1     -34.745  16.166  -2.535  1.00 20.00    -0.002 A 
HETATM    5  C8  UNL     1     -34.826  13.233  -5.105  1.00 20.00     0.056 C 
HETATM    6  S11 UNL     1     -35.824  15.123  -3.361  1.00 20.00    -0.099 SA
ENDROOT
BRANCH   4   7
HETATM    7  C10 UNL     1     -35.297  17.201  -1.579  1.00 20.00     0.102 C 
HETATM    8 BR12 UNL     1     -35.007  18.985  -2.335  1.00 20.00    -0.085 Br
BRANCH   7   9
HETATM    9  C7  UNL     1     -34.717  17.114  -0.210  1.00 20.00     0.009 A 
HETATM   10  C5  UNL     1     -33.869  18.237   0.327  1.00 20.00     0.011 A 
HETATM   11  C6  UNL     1     -35.245  17.996   0.891  1.00 20.00    -0.013 A 
HETATM   12  C9  UNL     1     -35.403  17.457   2.271  1.00 20.00     0.010 C 
ENDBRANCH   7   9
ENDBRANCH   4   7
TORSDOF 2
ENDMDL
MODEL 4
REMARK VINA RESULT:      -4.3      2.040      2.386
REMARK  2 active torsions:
REMARK  status: ('A' for Active; 'I' for Inactive)
REMARK    1  A    between atoms: C4_4  and  C10_10 
REMARK    2  A    between atoms: C7_7  and  C10_10 
ROOT
HETATM    1  C1  UNL     1     -34.597  16.247  -1.320  1.00 20.00     0.015 A 
HETATM    2  C2  UNL     1     -34.433  16.032  -2.719  1.00 20.00     0.017 A 
HETATM    3  C3  UNL     1     -34.251  17.526  -0.948  1.00 20.00    -0.021 A 
HETATM    4  C4  UNL     1     -33.967  17.157  -3.363  1.00 20.00    -0.002 A 
HETATM    5  C8  UNL     1     -34.282  18.134   0.400  1.00 20.00     0.056 C 
HETATM    6  S11 UNL     1     -33.730  18.464  -2.283  1.00 20.00    -0.099 SA
ENDROOT
BRANCH   4   7
HETATM    7  C10 UNL     1     -33.663  17.342  -4.833  1.00 20.00     0.102 C 
HETATM    8 BR12 UNL     1     -33.566  19.259  -5.227  1.00 20.00    -0.085 Br
BRANCH   7   9
HETATM    9  C7  UNL     1     -34.646  16.674  -5.732  1.00 20.00     0.009 A 
HETATM   10  C5  UNL     1     -34.654  16.980  -7.206  1.00 20.00     0.011 A 
HETATM   11  C6  UNL     1     -34.181  15.636  -6.720  1.00 20.00    -0.013 A 
HETATM   12  C9  UNL     1     -35.004  14.419  -6.967  1.00 20.00     0.010 C 
ENDBRANCH   7   9
ENDBRANCH   4   7
TORSDOF 2
ENDMDL
MODEL 5
REMARK VINA RESULT:      -4.2      1.250      1.330
REMARK  2 active torsions:
REMARK  status: ('A' for Active; 'I' for Inactive)
REMARK    1  A    between atoms: C4_4  and  C10_10 
REMARK    2  A    between atoms: C7_7  and  C10_10 
ROOT
HETATM    1  C1  UNL     1     -34.493  16.657  -1.289  1.00 20.00     0.015 A 
HETATM    2  C2  UNL     1     -34.294  15.776  -2.391  1.00 20.00     0.017 A 
HETATM    3  C3  UNL     1     -35.554  17.510  -1.492  1.00 20.00    -0.021 A 
HETATM    4  C4  UNL     1     -35.212  15.989  -3.395  1.00 20.00    -0.002 A 
HETATM    5  C8  UNL     1     -36.076  18.563  -0.593  1.00 20.00     0.056 C 
HETATM    6  S11 UNL     1     -36.308  17.248  -3.008  1.00 20.00    -0.099 SA
ENDROOT
BRANCH   4   7
HETATM    7  C10 UNL     1     -35.343  15.271  -4.720  1.00 20.00     0.102 C 
HETATM    8 BR12 UNL     1     -34.948  13.370  -4.456  1.00 20.00    -0.085 Br
BRANCH   7   9
HETATM    9  C7  UNL     1     -34.478  15.840  -5.791  1.00 20.00     0.009 A 
HETATM   10  C5  UNL     1     -34.302  15.102  -7.093  1.00 20.00     0.011 A 
HETATM   11  C6  UNL     1     -35.098  16.380  -7.054  1.00 20.00    -0.013 A 
HETATM   12  C9  UNL     1     -34.556  17.618  -7.681  1.00 20.00     0.010 C 
ENDBRANCH   7   9
ENDBRANCH   4   7
TORSDOF 2
ENDMDL
MODEL 6
REMARK VINA RESULT:      -4.1      1.858      5.233
REMARK  2 active torsions:
REMARK  status: ('A' for Active; 'I' for Inactive)
REMARK    1  A    between atoms: C4_4  and  C10_10 
REMARK    2  A    between atoms: C7_7  and  C10_10 
ROOT
HETATM    1  C1  UNL     1     -35.587  14.780  -7.918  1.00 20.00     0.015 A 
HETATM    2  C2  UNL     1     -34.464  14.884  -7.047  1.00 20.00     0.017 A 
HETATM    3  C3  UNL     1     -36.771  15.058  -7.272  1.00 20.00    -0.021 A 
HETATM    4  C4  UNL     1     -34.833  15.238  -5.768  1.00 20.00    -0.002 A 
HETATM    5  C8  UNL     1     -38.144  15.058  -7.824  1.00 20.00     0.056 C 
HETATM    6  S11 UNL     1     -36.527  15.443  -5.621  1.00 20.00    -0.099 SA
ENDROOT
BRANCH   4   7
HETATM    7  C10 UNL     1     -33.950  15.450  -4.558  1.00 20.00     0.102 C 
HETATM    8 BR12 UNL     1     -33.497  13.707  -3.786  1.00 20.00    -0.085 Br
BRANCH   7   9
HETATM    9  C7  UNL     1     -34.560  16.335  -3.527  1.00 20.00     0.009 A 
HETATM   10  C5  UNL     1     -34.871  15.797  -2.155  1.00 20.00     0.011 A 
HETATM   11  C6  UNL     1     -33.747  16.783  -2.340  1.00 20.00    -0.013 A 
HETATM   12  C9  UNL     1     -33.881  18.174  -1.825  1.00 20.00     0.010 C 
ENDBRANCH   7   9
ENDBRANCH   4   7
TORSDOF 2
ENDMDL
MODEL 7
REMARK VINA RESULT:      -4.1      2.749      3.665
REMARK  2 active torsions:
REMARK  status: ('A' for Active; 'I' for Inactive)
REMARK    1  A    between atoms: C4_4  and  C10_10 
REMARK    2  A    between atoms: C7_7  and  C10_10 
ROOT
HETATM    1  C1  UNL     1     -32.871  19.095   0.047  1.00 20.00     0.015 A 
HETATM    2  C2  UNL     1     -33.093  18.714  -1.308  1.00 20.00     0.017 A 
HETATM    3  C3  UNL     1     -33.731  18.458   0.913  1.00 20.00    -0.021 A 
HETATM    4  C4  UNL     1     -34.116  17.799  -1.425  1.00 20.00    -0.002 A 
HETATM    5  C8  UNL     1     -33.818  18.584   2.384  1.00 20.00     0.056 C 
HETATM    6  S11 UNL     1     -34.803  17.404   0.093  1.00 20.00    -0.099 SA
ENDROOT
BRANCH   4   7
HETATM    7  C10 UNL     1     -34.660  17.149  -2.679  1.00 20.00     0.102 C 
HETATM    8 BR12 UNL     1     -36.494  17.771  -2.975  1.00 20.00    -0.085 Br
BRANCH   7   9
HETATM    9  C7  UNL     1     -34.612  15.661  -2.645  1.00 20.00     0.009 A 
HETATM   10  C5  UNL     1     -35.638  14.853  -3.395  1.00 20.00     0.011 A 
HETATM   11  C6  UNL     1     -34.211  14.890  -3.876  1.00 20.00    -0.013 A 
HETATM   12  C9  UNL     1     -33.348  13.681  -3.752  1.00 20.00     0.010 C 
ENDBRANCH   7   9
ENDBRANCH   4   7
TORSDOF 2
ENDMDL
MODEL 8
REMARK VINA RESULT:      -4.0      2.236      2.944
REMARK  2 active torsions:
REMARK  status: ('A' for Active; 'I' for Inactive)
REMARK    1  A    between atoms: C4_4  and  C10_10 
REMARK    2  A    between atoms: C7_7  and  C10_10 
ROOT
HETATM    1  C1  UNL     1     -34.918  17.291  -0.168  1.00 20.00     0.015 A 
HETATM    2  C2  UNL     1     -34.119  16.732  -1.207  1.00 20.00     0.017 A 
HETATM    3  C3  UNL     1     -35.870  18.158  -0.655  1.00 20.00    -0.021 A 
HETATM    4  C4  UNL     1     -34.491  17.194  -2.450  1.00 20.00    -0.002 A 
HETATM    5  C8  UNL     1     -36.882  18.932   0.095  1.00 20.00     0.056 C 
HETATM    6  S11 UNL     1     -35.799  18.297  -2.361  1.00 20.00    -0.099 SA
ENDROOT
BRANCH   4   7
HETATM    7  C10 UNL     1     -33.901  16.848  -3.799  1.00 20.00     0.102 C 
HETATM    8 BR12 UNL     1     -33.756  18.483  -4.869  1.00 20.00    -0.085 Br
BRANCH   7   9
HETATM    9  C7  UNL     1     -34.672  15.808  -4.536  1.00 20.00     0.009 A 
HETATM   10  C5  UNL     1     -34.242  15.382  -5.915  1.00 20.00     0.011 A 
HETATM   11  C6  UNL     1     -34.080  14.440  -4.751  1.00 20.00    -0.013 A 
HETATM   12  C9  UNL     1     -34.940  13.228  -4.644  1.00 20.00     0.010 C 
ENDBRANCH   7   9
ENDBRANCH   4   7
TORSDOF 2
ENDMDL
MODEL 9
REMARK VINA RESULT:      -4.0      3.140      6.214
REMARK  2 active torsions:
REMARK  status: ('A' for Active; 'I' for Inactive)
REMARK    1  A    between atoms: C4_4  and  C10_10 
REMARK    2  A    between atoms: C7_7  and  C10_10 
ROOT
HETATM    1  C1  UNL     1     -34.285  15.768  -2.854  1.00 20.00     0.015 A 
HETATM    2  C2  UNL     1     -34.410  16.285  -1.532  1.00 20.00     0.017 A 
HETATM    3  C3  UNL     1     -33.912  16.737  -3.757  1.00 20.00    -0.021 A 
HETATM    4  C4  UNL     1     -34.126  17.632  -1.476  1.00 20.00    -0.002 A 
HETATM    5  C8  UNL     1     -33.680  16.602  -5.212  1.00 20.00     0.056 C 
HETATM    6  S11 UNL     1     -33.712  18.267  -3.012  1.00 20.00    -0.099 SA
ENDROOT
BRANCH   4   7
HETATM    7  C10 UNL     1     -34.142  18.548  -0.272  1.00 20.00     0.102 C 
HETATM    8 BR12 UNL     1     -32.296  18.952   0.246  1.00 20.00    -0.085 Br
BRANCH   7   9
HETATM    9  C7  UNL     1     -34.900  17.995   0.885  1.00 20.00     0.009 A 
HETATM   10  C5  UNL     1     -34.450  18.284   2.293  1.00 20.00     0.011 A 
HETATM   11  C6  UNL     1     -35.713  18.912   1.763  1.00 20.00    -0.013 A 
HETATM   12  C9  UNL     1     -37.040  18.471   2.277  1.00 20.00     0.010 C 
ENDBRANCH   7   9
ENDBRANCH   4   7
TORSDOF 2
ENDMDL
