MODEL 1
REMARK VINA RESULT:      -4.5      0.000      0.000
REMARK  2 active torsions:
REMARK  status: ('A' for Active; 'I' for Inactive)
REMARK    1  A    between atoms: C4_4  and  C10_10 
REMARK    2  A    between atoms: C7_7  and  C10_10 
ROOT
HETATM    1  C1  UNL     1     -35.252  15.257  -7.150  1.00 20.00     0.015 A 
HETATM    2  C2  UNL     1     -34.353  15.099  -6.055  1.00 20.00     0.017 A 
HETATM    3  C3  UNL     1     -36.569  15.165  -6.754  1.00 20.00    -0.021 A 
HETATM    4  C4  UNL     1     -35.017  14.894  -4.866  1.00 20.00     0.002 A 
HETATM    5  C8  UNL     1     -37.789  15.273  -7.584  1.00 20.00     0.056 C 
HETATM    6  S11 UNL     1     -36.716  14.890  -5.070  1.00 20.00    -0.098 SA
ENDROOT
BRANCH   4   7
HETATM    7  C10 UNL     1     -34.427  14.683  -3.474  1.00 20.00     0.126 C 
HETATM    8 CL12 UNL     1     -33.018  13.571  -3.621  1.00 20.00    -0.119 Cl
BRANCH   7   9
HETATM    9  C7  UNL     1     -34.049  15.931  -2.755  1.00 20.00     0.013 A 
HETATM   10  C5  UNL     1     -34.803  17.209  -3.010  1.00 20.00     0.011 A 
HETATM   11  C6  UNL     1     -34.956  16.496  -1.693  1.00 20.00    -0.012 A 
HETATM   12  C9  UNL     1     -34.377  17.083  -0.452  1.00 20.00     0.010 C 
ENDBRANCH   7   9
ENDBRANCH   4   7
TORSDOF 2
ENDMDL
MODEL 2
REMARK VINA RESULT:      -4.3      1.795      5.128
REMARK  2 active torsions:
REMARK  status: ('A' for Active; 'I' for Inactive)
REMARK    1  A    between atoms: C4_4  and  C10_10 
REMARK    2  A    between atoms: C7_7  and  C10_10 
ROOT
HETATM    1  C1  UNL     1     -34.793  16.763  -0.955  1.00 20.00     0.015 A 
HETATM    2  C2  UNL     1     -34.669  15.729  -1.929  1.00 20.00     0.017 A 
HETATM    3  C3  UNL     1     -34.293  17.963  -1.409  1.00 20.00    -0.021 A 
HETATM    4  C4  UNL     1     -34.079  16.180  -3.089  1.00 20.00     0.002 A 
HETATM    5  C8  UNL     1     -34.237  19.263  -0.705  1.00 20.00     0.056 C 
HETATM    6  S11 UNL     1     -33.676  17.841  -3.002  1.00 20.00    -0.098 SA
ENDROOT
BRANCH   4   7
HETATM    7  C10 UNL     1     -33.768  15.397  -4.362  1.00 20.00     0.126 C 
HETATM    8 CL12 UNL     1     -33.496  13.674  -3.911  1.00 20.00    -0.119 Cl
BRANCH   7   9
HETATM    9  C7  UNL     1     -34.792  15.512  -5.437  1.00 20.00     0.013 A 
HETATM   10  C5  UNL     1     -34.703  16.621  -6.452  1.00 20.00     0.011 A 
HETATM   11  C6  UNL     1     -34.427  15.200  -6.865  1.00 20.00    -0.012 A 
HETATM   12  C9  UNL     1     -35.390  14.474  -7.741  1.00 20.00     0.010 C 
ENDBRANCH   7   9
ENDBRANCH   4   7
TORSDOF 2
ENDMDL
MODEL 3
REMARK VINA RESULT:      -4.3      1.735      1.866
REMARK  2 active torsions:
REMARK  status: ('A' for Active; 'I' for Inactive)
REMARK    1  A    between atoms: C4_4  and  C10_10 
REMARK    2  A    between atoms: C7_7  and  C10_10 
ROOT
HETATM    1  C1  UNL     1     -35.503  14.464  -7.099  1.00 20.00     0.015 A 
HETATM    2  C2  UNL     1     -34.428  14.887  -6.264  1.00 20.00     0.017 A 
HETATM    3  C3  UNL     1     -36.630  15.236  -6.921  1.00 20.00    -0.021 A 
HETATM    4  C4  UNL     1     -34.775  15.966  -5.481  1.00 20.00     0.002 A 
HETATM    5  C8  UNL     1     -37.942  15.119  -7.595  1.00 20.00     0.056 C 
HETATM    6  S11 UNL     1     -36.390  16.465  -5.753  1.00 20.00    -0.098 SA
ENDROOT
BRANCH   4   7
HETATM    7  C10 UNL     1     -33.919  16.714  -4.462  1.00 20.00     0.126 C 
HETATM    8 CL12 UNL     1     -33.414  18.281  -5.193  1.00 20.00    -0.119 Cl
BRANCH   7   9
HETATM    9  C7  UNL     1     -34.561  16.926  -3.136  1.00 20.00     0.013 A 
HETATM   10  C5  UNL     1     -34.888  15.748  -2.256  1.00 20.00     0.011 A 
HETATM   11  C6  UNL     1     -33.778  16.689  -1.870  1.00 20.00    -0.012 A 
HETATM   12  C9  UNL     1     -33.944  17.606  -0.707  1.00 20.00     0.010 C 
ENDBRANCH   7   9
ENDBRANCH   4   7
TORSDOF 2
ENDMDL
MODEL 4
REMARK VINA RESULT:      -4.2      2.129      2.726
REMARK  2 active torsions:
REMARK  status: ('A' for Active; 'I' for Inactive)
REMARK    1  A    between atoms: C4_4  and  C10_10 
REMARK    2  A    between atoms: C7_7  and  C10_10 
ROOT
HETATM    1  C1  UNL     1     -34.650  13.967  -4.747  1.00 20.00     0.015 A 
HETATM    2  C2  UNL     1     -34.742  14.690  -3.522  1.00 20.00     0.017 A 
HETATM    3  C3  UNL     1     -35.073  14.716  -5.822  1.00 20.00    -0.021 A 
HETATM    4  C4  UNL     1     -35.232  15.964  -3.709  1.00 20.00     0.002 A 
HETATM    5  C8  UNL     1     -35.131  14.329  -7.249  1.00 20.00     0.056 C 
HETATM    6  S11 UNL     1     -35.579  16.284  -5.354  1.00 20.00    -0.098 SA
ENDROOT
BRANCH   4   7
HETATM    7  C10 UNL     1     -35.480  17.048  -2.664  1.00 20.00     0.126 C 
HETATM    8 CL12 UNL     1     -37.255  17.348  -2.573  1.00 20.00    -0.119 Cl
BRANCH   7   9
HETATM    9  C7  UNL     1     -34.918  16.763  -1.315  1.00 20.00     0.013 A 
HETATM   10  C5  UNL     1     -33.609  17.378  -0.895  1.00 20.00     0.011 A 
HETATM   11  C6  UNL     1     -34.894  17.840  -0.262  1.00 20.00    -0.012 A 
HETATM   12  C9  UNL     1     -35.193  17.504   1.158  1.00 20.00     0.010 C 
ENDBRANCH   7   9
ENDBRANCH   4   7
TORSDOF 2
ENDMDL
MODEL 5
REMARK VINA RESULT:      -4.2      2.104      5.073
REMARK  2 active torsions:
REMARK  status: ('A' for Active; 'I' for Inactive)
REMARK    1  A    between atoms: C4_4  and  C10_10 
REMARK    2  A    between atoms: C7_7  and  C10_10 
ROOT
HETATM    1  C1  UNL     1     -34.521  17.003  -1.014  1.00 20.00     0.015 A 
HETATM    2  C2  UNL     1     -34.464  15.933  -1.955  1.00 20.00     0.017 A 
HETATM    3  C3  UNL     1     -35.568  17.861  -1.271  1.00 20.00    -0.021 A 
HETATM    4  C4  UNL     1     -35.469  16.015  -2.893  1.00 20.00     0.002 A 
HETATM    5  C8  UNL     1     -35.962  19.080  -0.531  1.00 20.00     0.056 C 
HETATM    6  S11 UNL     1     -36.476  17.376  -2.640  1.00 20.00    -0.098 SA
ENDROOT
BRANCH   4   7
HETATM    7  C10 UNL     1     -35.758  15.074  -4.060  1.00 20.00     0.126 C 
HETATM    8 CL12 UNL     1     -37.494  14.598  -3.984  1.00 20.00    -0.119 Cl
BRANCH   7   9
HETATM    9  C7  UNL     1     -35.410  15.612  -5.403  1.00 20.00     0.013 A 
HETATM   10  C5  UNL     1     -33.989  15.999  -5.720  1.00 20.00     0.011 A 
HETATM   11  C6  UNL     1     -34.599  14.783  -6.364  1.00 20.00    -0.012 A 
HETATM   12  C9  UNL     1     -34.925  14.790  -7.818  1.00 20.00     0.010 C 
ENDBRANCH   7   9
ENDBRANCH   4   7
TORSDOF 2
ENDMDL
MODEL 6
REMARK VINA RESULT:      -4.2      2.523      5.568
REMARK  2 active torsions:
REMARK  status: ('A' for Active; 'I' for Inactive)
REMARK    1  A    between atoms: C4_4  and  C10_10 
REMARK    2  A    between atoms: C7_7  and  C10_10 
ROOT
HETATM    1  C1  UNL     1     -34.421  16.677  -0.876  1.00 20.00     0.015 A 
HETATM    2  C2  UNL     1     -35.138  16.200  -2.012  1.00 20.00     0.017 A 
HETATM    3  C3  UNL     1     -33.677  17.798  -1.168  1.00 20.00    -0.021 A 
HETATM    4  C4  UNL     1     -34.914  16.976  -3.128  1.00 20.00     0.002 A 
HETATM    5  C8  UNL     1     -32.804  18.584  -0.268  1.00 20.00     0.056 C 
HETATM    6  S11 UNL     1     -33.843  18.272  -2.805  1.00 20.00    -0.098 SA
ENDROOT
BRANCH   4   7
HETATM    7  C10 UNL     1     -35.488  16.807  -4.533  1.00 20.00     0.126 C 
HETATM    8 CL12 UNL     1     -35.817  18.445  -5.207  1.00 20.00    -0.119 Cl
BRANCH   7   9
HETATM    9  C7  UNL     1     -34.647  16.006  -5.464  1.00 20.00     0.013 A 
HETATM   10  C5  UNL     1     -34.430  14.536  -5.215  1.00 20.00     0.011 A 
HETATM   11  C6  UNL     1     -35.284  14.985  -6.371  1.00 20.00    -0.012 A 
HETATM   12  C9  UNL     1     -34.797  14.821  -7.769  1.00 20.00     0.010 C 
ENDBRANCH   7   9
ENDBRANCH   4   7
TORSDOF 2
ENDMDL
MODEL 7
REMARK VINA RESULT:      -4.1      1.060      1.468
REMARK  2 active torsions:
REMARK  status: ('A' for Active; 'I' for Inactive)
REMARK    1  A    between atoms: C4_4  and  C10_10 
REMARK    2  A    between atoms: C7_7  and  C10_10 
ROOT
HETATM    1  C1  UNL     1     -37.714  15.118  -5.314  1.00 20.00     0.015 A 
HETATM    2  C2  UNL     1     -37.051  14.978  -4.060  1.00 20.00     0.017 A 
HETATM    3  C3  UNL     1     -36.826  15.127  -6.368  1.00 20.00    -0.021 A 
HETATM    4  C4  UNL     1     -35.685  14.885  -4.204  1.00 20.00     0.002 A 
HETATM    5  C8  UNL     1     -37.116  15.252  -7.814  1.00 20.00     0.056 C 
HETATM    6  S11 UNL     1     -35.204  14.967  -5.844  1.00 20.00    -0.098 SA
ENDROOT
BRANCH   4   7
HETATM    7  C10 UNL     1     -34.624  14.726  -3.117  1.00 20.00     0.126 C 
HETATM    8 CL12 UNL     1     -33.284  13.722  -3.781  1.00 20.00    -0.119 Cl
BRANCH   7   9
HETATM    9  C7  UNL     1     -34.105  16.002  -2.552  1.00 20.00     0.013 A 
HETATM   10  C5  UNL     1     -34.814  17.300  -2.838  1.00 20.00     0.011 A 
HETATM   11  C6  UNL     1     -34.861  16.707  -1.456  1.00 20.00    -0.012 A 
HETATM   12  C9  UNL     1     -34.122  17.355  -0.337  1.00 20.00     0.010 C 
ENDBRANCH   7   9
ENDBRANCH   4   7
TORSDOF 2
ENDMDL
MODEL 8
REMARK VINA RESULT:      -4.1      3.066      5.717
REMARK  2 active torsions:
REMARK  status: ('A' for Active; 'I' for Inactive)
REMARK    1  A    between atoms: C4_4  and  C10_10 
REMARK    2  A    between atoms: C7_7  and  C10_10 
ROOT
HETATM    1  C1  UNL     1     -33.150  18.876  -1.221  1.00 20.00     0.015 A 
HETATM    2  C2  UNL     1     -33.716  18.089  -2.266  1.00 20.00     0.017 A 
HETATM    3  C3  UNL     1     -33.614  18.496   0.020  1.00 20.00    -0.021 A 
HETATM    4  C4  UNL     1     -34.590  17.140  -1.784  1.00 20.00     0.002 A 
HETATM    5  C8  UNL     1     -33.270  19.061   1.343  1.00 20.00     0.056 C 
HETATM    6  S11 UNL     1     -34.727  17.199  -0.079  1.00 20.00    -0.098 SA
ENDROOT
BRANCH   4   7
HETATM    7  C10 UNL     1     -35.397  16.108  -2.568  1.00 20.00     0.126 C 
HETATM    8 CL12 UNL     1     -36.887  16.910  -3.188  1.00 20.00    -0.119 Cl
BRANCH   7   9
HETATM    9  C7  UNL     1     -34.656  15.434  -3.670  1.00 20.00     0.013 A 
HETATM   10  C5  UNL     1     -33.352  14.736  -3.388  1.00 20.00     0.011 A 
HETATM   11  C6  UNL     1     -34.579  13.931  -3.720  1.00 20.00    -0.012 A 
HETATM   12  C9  UNL     1     -34.678  13.221  -5.026  1.00 20.00     0.010 C 
ENDBRANCH   7   9
ENDBRANCH   4   7
TORSDOF 2
ENDMDL
MODEL 9
REMARK VINA RESULT:      -4.1      2.417      5.482
REMARK  2 active torsions:
REMARK  status: ('A' for Active; 'I' for Inactive)
REMARK    1  A    between atoms: C4_4  and  C10_10 
REMARK    2  A    between atoms: C7_7  and  C10_10 
ROOT
HETATM    1  C1  UNL     1     -34.972  17.441   0.400  1.00 20.00     0.015 A 
HETATM    2  C2  UNL     1     -34.549  16.713  -0.751  1.00 20.00     0.017 A 
HETATM    3  C3  UNL     1     -35.980  18.332   0.105  1.00 20.00    -0.021 A 
HETATM    4  C4  UNL     1     -35.250  17.076  -1.879  1.00 20.00     0.002 A 
HETATM    5  C8  UNL     1     -36.681  19.263   1.017  1.00 20.00     0.056 C 
HETATM    6  S11 UNL     1     -36.412  18.290  -1.551  1.00 20.00    -0.098 SA
ENDROOT
BRANCH   4   7
HETATM    7  C10 UNL     1     -35.105  16.540  -3.301  1.00 20.00     0.126 C 
HETATM    8 CL12 UNL     1     -33.502  17.059  -3.939  1.00 20.00    -0.119 Cl
BRANCH   7   9
HETATM    9  C7  UNL     1     -35.283  15.068  -3.440  1.00 20.00     0.013 A 
HETATM   10  C5  UNL     1     -36.589  14.507  -3.938  1.00 20.00     0.011 A 
HETATM   11  C6  UNL     1     -35.362  14.441  -4.807  1.00 20.00    -0.012 A 
HETATM   12  C9  UNL     1     -34.699  13.133  -5.069  1.00 20.00     0.010 C 
ENDBRANCH   7   9
ENDBRANCH   4   7
TORSDOF 2
ENDMDL
