MODEL 1
REMARK VINA RESULT:      -4.2      0.000      0.000
REMARK  2 active torsions:
REMARK  status: ('A' for Active; 'I' for Inactive)
REMARK    1  A    between atoms: C3_3  and  C8_8 
REMARK    2  A    between atoms: C7_7  and  C8_8 
ROOT
HETATM    1  C1  UNL     1     -35.016  16.120  -1.726  1.00 20.00     0.018 A 
HETATM    2  C2  UNL     1     -34.413  17.017  -0.797  1.00 20.00     0.032 A 
HETATM    3  C3  UNL     1     -34.706  16.440  -3.029  1.00 20.00    -0.001 A 
HETATM    4  C4  UNL     1     -33.666  17.988  -1.426  1.00 20.00     0.075 A 
HETATM    5  S9  UNL     1     -33.694  17.818  -3.129  1.00 20.00    -0.081 SA
HETATM    6 CL10 UNL     1     -32.778  19.263  -0.703  1.00 20.00    -0.076 Cl
ENDROOT
BRANCH   3   7
HETATM    7  C8  UNL     1     -35.142  15.743  -4.298  1.00 20.00     0.102 C 
HETATM    8 BR11 UNL     1     -35.414  17.081  -5.704  1.00 20.00    -0.085 Br
BRANCH   7   9
HETATM    9  C7  UNL     1     -34.187  14.699  -4.763  1.00 20.00     0.005 A 
HETATM   10  C5  UNL     1     -33.670  13.664  -3.803  1.00 20.00     0.006 A 
HETATM   11  C6  UNL     1     -34.632  13.268  -4.888  1.00 20.00     0.006 A 
ENDBRANCH   7   9
ENDBRANCH   3   7
TORSDOF 2
ENDMDL
MODEL 2
REMARK VINA RESULT:      -4.0      1.722      1.783
REMARK  2 active torsions:
REMARK  status: ('A' for Active; 'I' for Inactive)
REMARK    1  A    between atoms: C3_3  and  C8_8 
REMARK    2  A    between atoms: C7_7  and  C8_8 
ROOT
HETATM    1  C1  UNL     1     -34.098  16.306  -1.908  1.00 20.00     0.018 A 
HETATM    2  C2  UNL     1     -34.546  16.931  -0.709  1.00 20.00     0.032 A 
HETATM    3  C3  UNL     1     -34.923  16.584  -2.975  1.00 20.00    -0.001 A 
HETATM    4  C4  UNL     1     -35.697  17.662  -0.904  1.00 20.00     0.075 A 
HETATM    5  S9  UNL     1     -36.233  17.593  -2.529  1.00 20.00    -0.081 SA
HETATM    6 CL10 UNL     1     -36.576  18.568   0.254  1.00 20.00    -0.076 Cl
ENDROOT
BRANCH   3   7
HETATM    7  C8  UNL     1     -34.798  16.117  -4.408  1.00 20.00     0.102 C 
HETATM    8 BR11 UNL     1     -33.634  17.353  -5.387  1.00 20.00    -0.085 Br
BRANCH   7   9
HETATM    9  C7  UNL     1     -34.289  14.723  -4.538  1.00 20.00     0.005 A 
HETATM   10  C5  UNL     1     -35.144  13.562  -4.111  1.00 20.00     0.006 A 
HETATM   11  C6  UNL     1     -34.872  13.798  -5.570  1.00 20.00     0.006 A 
ENDBRANCH   7   9
ENDBRANCH   3   7
TORSDOF 2
ENDMDL
MODEL 3
REMARK VINA RESULT:      -4.0      1.325      1.546
REMARK  2 active torsions:
REMARK  status: ('A' for Active; 'I' for Inactive)
REMARK    1  A    between atoms: C3_3  and  C8_8 
REMARK    2  A    between atoms: C7_7  and  C8_8 
ROOT
HETATM    1  C1  UNL     1     -34.948  15.865  -2.662  1.00 20.00     0.018 A 
HETATM    2  C2  UNL     1     -34.646  16.272  -1.331  1.00 20.00     0.032 A 
HETATM    3  C3  UNL     1     -34.532  16.792  -3.593  1.00 20.00    -0.001 A 
HETATM    4  C4  UNL     1     -34.013  17.495  -1.294  1.00 20.00     0.075 A 
HETATM    5  S9  UNL     1     -33.784  18.147  -2.860  1.00 20.00    -0.081 SA
HETATM    6 CL10 UNL     1     -33.473  18.358   0.085  1.00 20.00    -0.076 Cl
ENDROOT
BRANCH   3   7
HETATM    7  C8  UNL     1     -34.664  16.738  -5.098  1.00 20.00     0.102 C 
HETATM    8 BR11 UNL     1     -33.892  18.366  -5.869  1.00 20.00    -0.085 Br
BRANCH   7   9
HETATM    9  C7  UNL     1     -34.033  15.534  -5.708  1.00 20.00     0.005 A 
HETATM   10  C5  UNL     1     -34.822  14.264  -5.866  1.00 20.00     0.006 A 
HETATM   11  C6  UNL     1     -34.451  15.073  -7.077  1.00 20.00     0.006 A 
ENDBRANCH   7   9
ENDBRANCH   3   7
TORSDOF 2
ENDMDL
MODEL 4
REMARK VINA RESULT:      -4.0      3.824      5.089
REMARK  2 active torsions:
REMARK  status: ('A' for Active; 'I' for Inactive)
REMARK    1  A    between atoms: C3_3  and  C8_8 
REMARK    2  A    between atoms: C7_7  and  C8_8 
ROOT
HETATM    1  C1  UNL     1     -34.432  14.807  -7.229  1.00 20.00     0.018 A 
HETATM    2  C2  UNL     1     -35.675  14.525  -7.866  1.00 20.00     0.032 A 
HETATM    3  C3  UNL     1     -34.584  15.648  -6.149  1.00 20.00    -0.001 A 
HETATM    4  C4  UNL     1     -36.729  15.161  -7.250  1.00 20.00     0.075 A 
HETATM    5  S9  UNL     1     -36.220  16.095  -5.908  1.00 20.00    -0.081 SA
HETATM    6 CL10 UNL     1     -38.388  15.105  -7.679  1.00 20.00    -0.076 Cl
ENDROOT
BRANCH   3   7
HETATM    7  C8  UNL     1     -33.522  16.182  -5.215  1.00 20.00     0.102 C 
HETATM    8 BR11 UNL     1     -33.759  18.117  -5.013  1.00 20.00    -0.085 Br
BRANCH   7   9
HETATM    9  C7  UNL     1     -33.516  15.524  -3.879  1.00 20.00     0.005 A 
HETATM   10  C5  UNL     1     -33.796  14.053  -3.759  1.00 20.00     0.006 A 
HETATM   11  C6  UNL     1     -32.410  14.577  -3.507  1.00 20.00     0.006 A 
ENDBRANCH   7   9
ENDBRANCH   3   7
TORSDOF 2
ENDMDL
MODEL 5
REMARK VINA RESULT:      -3.9      3.004      4.632
REMARK  2 active torsions:
REMARK  status: ('A' for Active; 'I' for Inactive)
REMARK    1  A    between atoms: C3_3  and  C8_8 
REMARK    2  A    between atoms: C7_7  and  C8_8 
ROOT
HETATM    1  C1  UNL     1     -33.614  14.976  -3.577  1.00 20.00     0.018 A 
HETATM    2  C2  UNL     1     -34.063  14.129  -4.631  1.00 20.00     0.032 A 
HETATM    3  C3  UNL     1     -33.951  16.294  -3.793  1.00 20.00    -0.001 A 
HETATM    4  C4  UNL     1     -34.726  14.832  -5.614  1.00 20.00     0.075 A 
HETATM    5  S9  UNL     1     -34.804  16.507  -5.263  1.00 20.00    -0.081 SA
HETATM    6 CL10 UNL     1     -35.426  14.221  -7.053  1.00 20.00    -0.076 Cl
ENDROOT
BRANCH   3   7
HETATM    7  C8  UNL     1     -33.661  17.495  -2.921  1.00 20.00     0.102 C 
HETATM    8 BR11 UNL     1     -33.677  19.112  -4.028  1.00 20.00    -0.085 Br
BRANCH   7   9
HETATM    9  C7  UNL     1     -34.608  17.645  -1.781  1.00 20.00     0.005 A 
HETATM   10  C5  UNL     1     -34.691  16.583  -0.720  1.00 20.00     0.006 A 
HETATM   11  C6  UNL     1     -34.089  17.922  -0.398  1.00 20.00     0.006 A 
ENDBRANCH   7   9
ENDBRANCH   3   7
TORSDOF 2
ENDMDL
MODEL 6
REMARK VINA RESULT:      -3.9      2.429      2.887
REMARK  2 active torsions:
REMARK  status: ('A' for Active; 'I' for Inactive)
REMARK    1  A    between atoms: C3_3  and  C8_8 
REMARK    2  A    between atoms: C7_7  and  C8_8 
ROOT
HETATM    1  C1  UNL     1     -33.655  17.219  -4.016  1.00 20.00     0.018 A 
HETATM    2  C2  UNL     1     -33.788  17.723  -2.690  1.00 20.00     0.032 A 
HETATM    3  C3  UNL     1     -34.172  15.949  -4.141  1.00 20.00    -0.001 A 
HETATM    4  C4  UNL     1     -34.402  16.818  -1.852  1.00 20.00     0.075 A 
HETATM    5  S9  UNL     1     -34.814  15.367  -2.664  1.00 20.00    -0.081 SA
HETATM    6 CL10 UNL     1     -34.761  17.003  -0.186  1.00 20.00    -0.076 Cl
ENDROOT
BRANCH   3   7
HETATM    7  C8  UNL     1     -34.226  15.072  -5.372  1.00 20.00     0.102 C 
HETATM    8 BR11 UNL     1     -34.684  13.243  -4.837  1.00 20.00    -0.085 Br
BRANCH   7   9
HETATM    9  C7  UNL     1     -35.180  15.557  -6.408  1.00 20.00     0.005 A 
HETATM   10  C5  UNL     1     -34.758  16.612  -7.391  1.00 20.00     0.006 A 
HETATM   11  C6  UNL     1     -34.974  15.199  -7.853  1.00 20.00     0.006 A 
ENDBRANCH   7   9
ENDBRANCH   3   7
TORSDOF 2
ENDMDL
MODEL 7
REMARK VINA RESULT:      -3.9      1.814      2.365
REMARK  2 active torsions:
REMARK  status: ('A' for Active; 'I' for Inactive)
REMARK    1  A    between atoms: C3_3  and  C8_8 
REMARK    2  A    between atoms: C7_7  and  C8_8 
ROOT
HETATM    1  C1  UNL     1     -34.859  15.739  -2.206  1.00 20.00     0.018 A 
HETATM    2  C2  UNL     1     -34.325  16.747  -1.352  1.00 20.00     0.032 A 
HETATM    3  C3  UNL     1     -34.703  16.054  -3.538  1.00 20.00    -0.001 A 
HETATM    4  C4  UNL     1     -33.782  17.794  -2.064  1.00 20.00     0.075 A 
HETATM    5  S9  UNL     1     -33.918  17.560  -3.755  1.00 20.00    -0.081 SA
HETATM    6 CL10 UNL     1     -33.038  19.210  -1.448  1.00 20.00    -0.076 Cl
ENDROOT
BRANCH   3   7
HETATM    7  C8  UNL     1     -35.130  15.256  -4.750  1.00 20.00     0.102 C 
HETATM    8 BR11 UNL     1     -34.380  13.450  -4.625  1.00 20.00    -0.085 Br
BRANCH   7   9
HETATM    9  C7  UNL     1     -36.607  15.186  -4.927  1.00 20.00     0.005 A 
HETATM   10  C5  UNL     1     -37.399  16.437  -5.187  1.00 20.00     0.006 A 
HETATM   11  C6  UNL     1     -37.218  15.421  -6.280  1.00 20.00     0.006 A 
ENDBRANCH   7   9
ENDBRANCH   3   7
TORSDOF 2
ENDMDL
MODEL 8
REMARK VINA RESULT:      -3.8      3.332      4.639
REMARK  2 active torsions:
REMARK  status: ('A' for Active; 'I' for Inactive)
REMARK    1  A    between atoms: C3_3  and  C8_8 
REMARK    2  A    between atoms: C7_7  and  C8_8 
ROOT
HETATM    1  C1  UNL     1     -33.912  16.308  -5.817  1.00 20.00     0.018 A 
HETATM    2  C2  UNL     1     -34.385  17.086  -6.912  1.00 20.00     0.032 A 
HETATM    3  C3  UNL     1     -34.879  16.132  -4.851  1.00 20.00    -0.001 A 
HETATM    4  C4  UNL     1     -35.696  17.477  -6.743  1.00 20.00     0.075 A 
HETATM    5  S9  UNL     1     -36.350  16.905  -5.267  1.00 20.00    -0.081 SA
HETATM    6 CL10 UNL     1     -36.658  18.418  -7.803  1.00 20.00    -0.076 Cl
ENDROOT
BRANCH   3   7
HETATM    7  C8  UNL     1     -34.779  15.376  -3.546  1.00 20.00     0.102 C 
HETATM    8 BR11 UNL     1     -34.077  13.580  -3.897  1.00 20.00    -0.085 Br
BRANCH   7   9
HETATM    9  C7  UNL     1     -33.943  16.062  -2.522  1.00 20.00     0.005 A 
HETATM   10  C5  UNL     1     -34.144  17.524  -2.236  1.00 20.00     0.006 A 
HETATM   11  C6  UNL     1     -34.549  16.496  -1.217  1.00 20.00     0.006 A 
ENDBRANCH   7   9
ENDBRANCH   3   7
TORSDOF 2
ENDMDL
MODEL 9
REMARK VINA RESULT:      -3.8      3.741      4.977
REMARK  2 active torsions:
REMARK  status: ('A' for Active; 'I' for Inactive)
REMARK    1  A    between atoms: C3_3  and  C8_8 
REMARK    2  A    between atoms: C7_7  and  C8_8 
ROOT
HETATM    1  C1  UNL     1     -37.536  14.880  -3.772  1.00 20.00     0.018 A 
HETATM    2  C2  UNL     1     -38.294  15.087  -4.960  1.00 20.00     0.032 A 
HETATM    3  C3  UNL     1     -36.185  15.041  -3.985  1.00 20.00    -0.001 A 
HETATM    4  C4  UNL     1     -37.494  15.398  -6.037  1.00 20.00     0.075 A 
HETATM    5  S9  UNL     1     -35.835  15.438  -5.614  1.00 20.00    -0.081 SA
HETATM    6 CL10 UNL     1     -37.979  15.721  -7.649  1.00 20.00    -0.076 Cl
ENDROOT
BRANCH   3   7
HETATM    7  C8  UNL     1     -35.053  14.910  -2.992  1.00 20.00     0.102 C 
HETATM    8 BR11 UNL     1     -33.597  13.884  -3.810  1.00 20.00    -0.085 Br
BRANCH   7   9
HETATM    9  C7  UNL     1     -34.542  16.218  -2.494  1.00 20.00     0.005 A 
HETATM   10  C5  UNL     1     -35.497  17.260  -1.986  1.00 20.00     0.006 A 
HETATM   11  C6  UNL     1     -34.591  16.541  -1.027  1.00 20.00     0.006 A 
ENDBRANCH   7   9
ENDBRANCH   3   7
TORSDOF 2
ENDMDL
