MODEL 1
REMARK VINA RESULT:      -3.8      0.000      0.000
REMARK  2 active torsions:
REMARK  status: ('A' for Active; 'I' for Inactive)
REMARK    1  A    between atoms: C3_3  and  C5_5 
REMARK    2  A    between atoms: C5_5  and  S6_6 
ROOT
HETATM    1  C1  UNL     1     -35.187   5.034   6.298  1.00 20.00     0.010 A 
HETATM    2  C2  UNL     1     -34.386   3.982   5.587  1.00 20.00     0.010 A 
HETATM    3  C3  UNL     1     -34.582   5.336   4.948  1.00 20.00    -0.036 A 
HETATM    4  C4  UNL     1     -35.506   5.431   3.766  1.00 20.00     0.016 C 
ENDROOT
BRANCH   3   5
HETATM    5  C5  UNL     1     -33.403   6.270   4.896  1.00 20.00     0.079 C 
BRANCH   5   6
HETATM    6  S6  UNL     1     -32.752   6.402   3.205  1.00 20.00    -0.181 SA
HETATM    7  H16 UNL     1     -33.946   6.418   2.597  1.00 20.00     0.101 HD
ENDBRANCH   5   6
ENDBRANCH   3   5
TORSDOF 2
ENDMDL
MODEL 2
REMARK VINA RESULT:      -3.7      0.932      1.714
REMARK  2 active torsions:
REMARK  status: ('A' for Active; 'I' for Inactive)
REMARK    1  A    between atoms: C3_3  and  C5_5 
REMARK    2  A    between atoms: C5_5  and  S6_6 
ROOT
HETATM    1  C1  UNL     1     -33.923   4.229   5.917  1.00 20.00     0.010 A 
HETATM    2  C2  UNL     1     -35.349   4.689   6.016  1.00 20.00     0.010 A 
HETATM    3  C3  UNL     1     -34.289   5.635   5.503  1.00 20.00    -0.036 A 
HETATM    4  C4  UNL     1     -33.861   6.766   6.397  1.00 20.00     0.016 C 
ENDROOT
BRANCH   3   5
HETATM    5  C5  UNL     1     -34.284   5.962   4.035  1.00 20.00     0.079 C 
BRANCH   5   6
HETATM    6  S6  UNL     1     -32.630   6.483   3.491  1.00 20.00    -0.181 SA
HETATM    7  H16 UNL     1     -32.193   5.256   3.179  1.00 20.00     0.101 HD
ENDBRANCH   5   6
ENDBRANCH   3   5
TORSDOF 2
ENDMDL
MODEL 3
REMARK VINA RESULT:      -3.5      2.152      3.079
REMARK  2 active torsions:
REMARK  status: ('A' for Active; 'I' for Inactive)
REMARK    1  A    between atoms: C3_3  and  C5_5 
REMARK    2  A    between atoms: C5_5  and  S6_6 
ROOT
HETATM    1  C1  UNL     1     -32.153   5.935   3.254  1.00 20.00     0.010 A 
HETATM    2  C2  UNL     1     -32.863   7.231   2.989  1.00 20.00     0.010 A 
HETATM    3  C3  UNL     1     -33.555   6.143   3.776  1.00 20.00    -0.036 A 
HETATM    4  C4  UNL     1     -34.674   5.393   3.109  1.00 20.00     0.016 C 
ENDROOT
BRANCH   3   5
HETATM    5  C5  UNL     1     -33.733   6.347   5.256  1.00 20.00     0.079 C 
BRANCH   5   6
HETATM    6  S6  UNL     1     -34.719   5.004   5.983  1.00 20.00    -0.181 SA
HETATM    7  H16 UNL     1     -35.693   5.033   5.063  1.00 20.00     0.101 HD
ENDBRANCH   5   6
ENDBRANCH   3   5
TORSDOF 2
ENDMDL
MODEL 4
REMARK VINA RESULT:      -3.4      1.031      1.849
REMARK  2 active torsions:
REMARK  status: ('A' for Active; 'I' for Inactive)
REMARK    1  A    between atoms: C3_3  and  C5_5 
REMARK    2  A    between atoms: C5_5  and  S6_6 
ROOT
HETATM    1  C1  UNL     1     -34.979   4.312   4.731  1.00 20.00     0.010 A 
HETATM    2  C2  UNL     1     -35.728   5.453   4.104  1.00 20.00     0.010 A 
HETATM    3  C3  UNL     1     -34.260   5.605   4.428  1.00 20.00    -0.036 A 
HETATM    4  C4  UNL     1     -33.880   6.488   5.584  1.00 20.00     0.016 C 
ENDROOT
BRANCH   3   5
HETATM    5  C5  UNL     1     -33.283   5.617   3.284  1.00 20.00     0.079 C 
BRANCH   5   6
HETATM    6  S6  UNL     1     -32.207   7.080   3.365  1.00 20.00    -0.181 SA
HETATM    7  H16 UNL     1     -32.018   7.041   4.691  1.00 20.00     0.101 HD
ENDBRANCH   5   6
ENDBRANCH   3   5
TORSDOF 2
ENDMDL
MODEL 5
REMARK VINA RESULT:      -3.2      0.633      2.024
REMARK  2 active torsions:
REMARK  status: ('A' for Active; 'I' for Inactive)
REMARK    1  A    between atoms: C3_3  and  C5_5 
REMARK    2  A    between atoms: C5_5  and  S6_6 
ROOT
HETATM    1  C1  UNL     1     -34.634   4.931   3.146  1.00 20.00     0.010 A 
HETATM    2  C2  UNL     1     -35.748   5.726   3.762  1.00 20.00     0.010 A 
HETATM    3  C3  UNL     1     -34.504   5.429   4.566  1.00 20.00    -0.036 A 
HETATM    4  C4  UNL     1     -34.607   4.422   5.678  1.00 20.00     0.016 C 
ENDROOT
BRANCH   3   5
HETATM    5  C5  UNL     1     -33.549   6.560   4.832  1.00 20.00     0.079 C 
BRANCH   5   6
HETATM    6  S6  UNL     1     -32.348   6.728   3.478  1.00 20.00    -0.181 SA
HETATM    7  H16 UNL     1     -31.258   6.715   4.256  1.00 20.00     0.101 HD
ENDBRANCH   5   6
ENDBRANCH   3   5
TORSDOF 2
ENDMDL
MODEL 6
REMARK VINA RESULT:      -3.1      2.187      3.264
REMARK  2 active torsions:
REMARK  status: ('A' for Active; 'I' for Inactive)
REMARK    1  A    between atoms: C3_3  and  C5_5 
REMARK    2  A    between atoms: C5_5  and  S6_6 
ROOT
HETATM    1  C1  UNL     1     -33.007   7.238   2.958  1.00 20.00     0.010 A 
HETATM    2  C2  UNL     1     -32.190   6.022   3.288  1.00 20.00     0.010 A 
HETATM    3  C3  UNL     1     -33.507   6.256   3.991  1.00 20.00    -0.036 A 
HETATM    4  C4  UNL     1     -33.471   6.673   5.435  1.00 20.00     0.016 C 
ENDROOT
BRANCH   3   5
HETATM    5  C5  UNL     1     -34.670   5.376   3.623  1.00 20.00     0.079 C 
BRANCH   5   6
HETATM    6  S6  UNL     1     -35.200   4.372   5.042  1.00 20.00    -0.181 SA
HETATM    7  H16 UNL     1     -34.731   3.208   4.572  1.00 20.00     0.101 HD
ENDBRANCH   5   6
ENDBRANCH   3   5
TORSDOF 2
ENDMDL
MODEL 7
REMARK VINA RESULT:      -3.0      1.166      1.537
REMARK  2 active torsions:
REMARK  status: ('A' for Active; 'I' for Inactive)
REMARK    1  A    between atoms: C3_3  and  C5_5 
REMARK    2  A    between atoms: C5_5  and  S6_6 
ROOT
HETATM    1  C1  UNL     1     -35.829   5.577   4.059  1.00 20.00     0.010 A 
HETATM    2  C2  UNL     1     -35.025   4.473   4.684  1.00 20.00     0.010 A 
HETATM    3  C3  UNL     1     -34.345   5.484   3.792  1.00 20.00    -0.036 A 
HETATM    4  C4  UNL     1     -33.902   5.035   2.427  1.00 20.00     0.016 C 
ENDROOT
BRANCH   3   5
HETATM    5  C5  UNL     1     -33.447   6.504   4.437  1.00 20.00     0.079 C 
BRANCH   5   6
HETATM    6  S6  UNL     1     -32.155   7.054   3.283  1.00 20.00    -0.181 SA
HETATM    7  H16 UNL     1     -31.285   6.078   3.573  1.00 20.00     0.101 HD
ENDBRANCH   5   6
ENDBRANCH   3   5
TORSDOF 2
ENDMDL
MODEL 8
REMARK VINA RESULT:      -2.8      9.383      9.991
REMARK  2 active torsions:
REMARK  status: ('A' for Active; 'I' for Inactive)
REMARK    1  A    between atoms: C3_3  and  C5_5 
REMARK    2  A    between atoms: C5_5  and  S6_6 
ROOT
HETATM    1  C1  UNL     1     -40.746   4.576  -1.081  1.00 20.00     0.010 A 
HETATM    2  C2  UNL     1     -41.994   4.797  -0.276  1.00 20.00     0.010 A 
HETATM    3  C3  UNL     1     -41.600   5.796  -1.338  1.00 20.00    -0.036 A 
HETATM    4  C4  UNL     1     -41.074   7.131  -0.890  1.00 20.00     0.016 C 
ENDROOT
BRANCH   3   5
HETATM    5  C5  UNL     1     -42.410   5.835  -2.605  1.00 20.00     0.079 C 
BRANCH   5   6
HETATM    6  S6  UNL     1     -42.515   7.528  -3.256  1.00 20.00    -0.181 SA
HETATM    7  H16 UNL     1     -43.680   7.359  -3.897  1.00 20.00     0.101 HD
ENDBRANCH   5   6
ENDBRANCH   3   5
TORSDOF 2
ENDMDL
MODEL 9
REMARK VINA RESULT:      -2.8     12.606     13.345
REMARK  2 active torsions:
REMARK  status: ('A' for Active; 'I' for Inactive)
REMARK    1  A    between atoms: C3_3  and  C5_5 
REMARK    2  A    between atoms: C5_5  and  S6_6 
ROOT
HETATM    1  C1  UNL     1     -33.319  13.644  -3.798  1.00 20.00     0.010 A 
HETATM    2  C2  UNL     1     -34.820  13.667  -3.854  1.00 20.00     0.010 A 
HETATM    3  C3  UNL     1     -34.046  14.963  -3.916  1.00 20.00    -0.036 A 
HETATM    4  C4  UNL     1     -34.077  15.861  -2.711  1.00 20.00     0.016 C 
ENDROOT
BRANCH   3   5
HETATM    5  C5  UNL     1     -33.986  15.686  -5.234  1.00 20.00     0.079 C 
BRANCH   5   6
HETATM    6  S6  UNL     1     -33.608  17.447  -4.991  1.00 20.00    -0.181 SA
HETATM    7  H16 UNL     1     -34.119  17.861  -6.158  1.00 20.00     0.101 HD
ENDBRANCH   5   6
ENDBRANCH   3   5
TORSDOF 2
ENDMDL
