MODEL 1
REMARK VINA RESULT:      -3.3      0.000      0.000
REMARK  0 active torsions:
REMARK  status: ('A' for Active; 'I' for Inactive)
ROOT
HETATM    1  C1  UNL     1     -34.817   4.911   3.796  1.00 20.00     0.149 A 
HETATM    2  C2  UNL     1     -34.605   5.219   5.124  1.00 20.00     0.094 A 
HETATM    3  C3  UNL     1     -33.313   6.485   3.531  1.00 20.00     0.145 A 
HETATM    4  N4  UNL     1     -34.077   5.635   2.882  1.00 20.00    -0.244 NA
HETATM    5  S5  UNL     1     -33.432   6.466   5.244  1.00 20.00    -0.049 SA
HETATM    6 CL6  UNL     1     -35.325   4.545   6.516  1.00 20.00    -0.075 Cl
HETATM    7 BR7  UNL     1     -32.130   7.677   2.620  1.00 20.00    -0.021 Br
ENDROOT
TORSDOF 0
ENDMDL
MODEL 2
REMARK VINA RESULT:      -3.2     12.679     12.916
REMARK  0 active torsions:
REMARK  status: ('A' for Active; 'I' for Inactive)
ROOT
HETATM    1  C1  UNL     1     -34.569  13.452  -4.822  1.00 20.00     0.149 A 
HETATM    2  C2  UNL     1     -34.990  14.394  -5.738  1.00 20.00     0.094 A 
HETATM    3  C3  UNL     1     -34.696  15.181  -3.480  1.00 20.00     0.145 A 
HETATM    4  N4  UNL     1     -34.401  13.901  -3.527  1.00 20.00    -0.244 NA
HETATM    5  S5  UNL     1     -35.185  15.908  -4.956  1.00 20.00    -0.049 SA
HETATM    6 CL6  UNL     1     -35.302  14.213  -7.405  1.00 20.00    -0.075 Cl
HETATM    7 BR7  UNL     1     -34.589  16.181  -1.855  1.00 20.00    -0.021 Br
ENDROOT
TORSDOF 0
ENDMDL
MODEL 3
REMARK VINA RESULT:      -3.2     12.394     12.764
REMARK  0 active torsions:
REMARK  status: ('A' for Active; 'I' for Inactive)
ROOT
HETATM    1  C1  UNL     1     -34.352  14.064  -3.467  1.00 20.00     0.149 A 
HETATM    2  C2  UNL     1     -34.607  15.376  -3.124  1.00 20.00     0.094 A 
HETATM    3  C3  UNL     1     -34.638  14.880  -5.482  1.00 20.00     0.145 A 
HETATM    4  N4  UNL     1     -34.368  13.779  -4.818  1.00 20.00    -0.244 NA
HETATM    5  S5  UNL     1     -34.881  16.298  -4.545  1.00 20.00    -0.049 SA
HETATM    6 CL6  UNL     1     -34.669  16.094  -1.578  1.00 20.00    -0.075 Cl
HETATM    7 BR7  UNL     1     -34.752  14.906  -7.389  1.00 20.00    -0.021 Br
ENDROOT
TORSDOF 0
ENDMDL
MODEL 4
REMARK VINA RESULT:      -3.1      9.959     10.257
REMARK  0 active torsions:
REMARK  status: ('A' for Active; 'I' for Inactive)
ROOT
HETATM    1  C1  UNL     1     -40.792   5.511  -0.767  1.00 20.00     0.149 A 
HETATM    2  C2  UNL     1     -41.746   6.328  -1.337  1.00 20.00     0.094 A 
HETATM    3  C3  UNL     1     -41.609   4.094  -2.227  1.00 20.00     0.145 A 
HETATM    4  N4  UNL     1     -40.712   4.230  -1.277  1.00 20.00    -0.244 NA
HETATM    5  S5  UNL     1     -42.583   5.467  -2.562  1.00 20.00    -0.049 SA
HETATM    6 CL6  UNL     1     -42.131   7.950  -0.975  1.00 20.00    -0.075 Cl
HETATM    7 BR7  UNL     1     -41.820   2.456  -3.188  1.00 20.00    -0.021 Br
ENDROOT
TORSDOF 0
ENDMDL
MODEL 5
REMARK VINA RESULT:      -3.1     12.059     12.224
REMARK  0 active torsions:
REMARK  status: ('A' for Active; 'I' for Inactive)
ROOT
HETATM    1  C1  UNL     1     -34.536  13.228  -4.379  1.00 20.00     0.149 A 
HETATM    2  C2  UNL     1     -33.940  14.335  -3.812  1.00 20.00     0.094 A 
HETATM    3  C3  UNL     1     -36.342  14.409  -3.988  1.00 20.00     0.145 A 
HETATM    4  N4  UNL     1     -35.913  13.269  -4.481  1.00 20.00    -0.244 NA
HETATM    5  S5  UNL     1     -35.144  15.481  -3.386  1.00 20.00    -0.049 SA
HETATM    6 CL6  UNL     1     -32.287  14.642  -3.525  1.00 20.00    -0.075 Cl
HETATM    7 BR7  UNL     1     -38.200  14.853  -3.945  1.00 20.00    -0.021 Br
ENDROOT
TORSDOF 0
ENDMDL
MODEL 6
REMARK VINA RESULT:      -3.1     13.020     13.187
REMARK  0 active torsions:
REMARK  status: ('A' for Active; 'I' for Inactive)
ROOT
HETATM    1  C1  UNL     1     -35.777  14.685  -4.628  1.00 20.00     0.149 A 
HETATM    2  C2  UNL     1     -34.708  15.190  -5.340  1.00 20.00     0.094 A 
HETATM    3  C3  UNL     1     -34.834  15.848  -3.026  1.00 20.00     0.145 A 
HETATM    4  N4  UNL     1     -35.851  15.062  -3.302  1.00 20.00    -0.244 NA
HETATM    5  S5  UNL     1     -33.751  16.178  -4.315  1.00 20.00    -0.049 SA
HETATM    6 CL6  UNL     1     -34.292  14.948  -6.977  1.00 20.00    -0.075 Cl
HETATM    7 BR7  UNL     1     -34.576  16.587  -1.283  1.00 20.00    -0.021 Br
ENDROOT
TORSDOF 0
ENDMDL
MODEL 7
REMARK VINA RESULT:      -3.1     10.617     10.921
REMARK  0 active torsions:
REMARK  status: ('A' for Active; 'I' for Inactive)
ROOT
HETATM    1  C1  UNL     1     -42.707   6.134  -2.840  1.00 20.00     0.149 A 
HETATM    2  C2  UNL     1     -41.788   6.138  -1.812  1.00 20.00     0.094 A 
HETATM    3  C3  UNL     1     -42.332   3.977  -2.729  1.00 20.00     0.145 A 
HETATM    4  N4  UNL     1     -43.021   4.897  -3.366  1.00 20.00    -0.244 NA
HETATM    5  S5  UNL     1     -41.289   4.530  -1.483  1.00 20.00    -0.049 SA
HETATM    6 CL6  UNL     1     -41.165   7.456  -0.926  1.00 20.00    -0.075 Cl
HETATM    7 BR7  UNL     1     -42.483   2.122  -3.162  1.00 20.00    -0.021 Br
ENDROOT
TORSDOF 0
ENDMDL
MODEL 8
REMARK VINA RESULT:      -3.0     13.422     13.822
REMARK  0 active torsions:
REMARK  status: ('A' for Active; 'I' for Inactive)
ROOT
HETATM    1  C1  UNL     1     -33.471  16.955  -5.155  1.00 20.00     0.149 A 
HETATM    2  C2  UNL     1     -34.120  15.789  -5.503  1.00 20.00     0.094 A 
HETATM    3  C3  UNL     1     -34.256  16.414  -3.180  1.00 20.00     0.145 A 
HETATM    4  N4  UNL     1     -33.547  17.315  -3.824  1.00 20.00    -0.244 NA
HETATM    5  S5  UNL     1     -34.859  15.106  -4.113  1.00 20.00    -0.049 SA
HETATM    6 CL6  UNL     1     -34.242  15.037  -7.030  1.00 20.00    -0.075 Cl
HETATM    7 BR7  UNL     1     -34.595  16.550  -1.305  1.00 20.00    -0.021 Br
ENDROOT
TORSDOF 0
ENDMDL
MODEL 9
REMARK VINA RESULT:      -3.0     12.956     13.261
REMARK  0 active torsions:
REMARK  status: ('A' for Active; 'I' for Inactive)
ROOT
HETATM    1  C1  UNL     1     -33.700  17.155  -3.520  1.00 20.00     0.149 A 
HETATM    2  C2  UNL     1     -34.396  16.301  -2.690  1.00 20.00     0.094 A 
HETATM    3  C3  UNL     1     -34.374  15.710  -5.025  1.00 20.00     0.145 A 
HETATM    4  N4  UNL     1     -33.687  16.818  -4.859  1.00 20.00    -0.244 NA
HETATM    5  S5  UNL     1     -35.065  15.020  -3.614  1.00 20.00    -0.049 SA
HETATM    6 CL6  UNL     1     -34.631  16.391  -1.002  1.00 20.00    -0.075 Cl
HETATM    7 BR7  UNL     1     -34.594  14.909  -6.746  1.00 20.00    -0.021 Br
ENDROOT
TORSDOF 0
ENDMDL
