MODEL 1
REMARK VINA RESULT:      -4.9      0.000      0.000
REMARK  1 active torsions:
REMARK  status: ('A' for Active; 'I' for Inactive)
REMARK    1  A    between atoms: C1_1  and  C2_2 
ROOT
HETATM    1  C1  UNL     1     -34.872   5.240   3.789  1.00 20.00     0.384 C 
HETATM    2  F3  UNL     1     -34.391   4.712   2.633  1.00 20.00    -0.181 F 
HETATM    3  F4  UNL     1     -36.100   5.742   3.488  1.00 20.00    -0.181 F 
HETATM    4 CL6  UNL     1     -35.059   3.939   4.983  1.00 20.00    -0.042 Cl
ENDROOT
BRANCH   1   5
HETATM    5  C2  UNL     1     -33.961   6.378   4.237  1.00 20.00     0.336 C 
HETATM    6  F5  UNL     1     -34.506   7.543   3.784  1.00 20.00    -0.199 F 
HETATM    7 CL7  UNL     1     -32.329   6.234   3.538  1.00 20.00    -0.058 Cl
HETATM    8 CL8  UNL     1     -33.856   6.482   6.012  1.00 20.00    -0.058 Cl
ENDBRANCH   1   5
TORSDOF 1
ENDMDL
MODEL 2
REMARK VINA RESULT:      -4.5      2.266      2.957
REMARK  1 active torsions:
REMARK  status: ('A' for Active; 'I' for Inactive)
REMARK    1  A    between atoms: C1_1  and  C2_2 
ROOT
HETATM    1  C1  UNL     1     -34.557   5.158   5.952  1.00 20.00     0.384 C 
HETATM    2  F3  UNL     1     -33.747   4.174   6.426  1.00 20.00    -0.181 F 
HETATM    3  F4  UNL     1     -35.780   4.935   6.503  1.00 20.00    -0.181 F 
HETATM    4 CL6  UNL     1     -33.948   6.727   6.516  1.00 20.00    -0.042 Cl
ENDROOT
BRANCH   1   5
HETATM    5  C2  UNL     1     -34.660   5.033   4.435  1.00 20.00     0.336 C 
HETATM    6  F5  UNL     1     -34.729   3.704   4.137  1.00 20.00    -0.199 F 
HETATM    7 CL7  UNL     1     -33.225   5.699   3.616  1.00 20.00    -0.058 Cl
HETATM    8 CL8  UNL     1     -36.135   5.809   3.805  1.00 20.00    -0.058 Cl
ENDBRANCH   1   5
TORSDOF 1
ENDMDL
MODEL 3
REMARK VINA RESULT:      -4.3      1.260      3.021
REMARK  1 active torsions:
REMARK  status: ('A' for Active; 'I' for Inactive)
REMARK    1  A    between atoms: C1_1  and  C2_2 
ROOT
HETATM    1  C1  UNL     1     -33.993   6.359   4.493  1.00 20.00     0.384 C 
HETATM    2  F3  UNL     1     -34.383   7.565   4.000  1.00 20.00    -0.181 F 
HETATM    3  F4  UNL     1     -32.694   6.204   4.120  1.00 20.00    -0.181 F 
HETATM    4 CL6  UNL     1     -34.081   6.406   6.266  1.00 20.00    -0.042 Cl
ENDROOT
BRANCH   1   5
HETATM    5  C2  UNL     1     -34.833   5.260   3.852  1.00 20.00     0.336 C 
HETATM    6  F5  UNL     1     -36.083   5.765   3.649  1.00 20.00    -0.199 F 
HETATM    7 CL7  UNL     1     -34.987   3.838   4.915  1.00 20.00    -0.058 Cl
HETATM    8 CL8  UNL     1     -34.183   4.767   2.268  1.00 20.00    -0.058 Cl
ENDBRANCH   1   5
TORSDOF 1
ENDMDL
MODEL 4
REMARK VINA RESULT:      -4.2      1.358      2.973
REMARK  1 active torsions:
REMARK  status: ('A' for Active; 'I' for Inactive)
REMARK    1  A    between atoms: C1_1  and  C2_2 
ROOT
HETATM    1  C1  UNL     1     -33.870   6.313   4.406  1.00 20.00     0.384 C 
HETATM    2  F3  UNL     1     -34.175   7.501   3.819  1.00 20.00    -0.181 F 
HETATM    3  F4  UNL     1     -32.597   6.022   4.022  1.00 20.00    -0.181 F 
HETATM    4 CL6  UNL     1     -33.908   6.514   6.169  1.00 20.00    -0.042 Cl
ENDROOT
BRANCH   1   5
HETATM    5  C2  UNL     1     -34.811   5.236   3.876  1.00 20.00     0.336 C 
HETATM    6  F5  UNL     1     -34.250   4.720   2.745  1.00 20.00    -0.199 F 
HETATM    7 CL7  UNL     1     -36.402   5.906   3.435  1.00 20.00    -0.058 Cl
HETATM    8 CL8  UNL     1     -35.014   3.902   5.040  1.00 20.00    -0.058 Cl
ENDBRANCH   1   5
TORSDOF 1
ENDMDL
MODEL 5
REMARK VINA RESULT:      -4.2      1.641      2.226
REMARK  1 active torsions:
REMARK  status: ('A' for Active; 'I' for Inactive)
REMARK    1  A    between atoms: C1_1  and  C2_2 
ROOT
HETATM    1  C1  UNL     1     -34.324   5.532   5.170  1.00 20.00     0.384 C 
HETATM    2  F3  UNL     1     -33.642   4.372   5.365  1.00 20.00    -0.181 F 
HETATM    3  F4  UNL     1     -35.641   5.193   5.148  1.00 20.00    -0.181 F 
HETATM    4 CL6  UNL     1     -34.030   6.611   6.550  1.00 20.00    -0.042 Cl
ENDROOT
BRANCH   1   5
HETATM    5  C2  UNL     1     -33.935   6.121   3.819  1.00 20.00     0.336 C 
HETATM    6  F5  UNL     1     -34.592   7.309   3.685  1.00 20.00    -0.199 F 
HETATM    7 CL7  UNL     1     -34.434   5.070   2.469  1.00 20.00    -0.058 Cl
HETATM    8 CL8  UNL     1     -32.188   6.452   3.717  1.00 20.00    -0.058 Cl
ENDBRANCH   1   5
TORSDOF 1
ENDMDL
MODEL 6
REMARK VINA RESULT:      -4.2      1.967      3.372
REMARK  1 active torsions:
REMARK  status: ('A' for Active; 'I' for Inactive)
REMARK    1  A    between atoms: C1_1  and  C2_2 
ROOT
HETATM    1  C1  UNL     1     -32.354   6.827   3.517  1.00 20.00     0.384 C 
HETATM    2  F3  UNL     1     -31.731   5.645   3.262  1.00 20.00    -0.181 F 
HETATM    3  F4  UNL     1     -31.681   7.388   4.557  1.00 20.00    -0.181 F 
HETATM    4 CL6  UNL     1     -32.198   7.878   2.094  1.00 20.00    -0.042 Cl
ENDROOT
BRANCH   1   5
HETATM    5  C2  UNL     1     -33.793   6.553   3.940  1.00 20.00     0.336 C 
HETATM    6  F5  UNL     1     -34.528   7.660   3.634  1.00 20.00    -0.199 F 
HETATM    7 CL7  UNL     1     -33.927   6.281   5.696  1.00 20.00    -0.058 Cl
HETATM    8 CL8  UNL     1     -34.493   5.174   3.056  1.00 20.00    -0.058 Cl
ENDBRANCH   1   5
TORSDOF 1
ENDMDL
MODEL 7
REMARK VINA RESULT:      -4.1      0.898      2.628
REMARK  1 active torsions:
REMARK  status: ('A' for Active; 'I' for Inactive)
REMARK    1  A    between atoms: C1_1  and  C2_2 
ROOT
HETATM    1  C1  UNL     1     -33.996   5.922   3.700  1.00 20.00     0.384 C 
HETATM    2  F3  UNL     1     -34.458   7.187   3.515  1.00 20.00    -0.181 F 
HETATM    3  F4  UNL     1     -34.493   5.187   2.669  1.00 20.00    -0.181 F 
HETATM    4 CL6  UNL     1     -32.223   5.936   3.595  1.00 20.00    -0.042 Cl
ENDROOT
BRANCH   1   5
HETATM    5  C2  UNL     1     -34.543   5.376   5.015  1.00 20.00     0.336 C 
HETATM    6  F5  UNL     1     -35.902   5.342   4.911  1.00 20.00    -0.199 F 
HETATM    7 CL7  UNL     1     -34.130   6.428   6.392  1.00 20.00    -0.058 Cl
HETATM    8 CL8  UNL     1     -33.980   3.715   5.328  1.00 20.00    -0.058 Cl
ENDBRANCH   1   5
TORSDOF 1
ENDMDL
MODEL 8
REMARK VINA RESULT:      -3.9      8.104      8.860
REMARK  1 active torsions:
REMARK  status: ('A' for Active; 'I' for Inactive)
REMARK    1  A    between atoms: C1_1  and  C2_2 
ROOT
HETATM    1  C1  UNL     1     -41.555   7.183  -1.041  1.00 20.00     0.384 C 
HETATM    2  F3  UNL     1     -41.281   6.922  -2.347  1.00 20.00    -0.181 F 
HETATM    3  F4  UNL     1     -40.714   8.188  -0.676  1.00 20.00    -0.181 F 
HETATM    4 CL6  UNL     1     -43.230   7.756  -0.907  1.00 20.00    -0.042 Cl
ENDROOT
BRANCH   1   5
HETATM    5  C2  UNL     1     -41.247   5.944  -0.207  1.00 20.00     0.336 C 
HETATM    6  F5  UNL     1     -40.217   6.259   0.630  1.00 20.00    -0.199 F 
HETATM    7 CL7  UNL     1     -40.723   4.576  -1.222  1.00 20.00    -0.058 Cl
HETATM    8 CL8  UNL     1     -42.635   5.459   0.798  1.00 20.00    -0.058 Cl
ENDBRANCH   1   5
TORSDOF 1
ENDMDL
MODEL 9
REMARK VINA RESULT:      -3.9     11.827     12.619
REMARK  1 active torsions:
REMARK  status: ('A' for Active; 'I' for Inactive)
REMARK    1  A    between atoms: C1_1  and  C2_2 
ROOT
HETATM    1  C1  UNL     1     -33.161  15.245  -3.876  1.00 20.00     0.384 C 
HETATM    2  F3  UNL     1     -32.688  16.168  -4.755  1.00 20.00    -0.181 F 
HETATM    3  F4  UNL     1     -32.086  14.503  -3.496  1.00 20.00    -0.181 F 
HETATM    4 CL6  UNL     1     -33.813  16.086  -2.454  1.00 20.00    -0.042 Cl
ENDROOT
BRANCH   1   5
HETATM    5  C2  UNL     1     -34.165  14.345  -4.587  1.00 20.00     0.336 C 
HETATM    6  F5  UNL     1     -33.675  13.073  -4.550  1.00 20.00    -0.199 F 
HETATM    7 CL7  UNL     1     -34.366  14.799  -6.299  1.00 20.00    -0.058 Cl
HETATM    8 CL8  UNL     1     -35.748  14.341  -3.769  1.00 20.00    -0.058 Cl
ENDBRANCH   1   5
TORSDOF 1
ENDMDL
