MODEL 1
REMARK VINA RESULT:      -3.9      0.000      0.000
REMARK  1 active torsions:
REMARK  status: ('A' for Active; 'I' for Inactive)
REMARK    1  A    between atoms: C2_2  and  C6_6 
ROOT
HETATM    1  C1  UNL     1     -34.327  14.072  -3.369  1.00 20.00     0.080 A 
HETATM    2  C2  UNL     1     -34.118  15.417  -3.594  1.00 20.00     0.047 A 
HETATM    3  C3  UNL     1     -34.552  14.801  -5.654  1.00 20.00     0.144 A 
HETATM    4  N7  UNL     1     -34.246  15.836  -4.904  1.00 20.00    -0.238 NA
HETATM    5  S8  UNL     1     -34.702  13.293  -4.850  1.00 20.00    -0.073 SA
HETATM    6 BR9  UNL     1     -34.816  14.969  -7.539  1.00 20.00    -0.021 Br
ENDROOT
BRANCH   2   7
HETATM    7  C6  UNL     1     -33.762  16.396  -2.462  1.00 20.00     0.038 A 
HETATM    8  C4  UNL     1     -34.614  16.399  -1.214  1.00 20.00     0.011 A 
HETATM    9  C5  UNL     1     -34.704  17.543  -2.176  1.00 20.00     0.011 A 
ENDBRANCH   2   7
TORSDOF 1
ENDMDL
MODEL 2
REMARK VINA RESULT:      -3.8      3.399      4.464
REMARK  1 active torsions:
REMARK  status: ('A' for Active; 'I' for Inactive)
REMARK    1  A    between atoms: C2_2  and  C6_6 
ROOT
HETATM    1  C1  UNL     1     -33.698  16.738  -4.057  1.00 20.00     0.080 A 
HETATM    2  C2  UNL     1     -33.999  15.544  -3.434  1.00 20.00     0.047 A 
HETATM    3  C3  UNL     1     -34.382  16.900  -1.753  1.00 20.00     0.144 A 
HETATM    4  N7  UNL     1     -34.391  15.636  -2.113  1.00 20.00    -0.238 NA
HETATM    5  S8  UNL     1     -33.913  18.032  -2.953  1.00 20.00    -0.073 SA
HETATM    6 BR9  UNL     1     -34.866  17.446   0.013  1.00 20.00    -0.021 Br
ENDROOT
BRANCH   2   7
HETATM    7  C6  UNL     1     -33.907  14.190  -4.158  1.00 20.00     0.038 A 
HETATM    8  C4  UNL     1     -34.566  14.046  -5.510  1.00 20.00     0.011 A 
HETATM    9  C5  UNL     1     -35.164  13.367  -4.317  1.00 20.00     0.011 A 
ENDBRANCH   2   7
TORSDOF 1
ENDMDL
MODEL 3
REMARK VINA RESULT:      -3.7      1.922      2.271
REMARK  1 active torsions:
REMARK  status: ('A' for Active; 'I' for Inactive)
REMARK    1  A    between atoms: C2_2  and  C6_6 
ROOT
HETATM    1  C1  UNL     1     -33.590  17.362  -3.917  1.00 20.00     0.080 A 
HETATM    2  C2  UNL     1     -33.865  16.681  -2.749  1.00 20.00     0.047 A 
HETATM    3  C3  UNL     1     -34.242  15.058  -4.176  1.00 20.00     0.144 A 
HETATM    4  N7  UNL     1     -34.240  15.360  -2.896  1.00 20.00    -0.238 NA
HETATM    5  S8  UNL     1     -33.803  16.314  -5.258  1.00 20.00    -0.073 SA
HETATM    6 BR9  UNL     1     -34.709  13.311  -4.795  1.00 20.00    -0.021 Br
ENDROOT
BRANCH   2   7
HETATM    7  C6  UNL     1     -33.765  17.344  -1.365  1.00 20.00     0.038 A 
HETATM    8  C4  UNL     1     -34.733  16.916  -0.287  1.00 20.00     0.011 A 
HETATM    9  C5  UNL     1     -34.879  18.264  -0.921  1.00 20.00     0.011 A 
ENDBRANCH   2   7
TORSDOF 1
ENDMDL
MODEL 4
REMARK VINA RESULT:      -3.7      1.304      1.358
REMARK  1 active torsions:
REMARK  status: ('A' for Active; 'I' for Inactive)
REMARK    1  A    between atoms: C2_2  and  C6_6 
ROOT
HETATM    1  C1  UNL     1     -36.169  15.575  -3.231  1.00 20.00     0.080 A 
HETATM    2  C2  UNL     1     -34.803  15.769  -3.275  1.00 20.00     0.047 A 
HETATM    3  C3  UNL     1     -35.138  15.293  -5.390  1.00 20.00     0.144 A 
HETATM    4  N7  UNL     1     -34.211  15.607  -4.512  1.00 20.00    -0.238 NA
HETATM    5  S8  UNL     1     -36.744  15.176  -4.796  1.00 20.00    -0.073 SA
HETATM    6 BR9  UNL     1     -34.719  14.984  -7.228  1.00 20.00    -0.021 Br
ENDROOT
BRANCH   2   7
HETATM    7  C6  UNL     1     -33.983  16.141  -2.028  1.00 20.00     0.038 A 
HETATM    8  C4  UNL     1     -34.707  16.704  -0.828  1.00 20.00     0.011 A 
HETATM    9  C5  UNL     1     -33.846  17.601  -1.662  1.00 20.00     0.011 A 
ENDBRANCH   2   7
TORSDOF 1
ENDMDL
MODEL 5
REMARK VINA RESULT:      -3.5      3.080      4.510
REMARK  1 active torsions:
REMARK  status: ('A' for Active; 'I' for Inactive)
REMARK    1  A    between atoms: C2_2  and  C6_6 
ROOT
HETATM    1  C1  UNL     1     -33.853  17.032  -5.166  1.00 20.00     0.080 A 
HETATM    2  C2  UNL     1     -34.250  15.748  -4.850  1.00 20.00     0.047 A 
HETATM    3  C3  UNL     1     -34.350  16.630  -2.843  1.00 20.00     0.144 A 
HETATM    4  N7  UNL     1     -34.534  15.516  -3.518  1.00 20.00    -0.238 NA
HETATM    5  S8  UNL     1     -33.836  17.994  -3.747  1.00 20.00    -0.073 SA
HETATM    6 BR9  UNL     1     -34.642  16.721  -0.957  1.00 20.00    -0.021 Br
ENDROOT
BRANCH   2   7
HETATM    7  C6  UNL     1     -34.368  14.638  -5.907  1.00 20.00     0.038 A 
HETATM    8  C4  UNL     1     -34.498  15.033  -7.359  1.00 20.00     0.011 A 
HETATM    9  C5  UNL     1     -35.682  14.471  -6.636  1.00 20.00     0.011 A 
ENDBRANCH   2   7
TORSDOF 1
ENDMDL
MODEL 6
REMARK VINA RESULT:      -3.5      2.464      2.519
REMARK  1 active torsions:
REMARK  status: ('A' for Active; 'I' for Inactive)
REMARK    1  A    between atoms: C2_2  and  C6_6 
ROOT
HETATM    1  C1  UNL     1     -34.756  15.466  -4.696  1.00 20.00     0.080 A 
HETATM    2  C2  UNL     1     -35.122  15.612  -3.374  1.00 20.00     0.047 A 
HETATM    3  C3  UNL     1     -37.092  15.131  -4.212  1.00 20.00     0.144 A 
HETATM    4  N7  UNL     1     -36.462  15.421  -3.095  1.00 20.00    -0.238 NA
HETATM    5  S8  UNL     1     -36.135  15.071  -5.635  1.00 20.00    -0.073 SA
HETATM    6 BR9  UNL     1     -38.972  14.794  -4.247  1.00 20.00    -0.021 Br
ENDROOT
BRANCH   2   7
HETATM    7  C6  UNL     1     -34.110  15.967  -2.272  1.00 20.00     0.038 A 
HETATM    8  C4  UNL     1     -34.625  16.565  -0.983  1.00 20.00     0.011 A 
HETATM    9  C5  UNL     1     -33.873  17.424  -1.950  1.00 20.00     0.011 A 
ENDBRANCH   2   7
TORSDOF 1
ENDMDL
MODEL 7
REMARK VINA RESULT:      -3.5      3.192      3.757
REMARK  1 active torsions:
REMARK  status: ('A' for Active; 'I' for Inactive)
REMARK    1  A    between atoms: C2_2  and  C6_6 
ROOT
HETATM    1  C1  UNL     1     -35.932  16.203  -4.556  1.00 20.00     0.080 A 
HETATM    2  C2  UNL     1     -35.943  14.988  -3.901  1.00 20.00     0.047 A 
HETATM    3  C3  UNL     1     -38.058  15.071  -4.478  1.00 20.00     0.144 A 
HETATM    4  N7  UNL     1     -37.162  14.339  -3.855  1.00 20.00    -0.238 NA
HETATM    5  S8  UNL     1     -37.505  16.553  -5.143  1.00 20.00    -0.073 SA
HETATM    6 BR9  UNL     1     -39.879  14.514  -4.635  1.00 20.00    -0.021 Br
ENDROOT
BRANCH   2   7
HETATM    7  C6  UNL     1     -34.682  14.387  -3.257  1.00 20.00     0.038 A 
HETATM    8  C4  UNL     1     -33.330  14.886  -3.711  1.00 20.00     0.011 A 
HETATM    9  C5  UNL     1     -33.784  13.515  -4.103  1.00 20.00     0.011 A 
ENDBRANCH   2   7
TORSDOF 1
ENDMDL
MODEL 8
REMARK VINA RESULT:      -3.4     13.682     14.856
REMARK  1 active torsions:
REMARK  status: ('A' for Active; 'I' for Inactive)
REMARK    1  A    between atoms: C2_2  and  C6_6 
ROOT
HETATM    1  C1  UNL     1     -43.085   3.886  -3.301  1.00 20.00     0.080 A 
HETATM    2  C2  UNL     1     -41.920   3.213  -2.993  1.00 20.00     0.047 A 
HETATM    3  C3  UNL     1     -41.692   4.913  -1.626  1.00 20.00     0.144 A 
HETATM    4  N7  UNL     1     -41.120   3.801  -2.033  1.00 20.00    -0.238 NA
HETATM    5  S8  UNL     1     -43.193   5.311  -2.354  1.00 20.00    -0.073 SA
HETATM    6 BR9  UNL     1     -40.892   6.024  -0.292  1.00 20.00    -0.021 Br
ENDROOT
BRANCH   2   7
HETATM    7  C6  UNL     1     -41.528   1.890  -3.673  1.00 20.00     0.038 A 
HETATM    8  C4  UNL     1     -42.461   1.303  -4.705  1.00 20.00     0.011 A 
HETATM    9  C5  UNL     1     -42.335   0.651  -3.363  1.00 20.00     0.011 A 
ENDBRANCH   2   7
TORSDOF 1
ENDMDL
MODEL 9
REMARK VINA RESULT:      -3.4      2.530      4.061
REMARK  1 active torsions:
REMARK  status: ('A' for Active; 'I' for Inactive)
REMARK    1  A    between atoms: C2_2  and  C6_6 
ROOT
HETATM    1  C1  UNL     1     -34.461  13.920  -5.288  1.00 20.00     0.080 A 
HETATM    2  C2  UNL     1     -34.374  15.243  -5.671  1.00 20.00     0.047 A 
HETATM    3  C3  UNL     1     -34.396  15.529  -3.496  1.00 20.00     0.144 A 
HETATM    4  N7  UNL     1     -34.337  16.166  -4.644  1.00 20.00    -0.238 NA
HETATM    5  S8  UNL     1     -34.496  13.818  -3.576  1.00 20.00    -0.073 SA
HETATM    6 BR9  UNL     1     -34.369  16.459  -1.827  1.00 20.00    -0.021 Br
ENDROOT
BRANCH   2   7
HETATM    7  C6  UNL     1     -34.323  15.672  -7.147  1.00 20.00     0.038 A 
HETATM    8  C4  UNL     1     -34.634  17.110  -7.493  1.00 20.00     0.011 A 
HETATM    9  C5  UNL     1     -35.616  16.034  -7.840  1.00 20.00     0.011 A 
ENDBRANCH   2   7
TORSDOF 1
ENDMDL
