MODEL 1
REMARK VINA RESULT:      -4.2      0.000      0.000
REMARK  1 active torsions:
REMARK  status: ('A' for Active; 'I' for Inactive)
REMARK    1  A    between atoms: C4_4  and  C7_7 
ROOT
HETATM    1  C1  UNL     1     -34.644  13.640  -4.965  1.00 20.00     0.069 C 
HETATM    2  C6  UNL     1     -35.604  15.598  -6.127  1.00 20.00     0.031 C 
HETATM    3  C7  UNL     1     -34.447  15.091  -5.236  1.00 20.00     0.128 C 
HETATM    4  N8  UNL     1     -34.793  12.513  -4.730  1.00 20.00    -0.197 NA
ENDROOT
BRANCH   3   5
HETATM    5  C4  UNL     1     -34.271  15.886  -4.001  1.00 20.00     0.001 A 
HETATM    6  C2  UNL     1     -34.520  15.513  -2.699  1.00 20.00     0.018 A 
HETATM    7  C3  UNL     1     -34.226  16.559  -1.776  1.00 20.00     0.032 A 
HETATM    8  C5  UNL     1     -33.762  17.692  -2.410  1.00 20.00     0.075 A 
HETATM    9  S9  UNL     1     -33.684  17.491  -4.109  1.00 20.00    -0.081 SA
HETATM   10 CL10 UNL     1     -33.291  19.177  -1.695  1.00 20.00    -0.076 Cl
ENDBRANCH   3   5
TORSDOF 1
ENDMDL
MODEL 2
REMARK VINA RESULT:      -4.2      3.375      4.578
REMARK  1 active torsions:
REMARK  status: ('A' for Active; 'I' for Inactive)
REMARK    1  A    between atoms: C4_4  and  C7_7 
ROOT
HETATM    1  C1  UNL     1     -33.736  17.818  -2.956  1.00 20.00     0.069 C 
HETATM    2  C6  UNL     1     -34.746  16.330  -1.262  1.00 20.00     0.031 C 
HETATM    3  C7  UNL     1     -33.793  16.409  -2.477  1.00 20.00     0.128 C 
HETATM    4  N8  UNL     1     -33.694  18.908  -3.353  1.00 20.00    -0.197 NA
ENDROOT
BRANCH   3   5
HETATM    5  C4  UNL     1     -34.137  15.452  -3.551  1.00 20.00     0.001 A 
HETATM    6  C2  UNL     1     -34.072  14.077  -3.527  1.00 20.00     0.018 A 
HETATM    7  C3  UNL     1     -34.488  13.499  -4.761  1.00 20.00     0.032 A 
HETATM    8  C5  UNL     1     -34.857  14.456  -5.681  1.00 20.00     0.075 A 
HETATM    9  S9  UNL     1     -34.700  16.042  -5.057  1.00 20.00    -0.081 SA
HETATM   10 CL10 UNL     1     -35.419  14.212  -7.283  1.00 20.00    -0.076 Cl
ENDBRANCH   3   5
TORSDOF 1
ENDMDL
MODEL 3
REMARK VINA RESULT:      -4.2      1.409      1.632
REMARK  1 active torsions:
REMARK  status: ('A' for Active; 'I' for Inactive)
REMARK    1  A    between atoms: C4_4  and  C7_7 
ROOT
HETATM    1  C1  UNL     1     -34.594  13.766  -5.123  1.00 20.00     0.069 C 
HETATM    2  C6  UNL     1     -35.422  15.720  -6.389  1.00 20.00     0.031 C 
HETATM    3  C7  UNL     1     -34.345  15.207  -5.406  1.00 20.00     0.128 C 
HETATM    4  N8  UNL     1     -34.786  12.648  -4.878  1.00 20.00    -0.197 NA
ENDROOT
BRANCH   3   5
HETATM    5  C4  UNL     1     -34.241  16.023  -4.176  1.00 20.00     0.001 A 
HETATM    6  C2  UNL     1     -33.669  17.266  -4.019  1.00 20.00     0.018 A 
HETATM    7  C3  UNL     1     -33.764  17.733  -2.676  1.00 20.00     0.032 A 
HETATM    8  C5  UNL     1     -34.404  16.826  -1.858  1.00 20.00     0.075 A 
HETATM    9  S9  UNL     1     -34.888  15.422  -2.709  1.00 20.00    -0.081 SA
HETATM   10 CL10 UNL     1     -34.735  16.975  -0.182  1.00 20.00    -0.076 Cl
ENDBRANCH   3   5
TORSDOF 1
ENDMDL
MODEL 4
REMARK VINA RESULT:      -4.0      1.610      1.653
REMARK  1 active torsions:
REMARK  status: ('A' for Active; 'I' for Inactive)
REMARK    1  A    between atoms: C4_4  and  C7_7 
ROOT
HETATM    1  C1  UNL     1     -34.400  13.795  -4.744  1.00 20.00     0.069 C 
HETATM    2  C6  UNL     1     -34.315  15.884  -6.062  1.00 20.00     0.031 C 
HETATM    3  C7  UNL     1     -33.966  15.219  -4.710  1.00 20.00     0.128 C 
HETATM    4  N8  UNL     1     -34.749  12.687  -4.749  1.00 20.00    -0.197 NA
ENDROOT
BRANCH   3   5
HETATM    5  C4  UNL     1     -34.503  15.954  -3.544  1.00 20.00     0.001 A 
HETATM    6  C2  UNL     1     -34.076  15.912  -2.235  1.00 20.00     0.018 A 
HETATM    7  C3  UNL     1     -34.846  16.766  -1.393  1.00 20.00     0.032 A 
HETATM    8  C5  UNL     1     -35.833  17.428  -2.092  1.00 20.00     0.075 A 
HETATM    9  S9  UNL     1     -35.827  17.019  -3.755  1.00 20.00    -0.081 SA
HETATM   10 CL10 UNL     1     -36.982  18.545  -1.484  1.00 20.00    -0.076 Cl
ENDBRANCH   3   5
TORSDOF 1
ENDMDL
MODEL 5
REMARK VINA RESULT:      -4.0     11.857     12.624
REMARK  1 active torsions:
REMARK  status: ('A' for Active; 'I' for Inactive)
REMARK    1  A    between atoms: C4_4  and  C7_7 
ROOT
HETATM    1  C1  UNL     1     -32.201   8.325   2.092  1.00 20.00     0.069 C 
HETATM    2  C6  UNL     1     -30.976   7.927   4.202  1.00 20.00     0.031 C 
HETATM    3  C7  UNL     1     -31.791   7.272   3.063  1.00 20.00     0.128 C 
HETATM    4  N8  UNL     1     -32.543   9.136   1.336  1.00 20.00    -0.197 NA
ENDROOT
BRANCH   3   5
HETATM    5  C4  UNL     1     -32.933   6.467   3.551  1.00 20.00     0.001 A 
HETATM    6  C2  UNL     1     -33.873   5.781   2.816  1.00 20.00     0.018 A 
HETATM    7  C3  UNL     1     -34.824   5.119   3.647  1.00 20.00     0.032 A 
HETATM    8  C5  UNL     1     -34.572   5.326   4.986  1.00 20.00     0.075 A 
HETATM    9  S9  UNL     1     -33.196   6.313   5.236  1.00 20.00    -0.081 SA
HETATM   10 CL10 UNL     1     -35.454   4.723   6.326  1.00 20.00    -0.076 Cl
ENDBRANCH   3   5
TORSDOF 1
ENDMDL
MODEL 6
REMARK VINA RESULT:      -4.0      1.591      2.058
REMARK  1 active torsions:
REMARK  status: ('A' for Active; 'I' for Inactive)
REMARK    1  A    between atoms: C4_4  and  C7_7 
ROOT
HETATM    1  C1  UNL     1     -34.732  13.536  -5.156  1.00 20.00     0.069 C 
HETATM    2  C6  UNL     1     -35.606  14.601  -7.207  1.00 20.00     0.031 C 
HETATM    3  C7  UNL     1     -34.454  14.584  -6.177  1.00 20.00     0.128 C 
HETATM    4  N8  UNL     1     -34.943  12.735  -4.342  1.00 20.00    -0.197 NA
ENDROOT
BRANCH   3   5
HETATM    5  C4  UNL     1     -34.186  15.910  -5.579  1.00 20.00     0.001 A 
HETATM    6  C2  UNL     1     -34.014  17.119  -6.216  1.00 20.00     0.018 A 
HETATM    7  C3  UNL     1     -33.773  18.180  -5.297  1.00 20.00     0.032 A 
HETATM    8  C5  UNL     1     -33.772  17.741  -3.990  1.00 20.00     0.075 A 
HETATM    9  S9  UNL     1     -34.059  16.057  -3.877  1.00 20.00    -0.081 SA
HETATM   10 CL10 UNL     1     -33.525  18.669  -2.570  1.00 20.00    -0.076 Cl
ENDBRANCH   3   5
TORSDOF 1
ENDMDL
MODEL 7
REMARK VINA RESULT:      -3.9      2.244      2.553
REMARK  1 active torsions:
REMARK  status: ('A' for Active; 'I' for Inactive)
REMARK    1  A    between atoms: C4_4  and  C7_7 
ROOT
HETATM    1  C1  UNL     1     -36.743  15.165  -6.201  1.00 20.00     0.069 C 
HETATM    2  C6  UNL     1     -34.485  14.911  -7.172  1.00 20.00     0.031 C 
HETATM    3  C7  UNL     1     -35.372  14.647  -5.934  1.00 20.00     0.128 C 
HETATM    4  N8  UNL     1     -37.811  15.579  -6.387  1.00 20.00    -0.197 NA
ENDROOT
BRANCH   3   5
HETATM    5  C4  UNL     1     -34.794  15.176  -4.679  1.00 20.00     0.001 A 
HETATM    6  C2  UNL     1     -33.488  15.524  -4.417  1.00 20.00     0.018 A 
HETATM    7  C3  UNL     1     -33.317  15.997  -3.083  1.00 20.00     0.032 A 
HETATM    8  C5  UNL     1     -34.501  15.992  -2.377  1.00 20.00     0.075 A 
HETATM    9  S9  UNL     1     -35.809  15.419  -3.321  1.00 20.00    -0.081 SA
HETATM   10 CL10 UNL     1     -34.757  16.476  -0.753  1.00 20.00    -0.076 Cl
ENDBRANCH   3   5
TORSDOF 1
ENDMDL
MODEL 8
REMARK VINA RESULT:      -3.9      1.787      2.219
REMARK  1 active torsions:
REMARK  status: ('A' for Active; 'I' for Inactive)
REMARK    1  A    between atoms: C4_4  and  C7_7 
ROOT
HETATM    1  C1  UNL     1     -36.688  14.314  -3.856  1.00 20.00     0.069 C 
HETATM    2  C6  UNL     1     -34.656  13.424  -4.946  1.00 20.00     0.031 C 
HETATM    3  C7  UNL     1     -35.199  14.299  -3.793  1.00 20.00     0.128 C 
HETATM    4  N8  UNL     1     -37.847  14.350  -3.902  1.00 20.00    -0.197 NA
ENDROOT
BRANCH   3   5
HETATM    5  C4  UNL     1     -34.614  15.658  -3.766  1.00 20.00     0.001 A 
HETATM    6  C2  UNL     1     -34.154  16.414  -4.822  1.00 20.00     0.018 A 
HETATM    7  C3  UNL     1     -33.658  17.680  -4.398  1.00 20.00     0.032 A 
HETATM    8  C5  UNL     1     -33.758  17.843  -3.032  1.00 20.00     0.075 A 
HETATM    9  S9  UNL     1     -34.447  16.474  -2.270  1.00 20.00    -0.081 SA
HETATM   10 CL10 UNL     1     -33.286  19.202  -2.099  1.00 20.00    -0.076 Cl
ENDBRANCH   3   5
TORSDOF 1
ENDMDL
MODEL 9
REMARK VINA RESULT:      -3.8      2.791      3.938
REMARK  1 active torsions:
REMARK  status: ('A' for Active; 'I' for Inactive)
REMARK    1  A    between atoms: C4_4  and  C7_7 
ROOT
HETATM    1  C1  UNL     1     -34.039  15.783  -2.642  1.00 20.00     0.069 C 
HETATM    2  C6  UNL     1     -33.501  13.674  -3.812  1.00 20.00     0.031 C 
HETATM    3  C7  UNL     1     -33.346  15.212  -3.831  1.00 20.00     0.128 C 
HETATM    4  N8  UNL     1     -34.590  16.245  -1.731  1.00 20.00    -0.197 NA
ENDROOT
BRANCH   3   5
HETATM    5  C4  UNL     1     -33.787  15.827  -5.102  1.00 20.00     0.001 A 
HETATM    6  C2  UNL     1     -34.325  15.212  -6.210  1.00 20.00     0.018 A 
HETATM    7  C3  UNL     1     -34.626  16.143  -7.246  1.00 20.00     0.032 A 
HETATM    8  C5  UNL     1     -34.307  17.436  -6.888  1.00 20.00     0.075 A 
HETATM    9  S9  UNL     1     -33.647  17.521  -5.311  1.00 20.00    -0.081 SA
HETATM   10 CL10 UNL     1     -34.500  18.862  -7.820  1.00 20.00    -0.076 Cl
ENDBRANCH   3   5
TORSDOF 1
ENDMDL
