MODEL 1
REMARK VINA RESULT:      -3.9      0.000      0.000
REMARK  3 active torsions:
REMARK  status: ('A' for Active; 'I' for Inactive)
REMARK    1  A    between atoms: C4_4  and  C7_7 
REMARK    2  A    between atoms: C6_6  and  N9_9 
REMARK    3  A    between atoms: C7_7  and  N9_9 
ROOT
HETATM    1  C1  UNL     1     -36.756  14.513  -4.039  1.00 20.00     0.095 C 
HETATM    2  C7  UNL     1     -35.360  14.751  -4.472  1.00 20.00     0.330 C 
HETATM    3  N8  UNL     1     -37.851  14.307  -3.714  1.00 20.00    -0.195 NA
ENDROOT
BRANCH   2   4
HETATM    4  C4  UNL     1     -34.400  14.704  -3.334  1.00 20.00     0.033 A 
HETATM    5  C2  UNL     1     -32.926  14.870  -3.578  1.00 20.00     0.008 A 
HETATM    6  C3  UNL     1     -33.700  15.955  -2.881  1.00 20.00     0.008 A 
ENDBRANCH   2   4
BRANCH   2   7
HETATM    7  N9  UNL     1     -35.023  13.782  -5.502  1.00 20.00     0.101 N 
HETATM    8  H21 UNL     1     -34.055  13.483  -5.382  1.00 20.00     0.317 HD
BRANCH   7   9
HETATM    9  C6  UNL     1     -35.183  14.354  -6.833  1.00 20.00     0.267 C 
HETATM   10  C5  UNL     1     -34.289  15.531  -7.023  1.00 20.00     0.037 C 
ENDBRANCH   7   9
ENDBRANCH   2   7
TORSDOF 3
ENDMDL
MODEL 2
REMARK VINA RESULT:      -3.9      1.949      2.429
REMARK  3 active torsions:
REMARK  status: ('A' for Active; 'I' for Inactive)
REMARK    1  A    between atoms: C4_4  and  C7_7 
REMARK    2  A    between atoms: C6_6  and  N9_9 
REMARK    3  A    between atoms: C7_7  and  N9_9 
ROOT
HETATM    1  C1  UNL     1     -34.646  13.783  -4.421  1.00 20.00     0.095 C 
HETATM    2  C7  UNL     1     -34.409  15.206  -4.084  1.00 20.00     0.330 C 
HETATM    3  N8  UNL     1     -34.811  12.669  -4.700  1.00 20.00    -0.195 NA
ENDROOT
BRANCH   2   4
HETATM    4  C4  UNL     1     -34.213  15.414  -2.622  1.00 20.00     0.033 A 
HETATM    5  C2  UNL     1     -33.677  16.721  -2.108  1.00 20.00     0.008 A 
HETATM    6  C3  UNL     1     -35.113  16.349  -1.862  1.00 20.00     0.008 A 
ENDBRANCH   2   4
BRANCH   2   7
HETATM    7  N9  UNL     1     -33.272  15.682  -4.854  1.00 20.00     0.101 N 
HETATM    8  H21 UNL     1     -32.646  16.207  -4.243  1.00 20.00     0.317 HD
BRANCH   7   9
HETATM    9  C6  UNL     1     -33.703  16.543  -5.948  1.00 20.00     0.267 C 
HETATM   10  C5  UNL     1     -33.603  17.982  -5.572  1.00 20.00     0.037 C 
ENDBRANCH   7   9
ENDBRANCH   2   7
TORSDOF 3
ENDMDL
MODEL 3
REMARK VINA RESULT:      -3.7      2.291      3.540
REMARK  3 active torsions:
REMARK  status: ('A' for Active; 'I' for Inactive)
REMARK    1  A    between atoms: C4_4  and  C7_7 
REMARK    2  A    between atoms: C6_6  and  N9_9 
REMARK    3  A    between atoms: C7_7  and  N9_9 
ROOT
HETATM    1  C1  UNL     1     -33.485  16.663  -4.286  1.00 20.00     0.095 C 
HETATM    2  C7  UNL     1     -33.694  16.114  -2.926  1.00 20.00     0.330 C 
HETATM    3  N8  UNL     1     -33.336  17.074  -5.361  1.00 20.00    -0.195 NA
ENDROOT
BRANCH   2   4
HETATM    4  C4  UNL     1     -34.306  17.112  -2.004  1.00 20.00     0.033 A 
HETATM    5  C2  UNL     1     -34.683  16.718  -0.604  1.00 20.00     0.008 A 
HETATM    6  C3  UNL     1     -33.522  17.644  -0.836  1.00 20.00     0.008 A 
ENDBRANCH   2   4
BRANCH   2   7
HETATM    7  N9  UNL     1     -34.502  14.911  -3.031  1.00 20.00     0.101 N 
HETATM    8  H21 UNL     1     -34.721  14.568  -2.096  1.00 20.00     0.317 HD
BRANCH   7   9
HETATM    9  C6  UNL     1     -33.795  13.869  -3.766  1.00 20.00     0.267 C 
HETATM   10  C5  UNL     1     -34.679  13.237  -4.787  1.00 20.00     0.037 C 
ENDBRANCH   7   9
ENDBRANCH   2   7
TORSDOF 3
ENDMDL
MODEL 4
REMARK VINA RESULT:      -3.7     12.250     13.156
REMARK  3 active torsions:
REMARK  status: ('A' for Active; 'I' for Inactive)
REMARK    1  A    between atoms: C4_4  and  C7_7 
REMARK    2  A    between atoms: C6_6  and  N9_9 
REMARK    3  A    between atoms: C7_7  and  N9_9 
ROOT
HETATM    1  C1  UNL     1     -33.486   6.894   6.190  1.00 20.00     0.095 C 
HETATM    2  C7  UNL     1     -33.702   6.005   5.025  1.00 20.00     0.330 C 
HETATM    3  N8  UNL     1     -33.316   7.609   7.087  1.00 20.00    -0.195 NA
ENDROOT
BRANCH   2   4
HETATM    4  C4  UNL     1     -34.986   5.256   5.118  1.00 20.00     0.033 A 
HETATM    5  C2  UNL     1     -35.053   3.812   4.703  1.00 20.00     0.008 A 
HETATM    6  C3  UNL     1     -35.163   4.183   6.156  1.00 20.00     0.008 A 
ENDBRANCH   2   4
BRANCH   2   7
HETATM    7  N9  UNL     1     -33.631   6.805   3.813  1.00 20.00     0.101 N 
HETATM    8  H21 UNL     1     -34.259   6.412   3.111  1.00 20.00     0.317 HD
BRANCH   7   9
HETATM    9  C6  UNL     1     -32.275   6.826   3.279  1.00 20.00     0.267 C 
HETATM   10  C5  UNL     1     -32.103   7.928   2.290  1.00 20.00     0.037 C 
ENDBRANCH   7   9
ENDBRANCH   2   7
TORSDOF 3
ENDMDL
MODEL 5
REMARK VINA RESULT:      -3.7      1.897      3.254
REMARK  3 active torsions:
REMARK  status: ('A' for Active; 'I' for Inactive)
REMARK    1  A    between atoms: C4_4  and  C7_7 
REMARK    2  A    between atoms: C6_6  and  N9_9 
REMARK    3  A    between atoms: C7_7  and  N9_9 
ROOT
HETATM    1  C1  UNL     1     -36.726  14.785  -3.558  1.00 20.00     0.095 C 
HETATM    2  C7  UNL     1     -35.389  15.324  -3.217  1.00 20.00     0.330 C 
HETATM    3  N8  UNL     1     -37.782  14.386  -3.828  1.00 20.00    -0.195 NA
ENDROOT
BRANCH   2   4
HETATM    4  C4  UNL     1     -34.331  14.836  -4.145  1.00 20.00     0.033 A 
HETATM    5  C2  UNL     1     -32.887  15.164  -3.888  1.00 20.00     0.008 A 
HETATM    6  C3  UNL     1     -33.381  13.755  -3.709  1.00 20.00     0.008 A 
ENDBRANCH   2   4
BRANCH   2   7
HETATM    7  N9  UNL     1     -35.465  16.775  -3.202  1.00 20.00     0.101 N 
HETATM    8  H21 UNL     1     -34.618  17.163  -3.618  1.00 20.00     0.317 HD
BRANCH   7   9
HETATM    9  C6  UNL     1     -35.600  17.279  -1.840  1.00 20.00     0.267 C 
HETATM   10  C5  UNL     1     -34.630  16.615  -0.923  1.00 20.00     0.037 C 
ENDBRANCH   7   9
ENDBRANCH   2   7
TORSDOF 3
ENDMDL
MODEL 6
REMARK VINA RESULT:      -3.7      1.329      1.507
REMARK  3 active torsions:
REMARK  status: ('A' for Active; 'I' for Inactive)
REMARK    1  A    between atoms: C4_4  and  C7_7 
REMARK    2  A    between atoms: C6_6  and  N9_9 
REMARK    3  A    between atoms: C7_7  and  N9_9 
ROOT
HETATM    1  C1  UNL     1     -37.137  15.042  -3.659  1.00 20.00     0.095 C 
HETATM    2  C7  UNL     1     -35.992  15.981  -3.617  1.00 20.00     0.330 C 
HETATM    3  N8  UNL     1     -38.029  14.303  -3.716  1.00 20.00    -0.195 NA
ENDROOT
BRANCH   2   4
HETATM    4  C4  UNL     1     -34.949  15.555  -2.643  1.00 20.00     0.033 A 
HETATM    5  C2  UNL     1     -33.683  16.351  -2.492  1.00 20.00     0.008 A 
HETATM    6  C3  UNL     1     -34.708  16.355  -1.393  1.00 20.00     0.008 A 
ENDBRANCH   2   4
BRANCH   2   7
HETATM    7  N9  UNL     1     -35.453  16.115  -4.960  1.00 20.00     0.101 N 
HETATM    8  H21 UNL     1     -36.166  16.512  -5.573  1.00 20.00     0.317 HD
BRANCH   7   9
HETATM    9  C6  UNL     1     -35.039  14.822  -5.490  1.00 20.00     0.267 C 
HETATM   10  C5  UNL     1     -34.464  14.959  -6.858  1.00 20.00     0.037 C 
ENDBRANCH   7   9
ENDBRANCH   2   7
TORSDOF 3
ENDMDL
MODEL 7
REMARK VINA RESULT:      -3.6      1.870      3.657
REMARK  3 active torsions:
REMARK  status: ('A' for Active; 'I' for Inactive)
REMARK    1  A    between atoms: C4_4  and  C7_7 
REMARK    2  A    between atoms: C6_6  and  N9_9 
REMARK    3  A    between atoms: C7_7  and  N9_9 
ROOT
HETATM    1  C1  UNL     1     -34.440  13.765  -4.410  1.00 20.00     0.095 C 
HETATM    2  C7  UNL     1     -33.743  15.072  -4.439  1.00 20.00     0.330 C 
HETATM    3  N8  UNL     1     -34.987  12.743  -4.362  1.00 20.00    -0.195 NA
ENDROOT
BRANCH   2   4
HETATM    4  C4  UNL     1     -34.483  16.087  -5.239  1.00 20.00     0.033 A 
HETATM    5  C2  UNL     1     -33.791  17.337  -5.705  1.00 20.00     0.008 A 
HETATM    6  C3  UNL     1     -34.173  16.275  -6.699  1.00 20.00     0.008 A 
ENDBRANCH   2   4
BRANCH   2   7
HETATM    7  N9  UNL     1     -33.530  15.515  -3.071  1.00 20.00     0.101 N 
HETATM    8  H21 UNL     1     -33.041  14.785  -2.552  1.00 20.00     0.317 HD
BRANCH   7   9
HETATM    9  C6  UNL     1     -34.797  15.801  -2.410  1.00 20.00     0.267 C 
HETATM   10  C5  UNL     1     -34.583  16.544  -1.136  1.00 20.00     0.037 C 
ENDBRANCH   7   9
ENDBRANCH   2   7
TORSDOF 3
ENDMDL
MODEL 8
REMARK VINA RESULT:      -3.6      2.063      2.603
REMARK  3 active torsions:
REMARK  status: ('A' for Active; 'I' for Inactive)
REMARK    1  A    between atoms: C4_4  and  C7_7 
REMARK    2  A    between atoms: C6_6  and  N9_9 
REMARK    3  A    between atoms: C7_7  and  N9_9 
ROOT
HETATM    1  C1  UNL     1     -35.096  13.919  -3.997  1.00 20.00     0.095 C 
HETATM    2  C7  UNL     1     -35.192  15.340  -3.592  1.00 20.00     0.330 C 
HETATM    3  N8  UNL     1     -35.015  12.813  -4.338  1.00 20.00    -0.195 NA
ENDROOT
BRANCH   2   4
HETATM    4  C4  UNL     1     -34.226  15.685  -2.512  1.00 20.00     0.033 A 
HETATM    5  C2  UNL     1     -33.832  17.117  -2.276  1.00 20.00     0.008 A 
HETATM    6  C3  UNL     1     -34.695  16.399  -1.275  1.00 20.00     0.008 A 
ENDBRANCH   2   4
BRANCH   2   7
HETATM    7  N9  UNL     1     -35.006  16.172  -4.769  1.00 20.00     0.101 N 
HETATM    8  H21 UNL     1     -34.479  17.007  -4.513  1.00 20.00     0.317 HD
BRANCH   7   9
HETATM    9  C6  UNL     1     -36.287  16.572  -5.336  1.00 20.00     0.267 C 
HETATM   10  C5  UNL     1     -37.214  17.062  -4.277  1.00 20.00     0.037 C 
ENDBRANCH   7   9
ENDBRANCH   2   7
TORSDOF 3
ENDMDL
MODEL 9
REMARK VINA RESULT:      -3.5      1.066      3.125
REMARK  3 active torsions:
REMARK  status: ('A' for Active; 'I' for Inactive)
REMARK    1  A    between atoms: C4_4  and  C7_7 
REMARK    2  A    between atoms: C6_6  and  N9_9 
REMARK    3  A    between atoms: C7_7  and  N9_9 
ROOT
HETATM    1  C1  UNL     1     -37.138  14.528  -4.193  1.00 20.00     0.095 C 
HETATM    2  C7  UNL     1     -35.828  14.722  -4.857  1.00 20.00     0.330 C 
HETATM    3  N8  UNL     1     -38.157  14.394  -3.655  1.00 20.00    -0.195 NA
ENDROOT
BRANCH   2   4
HETATM    4  C4  UNL     1     -35.974  15.162  -6.273  1.00 20.00     0.033 A 
HETATM    5  C2  UNL     1     -34.788  15.696  -7.026  1.00 20.00     0.008 A 
HETATM    6  C3  UNL     1     -35.363  14.354  -7.384  1.00 20.00     0.008 A 
ENDBRANCH   2   4
BRANCH   2   7
HETATM    7  N9  UNL     1     -35.048  15.667  -4.076  1.00 20.00     0.101 N 
HETATM    8  H21 UNL     1     -34.508  16.262  -4.706  1.00 20.00     0.317 HD
BRANCH   7   9
HETATM    9  C6  UNL     1     -34.135  14.975  -3.175  1.00 20.00     0.267 C 
HETATM   10  C5  UNL     1     -33.533  13.780  -3.833  1.00 20.00     0.037 C 
ENDBRANCH   7   9
ENDBRANCH   2   7
TORSDOF 3
ENDMDL
