MODEL 1
REMARK VINA RESULT:      -4.5      0.000      0.000
REMARK  3 active torsions:
REMARK  status: ('A' for Active; 'I' for Inactive)
REMARK    1  A    between atoms: C6_6  and  C8_8 
REMARK    2  A    between atoms: C7_7  and  N10_10 
REMARK    3  A    between atoms: C8_8  and  N10_10 
ROOT
HETATM    1  C1  UNL     1     -33.626   6.852   6.161  1.00 20.00     0.095 C 
HETATM    2  C8  UNL     1     -33.804   6.001   4.963  1.00 20.00     0.330 C 
HETATM    3  N9  UNL     1     -33.488   7.539   7.086  1.00 20.00    -0.195 NA
ENDROOT
BRANCH   2   4
HETATM    4  C6  UNL     1     -35.006   5.127   5.063  1.00 20.00     0.033 A 
HETATM    5  C2  UNL     1     -34.866   3.633   4.986  1.00 20.00     0.008 A 
HETATM    6  C3  UNL     1     -35.229   4.287   6.289  1.00 20.00     0.008 A 
ENDBRANCH   2   4
BRANCH   2   7
HETATM    7  N10 UNL     1     -33.855   6.856   3.789  1.00 20.00     0.106 N 
HETATM    8  H22 UNL     1     -34.010   7.822   4.080  1.00 20.00     0.318 HD
BRANCH   7   9
HETATM    9  C7  UNL     1     -32.612   6.781   3.030  1.00 20.00     0.222 A 
HETATM   10  C4  UNL     1     -32.136   7.964   2.233  1.00 20.00     0.038 A 
HETATM   11  C5  UNL     1     -31.399   7.550   3.473  1.00 20.00     0.038 A 
ENDBRANCH   7   9
ENDBRANCH   2   7
TORSDOF 3
ENDMDL
MODEL 2
REMARK VINA RESULT:      -4.3     11.737     13.151
REMARK  3 active torsions:
REMARK  status: ('A' for Active; 'I' for Inactive)
REMARK    1  A    between atoms: C6_6  and  C8_8 
REMARK    2  A    between atoms: C7_7  and  N10_10 
REMARK    3  A    between atoms: C8_8  and  N10_10 
ROOT
HETATM    1  C1  UNL     1     -34.735  13.920  -3.925  1.00 20.00     0.095 C 
HETATM    2  C8  UNL     1     -34.534  15.333  -3.529  1.00 20.00     0.330 C 
HETATM    3  N9  UNL     1     -34.911  12.812  -4.218  1.00 20.00    -0.195 NA
ENDROOT
BRANCH   2   4
HETATM    4  C6  UNL     1     -34.655  16.266  -4.684  1.00 20.00     0.033 A 
HETATM    5  C2  UNL     1     -33.460  17.047  -5.154  1.00 20.00     0.008 A 
HETATM    6  C3  UNL     1     -34.007  15.930  -5.997  1.00 20.00     0.008 A 
ENDBRANCH   2   4
BRANCH   2   7
HETATM    7  N10 UNL     1     -35.477  15.658  -2.472  1.00 20.00     0.106 N 
HETATM    8  H22 UNL     1     -35.478  14.909  -1.778  1.00 20.00     0.318 HD
BRANCH   7   9
HETATM    9  C7  UNL     1     -35.122  16.912  -1.819  1.00 20.00     0.222 A 
HETATM   10  C4  UNL     1     -34.807  16.942  -0.349  1.00 20.00     0.038 A 
HETATM   11  C5  UNL     1     -33.714  17.161  -1.354  1.00 20.00     0.038 A 
ENDBRANCH   7   9
ENDBRANCH   2   7
TORSDOF 3
ENDMDL
MODEL 3
REMARK VINA RESULT:      -4.3     11.847     12.782
REMARK  3 active torsions:
REMARK  status: ('A' for Active; 'I' for Inactive)
REMARK    1  A    between atoms: C6_6  and  C8_8 
REMARK    2  A    between atoms: C7_7  and  N10_10 
REMARK    3  A    between atoms: C8_8  and  N10_10 
ROOT
HETATM    1  C1  UNL     1     -33.950  16.473  -4.552  1.00 20.00     0.095 C 
HETATM    2  C8  UNL     1     -35.060  15.863  -3.785  1.00 20.00     0.330 C 
HETATM    3  N9  UNL     1     -33.079  16.971  -5.136  1.00 20.00    -0.195 NA
ENDROOT
BRANCH   2   4
HETATM    4  C6  UNL     1     -34.747  14.473  -3.349  1.00 20.00     0.033 A 
HETATM    5  C2  UNL     1     -35.143  13.303  -4.205  1.00 20.00     0.008 A 
HETATM    6  C3  UNL     1     -33.694  13.675  -4.065  1.00 20.00     0.008 A 
ENDBRANCH   2   4
BRANCH   2   7
HETATM    7  N10 UNL     1     -35.374  16.724  -2.658  1.00 20.00     0.106 N 
HETATM    8  H22 UNL     1     -36.336  16.555  -2.360  1.00 20.00     0.318 HD
BRANCH   7   9
HETATM    9  C7  UNL     1     -34.478  16.469  -1.536  1.00 20.00     0.222 A 
HETATM   10  C4  UNL     1     -33.652  17.583  -0.954  1.00 20.00     0.038 A 
HETATM   11  C5  UNL     1     -34.794  17.008  -0.168  1.00 20.00     0.038 A 
ENDBRANCH   7   9
ENDBRANCH   2   7
TORSDOF 3
ENDMDL
MODEL 4
REMARK VINA RESULT:      -4.2     11.748     12.393
REMARK  3 active torsions:
REMARK  status: ('A' for Active; 'I' for Inactive)
REMARK    1  A    between atoms: C6_6  and  C8_8 
REMARK    2  A    between atoms: C7_7  and  N10_10 
REMARK    3  A    between atoms: C8_8  and  N10_10 
ROOT
HETATM    1  C1  UNL     1     -36.897  14.674  -3.554  1.00 20.00     0.095 C 
HETATM    2  C8  UNL     1     -35.524  14.909  -3.054  1.00 20.00     0.330 C 
HETATM    3  N9  UNL     1     -37.980  14.514  -3.941  1.00 20.00    -0.195 NA
ENDROOT
BRANCH   2   4
HETATM    4  C6  UNL     1     -34.491  14.652  -4.096  1.00 20.00     0.033 A 
HETATM    5  C2  UNL     1     -33.349  13.716  -3.816  1.00 20.00     0.008 A 
HETATM    6  C3  UNL     1     -34.427  13.318  -4.784  1.00 20.00     0.008 A 
ENDBRANCH   2   4
BRANCH   2   7
HETATM    7  N10 UNL     1     -35.443  16.265  -2.538  1.00 20.00     0.106 N 
HETATM    8  H22 UNL     1     -36.369  16.566  -2.231  1.00 20.00     0.318 HD
BRANCH   7   9
HETATM    9  C7  UNL     1     -34.520  16.345  -1.412  1.00 20.00     0.222 A 
HETATM   10  C4  UNL     1     -33.754  17.610  -1.144  1.00 20.00     0.038 A 
HETATM   11  C5  UNL     1     -34.850  17.187  -0.211  1.00 20.00     0.038 A 
ENDBRANCH   7   9
ENDBRANCH   2   7
TORSDOF 3
ENDMDL
MODEL 5
REMARK VINA RESULT:      -4.1     12.108     13.232
REMARK  3 active torsions:
REMARK  status: ('A' for Active; 'I' for Inactive)
REMARK    1  A    between atoms: C6_6  and  C8_8 
REMARK    2  A    between atoms: C7_7  and  N10_10 
REMARK    3  A    between atoms: C8_8  and  N10_10 
ROOT
HETATM    1  C1  UNL     1     -36.874  14.606  -3.940  1.00 20.00     0.095 C 
HETATM    2  C8  UNL     1     -35.477  14.936  -4.302  1.00 20.00     0.330 C 
HETATM    3  N9  UNL     1     -37.969  14.328  -3.672  1.00 20.00    -0.195 NA
ENDROOT
BRANCH   2   4
HETATM    4  C6  UNL     1     -34.573  14.941  -3.118  1.00 20.00     0.033 A 
HETATM    5  C2  UNL     1     -33.585  16.057  -2.924  1.00 20.00     0.008 A 
HETATM    6  C3  UNL     1     -34.776  15.943  -2.016  1.00 20.00     0.008 A 
ENDBRANCH   2   4
BRANCH   2   7
HETATM    7  N10 UNL     1     -35.027  14.001  -5.319  1.00 20.00     0.106 N 
HETATM    8  H22 UNL     1     -35.816  13.429  -5.626  1.00 20.00     0.318 HD
BRANCH   7   9
HETATM    9  C7  UNL     1     -34.472  14.703  -6.470  1.00 20.00     0.222 A 
HETATM   10  C4  UNL     1     -35.187  14.680  -7.792  1.00 20.00     0.038 A 
HETATM   11  C5  UNL     1     -35.129  15.949  -6.995  1.00 20.00     0.038 A 
ENDBRANCH   7   9
ENDBRANCH   2   7
TORSDOF 3
ENDMDL
MODEL 6
REMARK VINA RESULT:      -4.1     12.053     13.186
REMARK  3 active torsions:
REMARK  status: ('A' for Active; 'I' for Inactive)
REMARK    1  A    between atoms: C6_6  and  C8_8 
REMARK    2  A    between atoms: C7_7  and  N10_10 
REMARK    3  A    between atoms: C8_8  and  N10_10 
ROOT
HETATM    1  C1  UNL     1     -36.867  14.435  -3.994  1.00 20.00     0.095 C 
HETATM    2  C8  UNL     1     -35.431  14.432  -4.351  1.00 20.00     0.330 C 
HETATM    3  N9  UNL     1     -37.988  14.444  -3.690  1.00 20.00    -0.195 NA
ENDROOT
BRANCH   2   4
HETATM    4  C6  UNL     1     -35.119  15.390  -5.448  1.00 20.00     0.033 A 
HETATM    5  C2  UNL     1     -34.473  14.906  -6.716  1.00 20.00     0.008 A 
HETATM    6  C3  UNL     1     -35.906  15.357  -6.727  1.00 20.00     0.008 A 
ENDBRANCH   2   4
BRANCH   2   7
HETATM    7  N10 UNL     1     -34.654  14.710  -3.155  1.00 20.00     0.106 N 
HETATM    8  H22 UNL     1     -33.661  14.586  -3.359  1.00 20.00     0.318 HD
BRANCH   7   9
HETATM    9  C7  UNL     1     -34.877  16.073  -2.688  1.00 20.00     0.222 A 
HETATM   10  C4  UNL     1     -34.717  16.415  -1.233  1.00 20.00     0.038 A 
HETATM   11  C5  UNL     1     -33.724  16.925  -2.236  1.00 20.00     0.038 A 
ENDBRANCH   7   9
ENDBRANCH   2   7
TORSDOF 3
ENDMDL
MODEL 7
REMARK VINA RESULT:      -4.1     11.888     13.514
REMARK  3 active torsions:
REMARK  status: ('A' for Active; 'I' for Inactive)
REMARK    1  A    between atoms: C6_6  and  C8_8 
REMARK    2  A    between atoms: C7_7  and  N10_10 
REMARK    3  A    between atoms: C8_8  and  N10_10 
ROOT
HETATM    1  C1  UNL     1     -34.608  14.009  -4.142  1.00 20.00     0.095 C 
HETATM    2  C8  UNL     1     -34.273  15.451  -4.109  1.00 20.00     0.330 C 
HETATM    3  N9  UNL     1     -34.854  12.875  -4.187  1.00 20.00    -0.195 NA
ENDROOT
BRANCH   2   4
HETATM    4  C6  UNL     1     -33.719  15.872  -2.792  1.00 20.00     0.033 A 
HETATM    5  C2  UNL     1     -33.911  17.281  -2.305  1.00 20.00     0.008 A 
HETATM    6  C3  UNL     1     -34.641  16.150  -1.638  1.00 20.00     0.008 A 
ENDBRANCH   2   4
BRANCH   2   7
HETATM    7  N10 UNL     1     -33.355  15.739  -5.197  1.00 20.00     0.106 N 
HETATM    8  H22 UNL     1     -33.269  14.916  -5.795  1.00 20.00     0.318 HD
BRANCH   7   9
HETATM    9  C7  UNL     1     -33.825  16.863  -5.998  1.00 20.00     0.222 A 
HETATM   10  C4  UNL     1     -34.516  16.624  -7.312  1.00 20.00     0.038 A 
HETATM   11  C5  UNL     1     -35.297  17.138  -6.138  1.00 20.00     0.038 A 
ENDBRANCH   7   9
ENDBRANCH   2   7
TORSDOF 3
ENDMDL
MODEL 8
REMARK VINA RESULT:      -4.0     11.831     12.725
REMARK  3 active torsions:
REMARK  status: ('A' for Active; 'I' for Inactive)
REMARK    1  A    between atoms: C6_6  and  C8_8 
REMARK    2  A    between atoms: C7_7  and  N10_10 
REMARK    3  A    between atoms: C8_8  and  N10_10 
ROOT
HETATM    1  C1  UNL     1     -36.386  17.000  -2.878  1.00 20.00     0.095 C 
HETATM    2  C8  UNL     1     -34.913  16.882  -2.966  1.00 20.00     0.330 C 
HETATM    3  N9  UNL     1     -37.543  17.075  -2.826  1.00 20.00    -0.195 NA
ENDROOT
BRANCH   2   4
HETATM    4  C6  UNL     1     -34.294  16.547  -1.653  1.00 20.00     0.033 A 
HETATM    5  C2  UNL     1     -33.548  17.596  -0.878  1.00 20.00     0.008 A 
HETATM    6  C3  UNL     1     -34.875  17.097  -0.381  1.00 20.00     0.008 A 
ENDBRANCH   2   4
BRANCH   2   7
HETATM    7  N10 UNL     1     -34.587  15.897  -3.984  1.00 20.00     0.106 N 
HETATM    8  H22 UNL     1     -33.664  16.102  -4.369  1.00 20.00     0.318 HD
BRANCH   7   9
HETATM    9  C7  UNL     1     -34.581  14.549  -3.428  1.00 20.00     0.222 A 
HETATM   10  C4  UNL     1     -35.002  13.378  -4.271  1.00 20.00     0.038 A 
HETATM   11  C5  UNL     1     -33.563  13.540  -3.881  1.00 20.00     0.038 A 
ENDBRANCH   7   9
ENDBRANCH   2   7
TORSDOF 3
ENDMDL
MODEL 9
REMARK VINA RESULT:      -3.9     11.836     13.164
REMARK  3 active torsions:
REMARK  status: ('A' for Active; 'I' for Inactive)
REMARK    1  A    between atoms: C6_6  and  C8_8 
REMARK    2  A    between atoms: C7_7  and  N10_10 
REMARK    3  A    between atoms: C8_8  and  N10_10 
ROOT
HETATM    1  C1  UNL     1     -33.733  17.398  -4.459  1.00 20.00     0.095 C 
HETATM    2  C8  UNL     1     -34.201  16.477  -3.398  1.00 20.00     0.330 C 
HETATM    3  N9  UNL     1     -33.383  18.110  -5.307  1.00 20.00    -0.195 NA
ENDROOT
BRANCH   2   4
HETATM    4  C6  UNL     1     -34.693  17.205  -2.195  1.00 20.00     0.033 A 
HETATM    5  C2  UNL     1     -34.563  16.588  -0.831  1.00 20.00     0.008 A 
HETATM    6  C3  UNL     1     -33.717  17.773  -1.204  1.00 20.00     0.008 A 
ENDBRANCH   2   4
BRANCH   2   7
HETATM    7  N10 UNL     1     -35.221  15.606  -3.956  1.00 20.00     0.106 N 
HETATM    8  H22 UNL     1     -35.268  15.743  -4.967  1.00 20.00     0.318 HD
BRANCH   7   9
HETATM    9  C7  UNL     1     -34.926  14.205  -3.679  1.00 20.00     0.222 A 
HETATM   10  C4  UNL     1     -34.608  13.258  -4.803  1.00 20.00     0.038 A 
HETATM   11  C5  UNL     1     -33.530  13.672  -3.844  1.00 20.00     0.038 A 
ENDBRANCH   7   9
ENDBRANCH   2   7
TORSDOF 3
ENDMDL
