MODEL 1
REMARK VINA RESULT:      -5.2      0.000      0.000
REMARK  0 active torsions:
REMARK  status: ('A' for Active; 'I' for Inactive)
ROOT
HETATM    1  C1  UNL     1     -32.405  19.232  -0.108  1.00 20.00     0.068 C 
HETATM    2  C2  UNL     1     -34.846  15.894  -1.927  1.00 20.00     0.009 A 
HETATM    3  C3  UNL     1     -34.476  15.944  -3.273  1.00 20.00     0.024 A 
HETATM    4  C4  UNL     1     -33.602  18.197  -2.996  1.00 20.00     0.033 A 
HETATM    5  C5  UNL     1     -34.598  17.004  -1.136  1.00 20.00    -0.050 A 
HETATM    6  C6  UNL     1     -33.976  18.143  -1.662  1.00 20.00    -0.033 A 
HETATM    7  C7  UNL     1     -33.860  17.087  -3.805  1.00 20.00     0.034 A 
HETATM    8  C8  UNL     1     -34.873  17.170   0.324  1.00 20.00     0.041 C 
HETATM    9  C9  UNL     1     -34.769  18.697   0.475  1.00 20.00     0.028 C 
HETATM   10  C10 UNL     1     -33.785  19.193  -0.606  1.00 20.00     0.126 C 
HETATM   11  N11 UNL     1     -31.314  19.263   0.287  1.00 20.00    -0.197 NA
HETATM   12 CL12 UNL     1     -33.408  17.116  -5.466  1.00 20.00    -0.084 Cl
ENDROOT
TORSDOF 0
ENDMDL
MODEL 2
REMARK VINA RESULT:      -5.1      3.040      4.923
REMARK  0 active torsions:
REMARK  status: ('A' for Active; 'I' for Inactive)
ROOT
HETATM    1  C1  UNL     1     -33.675  13.908  -3.789  1.00 20.00     0.068 C 
HETATM    2  C2  UNL     1     -33.532  18.314  -2.797  1.00 20.00     0.009 A 
HETATM    3  C3  UNL     1     -33.914  18.337  -1.454  1.00 20.00     0.024 A 
HETATM    4  C4  UNL     1     -34.859  16.103  -1.637  1.00 20.00     0.033 A 
HETATM    5  C5  UNL     1     -33.830  17.187  -3.545  1.00 20.00    -0.050 A 
HETATM    6  C6  UNL     1     -34.482  16.088  -2.971  1.00 20.00    -0.033 A 
HETATM    7  C7  UNL     1     -34.574  17.240  -0.878  1.00 20.00     0.034 A 
HETATM    8  C8  UNL     1     -33.495  16.922  -4.978  1.00 20.00     0.041 C 
HETATM    9  C9  UNL     1     -34.436  15.746  -5.292  1.00 20.00     0.028 C 
HETATM   10  C10 UNL     1     -34.660  14.981  -3.970  1.00 20.00     0.126 C 
HETATM   11  N11 UNL     1     -32.895  13.061  -3.647  1.00 20.00    -0.197 NA
HETATM   12 CL12 UNL     1     -35.026  17.294   0.783  1.00 20.00    -0.084 Cl
ENDROOT
TORSDOF 0
ENDMDL
MODEL 3
REMARK VINA RESULT:      -5.0     13.368     14.637
REMARK  0 active torsions:
REMARK  status: ('A' for Active; 'I' for Inactive)
ROOT
HETATM    1  C1  UNL     1     -42.706   7.966  -3.828  1.00 20.00     0.068 C 
HETATM    2  C2  UNL     1     -40.673   5.283  -0.815  1.00 20.00     0.009 A 
HETATM    3  C3  UNL     1     -40.790   4.021  -1.402  1.00 20.00     0.024 A 
HETATM    4  C4  UNL     1     -42.558   4.818  -2.870  1.00 20.00     0.033 A 
HETATM    5  C5  UNL     1     -41.509   6.294  -1.258  1.00 20.00    -0.050 A 
HETATM    6  C6  UNL     1     -42.440   6.068  -2.280  1.00 20.00    -0.033 A 
HETATM    7  C7  UNL     1     -41.727   3.789  -2.421  1.00 20.00     0.034 A 
HETATM    8  C8  UNL     1     -41.544   7.719  -0.808  1.00 20.00     0.041 C 
HETATM    9  C9  UNL     1     -42.911   8.170  -1.351  1.00 20.00     0.028 C 
HETATM   10  C10 UNL     1     -43.202   7.320  -2.607  1.00 20.00     0.126 C 
HETATM   11  N11 UNL     1     -42.314   8.478  -4.792  1.00 20.00    -0.197 NA
HETATM   12 CL12 UNL     1     -41.845   2.225  -3.131  1.00 20.00    -0.084 Cl
ENDROOT
TORSDOF 0
ENDMDL
MODEL 4
REMARK VINA RESULT:      -4.7      4.212      5.331
REMARK  0 active torsions:
REMARK  status: ('A' for Active; 'I' for Inactive)
ROOT
HETATM    1  C1  UNL     1     -36.911  14.343  -4.160  1.00 20.00     0.068 C 
HETATM    2  C2  UNL     1     -33.341  17.088  -4.524  1.00 20.00     0.009 A 
HETATM    3  C3  UNL     1     -33.662  17.859  -5.643  1.00 20.00     0.024 A 
HETATM    4  C4  UNL     1     -35.326  16.230  -6.345  1.00 20.00     0.033 A 
HETATM    5  C5  UNL     1     -34.011  15.891  -4.337  1.00 20.00    -0.050 A 
HETATM    6  C6  UNL     1     -34.999  15.466  -5.235  1.00 20.00    -0.033 A 
HETATM    7  C7  UNL     1     -34.646  17.433  -6.549  1.00 20.00     0.034 A 
HETATM    8  C8  UNL     1     -33.863  14.923  -3.207  1.00 20.00     0.041 C 
HETATM    9  C9  UNL     1     -34.537  13.672  -3.796  1.00 20.00     0.028 C 
HETATM   10  C10 UNL     1     -35.602  14.162  -4.800  1.00 20.00     0.126 C 
HETATM   11  N11 UNL     1     -37.944  14.485  -3.653  1.00 20.00    -0.197 NA
HETATM   12 CL12 UNL     1     -35.025  18.408  -7.916  1.00 20.00    -0.084 Cl
ENDROOT
TORSDOF 0
ENDMDL
MODEL 5
REMARK VINA RESULT:      -4.7      2.090      2.944
REMARK  0 active torsions:
REMARK  status: ('A' for Active; 'I' for Inactive)
ROOT
HETATM    1  C1  UNL     1     -35.413  17.856   0.008  1.00 20.00     0.068 C 
HETATM    2  C2  UNL     1     -33.819  17.438  -4.198  1.00 20.00     0.009 A 
HETATM    3  C3  UNL     1     -34.253  16.162  -4.563  1.00 20.00     0.024 A 
HETATM    4  C4  UNL     1     -34.631  15.574  -2.234  1.00 20.00     0.033 A 
HETATM    5  C5  UNL     1     -33.787  17.760  -2.852  1.00 20.00    -0.050 A 
HETATM    6  C6  UNL     1     -34.194  16.841  -1.877  1.00 20.00    -0.033 A 
HETATM    7  C7  UNL     1     -34.655  15.235  -3.589  1.00 20.00     0.034 A 
HETATM    8  C8  UNL     1     -33.395  19.061  -2.229  1.00 20.00     0.041 C 
HETATM    9  C9  UNL     1     -33.175  18.638  -0.766  1.00 20.00     0.028 C 
HETATM   10  C10 UNL     1     -34.102  17.433  -0.500  1.00 20.00     0.126 C 
HETATM   11  N11 UNL     1     -36.448  18.193   0.411  1.00 20.00    -0.197 NA
HETATM   12 CL12 UNL     1     -35.192  13.672  -4.070  1.00 20.00    -0.084 Cl
ENDROOT
TORSDOF 0
ENDMDL
MODEL 6
REMARK VINA RESULT:      -4.7      3.614      5.454
REMARK  0 active torsions:
REMARK  status: ('A' for Active; 'I' for Inactive)
ROOT
HETATM    1  C1  UNL     1     -35.722  14.990  -6.640  1.00 20.00     0.068 C 
HETATM    2  C2  UNL     1     -34.458  15.586  -2.344  1.00 20.00     0.009 A 
HETATM    3  C3  UNL     1     -34.069  16.926  -2.323  1.00 20.00     0.024 A 
HETATM    4  C4  UNL     1     -33.877  16.956  -4.747  1.00 20.00     0.033 A 
HETATM    5  C5  UNL     1     -34.540  14.944  -3.568  1.00 20.00    -0.050 A 
HETATM    6  C6  UNL     1     -34.258  15.623  -4.761  1.00 20.00    -0.033 A 
HETATM    7  C7  UNL     1     -33.779  17.607  -3.516  1.00 20.00     0.034 A 
HETATM    8  C8  UNL     1     -34.961  13.536  -3.841  1.00 20.00     0.041 C 
HETATM    9  C9  UNL     1     -34.442  13.342  -5.276  1.00 20.00     0.028 C 
HETATM   10  C10 UNL     1     -34.451  14.729  -5.952  1.00 20.00     0.126 C 
HETATM   11  N11 UNL     1     -36.726  15.195  -7.184  1.00 20.00    -0.197 NA
HETATM   12 CL12 UNL     1     -33.310  19.263  -3.459  1.00 20.00    -0.084 Cl
ENDROOT
TORSDOF 0
ENDMDL
MODEL 7
REMARK VINA RESULT:      -4.6      3.457      5.341
REMARK  0 active torsions:
REMARK  status: ('A' for Active; 'I' for Inactive)
ROOT
HETATM    1  C1  UNL     1     -33.808  13.724  -4.082  1.00 20.00     0.068 C 
HETATM    2  C2  UNL     1     -33.655  17.833  -5.954  1.00 20.00     0.009 A 
HETATM    3  C3  UNL     1     -33.525  18.670  -4.844  1.00 20.00     0.024 A 
HETATM    4  C4  UNL     1     -34.298  16.901  -3.364  1.00 20.00     0.033 A 
HETATM    5  C5  UNL     1     -34.116  16.542  -5.754  1.00 20.00    -0.050 A 
HETATM    6  C6  UNL     1     -34.429  16.076  -4.471  1.00 20.00    -0.033 A 
HETATM    7  C7  UNL     1     -33.846  18.208  -3.558  1.00 20.00     0.034 A 
HETATM    8  C8  UNL     1     -34.303  15.466  -6.775  1.00 20.00     0.041 C 
HETATM    9  C9  UNL     1     -35.200  14.480  -6.007  1.00 20.00     0.028 C 
HETATM   10  C10 UNL     1     -34.871  14.642  -4.508  1.00 20.00     0.126 C 
HETATM   11  N11 UNL     1     -32.967  12.998  -3.747  1.00 20.00    -0.197 NA
HETATM   12 CL12 UNL     1     -33.669  19.261  -2.206  1.00 20.00    -0.084 Cl
ENDROOT
TORSDOF 0
ENDMDL
MODEL 8
REMARK VINA RESULT:      -4.6      3.961      5.740
REMARK  0 active torsions:
REMARK  status: ('A' for Active; 'I' for Inactive)
ROOT
HETATM    1  C1  UNL     1     -38.060  14.924  -4.441  1.00 20.00     0.068 C 
HETATM    2  C2  UNL     1     -33.549  14.792  -4.239  1.00 20.00     0.009 A 
HETATM    3  C3  UNL     1     -33.275  15.483  -3.058  1.00 20.00     0.024 A 
HETATM    4  C4  UNL     1     -35.497  16.473  -3.069  1.00 20.00     0.033 A 
HETATM    5  C5  UNL     1     -34.791  14.960  -4.826  1.00 20.00    -0.050 A 
HETATM    6  C6  UNL     1     -35.761  15.788  -4.246  1.00 20.00    -0.033 A 
HETATM    7  C7  UNL     1     -34.242  16.319  -2.477  1.00 20.00     0.034 A 
HETATM    8  C8  UNL     1     -35.319  14.305  -6.063  1.00 20.00     0.041 C 
HETATM    9  C9  UNL     1     -36.525  15.203  -6.385  1.00 20.00     0.028 C 
HETATM   10  C10 UNL     1     -37.031  15.779  -5.045  1.00 20.00     0.126 C 
HETATM   11  N11 UNL     1     -38.873  14.247  -3.964  1.00 20.00    -0.197 NA
HETATM   12 CL12 UNL     1     -33.879  17.154  -1.015  1.00 20.00    -0.084 Cl
ENDROOT
TORSDOF 0
ENDMDL
MODEL 9
REMARK VINA RESULT:      -4.6      2.680      3.445
REMARK  0 active torsions:
REMARK  status: ('A' for Active; 'I' for Inactive)
ROOT
HETATM    1  C1  UNL     1     -34.220  18.548  -3.779  1.00 20.00     0.068 C 
HETATM    2  C2  UNL     1     -34.466  14.040  -3.589  1.00 20.00     0.009 A 
HETATM    3  C3  UNL     1     -34.668  13.689  -4.925  1.00 20.00     0.024 A 
HETATM    4  C4  UNL     1     -35.360  15.958  -5.464  1.00 20.00     0.033 A 
HETATM    5  C5  UNL     1     -34.725  15.346  -3.206  1.00 20.00    -0.050 A 
HETATM    6  C6  UNL     1     -35.162  16.299  -4.135  1.00 20.00    -0.033 A 
HETATM    7  C7  UNL     1     -35.113  14.640  -5.856  1.00 20.00     0.034 A 
HETATM    8  C8  UNL     1     -34.553  15.957  -1.853  1.00 20.00     0.041 C 
HETATM    9  C9  UNL     1     -35.382  17.245  -1.999  1.00 20.00     0.028 C 
HETATM   10  C10 UNL     1     -35.339  17.643  -3.490  1.00 20.00     0.126 C 
HETATM   11  N11 UNL     1     -33.334  19.263  -4.006  1.00 20.00    -0.197 NA
HETATM   12 CL12 UNL     1     -35.346  14.179  -7.499  1.00 20.00    -0.084 Cl
ENDROOT
TORSDOF 0
ENDMDL
