MODEL 1
REMARK VINA RESULT:      -4.5      0.000      0.000
REMARK  2 active torsions:
REMARK  status: ('A' for Active; 'I' for Inactive)
REMARK    1  A    between atoms: C5_5  and  N8_8 
REMARK    2  A    between atoms: C7_7  and  N8_8 
ROOT
HETATM    1  C1  UNL     1     -32.185   8.594   1.864  1.00 20.00     0.013 C 
HETATM    2  C2  UNL     1     -32.266   7.600   2.530  1.00 20.00    -0.087 C 
HETATM    3  C7  UNL     1     -32.360   6.385   3.344  1.00 20.00     0.364 C 
ENDROOT
BRANCH   3   4
HETATM    4  N8  UNL     1     -33.706   6.237   3.897  1.00 20.00     0.099 N 
HETATM    5  C6  UNL     1     -34.555   5.478   2.980  1.00 20.00     0.311 C 
BRANCH   4   6
HETATM    6  C5  UNL     1     -33.652   5.581   5.204  1.00 20.00     0.223 A 
HETATM    7  C3  UNL     1     -34.200   6.270   6.423  1.00 20.00     0.038 A 
HETATM    8  C4  UNL     1     -34.909   5.075   5.857  1.00 20.00     0.038 A 
ENDBRANCH   4   6
ENDBRANCH   3   4
TORSDOF 2
ENDMDL
MODEL 2
REMARK VINA RESULT:      -4.0      0.898      4.078
REMARK  2 active torsions:
REMARK  status: ('A' for Active; 'I' for Inactive)
REMARK    1  A    between atoms: C5_5  and  N8_8 
REMARK    2  A    between atoms: C7_7  and  N8_8 
ROOT
HETATM    1  C1  UNL     1     -35.151   3.968   5.867  1.00 20.00     0.013 C 
HETATM    2  C2  UNL     1     -34.975   4.633   4.884  1.00 20.00    -0.087 C 
HETATM    3  C7  UNL     1     -34.765   5.442   3.681  1.00 20.00     0.364 C 
ENDROOT
BRANCH   3   4
HETATM    4  N8  UNL     1     -33.935   6.608   3.982  1.00 20.00     0.099 N 
HETATM    5  C6  UNL     1     -33.667   6.688   5.418  1.00 20.00     0.311 C 
BRANCH   4   6
HETATM    6  C5  UNL     1     -32.681   6.551   3.231  1.00 20.00     0.223 A 
HETATM    7  C3  UNL     1     -32.258   7.709   2.369  1.00 20.00     0.038 A 
HETATM    8  C4  UNL     1     -31.510   7.405   3.633  1.00 20.00     0.038 A 
ENDBRANCH   4   6
ENDBRANCH   3   4
TORSDOF 2
ENDMDL
MODEL 3
REMARK VINA RESULT:      -3.7      1.509      3.527
REMARK  2 active torsions:
REMARK  status: ('A' for Active; 'I' for Inactive)
REMARK    1  A    between atoms: C5_5  and  N8_8 
REMARK    2  A    between atoms: C7_7  and  N8_8 
ROOT
HETATM    1  C1  UNL     1     -33.231   7.670   7.041  1.00 20.00     0.013 C 
HETATM    2  C2  UNL     1     -33.897   6.719   6.741  1.00 20.00    -0.087 C 
HETATM    3  C7  UNL     1     -34.714   5.557   6.377  1.00 20.00     0.364 C 
ENDROOT
BRANCH   3   4
HETATM    4  N8  UNL     1     -34.225   4.950   5.140  1.00 20.00     0.099 N 
HETATM    5  C6  UNL     1     -35.056   3.805   4.770  1.00 20.00     0.311 C 
BRANCH   4   6
HETATM    6  C5  UNL     1     -34.204   5.937   4.060  1.00 20.00     0.223 A 
HETATM    7  C3  UNL     1     -32.938   6.195   3.291  1.00 20.00     0.038 A 
HETATM    8  C4  UNL     1     -34.087   5.497   2.626  1.00 20.00     0.038 A 
ENDBRANCH   4   6
ENDBRANCH   3   4
TORSDOF 2
ENDMDL
MODEL 4
REMARK VINA RESULT:      -3.6     10.866     11.742
REMARK  2 active torsions:
REMARK  status: ('A' for Active; 'I' for Inactive)
REMARK    1  A    between atoms: C5_5  and  N8_8 
REMARK    2  A    between atoms: C7_7  and  N8_8 
ROOT
HETATM    1  C1  UNL     1     -34.795  17.102   0.013  1.00 20.00     0.013 C 
HETATM    2  C2  UNL     1     -34.566  16.835  -1.134  1.00 20.00    -0.087 C 
HETATM    3  C7  UNL     1     -34.282  16.513  -2.535  1.00 20.00     0.364 C 
ENDROOT
BRANCH   3   4
HETATM    4  N8  UNL     1     -34.945  15.268  -2.923  1.00 20.00     0.099 N 
HETATM    5  C6  UNL     1     -36.347  15.517  -3.255  1.00 20.00     0.311 C 
BRANCH   4   6
HETATM    6  C5  UNL     1     -34.253  14.652  -4.056  1.00 20.00     0.223 A 
HETATM    7  C3  UNL     1     -33.397  13.433  -3.851  1.00 20.00     0.038 A 
HETATM    8  C4  UNL     1     -34.698  13.318  -4.588  1.00 20.00     0.038 A 
ENDBRANCH   4   6
ENDBRANCH   3   4
TORSDOF 2
ENDMDL
MODEL 5
REMARK VINA RESULT:      -3.6      1.179      1.984
REMARK  2 active torsions:
REMARK  status: ('A' for Active; 'I' for Inactive)
REMARK    1  A    between atoms: C5_5  and  N8_8 
REMARK    2  A    between atoms: C7_7  and  N8_8 
ROOT
HETATM    1  C1  UNL     1     -31.469   7.609   3.018  1.00 20.00     0.013 C 
HETATM    2  C2  UNL     1     -32.540   7.149   3.305  1.00 20.00    -0.087 C 
HETATM    3  C7  UNL     1     -33.849   6.589   3.650  1.00 20.00     0.364 C 
ENDROOT
BRANCH   3   4
HETATM    4  N8  UNL     1     -33.794   5.912   4.946  1.00 20.00     0.099 N 
HETATM    5  C6  UNL     1     -33.620   6.884   6.024  1.00 20.00     0.311 C 
BRANCH   4   6
HETATM    6  C5  UNL     1     -35.008   5.123   5.161  1.00 20.00     0.223 A 
HETATM    7  C3  UNL     1     -34.945   3.620   5.173  1.00 20.00     0.038 A 
HETATM    8  C4  UNL     1     -35.210   4.368   6.446  1.00 20.00     0.038 A 
ENDBRANCH   4   6
ENDBRANCH   3   4
TORSDOF 2
ENDMDL
MODEL 6
REMARK VINA RESULT:      -3.6     11.310     11.925
REMARK  2 active torsions:
REMARK  status: ('A' for Active; 'I' for Inactive)
REMARK    1  A    between atoms: C5_5  and  N8_8 
REMARK    2  A    between atoms: C7_7  and  N8_8 
ROOT
HETATM    1  C1  UNL     1     -34.968  13.267  -4.505  1.00 20.00     0.013 C 
HETATM    2  C2  UNL     1     -34.057  13.927  -4.089  1.00 20.00    -0.087 C 
HETATM    3  C7  UNL     1     -32.940  14.729  -3.583  1.00 20.00     0.364 C 
ENDROOT
BRANCH   3   4
HETATM    4  N8  UNL     1     -33.404  16.051  -3.161  1.00 20.00     0.099 N 
HETATM    5  C6  UNL     1     -33.732  16.873  -4.325  1.00 20.00     0.311 C 
BRANCH   4   6
HETATM    6  C5  UNL     1     -34.565  15.928  -2.280  1.00 20.00     0.223 A 
HETATM    7  C3  UNL     1     -34.575  16.606  -0.937  1.00 20.00     0.038 A 
HETATM    8  C4  UNL     1     -35.466  17.107  -2.035  1.00 20.00     0.038 A 
ENDBRANCH   4   6
ENDBRANCH   3   4
TORSDOF 2
ENDMDL
MODEL 7
REMARK VINA RESULT:      -3.5     10.909     11.848
REMARK  2 active torsions:
REMARK  status: ('A' for Active; 'I' for Inactive)
REMARK    1  A    between atoms: C5_5  and  N8_8 
REMARK    2  A    between atoms: C7_7  and  N8_8 
ROOT
HETATM    1  C1  UNL     1     -34.746  14.701  -6.733  1.00 20.00     0.013 C 
HETATM    2  C2  UNL     1     -35.013  14.199  -5.677  1.00 20.00    -0.087 C 
HETATM    3  C7  UNL     1     -35.344  13.582  -4.389  1.00 20.00     0.364 C 
ENDROOT
BRANCH   3   4
HETATM    4  N8  UNL     1     -34.478  14.102  -3.331  1.00 20.00     0.099 N 
HETATM    5  C6  UNL     1     -33.073  13.857  -3.653  1.00 20.00     0.311 C 
BRANCH   4   6
HETATM    6  C5  UNL     1     -34.715  15.532  -3.134  1.00 20.00     0.223 A 
HETATM    7  C3  UNL     1     -34.825  16.100  -1.745  1.00 20.00     0.038 A 
HETATM    8  C4  UNL     1     -33.628  16.419  -2.592  1.00 20.00     0.038 A 
ENDBRANCH   4   6
ENDBRANCH   3   4
TORSDOF 2
ENDMDL
MODEL 8
REMARK VINA RESULT:      -3.5     11.572     12.963
REMARK  2 active torsions:
REMARK  status: ('A' for Active; 'I' for Inactive)
REMARK    1  A    between atoms: C5_5  and  N8_8 
REMARK    2  A    between atoms: C7_7  and  N8_8 
ROOT
HETATM    1  C1  UNL     1     -34.571  16.564  -1.272  1.00 20.00     0.013 C 
HETATM    2  C2  UNL     1     -34.495  15.792  -2.187  1.00 20.00    -0.087 C 
HETATM    3  C7  UNL     1     -34.403  14.845  -3.301  1.00 20.00     0.364 C 
ENDROOT
BRANCH   3   4
HETATM    4  N8  UNL     1     -34.414  15.552  -4.582  1.00 20.00     0.099 N 
HETATM    5  C6  UNL     1     -33.194  16.342  -4.741  1.00 20.00     0.311 C 
BRANCH   4   6
HETATM    6  C5  UNL     1     -34.557  14.604  -5.687  1.00 20.00     0.223 A 
HETATM    7  C3  UNL     1     -35.730  14.698  -6.623  1.00 20.00     0.038 A 
HETATM    8  C4  UNL     1     -34.356  15.053  -7.109  1.00 20.00     0.038 A 
ENDBRANCH   4   6
ENDBRANCH   3   4
TORSDOF 2
ENDMDL
MODEL 9
REMARK VINA RESULT:      -3.5     11.197     12.609
REMARK  2 active torsions:
REMARK  status: ('A' for Active; 'I' for Inactive)
REMARK    1  A    between atoms: C5_5  and  N8_8 
REMARK    2  A    between atoms: C7_7  and  N8_8 
ROOT
HETATM    1  C1  UNL     1     -34.728  16.155  -2.092  1.00 20.00     0.013 C 
HETATM    2  C2  UNL     1     -34.066  15.500  -2.848  1.00 20.00    -0.087 C 
HETATM    3  C7  UNL     1     -33.252  14.700  -3.767  1.00 20.00     0.364 C 
ENDROOT
BRANCH   3   4
HETATM    4  N8  UNL     1     -34.087  14.105  -4.810  1.00 20.00     0.099 N 
HETATM    5  C6  UNL     1     -35.163  13.315  -4.215  1.00 20.00     0.311 C 
BRANCH   4   6
HETATM    6  C5  UNL     1     -34.637  15.144  -5.680  1.00 20.00     0.223 A 
HETATM    7  C3  UNL     1     -34.354  15.128  -7.157  1.00 20.00     0.038 A 
HETATM    8  C4  UNL     1     -35.735  14.822  -6.656  1.00 20.00     0.038 A 
ENDBRANCH   4   6
ENDBRANCH   3   4
TORSDOF 2
ENDMDL
