MODEL 1
REMARK VINA RESULT:      -4.5      0.000      0.000
REMARK  1 active torsions:
REMARK  status: ('A' for Active; 'I' for Inactive)
REMARK    1  A    between atoms: C6_6  and  N8_8 
ROOT
HETATM    1  C1  UNL     1     -32.358   8.947   1.223  1.00 20.00     0.014 C 
HETATM    2  C2  UNL     1     -32.067   8.211   2.126  1.00 20.00    -0.096 C 
HETATM    3  C6  UNL     1     -31.709   7.314   3.228  1.00 20.00     0.243 C 
ENDROOT
BRANCH   3   4
HETATM    4  N8  UNL     1     -32.827   6.507   3.653  1.00 20.00    -0.269 N 
HETATM    5  C4  UNL     1     -33.233   6.298   4.937  1.00 20.00     0.138 A 
HETATM    6  C5  UNL     1     -34.327   5.470   4.857  1.00 20.00     0.070 A 
HETATM    7  C3  UNL     1     -34.493   5.242   3.477  1.00 20.00     0.164 A 
HETATM    8 CL9  UNL     1     -35.278   4.849   6.106  1.00 20.00    -0.081 Cl
HETATM    9  N7  UNL     1     -33.579   5.873   2.736  1.00 20.00    -0.183 NA
ENDBRANCH   3   4
TORSDOF 1
ENDMDL
MODEL 2
REMARK VINA RESULT:      -4.0     11.515     12.046
REMARK  1 active torsions:
REMARK  status: ('A' for Active; 'I' for Inactive)
REMARK    1  A    between atoms: C6_6  and  N8_8 
ROOT
HETATM    1  C1  UNL     1     -34.835  16.497  -1.268  1.00 20.00     0.014 C 
HETATM    2  C2  UNL     1     -34.092  16.134  -2.138  1.00 20.00    -0.096 C 
HETATM    3  C6  UNL     1     -33.182  15.692  -3.199  1.00 20.00     0.243 C 
ENDROOT
BRANCH   3   4
HETATM    4  N8  UNL     1     -33.864  14.915  -4.206  1.00 20.00    -0.269 N 
HETATM    5  C4  UNL     1     -34.261  15.354  -5.435  1.00 20.00     0.138 A 
HETATM    6  C5  UNL     1     -34.866  14.278  -6.040  1.00 20.00     0.070 A 
HETATM    7  C3  UNL     1     -34.777  13.244  -5.089  1.00 20.00     0.164 A 
HETATM    8 CL9  UNL     1     -35.565  14.183  -7.575  1.00 20.00    -0.081 Cl
HETATM    9  N7  UNL     1     -34.166  13.628  -3.965  1.00 20.00    -0.183 NA
ENDBRANCH   3   4
TORSDOF 1
ENDMDL
MODEL 3
REMARK VINA RESULT:      -3.8     11.270     11.551
REMARK  1 active torsions:
REMARK  status: ('A' for Active; 'I' for Inactive)
REMARK    1  A    between atoms: C6_6  and  N8_8 
ROOT
HETATM    1  C1  UNL     1     -34.794  17.190  -0.016  1.00 20.00     0.014 C 
HETATM    2  C2  UNL     1     -34.406  16.742  -1.059  1.00 20.00    -0.096 C 
HETATM    3  C6  UNL     1     -33.929  16.195  -2.334  1.00 20.00     0.243 C 
ENDROOT
BRANCH   3   4
HETATM    4  N8  UNL     1     -34.955  15.444  -3.016  1.00 20.00    -0.269 N 
HETATM    5  C4  UNL     1     -36.275  15.774  -3.105  1.00 20.00     0.138 A 
HETATM    6  C5  UNL     1     -36.864  14.773  -3.841  1.00 20.00     0.070 A 
HETATM    7  C3  UNL     1     -35.808  13.892  -4.143  1.00 20.00     0.164 A 
HETATM    8 CL9  UNL     1     -38.482  14.607  -4.296  1.00 20.00    -0.081 Cl
HETATM    9  N7  UNL     1     -34.638  14.297  -3.641  1.00 20.00    -0.183 NA
ENDBRANCH   3   4
TORSDOF 1
ENDMDL
MODEL 4
REMARK VINA RESULT:      -3.8     11.227     11.539
REMARK  1 active torsions:
REMARK  status: ('A' for Active; 'I' for Inactive)
REMARK    1  A    between atoms: C6_6  and  N8_8 
ROOT
HETATM    1  C1  UNL     1     -35.110  17.377   0.617  1.00 20.00     0.014 C 
HETATM    2  C2  UNL     1     -34.514  17.201  -0.410  1.00 20.00    -0.096 C 
HETATM    3  C6  UNL     1     -33.783  16.987  -1.663  1.00 20.00     0.243 C 
ENDROOT
BRANCH   3   4
HETATM    4  N8  UNL     1     -34.438  16.021  -2.511  1.00 20.00    -0.269 N 
HETATM    5  C4  UNL     1     -33.830  15.047  -3.247  1.00 20.00     0.138 A 
HETATM    6  C5  UNL     1     -34.842  14.376  -3.891  1.00 20.00     0.070 A 
HETATM    7  C3  UNL     1     -36.018  15.027  -3.472  1.00 20.00     0.164 A 
HETATM    8 CL9  UNL     1     -34.735  13.065  -4.950  1.00 20.00    -0.081 Cl
HETATM    9  N7  UNL     1     -35.777  16.034  -2.628  1.00 20.00    -0.183 NA
ENDBRANCH   3   4
TORSDOF 1
ENDMDL
MODEL 5
REMARK VINA RESULT:      -3.7     11.144     12.127
REMARK  1 active torsions:
REMARK  status: ('A' for Active; 'I' for Inactive)
REMARK    1  A    between atoms: C6_6  and  N8_8 
ROOT
HETATM    1  C1  UNL     1     -35.165  14.856  -7.722  1.00 20.00     0.014 C 
HETATM    2  C2  UNL     1     -34.932  14.373  -6.648  1.00 20.00    -0.096 C 
HETATM    3  C6  UNL     1     -34.647  13.779  -5.339  1.00 20.00     0.243 C 
ENDROOT
BRANCH   3   4
HETATM    4  N8  UNL     1     -34.383  14.784  -4.337  1.00 20.00    -0.269 N 
HETATM    5  C4  UNL     1     -34.872  14.805  -3.064  1.00 20.00     0.138 A 
HETATM    6  C5  UNL     1     -34.360  15.941  -2.484  1.00 20.00     0.070 A 
HETATM    7  C3  UNL     1     -33.576  16.530  -3.495  1.00 20.00     0.164 A 
HETATM    8 CL9  UNL     1     -34.595  16.527  -0.917  1.00 20.00    -0.081 Cl
HETATM    9  N7  UNL     1     -33.588  15.827  -4.631  1.00 20.00    -0.183 NA
ENDBRANCH   3   4
TORSDOF 1
ENDMDL
MODEL 6
REMARK VINA RESULT:      -3.7     12.004     12.928
REMARK  1 active torsions:
REMARK  status: ('A' for Active; 'I' for Inactive)
REMARK    1  A    between atoms: C6_6  and  N8_8 
ROOT
HETATM    1  C1  UNL     1     -34.745  16.446  -1.577  1.00 20.00     0.014 C 
HETATM    2  C2  UNL     1     -34.048  15.926  -2.404  1.00 20.00    -0.096 C 
HETATM    3  C6  UNL     1     -33.195  15.288  -3.411  1.00 20.00     0.243 C 
ENDROOT
BRANCH   3   4
HETATM    4  N8  UNL     1     -33.745  15.412  -4.740  1.00 20.00    -0.269 N 
HETATM    5  C4  UNL     1     -34.445  14.458  -5.418  1.00 20.00     0.138 A 
HETATM    6  C5  UNL     1     -34.761  15.017  -6.633  1.00 20.00     0.070 A 
HETATM    7  C3  UNL     1     -34.202  16.309  -6.582  1.00 20.00     0.164 A 
HETATM    8 CL9  UNL     1     -35.621  14.337  -7.918  1.00 20.00    -0.081 Cl
HETATM    9  N7  UNL     1     -33.580  16.556  -5.426  1.00 20.00    -0.183 NA
ENDBRANCH   3   4
TORSDOF 1
ENDMDL
MODEL 7
REMARK VINA RESULT:      -3.6     11.792     12.577
REMARK  1 active torsions:
REMARK  status: ('A' for Active; 'I' for Inactive)
REMARK    1  A    between atoms: C6_6  and  N8_8 
ROOT
HETATM    1  C1  UNL     1     -34.483  16.462  -1.267  1.00 20.00     0.014 C 
HETATM    2  C2  UNL     1     -33.926  17.506  -1.067  1.00 20.00    -0.096 C 
HETATM    3  C6  UNL     1     -33.247  18.783  -0.826  1.00 20.00     0.243 C 
ENDROOT
BRANCH   3   4
HETATM    4  N8  UNL     1     -32.726  18.871   0.517  1.00 20.00    -0.269 N 
HETATM    5  C4  UNL     1     -33.403  18.592   1.668  1.00 20.00     0.138 A 
HETATM    6  C5  UNL     1     -32.513  18.817   2.691  1.00 20.00     0.070 A 
HETATM    7  C3  UNL     1     -31.331  19.228   2.045  1.00 20.00     0.164 A 
HETATM    8 CL9  UNL     1     -32.750  18.649   4.355  1.00 20.00    -0.081 Cl
HETATM    9  N7  UNL     1     -31.456  19.263   0.715  1.00 20.00    -0.183 NA
ENDBRANCH   3   4
TORSDOF 1
ENDMDL
MODEL 8
REMARK VINA RESULT:      -3.5     10.511     11.559
REMARK  1 active torsions:
REMARK  status: ('A' for Active; 'I' for Inactive)
REMARK    1  A    between atoms: C6_6  and  N8_8 
ROOT
HETATM    1  C1  UNL     1     -41.174   1.628  -4.155  1.00 20.00     0.014 C 
HETATM    2  C2  UNL     1     -42.034   2.235  -3.579  1.00 20.00    -0.096 C 
HETATM    3  C6  UNL     1     -43.087   2.974  -2.875  1.00 20.00     0.243 C 
ENDROOT
BRANCH   3   4
HETATM    4  N8  UNL     1     -42.711   4.345  -2.629  1.00 20.00    -0.269 N 
HETATM    5  C4  UNL     1     -41.912   4.797  -1.621  1.00 20.00     0.138 A 
HETATM    6  C5  UNL     1     -41.837   6.160  -1.782  1.00 20.00     0.070 A 
HETATM    7  C3  UNL     1     -42.627   6.423  -2.918  1.00 20.00     0.164 A 
HETATM    8 CL9  UNL     1     -40.997   7.291  -0.850  1.00 20.00    -0.081 Cl
HETATM    9  N7  UNL     1     -43.165   5.317  -3.439  1.00 20.00    -0.183 NA
ENDBRANCH   3   4
TORSDOF 1
ENDMDL
MODEL 9
REMARK VINA RESULT:      -3.5     12.160     13.157
REMARK  1 active torsions:
REMARK  status: ('A' for Active; 'I' for Inactive)
REMARK    1  A    between atoms: C6_6  and  N8_8 
ROOT
HETATM    1  C1  UNL     1     -34.050  17.767   0.038  1.00 20.00     0.014 C 
HETATM    2  C2  UNL     1     -34.355  16.993  -0.827  1.00 20.00    -0.096 C 
HETATM    3  C6  UNL     1     -34.728  16.046  -1.882  1.00 20.00     0.243 C 
ENDROOT
BRANCH   3   4
HETATM    4  N8  UNL     1     -34.193  16.430  -3.166  1.00 20.00    -0.269 N 
HETATM    5  C4  UNL     1     -34.409  17.612  -3.812  1.00 20.00     0.138 A 
HETATM    6  C5  UNL     1     -33.708  17.529  -4.991  1.00 20.00     0.070 A 
HETATM    7  C3  UNL     1     -33.106  16.256  -4.954  1.00 20.00     0.164 A 
HETATM    8 CL9  UNL     1     -33.575  18.675  -6.225  1.00 20.00    -0.081 Cl
HETATM    9  N7  UNL     1     -33.400  15.580  -3.840  1.00 20.00    -0.183 NA
ENDBRANCH   3   4
TORSDOF 1
ENDMDL
