MODEL 1
REMARK VINA RESULT:      -5.0      0.000      0.000
REMARK  3 active torsions:
REMARK  status: ('A' for Active; 'I' for Inactive)
REMARK    1  A    between atoms: C6_6  and  N11_11 
REMARK    2  A    between atoms: C8_8  and  C9_9 
REMARK    3  A    between atoms: C9_9  and  N11_11 
ROOT
HETATM    1  C1  UNL     1     -32.241   8.751   1.845  1.00 20.00     0.060 C 
HETATM    2  C8  UNL     1     -31.857   7.372   2.186  1.00 20.00     0.153 C 
HETATM    3  N10 UNL     1     -32.542   9.838   1.575  1.00 20.00    -0.197 NA
ENDROOT
BRANCH   2   4
HETATM    4  C9  UNL     1     -32.612   6.855   3.406  1.00 20.00     0.284 C 
BRANCH   4   5
HETATM    5  N11 UNL     1     -33.499   5.765   3.043  1.00 20.00     0.093 N 
HETATM    6  H27 UNL     1     -32.960   4.916   2.903  1.00 20.00     0.316 HD
BRANCH   5   7
HETATM    7  C6  UNL     1     -34.468   5.529   4.090  1.00 20.00     0.154 C 
HETATM    8  C4  UNL     1     -34.081   6.268   5.376  1.00 20.00     0.041 C 
HETATM    9  C2  UNL     1     -34.769   5.499   6.500  1.00 20.00     0.003 C 
HETATM   10  C3  UNL     1     -34.998   4.084   5.969  1.00 20.00     0.003 C 
HETATM   11  C5  UNL     1     -34.438   4.067   4.549  1.00 20.00     0.041 C 
HETATM   12  C7  UNL     1     -35.858   5.940   3.594  1.00 20.00     0.049 C 
ENDBRANCH   5   7
ENDBRANCH   4   5
ENDBRANCH   2   4
TORSDOF 3
ENDMDL
MODEL 2
REMARK VINA RESULT:      -4.5     10.992     12.351
REMARK  3 active torsions:
REMARK  status: ('A' for Active; 'I' for Inactive)
REMARK    1  A    between atoms: C6_6  and  N11_11 
REMARK    2  A    between atoms: C8_8  and  C9_9 
REMARK    3  A    between atoms: C9_9  and  N11_11 
ROOT
HETATM    1  C1  UNL     1     -34.048  13.603  -4.032  1.00 20.00     0.060 C 
HETATM    2  C8  UNL     1     -32.934  14.510  -3.719  1.00 20.00     0.153 C 
HETATM    3  N10 UNL     1     -34.926  12.884  -4.278  1.00 20.00    -0.197 NA
ENDROOT
BRANCH   2   4
HETATM    4  C9  UNL     1     -33.312  15.972  -3.932  1.00 20.00     0.284 C 
BRANCH   4   5
HETATM    5  N11 UNL     1     -34.721  16.188  -3.651  1.00 20.00     0.093 N 
HETATM    6  H27 UNL     1     -35.162  15.305  -3.411  1.00 20.00     0.316 HD
BRANCH   5   7
HETATM    7  C6  UNL     1     -34.882  17.102  -2.543  1.00 20.00     0.154 C 
HETATM    8  C4  UNL     1     -33.700  18.073  -2.451  1.00 20.00     0.041 C 
HETATM    9  C2  UNL     1     -33.668  18.527  -0.994  1.00 20.00     0.003 C 
HETATM   10  C3  UNL     1     -34.365  17.429  -0.191  1.00 20.00     0.003 C 
HETATM   11  C5  UNL     1     -34.784  16.365  -1.202  1.00 20.00     0.041 C 
HETATM   12  C7  UNL     1     -36.216  17.842  -2.687  1.00 20.00     0.049 C 
ENDBRANCH   5   7
ENDBRANCH   4   5
ENDBRANCH   2   4
TORSDOF 3
ENDMDL
MODEL 3
REMARK VINA RESULT:      -4.5      1.207      2.025
REMARK  3 active torsions:
REMARK  status: ('A' for Active; 'I' for Inactive)
REMARK    1  A    between atoms: C6_6  and  N11_11 
REMARK    2  A    between atoms: C8_8  and  C9_9 
REMARK    3  A    between atoms: C9_9  and  N11_11 
ROOT
HETATM    1  C1  UNL     1     -32.520   9.071   0.554  1.00 20.00     0.060 C 
HETATM    2  C8  UNL     1     -32.051   9.029   1.947  1.00 20.00     0.153 C 
HETATM    3  N10 UNL     1     -32.890   9.106  -0.546  1.00 20.00    -0.197 NA
ENDROOT
BRANCH   2   4
HETATM    4  C9  UNL     1     -32.214   7.643   2.563  1.00 20.00     0.284 C 
BRANCH   4   5
HETATM    5  N11 UNL     1     -33.541   7.482   3.130  1.00 20.00     0.093 N 
HETATM    6  H27 UNL     1     -34.233   7.472   2.386  1.00 20.00     0.316 HD
BRANCH   5   7
HETATM    7  C6  UNL     1     -33.631   6.239   3.862  1.00 20.00     0.154 C 
HETATM    8  C4  UNL     1     -34.943   5.509   3.550  1.00 20.00     0.041 C 
HETATM    9  C2  UNL     1     -35.195   4.609   4.757  1.00 20.00     0.003 C 
HETATM   10  C3  UNL     1     -34.439   5.243   5.925  1.00 20.00     0.003 C 
HETATM   11  C5  UNL     1     -33.767   6.494   5.367  1.00 20.00     0.041 C 
HETATM   12  C7  UNL     1     -32.409   5.373   3.541  1.00 20.00     0.049 C 
ENDBRANCH   5   7
ENDBRANCH   4   5
ENDBRANCH   2   4
TORSDOF 3
ENDMDL
MODEL 4
REMARK VINA RESULT:      -4.5     11.199     12.158
REMARK  3 active torsions:
REMARK  status: ('A' for Active; 'I' for Inactive)
REMARK    1  A    between atoms: C6_6  and  N11_11 
REMARK    2  A    between atoms: C8_8  and  C9_9 
REMARK    3  A    between atoms: C9_9  and  N11_11 
ROOT
HETATM    1  C1  UNL     1     -33.576  18.423  -1.095  1.00 20.00     0.060 C 
HETATM    2  C8  UNL     1     -34.413  17.361  -0.516  1.00 20.00     0.153 C 
HETATM    3  N10 UNL     1     -32.917  19.263  -1.549  1.00 20.00    -0.197 NA
ENDROOT
BRANCH   2   4
HETATM    4  C9  UNL     1     -34.685  16.241  -1.516  1.00 20.00     0.284 C 
BRANCH   4   5
HETATM    5  N11 UNL     1     -33.636  16.175  -2.517  1.00 20.00     0.093 N 
HETATM    6  H27 UNL     1     -32.819  15.713  -2.128  1.00 20.00     0.316 HD
BRANCH   5   7
HETATM    7  C6  UNL     1     -34.083  15.428  -3.671  1.00 20.00     0.154 C 
HETATM    8  C4  UNL     1     -35.567  15.063  -3.551  1.00 20.00     0.041 C 
HETATM    9  C2  UNL     1     -35.749  13.837  -4.441  1.00 20.00     0.003 C 
HETATM   10  C3  UNL     1     -34.372  13.182  -4.550  1.00 20.00     0.003 C 
HETATM   11  C5  UNL     1     -33.425  14.045  -3.721  1.00 20.00     0.041 C 
HETATM   12  C7  UNL     1     -33.798  16.239  -4.940  1.00 20.00     0.049 C 
ENDBRANCH   5   7
ENDBRANCH   4   5
ENDBRANCH   2   4
TORSDOF 3
ENDMDL
MODEL 5
REMARK VINA RESULT:      -4.4     11.368     12.683
REMARK  3 active torsions:
REMARK  status: ('A' for Active; 'I' for Inactive)
REMARK    1  A    between atoms: C6_6  and  N11_11 
REMARK    2  A    between atoms: C8_8  and  C9_9 
REMARK    3  A    between atoms: C9_9  and  N11_11 
ROOT
HETATM    1  C1  UNL     1     -34.801  13.641  -5.318  1.00 20.00     0.060 C 
HETATM    2  C8  UNL     1     -34.843  14.727  -6.310  1.00 20.00     0.153 C 
HETATM    3  N10 UNL     1     -34.769  12.784  -4.537  1.00 20.00    -0.197 NA
ENDROOT
BRANCH   2   4
HETATM    4  C9  UNL     1     -34.728  16.101  -5.657  1.00 20.00     0.284 C 
BRANCH   4   5
HETATM    5  N11 UNL     1     -33.878  16.046  -4.481  1.00 20.00     0.093 N 
HETATM    6  H27 UNL     1     -33.006  16.534  -4.665  1.00 20.00     0.316 HD
BRANCH   5   7
HETATM    7  C6  UNL     1     -34.530  16.674  -3.355  1.00 20.00     0.154 C 
HETATM    8  C4  UNL     1     -33.714  17.864  -2.837  1.00 20.00     0.041 C 
HETATM    9  C2  UNL     1     -34.138  18.035  -1.381  1.00 20.00     0.003 C 
HETATM   10  C3  UNL     1     -34.666  16.674  -0.929  1.00 20.00     0.003 C 
HETATM   11  C5  UNL     1     -34.536  15.746  -2.134  1.00 20.00     0.041 C 
HETATM   12  C7  UNL     1     -35.949  17.090  -3.759  1.00 20.00     0.049 C 
ENDBRANCH   5   7
ENDBRANCH   4   5
ENDBRANCH   2   4
TORSDOF 3
ENDMDL
MODEL 6
REMARK VINA RESULT:      -4.4     11.348     12.352
REMARK  3 active torsions:
REMARK  status: ('A' for Active; 'I' for Inactive)
REMARK    1  A    between atoms: C6_6  and  N11_11 
REMARK    2  A    between atoms: C8_8  and  C9_9 
REMARK    3  A    between atoms: C9_9  and  N11_11 
ROOT
HETATM    1  C1  UNL     1     -33.398  18.262  -0.925  1.00 20.00     0.060 C 
HETATM    2  C8  UNL     1     -34.283  17.132  -0.602  1.00 20.00     0.153 C 
HETATM    3  N10 UNL     1     -32.700  19.154  -1.177  1.00 20.00    -0.197 NA
ENDROOT
BRANCH   2   4
HETATM    4  C9  UNL     1     -34.736  16.387  -1.853  1.00 20.00     0.284 C 
BRANCH   4   5
HETATM    5  N11 UNL     1     -33.771  16.544  -2.927  1.00 20.00     0.093 N 
HETATM    6  H27 UNL     1     -32.847  16.704  -2.537  1.00 20.00     0.316 HD
BRANCH   5   7
HETATM    7  C6  UNL     1     -33.726  15.353  -3.746  1.00 20.00     0.154 C 
HETATM    8  C4  UNL     1     -34.058  15.675  -5.207  1.00 20.00     0.041 C 
HETATM    9  C2  UNL     1     -34.565  14.363  -5.799  1.00 20.00     0.003 C 
HETATM   10  C3  UNL     1     -35.078  13.534  -4.621  1.00 20.00     0.003 C 
HETATM   11  C5  UNL     1     -34.856  14.386  -3.375  1.00 20.00     0.041 C 
HETATM   12  C7  UNL     1     -32.348  14.696  -3.608  1.00 20.00     0.049 C 
ENDBRANCH   5   7
ENDBRANCH   4   5
ENDBRANCH   2   4
TORSDOF 3
ENDMDL
MODEL 7
REMARK VINA RESULT:      -4.4     11.311     12.478
REMARK  3 active torsions:
REMARK  status: ('A' for Active; 'I' for Inactive)
REMARK    1  A    between atoms: C6_6  and  N11_11 
REMARK    2  A    between atoms: C8_8  and  C9_9 
REMARK    3  A    between atoms: C9_9  and  N11_11 
ROOT
HETATM    1  C1  UNL     1     -35.684  13.713  -4.448  1.00 20.00     0.060 C 
HETATM    2  C8  UNL     1     -36.661  14.780  -4.714  1.00 20.00     0.153 C 
HETATM    3  N10 UNL     1     -34.914  12.870  -4.239  1.00 20.00    -0.197 NA
ENDROOT
BRANCH   2   4
HETATM    4  C9  UNL     1     -36.428  16.001  -3.829  1.00 20.00     0.284 C 
BRANCH   4   5
HETATM    5  N11 UNL     1     -35.848  15.613  -2.555  1.00 20.00     0.093 N 
HETATM    6  H27 UNL     1     -35.483  14.667  -2.618  1.00 20.00     0.316 HD
BRANCH   5   7
HETATM    7  C6  UNL     1     -34.766  16.503  -2.200  1.00 20.00     0.154 C 
HETATM    8  C4  UNL     1     -34.635  16.634  -0.679  1.00 20.00     0.041 C 
HETATM    9  C2  UNL     1     -33.941  17.974  -0.452  1.00 20.00     0.003 C 
HETATM   10  C3  UNL     1     -34.228  18.818  -1.694  1.00 20.00     0.003 C 
HETATM   11  C5  UNL     1     -35.081  17.946  -2.611  1.00 20.00     0.041 C 
HETATM   12  C7  UNL     1     -33.468  16.002  -2.841  1.00 20.00     0.049 C 
ENDBRANCH   5   7
ENDBRANCH   4   5
ENDBRANCH   2   4
TORSDOF 3
ENDMDL
MODEL 8
REMARK VINA RESULT:      -4.4      9.406     11.279
REMARK  3 active torsions:
REMARK  status: ('A' for Active; 'I' for Inactive)
REMARK    1  A    between atoms: C6_6  and  N11_11 
REMARK    2  A    between atoms: C8_8  and  C9_9 
REMARK    3  A    between atoms: C9_9  and  N11_11 
ROOT
HETATM    1  C1  UNL     1     -42.689   1.953  -4.911  1.00 20.00     0.060 C 
HETATM    2  C8  UNL     1     -42.009   2.072  -3.612  1.00 20.00     0.153 C 
HETATM    3  N10 UNL     1     -43.224   1.857  -5.936  1.00 20.00    -0.197 NA
ENDROOT
BRANCH   2   4
HETATM    4  C9  UNL     1     -42.511   3.270  -2.813  1.00 20.00     0.284 C 
BRANCH   4   5
HETATM    5  N11 UNL     1     -41.555   3.645  -1.787  1.00 20.00     0.093 N 
HETATM    6  H27 UNL     1     -40.621   3.683  -2.185  1.00 20.00     0.316 HD
BRANCH   5   7
HETATM    7  C6  UNL     1     -41.879   4.945  -1.244  1.00 20.00     0.154 C 
HETATM    8  C4  UNL     1     -42.248   5.932  -2.358  1.00 20.00     0.041 C 
HETATM    9  C2  UNL     1     -41.970   7.315  -1.774  1.00 20.00     0.003 C 
HETATM   10  C3  UNL     1     -40.936   7.109  -0.667  1.00 20.00     0.003 C 
HETATM   11  C5  UNL     1     -40.640   5.612  -0.635  1.00 20.00     0.041 C 
HETATM   12  C7  UNL     1     -43.007   4.799  -0.218  1.00 20.00     0.049 C 
ENDBRANCH   5   7
ENDBRANCH   4   5
ENDBRANCH   2   4
TORSDOF 3
ENDMDL
MODEL 9
REMARK VINA RESULT:      -4.3     10.962     13.760
REMARK  3 active torsions:
REMARK  status: ('A' for Active; 'I' for Inactive)
REMARK    1  A    between atoms: C6_6  and  N11_11 
REMARK    2  A    between atoms: C8_8  and  C9_9 
REMARK    3  A    between atoms: C9_9  and  N11_11 
ROOT
HETATM    1  C1  UNL     1     -34.079  13.637  -3.991  1.00 20.00     0.060 C 
HETATM    2  C8  UNL     1     -33.179  14.772  -3.734  1.00 20.00     0.153 C 
HETATM    3  N10 UNL     1     -34.787  12.740  -4.193  1.00 20.00    -0.197 NA
ENDROOT
BRANCH   2   4
HETATM    4  C9  UNL     1     -33.731  16.077  -4.299  1.00 20.00     0.284 C 
BRANCH   4   5
HETATM    5  N11 UNL     1     -33.315  16.260  -5.678  1.00 20.00     0.093 N 
HETATM    6  H27 UNL     1     -32.679  15.516  -5.946  1.00 20.00     0.316 HD
BRANCH   5   7
HETATM    7  C6  UNL     1     -34.460  16.229  -6.560  1.00 20.00     0.154 C 
HETATM    8  C4  UNL     1     -35.770  16.193  -5.765  1.00 20.00     0.041 C 
HETATM    9  C2  UNL     1     -36.793  15.569  -6.709  1.00 20.00     0.003 C 
HETATM   10  C3  UNL     1     -35.994  14.741  -7.716  1.00 20.00     0.003 C 
HETATM   11  C5  UNL     1     -34.526  14.905  -7.330  1.00 20.00     0.041 C 
HETATM   12  C7  UNL     1     -34.403  17.433  -7.506  1.00 20.00     0.049 C 
ENDBRANCH   5   7
ENDBRANCH   4   5
ENDBRANCH   2   4
TORSDOF 3
ENDMDL
