MODEL 1
REMARK VINA RESULT:      -4.5      0.000      0.000
REMARK  0 active torsions:
REMARK  status: ('A' for Active; 'I' for Inactive)
ROOT
HETATM    1  C1  UNL     1     -33.573  15.960  -5.011  1.00 20.00     0.225 C 
HETATM    2  C2  UNL     1     -34.812  13.299  -4.952  1.00 20.00     0.021 C 
HETATM    3  C3  UNL     1     -34.841  14.167  -3.703  1.00 20.00     0.020 C 
HETATM    4  C4  UNL     1     -34.919  14.183  -6.177  1.00 20.00     0.122 C 
HETATM    5  C5  UNL     1     -33.687  15.188  -3.688  1.00 20.00     0.034 C 
HETATM    6  C6  UNL     1     -32.337  14.484  -3.455  1.00 20.00     0.025 C 
HETATM    7  C7  UNL     1     -33.926  16.184  -2.538  1.00 20.00     0.025 C 
HETATM    8  N8  UNL     1     -34.019  15.319  -6.148  1.00 20.00    -0.360 N 
HETATM    9  O9  UNL     1     -33.015  17.058  -5.071  1.00 20.00    -0.273 OA
HETATM   10  H22 UNL     1     -33.689  15.673  -7.041  1.00 20.00     0.162 HD
ENDROOT
TORSDOF 0
ENDMDL
MODEL 2
REMARK VINA RESULT:      -4.4      2.140      3.428
REMARK  0 active torsions:
REMARK  status: ('A' for Active; 'I' for Inactive)
ROOT
HETATM    1  C1  UNL     1     -34.531  13.675  -4.535  1.00 20.00     0.225 C 
HETATM    2  C2  UNL     1     -33.122  16.248  -4.647  1.00 20.00     0.021 C 
HETATM    3  C3  UNL     1     -34.639  16.218  -4.769  1.00 20.00     0.020 C 
HETATM    4  C4  UNL     1     -32.676  15.155  -3.698  1.00 20.00     0.122 C 
HETATM    5  C5  UNL     1     -35.144  14.860  -5.295  1.00 20.00     0.034 C 
HETATM    6  C6  UNL     1     -34.782  14.681  -6.782  1.00 20.00     0.025 C 
HETATM    7  C7  UNL     1     -36.675  14.817  -5.154  1.00 20.00     0.025 C 
HETATM    8  N8  UNL     1     -33.285  13.869  -3.975  1.00 20.00    -0.360 N 
HETATM    9  O9  UNL     1     -35.079  12.570  -4.511  1.00 20.00    -0.273 OA
HETATM   10  H22 UNL     1     -32.748  13.040  -3.737  1.00 20.00     0.162 HD
ENDROOT
TORSDOF 0
ENDMDL
MODEL 3
REMARK VINA RESULT:      -4.3     12.160     13.392
REMARK  0 active torsions:
REMARK  status: ('A' for Active; 'I' for Inactive)
ROOT
HETATM    1  C1  UNL     1     -42.506   5.492  -2.629  1.00 20.00     0.225 C 
HETATM    2  C2  UNL     1     -40.842   5.902  -0.245  1.00 20.00     0.021 C 
HETATM    3  C3  UNL     1     -40.706   4.612  -1.041  1.00 20.00     0.020 C 
HETATM    4  C4  UNL     1     -41.143   7.044  -1.192  1.00 20.00     0.122 C 
HETATM    5  C5  UNL     1     -41.990   4.287  -1.828  1.00 20.00     0.034 C 
HETATM    6  C6  UNL     1     -43.122   3.858  -0.874  1.00 20.00     0.025 C 
HETATM    7  C7  UNL     1     -41.695   3.124  -2.792  1.00 20.00     0.025 C 
HETATM    8  N8  UNL     1     -42.199   6.744  -2.138  1.00 20.00    -0.360 N 
HETATM    9  O9  UNL     1     -43.244   5.349  -3.606  1.00 20.00    -0.273 OA
HETATM   10  H22 UNL     1     -42.761   7.523  -2.468  1.00 20.00     0.162 HD
ENDROOT
TORSDOF 0
ENDMDL
MODEL 4
REMARK VINA RESULT:      -4.3      1.756      2.234
REMARK  0 active torsions:
REMARK  status: ('A' for Active; 'I' for Inactive)
ROOT
HETATM    1  C1  UNL     1     -33.304  14.627  -3.703  1.00 20.00     0.225 C 
HETATM    2  C2  UNL     1     -36.196  14.269  -4.064  1.00 20.00     0.021 C 
HETATM    3  C3  UNL     1     -35.566  15.624  -4.354  1.00 20.00     0.020 C 
HETATM    4  C4  UNL     1     -35.220  13.174  -4.442  1.00 20.00     0.122 C 
HETATM    5  C5  UNL     1     -34.255  15.826  -3.570  1.00 20.00     0.034 C 
HETATM    6  C6  UNL     1     -34.540  16.014  -2.068  1.00 20.00     0.025 C 
HETATM    7  C7  UNL     1     -33.555  17.090  -4.098  1.00 20.00     0.025 C 
HETATM    8  N8  UNL     1     -33.881  13.396  -3.935  1.00 20.00    -0.360 N 
HETATM    9  O9  UNL     1     -32.091  14.741  -3.510  1.00 20.00    -0.273 OA
HETATM   10  H22 UNL     1     -33.319  12.574  -3.733  1.00 20.00     0.162 HD
ENDROOT
TORSDOF 0
ENDMDL
MODEL 5
REMARK VINA RESULT:      -4.2      1.908      2.748
REMARK  0 active torsions:
REMARK  status: ('A' for Active; 'I' for Inactive)
ROOT
HETATM    1  C1  UNL     1     -34.604  13.761  -5.184  1.00 20.00     0.225 C 
HETATM    2  C2  UNL     1     -34.367  16.545  -6.087  1.00 20.00     0.021 C 
HETATM    3  C3  UNL     1     -33.361  15.993  -5.088  1.00 20.00     0.020 C 
HETATM    4  C4  UNL     1     -34.773  15.445  -7.046  1.00 20.00     0.122 C 
HETATM    5  C5  UNL     1     -33.941  14.814  -4.283  1.00 20.00     0.034 C 
HETATM    6  C6  UNL     1     -35.014  15.304  -3.293  1.00 20.00     0.025 C 
HETATM    7  C7  UNL     1     -32.802  14.155  -3.485  1.00 20.00     0.025 C 
HETATM    8  N8  UNL     1     -35.122  14.203  -6.383  1.00 20.00    -0.360 N 
HETATM    9  O9  UNL     1     -34.757  12.596  -4.810  1.00 20.00    -0.273 OA
HETATM   10  H22 UNL     1     -35.805  13.608  -6.842  1.00 20.00     0.162 HD
ENDROOT
TORSDOF 0
ENDMDL
MODEL 6
REMARK VINA RESULT:      -4.2      2.389      3.573
REMARK  0 active torsions:
REMARK  status: ('A' for Active; 'I' for Inactive)
ROOT
HETATM    1  C1  UNL     1     -36.026  14.782  -3.642  1.00 20.00     0.225 C 
HETATM    2  C2  UNL     1     -33.798  16.501  -2.807  1.00 20.00     0.021 C 
HETATM    3  C3  UNL     1     -33.856  15.993  -4.240  1.00 20.00     0.020 C 
HETATM    4  C4  UNL     1     -35.206  16.751  -2.308  1.00 20.00     0.122 C 
HETATM    5  C5  UNL     1     -34.668  14.688  -4.352  1.00 20.00     0.034 C 
HETATM    6  C6  UNL     1     -33.903  13.512  -3.714  1.00 20.00     0.025 C 
HETATM    7  C7  UNL     1     -34.893  14.375  -5.842  1.00 20.00     0.025 C 
HETATM    8  N8  UNL     1     -36.115  15.655  -2.578  1.00 20.00    -0.360 N 
HETATM    9  O9  UNL     1     -36.964  14.040  -3.943  1.00 20.00    -0.273 OA
HETATM   10  H22 UNL     1     -36.884  15.519  -1.928  1.00 20.00     0.162 HD
ENDROOT
TORSDOF 0
ENDMDL
MODEL 7
REMARK VINA RESULT:      -4.1      1.502      2.686
REMARK  0 active torsions:
REMARK  status: ('A' for Active; 'I' for Inactive)
ROOT
HETATM    1  C1  UNL     1     -33.493  15.905  -4.979  1.00 20.00     0.225 C 
HETATM    2  C2  UNL     1     -34.817  13.351  -4.390  1.00 20.00     0.021 C 
HETATM    3  C3  UNL     1     -34.936  13.953  -5.782  1.00 20.00     0.020 C 
HETATM    4  C4  UNL     1     -33.450  13.671  -3.822  1.00 20.00     0.122 C 
HETATM    5  C5  UNL     1     -34.744  15.482  -5.764  1.00 20.00     0.034 C 
HETATM    6  C6  UNL     1     -35.950  16.176  -5.103  1.00 20.00     0.025 C 
HETATM    7  C7  UNL     1     -34.627  15.981  -7.215  1.00 20.00     0.025 C 
HETATM    8  N8  UNL     1     -33.077  15.065  -3.968  1.00 20.00    -0.360 N 
HETATM    9  O9  UNL     1     -32.946  16.992  -5.175  1.00 20.00    -0.273 OA
HETATM   10  H22 UNL     1     -32.457  15.455  -3.264  1.00 20.00     0.162 HD
ENDROOT
TORSDOF 0
ENDMDL
MODEL 8
REMARK VINA RESULT:      -4.0     12.554     13.337
REMARK  0 active torsions:
REMARK  status: ('A' for Active; 'I' for Inactive)
ROOT
HETATM    1  C1  UNL     1     -33.775   6.436   4.221  1.00 20.00     0.225 C 
HETATM    2  C2  UNL     1     -35.235   4.670   6.056  1.00 20.00     0.021 C 
HETATM    3  C3  UNL     1     -34.879   4.173   4.662  1.00 20.00     0.020 C 
HETATM    4  C4  UNL     1     -34.134   5.579   6.559  1.00 20.00     0.122 C 
HETATM    5  C5  UNL     1     -34.695   5.337   3.669  1.00 20.00     0.034 C 
HETATM    6  C6  UNL     1     -36.049   5.998   3.346  1.00 20.00     0.025 C 
HETATM    7  C7  UNL     1     -34.097   4.781   2.364  1.00 20.00     0.025 C 
HETATM    8  N8  UNL     1     -33.726   6.579   5.591  1.00 20.00    -0.360 N 
HETATM    9  O9  UNL     1     -33.187   7.221   3.472  1.00 20.00    -0.273 OA
HETATM   10  H22 UNL     1     -33.373   7.460   5.955  1.00 20.00     0.162 HD
ENDROOT
TORSDOF 0
ENDMDL
MODEL 9
REMARK VINA RESULT:      -3.9     11.693     12.778
REMARK  0 active torsions:
REMARK  status: ('A' for Active; 'I' for Inactive)
ROOT
HETATM    1  C1  UNL     1     -41.157   6.280  -0.776  1.00 20.00     0.225 C 
HETATM    2  C2  UNL     1     -42.871   6.203  -3.159  1.00 20.00     0.021 C 
HETATM    3  C3  UNL     1     -43.238   5.363  -1.944  1.00 20.00     0.020 C 
HETATM    4  C4  UNL     1     -42.234   7.497  -2.697  1.00 20.00     0.122 C 
HETATM    5  C5  UNL     1     -42.005   5.035  -1.081  1.00 20.00     0.034 C 
HETATM    6  C6  UNL     1     -41.088   4.026  -1.798  1.00 20.00     0.025 C 
HETATM    7  C7  UNL     1     -42.482   4.410   0.242  1.00 20.00     0.025 C 
HETATM    8  N8  UNL     1     -41.202   7.306  -1.697  1.00 20.00    -0.360 N 
HETATM    9  O9  UNL     1     -40.395   6.320   0.192  1.00 20.00    -0.273 OA
HETATM   10  H22 UNL     1     -40.448   7.986  -1.673  1.00 20.00     0.162 HD
ENDROOT
TORSDOF 0
ENDMDL
