MODEL 1
REMARK VINA RESULT:      -4.8      0.000      0.000
REMARK  4 active torsions:
REMARK  status: ('A' for Active; 'I' for Inactive)
REMARK    1  A    between atoms: C6_6  and  N10_10 
REMARK    2  A    between atoms: C7_7  and  C8_8 
REMARK    3  A    between atoms: C7_7  and  C9_9 
REMARK    4  A    between atoms: C8_8  and  N10_10 
ROOT
HETATM    1  C1  UNL     1     -32.294   9.447   0.836  1.00 20.00     0.013 C 
HETATM    2  C2  UNL     1     -32.125   8.706   1.765  1.00 20.00    -0.087 C 
HETATM    3  C6  UNL     1     -31.916   7.804   2.901  1.00 20.00     0.364 C 
ENDROOT
BRANCH   3   4
HETATM    4  N10 UNL     1     -32.839   6.660   2.834  1.00 20.00     0.095 N 
HETATM    5  C5  UNL     1     -32.108   5.422   3.151  1.00 20.00     0.310 C 
BRANCH   4   6
HETATM    6  C8  UNL     1     -33.964   6.841   3.707  1.00 20.00     0.273 C 
BRANCH   6   7
HETATM    7  C7  UNL     1     -34.708   5.536   3.980  1.00 20.00     0.034 C 
BRANCH   7   8
HETATM    8  C9  UNL     1     -35.017   5.259   5.465  1.00 20.00    -0.021 C 
HETATM    9  C3  UNL     1     -34.160   6.171   6.348  1.00 20.00     0.009 C 
HETATM   10  C4  UNL     1     -34.778   3.798   5.849  1.00 20.00     0.009 C 
ENDBRANCH   7   8
ENDBRANCH   6   7
ENDBRANCH   4   6
ENDBRANCH   3   4
TORSDOF 4
ENDMDL
MODEL 2
REMARK VINA RESULT:      -4.3      1.002      5.198
REMARK  4 active torsions:
REMARK  status: ('A' for Active; 'I' for Inactive)
REMARK    1  A    between atoms: C6_6  and  N10_10 
REMARK    2  A    between atoms: C7_7  and  C8_8 
REMARK    3  A    between atoms: C7_7  and  C9_9 
REMARK    4  A    between atoms: C8_8  and  N10_10 
ROOT
HETATM    1  C1  UNL     1     -35.144   4.056   5.898  1.00 20.00     0.013 C 
HETATM    2  C2  UNL     1     -34.964   4.681   4.888  1.00 20.00    -0.087 C 
HETATM    3  C6  UNL     1     -34.748   5.441   3.655  1.00 20.00     0.364 C 
ENDROOT
BRANCH   3   4
HETATM    4  N10 UNL     1     -33.804   6.547   3.883  1.00 20.00     0.095 N 
HETATM    5  C5  UNL     1     -33.581   6.709   5.329  1.00 20.00     0.310 C 
BRANCH   4   6
HETATM    6  C8  UNL     1     -32.568   6.334   3.184  1.00 20.00     0.273 C 
BRANCH   6   7
HETATM    7  C7  UNL     1     -31.834   7.639   2.884  1.00 20.00     0.034 C 
BRANCH   7   8
HETATM    8  C9  UNL     1     -32.449   8.489   1.754  1.00 20.00    -0.021 C 
HETATM    9  C3  UNL     1     -31.522   8.472   0.535  1.00 20.00     0.009 C 
HETATM   10  C4  UNL     1     -32.709   9.933   2.184  1.00 20.00     0.009 C 
ENDBRANCH   7   8
ENDBRANCH   6   7
ENDBRANCH   4   6
ENDBRANCH   3   4
TORSDOF 4
ENDMDL
MODEL 3
REMARK VINA RESULT:      -4.1      1.128      5.137
REMARK  4 active torsions:
REMARK  status: ('A' for Active; 'I' for Inactive)
REMARK    1  A    between atoms: C6_6  and  N10_10 
REMARK    2  A    between atoms: C7_7  and  C8_8 
REMARK    3  A    between atoms: C7_7  and  C9_9 
REMARK    4  A    between atoms: C8_8  and  N10_10 
ROOT
HETATM    1  C1  UNL     1     -35.103   4.336   6.054  1.00 20.00     0.013 C 
HETATM    2  C2  UNL     1     -34.505   5.296   5.652  1.00 20.00    -0.087 C 
HETATM    3  C6  UNL     1     -33.777   6.471   5.165  1.00 20.00     0.364 C 
ENDROOT
BRANCH   3   4
HETATM    4  N10 UNL     1     -32.990   6.136   3.968  1.00 20.00     0.095 N 
HETATM    5  C5  UNL     1     -33.885   5.609   2.925  1.00 20.00     0.310 C 
BRANCH   4   6
HETATM    6  C8  UNL     1     -32.246   7.269   3.495  1.00 20.00     0.273 C 
BRANCH   6   7
HETATM    7  C7  UNL     1     -32.213   7.352   1.971  1.00 20.00     0.034 C 
BRANCH   7   8
HETATM    8  C9  UNL     1     -31.929   8.755   1.399  1.00 20.00    -0.021 C 
HETATM    9  C3  UNL     1     -32.755   9.797   2.159  1.00 20.00     0.009 C 
HETATM   10  C4  UNL     1     -32.231   8.849  -0.097  1.00 20.00     0.009 C 
ENDBRANCH   7   8
ENDBRANCH   6   7
ENDBRANCH   4   6
ENDBRANCH   3   4
TORSDOF 4
ENDMDL
MODEL 4
REMARK VINA RESULT:      -4.1      1.279      4.576
REMARK  4 active torsions:
REMARK  status: ('A' for Active; 'I' for Inactive)
REMARK    1  A    between atoms: C6_6  and  N10_10 
REMARK    2  A    between atoms: C7_7  and  C8_8 
REMARK    3  A    between atoms: C7_7  and  C9_9 
REMARK    4  A    between atoms: C8_8  and  N10_10 
ROOT
HETATM    1  C1  UNL     1     -33.737   7.165   6.833  1.00 20.00     0.013 C 
HETATM    2  C2  UNL     1     -34.216   6.168   6.366  1.00 20.00    -0.087 C 
HETATM    3  C6  UNL     1     -34.803   4.951   5.800  1.00 20.00     0.364 C 
ENDROOT
BRANCH   3   4
HETATM    4  N10 UNL     1     -34.628   4.919   4.339  1.00 20.00     0.095 N 
HETATM    5  C5  UNL     1     -35.709   5.688   3.700  1.00 20.00     0.310 C 
BRANCH   4   6
HETATM    6  C8  UNL     1     -33.336   5.414   3.955  1.00 20.00     0.273 C 
BRANCH   6   7
HETATM    7  C7  UNL     1     -33.426   6.606   3.006  1.00 20.00     0.034 C 
BRANCH   7   8
HETATM    8  C9  UNL     1     -32.080   7.283   2.678  1.00 20.00    -0.021 C 
HETATM    9  C3  UNL     1     -31.360   7.654   3.979  1.00 20.00     0.009 C 
HETATM   10  C4  UNL     1     -32.249   8.530   1.810  1.00 20.00     0.009 C 
ENDBRANCH   7   8
ENDBRANCH   6   7
ENDBRANCH   4   6
ENDBRANCH   3   4
TORSDOF 4
ENDMDL
MODEL 5
REMARK VINA RESULT:      -4.0     11.020     12.728
REMARK  4 active torsions:
REMARK  status: ('A' for Active; 'I' for Inactive)
REMARK    1  A    between atoms: C6_6  and  N10_10 
REMARK    2  A    between atoms: C7_7  and  C8_8 
REMARK    3  A    between atoms: C7_7  and  C9_9 
REMARK    4  A    between atoms: C8_8  and  N10_10 
ROOT
HETATM    1  C1  UNL     1     -34.638  16.359  -1.366  1.00 20.00     0.013 C 
HETATM    2  C2  UNL     1     -34.202  17.103  -2.201  1.00 20.00    -0.087 C 
HETATM    3  C6  UNL     1     -33.666  18.012  -3.216  1.00 20.00     0.364 C 
ENDROOT
BRANCH   3   4
HETATM    4  N10 UNL     1     -33.989  17.530  -4.569  1.00 20.00     0.095 N 
HETATM    5  C5  UNL     1     -33.677  18.582  -5.551  1.00 20.00     0.310 C 
BRANCH   4   6
HETATM    6  C8  UNL     1     -33.294  16.311  -4.871  1.00 20.00     0.273 C 
BRANCH   6   7
HETATM    7  C7  UNL     1     -34.179  15.297  -5.592  1.00 20.00     0.034 C 
BRANCH   7   8
HETATM    8  C9  UNL     1     -34.439  13.990  -4.816  1.00 20.00    -0.021 C 
HETATM    9  C3  UNL     1     -35.825  14.043  -4.168  1.00 20.00     0.009 C 
HETATM   10  C4  UNL     1     -33.379  13.725  -3.745  1.00 20.00     0.009 C 
ENDBRANCH   7   8
ENDBRANCH   6   7
ENDBRANCH   4   6
ENDBRANCH   3   4
TORSDOF 4
ENDMDL
MODEL 6
REMARK VINA RESULT:      -4.0     11.274     12.652
REMARK  4 active torsions:
REMARK  status: ('A' for Active; 'I' for Inactive)
REMARK    1  A    between atoms: C6_6  and  N10_10 
REMARK    2  A    between atoms: C7_7  and  C8_8 
REMARK    3  A    between atoms: C7_7  and  C9_9 
REMARK    4  A    between atoms: C8_8  and  N10_10 
ROOT
HETATM    1  C1  UNL     1     -34.789  17.007  -0.418  1.00 20.00     0.013 C 
HETATM    2  C2  UNL     1     -34.400  16.588  -1.474  1.00 20.00    -0.087 C 
HETATM    3  C6  UNL     1     -33.921  16.081  -2.762  1.00 20.00     0.364 C 
ENDROOT
BRANCH   3   4
HETATM    4  N10 UNL     1     -34.631  14.846  -3.132  1.00 20.00     0.095 N 
HETATM    5  C5  UNL     1     -36.050  15.152  -3.375  1.00 20.00     0.310 C 
BRANCH   4   6
HETATM    6  C8  UNL     1     -34.029  14.216  -4.273  1.00 20.00     0.273 C 
BRANCH   6   7
HETATM    7  C7  UNL     1     -34.989  14.107  -5.455  1.00 20.00     0.034 C 
BRANCH   7   8
HETATM    8  C9  UNL     1     -34.516  14.803  -6.746  1.00 20.00    -0.021 C 
HETATM    9  C3  UNL     1     -34.360  16.306  -6.494  1.00 20.00     0.009 C 
HETATM   10  C4  UNL     1     -35.472  14.575  -7.918  1.00 20.00     0.009 C 
ENDBRANCH   7   8
ENDBRANCH   6   7
ENDBRANCH   4   6
ENDBRANCH   3   4
TORSDOF 4
ENDMDL
MODEL 7
REMARK VINA RESULT:      -4.0     11.108     11.978
REMARK  4 active torsions:
REMARK  status: ('A' for Active; 'I' for Inactive)
REMARK    1  A    between atoms: C6_6  and  N10_10 
REMARK    2  A    between atoms: C7_7  and  C8_8 
REMARK    3  A    between atoms: C7_7  and  C9_9 
REMARK    4  A    between atoms: C8_8  and  N10_10 
ROOT
HETATM    1  C1  UNL     1     -34.761  13.247  -4.550  1.00 20.00     0.013 C 
HETATM    2  C2  UNL     1     -33.943  14.009  -4.113  1.00 20.00    -0.087 C 
HETATM    3  C6  UNL     1     -32.941  14.934  -3.580  1.00 20.00     0.364 C 
ENDROOT
BRANCH   3   4
HETATM    4  N10 UNL     1     -33.355  16.330  -3.794  1.00 20.00     0.095 N 
HETATM    5  C5  UNL     1     -33.534  16.572  -5.235  1.00 20.00     0.310 C 
BRANCH   4   6
HETATM    6  C8  UNL     1     -34.549  16.641  -3.059  1.00 20.00     0.273 C 
BRANCH   6   7
HETATM    7  C7  UNL     1     -34.389  16.411  -1.559  1.00 20.00     0.034 C 
BRANCH   7   8
HETATM    8  C9  UNL     1     -34.480  17.681  -0.690  1.00 20.00    -0.021 C 
HETATM    9  C3  UNL     1     -33.085  18.294  -0.526  1.00 20.00     0.009 C 
HETATM   10  C4  UNL     1     -35.086  17.407   0.686  1.00 20.00     0.009 C 
ENDBRANCH   7   8
ENDBRANCH   6   7
ENDBRANCH   4   6
ENDBRANCH   3   4
TORSDOF 4
ENDMDL
MODEL 8
REMARK VINA RESULT:      -4.0     10.661     11.903
REMARK  4 active torsions:
REMARK  status: ('A' for Active; 'I' for Inactive)
REMARK    1  A    between atoms: C6_6  and  N10_10 
REMARK    2  A    between atoms: C7_7  and  C8_8 
REMARK    3  A    between atoms: C7_7  and  C9_9 
REMARK    4  A    between atoms: C8_8  and  N10_10 
ROOT
HETATM    1  C1  UNL     1     -34.415  14.980  -6.767  1.00 20.00     0.013 C 
HETATM    2  C2  UNL     1     -34.777  14.333  -5.822  1.00 20.00    -0.087 C 
HETATM    3  C6  UNL     1     -35.220  13.541  -4.673  1.00 20.00     0.364 C 
ENDROOT
BRANCH   3   4
HETATM    4  N10 UNL     1     -34.525  13.967  -3.448  1.00 20.00     0.095 N 
HETATM    5  C5  UNL     1     -33.071  13.834  -3.639  1.00 20.00     0.310 C 
BRANCH   4   6
HETATM    6  C8  UNL     1     -34.883  15.307  -3.080  1.00 20.00     0.273 C 
BRANCH   6   7
HETATM    7  C7  UNL     1     -33.667  16.219  -2.938  1.00 20.00     0.034 C 
BRANCH   7   8
HETATM    8  C9  UNL     1     -33.637  17.071  -1.653  1.00 20.00    -0.021 C 
HETATM    9  C3  UNL     1     -34.756  16.621  -0.710  1.00 20.00     0.009 C 
HETATM   10  C4  UNL     1     -33.775  18.567  -1.940  1.00 20.00     0.009 C 
ENDBRANCH   7   8
ENDBRANCH   6   7
ENDBRANCH   4   6
ENDBRANCH   3   4
TORSDOF 4
ENDMDL
MODEL 9
REMARK VINA RESULT:      -3.9     11.115     12.291
REMARK  4 active torsions:
REMARK  status: ('A' for Active; 'I' for Inactive)
REMARK    1  A    between atoms: C6_6  and  N10_10 
REMARK    2  A    between atoms: C7_7  and  C8_8 
REMARK    3  A    between atoms: C7_7  and  C9_9 
REMARK    4  A    between atoms: C8_8  and  N10_10 
ROOT
HETATM    1  C1  UNL     1     -37.522  14.991  -3.927  1.00 20.00     0.013 C 
HETATM    2  C2  UNL     1     -36.508  14.360  -4.052  1.00 20.00    -0.087 C 
HETATM    3  C6  UNL     1     -35.274  13.587  -4.202  1.00 20.00     0.364 C 
ENDROOT
BRANCH   3   4
HETATM    4  N10 UNL     1     -34.401  14.192  -5.221  1.00 20.00     0.095 N 
HETATM    5  C5  UNL     1     -35.115  14.247  -6.506  1.00 20.00     0.310 C 
BRANCH   4   6
HETATM    6  C8  UNL     1     -33.948  15.494  -4.817  1.00 20.00     0.273 C 
BRANCH   6   7
HETATM    7  C7  UNL     1     -33.355  15.496  -3.411  1.00 20.00     0.034 C 
BRANCH   7   8
HETATM    8  C9  UNL     1     -33.723  16.720  -2.549  1.00 20.00    -0.021 C 
HETATM    9  C3  UNL     1     -34.659  16.289  -1.416  1.00 20.00     0.009 C 
HETATM   10  C4  UNL     1     -34.381  17.834  -3.365  1.00 20.00     0.009 C 
ENDBRANCH   7   8
ENDBRANCH   6   7
ENDBRANCH   4   6
ENDBRANCH   3   4
TORSDOF 4
ENDMDL
