MODEL 1
REMARK VINA RESULT:      -6.1      0.000      0.000
REMARK  1 active torsions:
REMARK  status: ('A' for Active; 'I' for Inactive)
REMARK    1  A    between atoms: C7_7  and  C8_8 
ROOT
HETATM    1  C1  UNL     1     -32.108   8.550   1.663  1.00 20.00     0.012 C 
HETATM    2  C2  UNL     1     -32.198   7.735   2.540  1.00 20.00    -0.117 C 
HETATM    3  C8  UNL     1     -32.307   6.738   3.615  1.00 20.00     0.105 C 
ENDROOT
BRANCH   3   4
HETATM    4  C7  UNL     1     -33.749   6.523   4.026  1.00 20.00     0.066 C 
HETATM    5  C3  UNL     1     -33.908   6.255   5.510  1.00 20.00     0.132 C 
HETATM    6  C4  UNL     1     -34.856   5.113   5.779  1.00 20.00     0.079 C 
HETATM    7  O9  UNL     1     -33.337   6.884   6.392  1.00 20.00    -0.298 OA
HETATM    8  C5  UNL     1     -35.467   4.878   4.403  1.00 20.00     0.008 C 
HETATM    9  C6  UNL     1     -34.359   5.255   3.427  1.00 20.00     0.013 C 
ENDBRANCH   3   4
TORSDOF 1
ENDMDL
MODEL 2
REMARK VINA RESULT:      -5.0      1.657      2.211
REMARK  1 active torsions:
REMARK  status: ('A' for Active; 'I' for Inactive)
REMARK    1  A    between atoms: C7_7  and  C8_8 
ROOT
HETATM    1  C1  UNL     1     -32.086   7.818   2.406  1.00 20.00     0.012 C 
HETATM    2  C2  UNL     1     -32.825   6.922   2.710  1.00 20.00    -0.117 C 
HETATM    3  C8  UNL     1     -33.731   5.826   3.081  1.00 20.00     0.105 C 
ENDROOT
BRANCH   3   4
HETATM    4  C7  UNL     1     -33.604   5.475   4.549  1.00 20.00     0.066 C 
HETATM    5  C3  UNL     1     -34.705   4.555   5.036  1.00 20.00     0.132 C 
HETATM    6  C4  UNL     1     -35.265   4.999   6.365  1.00 20.00     0.079 C 
HETATM    7  O9  UNL     1     -35.101   3.568   4.430  1.00 20.00    -0.298 OA
HETATM    8  C5  UNL     1     -34.272   6.075   6.784  1.00 20.00     0.008 C 
HETATM    9  C6  UNL     1     -33.793   6.682   5.471  1.00 20.00     0.013 C 
ENDBRANCH   3   4
TORSDOF 1
ENDMDL
MODEL 3
REMARK VINA RESULT:      -4.6     11.268     11.960
REMARK  1 active torsions:
REMARK  status: ('A' for Active; 'I' for Inactive)
REMARK    1  A    between atoms: C7_7  and  C8_8 
ROOT
HETATM    1  C1  UNL     1     -34.781  17.005  -0.330  1.00 20.00     0.012 C 
HETATM    2  C2  UNL     1     -34.346  16.524  -1.341  1.00 20.00    -0.117 C 
HETATM    3  C8  UNL     1     -33.814  15.936  -2.578  1.00 20.00     0.105 C 
ENDROOT
BRANCH   3   4
HETATM    4  C7  UNL     1     -34.837  15.045  -3.252  1.00 20.00     0.066 C 
HETATM    5  C3  UNL     1     -34.208  13.936  -4.072  1.00 20.00     0.132 C 
HETATM    6  C4  UNL     1     -34.872  13.783  -5.418  1.00 20.00     0.079 C 
HETATM    7  O9  UNL     1     -33.271  13.242  -3.695  1.00 20.00    -0.298 OA
HETATM    8  C5  UNL     1     -36.100  14.671  -5.268  1.00 20.00     0.008 C 
HETATM    9  C6  UNL     1     -35.656  15.776  -4.318  1.00 20.00     0.013 C 
ENDBRANCH   3   4
TORSDOF 1
ENDMDL
MODEL 4
REMARK VINA RESULT:      -4.5     11.221     12.159
REMARK  1 active torsions:
REMARK  status: ('A' for Active; 'I' for Inactive)
REMARK    1  A    between atoms: C7_7  and  C8_8 
ROOT
HETATM    1  C1  UNL     1     -34.654  15.059  -6.985  1.00 20.00     0.012 C 
HETATM    2  C2  UNL     1     -34.659  14.275  -6.075  1.00 20.00    -0.117 C 
HETATM    3  C8  UNL     1     -34.665  13.315  -4.963  1.00 20.00     0.105 C 
ENDROOT
BRANCH   3   4
HETATM    4  C7  UNL     1     -34.642  14.020  -3.622  1.00 20.00     0.066 C 
HETATM    5  C3  UNL     1     -35.872  14.871  -3.380  1.00 20.00     0.132 C 
HETATM    6  C4  UNL     1     -35.520  16.224  -2.812  1.00 20.00     0.079 C 
HETATM    7  O9  UNL     1     -37.019  14.514  -3.616  1.00 20.00    -0.298 OA
HETATM    8  C5  UNL     1     -34.045  16.050  -2.473  1.00 20.00     0.008 C 
HETATM    9  C6  UNL     1     -33.530  15.065  -3.515  1.00 20.00     0.013 C 
ENDBRANCH   3   4
TORSDOF 1
ENDMDL
MODEL 5
REMARK VINA RESULT:      -4.4     11.403     12.504
REMARK  1 active torsions:
REMARK  status: ('A' for Active; 'I' for Inactive)
REMARK    1  A    between atoms: C7_7  and  C8_8 
ROOT
HETATM    1  C1  UNL     1     -34.796  16.844  -1.003  1.00 20.00     0.012 C 
HETATM    2  C2  UNL     1     -34.503  16.060  -1.864  1.00 20.00    -0.117 C 
HETATM    3  C8  UNL     1     -34.143  15.099  -2.916  1.00 20.00     0.105 C 
ENDROOT
BRANCH   3   4
HETATM    4  C7  UNL     1     -35.179  15.075  -4.022  1.00 20.00     0.066 C 
HETATM    5  C3  UNL     1     -35.083  13.842  -4.897  1.00 20.00     0.132 C 
HETATM    6  C4  UNL     1     -35.190  14.181  -6.364  1.00 20.00     0.079 C 
HETATM    7  O9  UNL     1     -34.933  12.702  -4.474  1.00 20.00    -0.298 OA
HETATM    8  C5  UNL     1     -35.622  15.641  -6.320  1.00 20.00     0.008 C 
HETATM    9  C6  UNL     1     -34.980  16.189  -5.052  1.00 20.00     0.013 C 
ENDBRANCH   3   4
TORSDOF 1
ENDMDL
MODEL 6
REMARK VINA RESULT:      -4.2     11.391     12.301
REMARK  1 active torsions:
REMARK  status: ('A' for Active; 'I' for Inactive)
REMARK    1  A    between atoms: C7_7  and  C8_8 
ROOT
HETATM    1  C1  UNL     1     -34.451  16.650  -0.991  1.00 20.00     0.012 C 
HETATM    2  C2  UNL     1     -34.125  16.825  -2.134  1.00 20.00    -0.117 C 
HETATM    3  C8  UNL     1     -33.727  17.039  -3.532  1.00 20.00     0.105 C 
ENDROOT
BRANCH   3   4
HETATM    4  C7  UNL     1     -33.844  15.765  -4.343  1.00 20.00     0.066 C 
HETATM    5  C3  UNL     1     -35.271  15.272  -4.469  1.00 20.00     0.132 C 
HETATM    6  C4  UNL     1     -35.377  13.784  -4.241  1.00 20.00     0.079 C 
HETATM    7  O9  UNL     1     -36.232  15.988  -4.723  1.00 20.00    -0.298 OA
HETATM    8  C5  UNL     1     -33.914  13.360  -4.236  1.00 20.00     0.008 C 
HETATM    9  C6  UNL     1     -33.172  14.566  -3.672  1.00 20.00     0.013 C 
ENDBRANCH   3   4
TORSDOF 1
ENDMDL
MODEL 7
REMARK VINA RESULT:      -4.2     11.271     12.893
REMARK  1 active torsions:
REMARK  status: ('A' for Active; 'I' for Inactive)
REMARK    1  A    between atoms: C7_7  and  C8_8 
ROOT
HETATM    1  C1  UNL     1     -37.689  15.467  -5.067  1.00 20.00     0.012 C 
HETATM    2  C2  UNL     1     -36.804  15.112  -5.796  1.00 20.00    -0.117 C 
HETATM    3  C8  UNL     1     -35.721  14.678  -6.690  1.00 20.00     0.105 C 
ENDROOT
BRANCH   3   4
HETATM    4  C7  UNL     1     -34.387  14.652  -5.972  1.00 20.00     0.066 C 
HETATM    5  C3  UNL     1     -34.365  13.691  -4.800  1.00 20.00     0.132 C 
HETATM    6  C4  UNL     1     -33.716  14.301  -3.582  1.00 20.00     0.079 C 
HETATM    7  O9  UNL     1     -34.818  12.554  -4.828  1.00 20.00    -0.298 OA
HETATM    8  C5  UNL     1     -33.110  15.577  -4.152  1.00 20.00     0.008 C 
HETATM    9  C6  UNL     1     -34.055  15.975  -5.280  1.00 20.00     0.013 C 
ENDBRANCH   3   4
TORSDOF 1
ENDMDL
MODEL 8
REMARK VINA RESULT:      -4.1      9.922     10.691
REMARK  1 active torsions:
REMARK  status: ('A' for Active; 'I' for Inactive)
REMARK    1  A    between atoms: C7_7  and  C8_8 
ROOT
HETATM    1  C1  UNL     1     -42.147   8.772  -4.919  1.00 20.00     0.012 C 
HETATM    2  C2  UNL     1     -42.454   8.050  -4.009  1.00 20.00    -0.117 C 
HETATM    3  C8  UNL     1     -42.831   7.167  -2.897  1.00 20.00     0.105 C 
ENDROOT
BRANCH   3   4
HETATM    4  C7  UNL     1     -41.610   6.620  -2.186  1.00 20.00     0.066 C 
HETATM    5  C3  UNL     1     -41.716   5.139  -1.881  1.00 20.00     0.132 C 
HETATM    6  C4  UNL     1     -41.265   4.817  -0.478  1.00 20.00     0.079 C 
HETATM    7  O9  UNL     1     -42.121   4.296  -2.672  1.00 20.00    -0.298 OA
HETATM    8  C5  UNL     1     -40.632   6.132  -0.041  1.00 20.00     0.008 C 
HETATM    9  C6  UNL     1     -41.424   7.201  -0.783  1.00 20.00     0.013 C 
ENDBRANCH   3   4
TORSDOF 1
ENDMDL
MODEL 9
REMARK VINA RESULT:      -4.1     11.167     12.046
REMARK  1 active torsions:
REMARK  status: ('A' for Active; 'I' for Inactive)
REMARK    1  A    between atoms: C7_7  and  C8_8 
ROOT
HETATM    1  C1  UNL     1     -33.650  17.859  -4.735  1.00 20.00     0.012 C 
HETATM    2  C2  UNL     1     -33.690  17.180  -3.746  1.00 20.00    -0.117 C 
HETATM    3  C8  UNL     1     -33.739  16.350  -2.534  1.00 20.00     0.105 C 
ENDROOT
BRANCH   3   4
HETATM    4  C7  UNL     1     -34.694  15.186  -2.698  1.00 20.00     0.066 C 
HETATM    5  C3  UNL     1     -34.185  14.133  -3.663  1.00 20.00     0.132 C 
HETATM    6  C4  UNL     1     -35.262  13.670  -4.613  1.00 20.00     0.079 C 
HETATM    7  O9  UNL     1     -33.038  13.705  -3.679  1.00 20.00    -0.298 OA
HETATM    8  C5  UNL     1     -36.511  14.296  -4.005  1.00 20.00     0.008 C 
HETATM    9  C6  UNL     1     -36.014  15.584  -3.360  1.00 20.00     0.013 C 
ENDBRANCH   3   4
TORSDOF 1
ENDMDL
