MODEL 1
REMARK VINA RESULT:      -5.4      0.000      0.000
REMARK  3 active torsions:
REMARK  status: ('A' for Active; 'I' for Inactive)
REMARK    1  A    between atoms: C5_5  and  C8_8 
REMARK    2  A    between atoms: C8_8  and  C9_9 
REMARK    3  A    between atoms: C9_9  and  C10_10 
ROOT
HETATM    1  C1  UNL     1     -34.494   5.398   3.739  1.00 20.00     0.131 C 
HETATM    2  C2  UNL     1     -35.109   4.736   4.946  1.00 20.00     0.079 C 
HETATM    3  C3  UNL     1     -34.717   5.692   6.065  1.00 20.00     0.008 C 
HETATM    4  C4  UNL     1     -33.379   6.268   5.621  1.00 20.00     0.013 C 
HETATM    5  C5  UNL     1     -33.564   6.530   4.126  1.00 20.00     0.055 C 
HETATM    6  O11 UNL     1     -34.722   5.052   2.587  1.00 20.00    -0.298 OA
ENDROOT
BRANCH   5   7
HETATM    7  C8  UNL     1     -32.259   6.514   3.356  1.00 20.00     0.012 C 
BRANCH   7   8
HETATM    8  C9  UNL     1     -31.766   7.934   3.064  1.00 20.00     0.005 C 
BRANCH   8   9
HETATM    9  C10 UNL     1     -32.422   8.569   1.825  1.00 20.00    -0.023 C 
HETATM   10  C6  UNL     1     -31.497   8.420   0.614  1.00 20.00     0.009 C 
HETATM   11  C7  UNL     1     -32.763  10.044   2.035  1.00 20.00     0.009 C 
ENDBRANCH   8   9
ENDBRANCH   7   8
ENDBRANCH   5   7
TORSDOF 3
ENDMDL
MODEL 2
REMARK VINA RESULT:      -5.3      1.480      2.185
REMARK  3 active torsions:
REMARK  status: ('A' for Active; 'I' for Inactive)
REMARK    1  A    between atoms: C5_5  and  C8_8 
REMARK    2  A    between atoms: C8_8  and  C9_9 
REMARK    3  A    between atoms: C9_9  and  C10_10 
ROOT
HETATM    1  C1  UNL     1     -33.879   6.166   5.686  1.00 20.00     0.131 C 
HETATM    2  C2  UNL     1     -34.996   5.252   6.122  1.00 20.00     0.079 C 
HETATM    3  C3  UNL     1     -35.144   4.334   4.916  1.00 20.00     0.008 C 
HETATM    4  C4  UNL     1     -34.764   5.207   3.727  1.00 20.00     0.013 C 
HETATM    5  C5  UNL     1     -33.550   5.997   4.217  1.00 20.00     0.055 C 
HETATM    6  O11 UNL     1     -33.314   6.950   6.437  1.00 20.00    -0.298 OA
ENDROOT
BRANCH   5   7
HETATM    7  C8  UNL     1     -33.371   7.317   3.495  1.00 20.00     0.012 C 
BRANCH   7   8
HETATM    8  C9  UNL     1     -32.107   7.313   2.631  1.00 20.00     0.005 C 
BRANCH   8   9
HETATM    9  C10 UNL     1     -31.866   8.641   1.890  1.00 20.00    -0.023 C 
HETATM   10  C6  UNL     1     -32.986   9.631   2.221  1.00 20.00     0.009 C 
HETATM   11  C7  UNL     1     -31.772   8.457   0.375  1.00 20.00     0.009 C 
ENDBRANCH   8   9
ENDBRANCH   7   8
ENDBRANCH   5   7
TORSDOF 3
ENDMDL
MODEL 3
REMARK VINA RESULT:      -5.1      1.236      1.830
REMARK  3 active torsions:
REMARK  status: ('A' for Active; 'I' for Inactive)
REMARK    1  A    between atoms: C5_5  and  C8_8 
REMARK    2  A    between atoms: C8_8  and  C9_9 
REMARK    3  A    between atoms: C9_9  and  C10_10 
ROOT
HETATM    1  C1  UNL     1     -34.854   4.479   4.971  1.00 20.00     0.131 C 
HETATM    2  C2  UNL     1     -34.548   4.574   6.445  1.00 20.00     0.079 C 
HETATM    3  C3  UNL     1     -34.404   6.077   6.642  1.00 20.00     0.008 C 
HETATM    4  C4  UNL     1     -33.855   6.583   5.314  1.00 20.00     0.013 C 
HETATM    5  C5  UNL     1     -34.645   5.802   4.263  1.00 20.00     0.055 C 
HETATM    6  O11 UNL     1     -35.223   3.450   4.421  1.00 20.00    -0.298 OA
ENDROOT
BRANCH   5   7
HETATM    7  C8  UNL     1     -33.902   5.659   2.950  1.00 20.00     0.012 C 
BRANCH   7   8
HETATM    8  C9  UNL     1     -32.425   6.035   3.101  1.00 20.00     0.005 C 
BRANCH   8   9
HETATM    9  C10 UNL     1     -32.173   7.553   3.075  1.00 20.00    -0.023 C 
HETATM   10  C6  UNL     1     -31.950   8.018   1.634  1.00 20.00     0.009 C 
HETATM   11  C7  UNL     1     -30.979   7.962   3.940  1.00 20.00     0.009 C 
ENDBRANCH   8   9
ENDBRANCH   7   8
ENDBRANCH   5   7
TORSDOF 3
ENDMDL
MODEL 4
REMARK VINA RESULT:      -5.0     10.487     11.940
REMARK  3 active torsions:
REMARK  status: ('A' for Active; 'I' for Inactive)
REMARK    1  A    between atoms: C5_5  and  C8_8 
REMARK    2  A    between atoms: C8_8  and  C9_9 
REMARK    3  A    between atoms: C9_9  and  C10_10 
ROOT
HETATM    1  C1  UNL     1     -34.630  13.717  -5.218  1.00 20.00     0.131 C 
HETATM    2  C2  UNL     1     -35.093  14.295  -6.531  1.00 20.00     0.079 C 
HETATM    3  C3  UNL     1     -34.293  15.589  -6.609  1.00 20.00     0.008 C 
HETATM    4  C4  UNL     1     -34.120  16.015  -5.157  1.00 20.00     0.013 C 
HETATM    5  C5  UNL     1     -33.811  14.711  -4.420  1.00 20.00     0.055 C 
HETATM    6  O11 UNL     1     -34.892  12.581  -4.847  1.00 20.00    -0.298 OA
ENDROOT
BRANCH   5   7
HETATM    7  C8  UNL     1     -34.195  14.754  -2.955  1.00 20.00     0.012 C 
BRANCH   7   8
HETATM    8  C9  UNL     1     -34.817  16.102  -2.581  1.00 20.00     0.005 C 
BRANCH   8   9
HETATM    9  C10 UNL     1     -33.991  16.895  -1.551  1.00 20.00    -0.023 C 
HETATM   10  C6  UNL     1     -34.772  17.016  -0.241  1.00 20.00     0.009 C 
HETATM   11  C7  UNL     1     -33.609  18.287  -2.055  1.00 20.00     0.009 C 
ENDBRANCH   8   9
ENDBRANCH   7   8
ENDBRANCH   5   7
TORSDOF 3
ENDMDL
MODEL 5
REMARK VINA RESULT:      -4.9     10.425     11.322
REMARK  3 active torsions:
REMARK  status: ('A' for Active; 'I' for Inactive)
REMARK    1  A    between atoms: C5_5  and  C8_8 
REMARK    2  A    between atoms: C8_8  and  C9_9 
REMARK    3  A    between atoms: C9_9  and  C10_10 
ROOT
HETATM    1  C1  UNL     1     -33.445  14.700  -3.580  1.00 20.00     0.131 C 
HETATM    2  C2  UNL     1     -34.345  13.535  -3.906  1.00 20.00     0.079 C 
HETATM    3  C3  UNL     1     -35.704  14.210  -4.039  1.00 20.00     0.008 C 
HETATM    4  C4  UNL     1     -35.640  15.384  -3.070  1.00 20.00     0.013 C 
HETATM    5  C5  UNL     1     -34.235  15.955  -3.269  1.00 20.00     0.055 C 
HETATM    6  O11 UNL     1     -32.224  14.631  -3.568  1.00 20.00    -0.298 OA
ENDROOT
BRANCH   5   7
HETATM    7  C8  UNL     1     -33.718  16.693  -2.051  1.00 20.00     0.012 C 
BRANCH   7   8
HETATM    8  C9  UNL     1     -34.687  16.570  -0.872  1.00 20.00     0.005 C 
BRANCH   8   9
HETATM    9  C10 UNL     1     -34.715  17.816   0.033  1.00 20.00    -0.023 C 
HETATM   10  C6  UNL     1     -33.312  18.422   0.124  1.00 20.00     0.009 C 
HETATM   11  C7  UNL     1     -35.236  17.508   1.437  1.00 20.00     0.009 C 
ENDBRANCH   8   9
ENDBRANCH   7   8
ENDBRANCH   5   7
TORSDOF 3
ENDMDL
MODEL 6
REMARK VINA RESULT:      -4.9     10.346     11.868
REMARK  3 active torsions:
REMARK  status: ('A' for Active; 'I' for Inactive)
REMARK    1  A    between atoms: C5_5  and  C8_8 
REMARK    2  A    between atoms: C8_8  and  C9_9 
REMARK    3  A    between atoms: C9_9  and  C10_10 
ROOT
HETATM    1  C1  UNL     1     -36.524  14.375  -4.636  1.00 20.00     0.131 C 
HETATM    2  C2  UNL     1     -36.875  15.156  -5.877  1.00 20.00     0.079 C 
HETATM    3  C3  UNL     1     -35.769  14.738  -6.837  1.00 20.00     0.008 C 
HETATM    4  C4  UNL     1     -34.567  14.475  -5.940  1.00 20.00     0.013 C 
HETATM    5  C5  UNL     1     -35.154  13.736  -4.737  1.00 20.00     0.055 C 
HETATM    6  O11 UNL     1     -37.264  14.277  -3.666  1.00 20.00    -0.298 OA
ENDROOT
BRANCH   5   7
HETATM    7  C8  UNL     1     -34.328  13.903  -3.478  1.00 20.00     0.012 C 
BRANCH   7   8
HETATM    8  C9  UNL     1     -33.279  15.007  -3.642  1.00 20.00     0.005 C 
BRANCH   8   9
HETATM    9  C10 UNL     1     -33.620  16.296  -2.872  1.00 20.00    -0.023 C 
HETATM   10  C6  UNL     1     -34.711  16.010  -1.838  1.00 20.00     0.009 C 
HETATM   11  C7  UNL     1     -34.069  17.428  -3.797  1.00 20.00     0.009 C 
ENDBRANCH   8   9
ENDBRANCH   7   8
ENDBRANCH   5   7
TORSDOF 3
ENDMDL
MODEL 7
REMARK VINA RESULT:      -4.6     10.640     11.689
REMARK  3 active torsions:
REMARK  status: ('A' for Active; 'I' for Inactive)
REMARK    1  A    between atoms: C5_5  and  C8_8 
REMARK    2  A    between atoms: C8_8  and  C9_9 
REMARK    3  A    between atoms: C9_9  and  C10_10 
ROOT
HETATM    1  C1  UNL     1     -35.391  15.359  -4.446  1.00 20.00     0.131 C 
HETATM    2  C2  UNL     1     -35.175  14.365  -5.559  1.00 20.00     0.079 C 
HETATM    3  C3  UNL     1     -34.510  13.207  -4.825  1.00 20.00     0.008 C 
HETATM    4  C4  UNL     1     -33.726  13.871  -3.701  1.00 20.00     0.013 C 
HETATM    5  C5  UNL     1     -34.670  14.954  -3.177  1.00 20.00     0.055 C 
HETATM    6  O11 UNL     1     -36.069  16.371  -4.564  1.00 20.00    -0.298 OA
ENDROOT
BRANCH   5   7
HETATM    7  C8  UNL     1     -33.940  16.107  -2.517  1.00 20.00     0.012 C 
BRANCH   7   8
HETATM    8  C9  UNL     1     -34.609  16.508  -1.199  1.00 20.00     0.005 C 
BRANCH   8   9
HETATM    9  C10 UNL     1     -33.810  17.555  -0.401  1.00 20.00    -0.023 C 
HETATM   10  C6  UNL     1     -34.636  18.038   0.794  1.00 20.00     0.009 C 
HETATM   11  C7  UNL     1     -33.394  18.751  -1.258  1.00 20.00     0.009 C 
ENDBRANCH   8   9
ENDBRANCH   7   8
ENDBRANCH   5   7
TORSDOF 3
ENDMDL
MODEL 8
REMARK VINA RESULT:      -4.6     10.988     12.188
REMARK  3 active torsions:
REMARK  status: ('A' for Active; 'I' for Inactive)
REMARK    1  A    between atoms: C5_5  and  C8_8 
REMARK    2  A    between atoms: C8_8  and  C9_9 
REMARK    3  A    between atoms: C9_9  and  C10_10 
ROOT
HETATM    1  C1  UNL     1     -33.409  16.517  -3.883  1.00 20.00     0.131 C 
HETATM    2  C2  UNL     1     -33.809  17.819  -3.235  1.00 20.00     0.079 C 
HETATM    3  C3  UNL     1     -34.181  17.371  -1.827  1.00 20.00     0.008 C 
HETATM    4  C4  UNL     1     -34.720  15.959  -2.010  1.00 20.00     0.013 C 
HETATM    5  C5  UNL     1     -33.767  15.323  -3.023  1.00 20.00     0.055 C 
HETATM    6  O11 UNL     1     -32.864  16.445  -4.976  1.00 20.00    -0.298 OA
ENDROOT
BRANCH   5   7
HETATM    7  C8  UNL     1     -34.406  14.196  -3.810  1.00 20.00     0.012 C 
BRANCH   7   8
HETATM    8  C9  UNL     1     -35.913  14.414  -3.973  1.00 20.00     0.005 C 
BRANCH   8   9
HETATM    9  C10 UNL     1     -36.329  14.774  -5.411  1.00 20.00    -0.023 C 
HETATM   10  C6  UNL     1     -35.239  14.336  -6.392  1.00 20.00     0.009 C 
HETATM   11  C7  UNL     1     -36.607  16.268  -5.582  1.00 20.00     0.009 C 
ENDBRANCH   8   9
ENDBRANCH   7   8
ENDBRANCH   5   7
TORSDOF 3
ENDMDL
MODEL 9
REMARK VINA RESULT:      -4.5     10.295     11.844
REMARK  3 active torsions:
REMARK  status: ('A' for Active; 'I' for Inactive)
REMARK    1  A    between atoms: C5_5  and  C8_8 
REMARK    2  A    between atoms: C8_8  and  C9_9 
REMARK    3  A    between atoms: C9_9  and  C10_10 
ROOT
HETATM    1  C1  UNL     1     -33.378  14.703  -3.936  1.00 20.00     0.131 C 
HETATM    2  C2  UNL     1     -34.400  13.653  -3.582  1.00 20.00     0.079 C 
HETATM    3  C3  UNL     1     -35.592  14.070  -4.433  1.00 20.00     0.008 C 
HETATM    4  C4  UNL     1     -35.479  15.586  -4.526  1.00 20.00     0.013 C 
HETATM    5  C5  UNL     1     -33.985  15.836  -4.738  1.00 20.00     0.055 C 
HETATM    6  O11 UNL     1     -32.200  14.639  -3.609  1.00 20.00    -0.298 OA
ENDROOT
BRANCH   5   7
HETATM    7  C8  UNL     1     -33.540  17.203  -4.260  1.00 20.00     0.012 C 
BRANCH   7   8
HETATM    8  C9  UNL     1     -34.369  17.672  -3.061  1.00 20.00     0.005 C 
BRANCH   8   9
HETATM    9  C10 UNL     1     -33.709  17.369  -1.703  1.00 20.00    -0.023 C 
HETATM   10  C6  UNL     1     -34.676  16.574  -0.822  1.00 20.00     0.009 C 
HETATM   11  C7  UNL     1     -33.267  18.637  -0.972  1.00 20.00     0.009 C 
ENDBRANCH   8   9
ENDBRANCH   7   8
ENDBRANCH   5   7
TORSDOF 3
ENDMDL
