MODEL 1
REMARK VINA RESULT:      -5.7      0.000      0.000
REMARK  3 active torsions:
REMARK  status: ('A' for Active; 'I' for Inactive)
REMARK    1  A    between atoms: C5_5  and  C8_8 
REMARK    2  A    between atoms: C8_8  and  C9_9 
REMARK    3  A    between atoms: C9_9  and  C10_10 
ROOT
HETATM    1  C1  UNL     1     -33.795   6.260   5.334  1.00 20.00     0.131 C 
HETATM    2  C2  UNL     1     -34.852   5.245   5.695  1.00 20.00     0.079 C 
HETATM    3  C3  UNL     1     -35.548   5.024   4.358  1.00 20.00     0.008 C 
HETATM    4  C4  UNL     1     -34.451   5.232   3.321  1.00 20.00     0.013 C 
HETATM    5  C5  UNL     1     -33.677   6.446   3.836  1.00 20.00     0.055 C 
HETATM    6  O11 UNL     1     -33.119   6.855   6.162  1.00 20.00    -0.298 OA
ENDROOT
BRANCH   5   7
HETATM    7  C8  UNL     1     -32.240   6.479   3.355  1.00 20.00     0.012 C 
BRANCH   7   8
HETATM    8  C9  UNL     1     -31.774   7.912   3.087  1.00 20.00     0.005 C 
BRANCH   8   9
HETATM    9  C10 UNL     1     -32.423   8.545   1.842  1.00 20.00    -0.023 C 
HETATM   10  C6  UNL     1     -31.485   8.403   0.640  1.00 20.00     0.009 C 
HETATM   11  C7  UNL     1     -32.774  10.018   2.051  1.00 20.00     0.009 C 
ENDBRANCH   8   9
ENDBRANCH   7   8
ENDBRANCH   5   7
TORSDOF 3
ENDMDL
MODEL 2
REMARK VINA RESULT:      -5.3      1.031      1.849
REMARK  3 active torsions:
REMARK  status: ('A' for Active; 'I' for Inactive)
REMARK    1  A    between atoms: C5_5  and  C8_8 
REMARK    2  A    between atoms: C8_8  and  C9_9 
REMARK    3  A    between atoms: C9_9  and  C10_10 
ROOT
HETATM    1  C1  UNL     1     -34.185   6.003   6.002  1.00 20.00     0.131 C 
HETATM    2  C2  UNL     1     -34.159   4.599   6.552  1.00 20.00     0.079 C 
HETATM    3  C3  UNL     1     -35.109   3.872   5.608  1.00 20.00     0.008 C 
HETATM    4  C4  UNL     1     -34.948   4.596   4.277  1.00 20.00     0.013 C 
HETATM    5  C5  UNL     1     -34.886   6.075   4.662  1.00 20.00     0.055 C 
HETATM    6  O11 UNL     1     -33.693   6.964   6.579  1.00 20.00    -0.298 OA
ENDROOT
BRANCH   5   7
HETATM    7  C8  UNL     1     -34.140   6.920   3.649  1.00 20.00     0.012 C 
BRANCH   7   8
HETATM    8  C9  UNL     1     -32.882   6.208   3.148  1.00 20.00     0.005 C 
BRANCH   8   9
HETATM    9  C10 UNL     1     -31.712   7.164   2.853  1.00 20.00    -0.023 C 
HETATM   10  C6  UNL     1     -31.221   7.801   4.156  1.00 20.00     0.009 C 
HETATM   11  C7  UNL     1     -32.089   8.259   1.854  1.00 20.00     0.009 C 
ENDBRANCH   8   9
ENDBRANCH   7   8
ENDBRANCH   5   7
TORSDOF 3
ENDMDL
MODEL 3
REMARK VINA RESULT:      -5.0      1.444      2.151
REMARK  3 active torsions:
REMARK  status: ('A' for Active; 'I' for Inactive)
REMARK    1  A    between atoms: C5_5  and  C8_8 
REMARK    2  A    between atoms: C8_8  and  C9_9 
REMARK    3  A    between atoms: C9_9  and  C10_10 
ROOT
HETATM    1  C1  UNL     1     -34.407   5.333   3.703  1.00 20.00     0.131 C 
HETATM    2  C2  UNL     1     -35.289   4.767   4.787  1.00 20.00     0.079 C 
HETATM    3  C3  UNL     1     -34.559   5.204   6.050  1.00 20.00     0.008 C 
HETATM    4  C4  UNL     1     -33.898   6.523   5.669  1.00 20.00     0.013 C 
HETATM    5  C5  UNL     1     -33.360   6.276   4.258  1.00 20.00     0.055 C 
HETATM    6  O11 UNL     1     -34.531   5.057   2.517  1.00 20.00    -0.298 OA
ENDROOT
BRANCH   5   7
HETATM    7  C8  UNL     1     -33.220   7.549   3.447  1.00 20.00     0.012 C 
BRANCH   7   8
HETATM    8  C9  UNL     1     -31.988   7.499   2.541  1.00 20.00     0.005 C 
BRANCH   8   9
HETATM    9  C10 UNL     1     -31.822   8.752   1.661  1.00 20.00    -0.023 C 
HETATM   10  C6  UNL     1     -32.827   9.824   2.092  1.00 20.00     0.009 C 
HETATM   11  C7  UNL     1     -31.997   8.450   0.173  1.00 20.00     0.009 C 
ENDBRANCH   8   9
ENDBRANCH   7   8
ENDBRANCH   5   7
TORSDOF 3
ENDMDL
MODEL 4
REMARK VINA RESULT:      -4.8     10.885     11.955
REMARK  3 active torsions:
REMARK  status: ('A' for Active; 'I' for Inactive)
REMARK    1  A    between atoms: C5_5  and  C8_8 
REMARK    2  A    between atoms: C8_8  and  C9_9 
REMARK    3  A    between atoms: C9_9  and  C10_10 
ROOT
HETATM    1  C1  UNL     1     -33.532  15.862  -4.802  1.00 20.00     0.131 C 
HETATM    2  C2  UNL     1     -34.358  14.895  -5.614  1.00 20.00     0.079 C 
HETATM    3  C3  UNL     1     -34.543  13.740  -4.639  1.00 20.00     0.008 C 
HETATM    4  C4  UNL     1     -34.555  14.402  -3.266  1.00 20.00     0.013 C 
HETATM    5  C5  UNL     1     -33.445  15.450  -3.347  1.00 20.00     0.055 C 
HETATM    6  O11 UNL     1     -33.001  16.860  -5.273  1.00 20.00    -0.298 OA
ENDROOT
BRANCH   5   7
HETATM    7  C8  UNL     1     -33.652  16.607  -2.391  1.00 20.00     0.012 C 
BRANCH   7   8
HETATM    8  C9  UNL     1     -34.738  16.290  -1.360  1.00 20.00     0.005 C 
BRANCH   8   9
HETATM    9  C10 UNL     1     -34.723  17.234  -0.143  1.00 20.00    -0.023 C 
HETATM   10  C6  UNL     1     -35.977  18.112  -0.153  1.00 20.00     0.009 C 
HETATM   11  C7  UNL     1     -33.475  18.117  -0.103  1.00 20.00     0.009 C 
ENDBRANCH   8   9
ENDBRANCH   7   8
ENDBRANCH   5   7
TORSDOF 3
ENDMDL
MODEL 5
REMARK VINA RESULT:      -4.7     10.688     11.966
REMARK  3 active torsions:
REMARK  status: ('A' for Active; 'I' for Inactive)
REMARK    1  A    between atoms: C5_5  and  C8_8 
REMARK    2  A    between atoms: C8_8  and  C9_9 
REMARK    3  A    between atoms: C9_9  and  C10_10 
ROOT
HETATM    1  C1  UNL     1     -35.073  13.724  -5.033  1.00 20.00     0.131 C 
HETATM    2  C2  UNL     1     -34.962  14.180  -6.466  1.00 20.00     0.079 C 
HETATM    3  C3  UNL     1     -35.665  15.530  -6.425  1.00 20.00     0.008 C 
HETATM    4  C4  UNL     1     -35.394  16.056  -5.020  1.00 20.00     0.013 C 
HETATM    5  C5  UNL     1     -35.568  14.829  -4.123  1.00 20.00     0.055 C 
HETATM    6  O11 UNL     1     -34.792  12.593  -4.659  1.00 20.00    -0.298 OA
ENDROOT
BRANCH   5   7
HETATM    7  C8  UNL     1     -34.786  14.926  -2.829  1.00 20.00     0.012 C 
BRANCH   7   8
HETATM    8  C9  UNL     1     -33.656  15.954  -2.937  1.00 20.00     0.005 C 
BRANCH   8   9
HETATM    9  C10 UNL     1     -33.670  17.002  -1.810  1.00 20.00    -0.023 C 
HETATM   10  C6  UNL     1     -34.724  16.626  -0.765  1.00 20.00     0.009 C 
HETATM   11  C7  UNL     1     -33.940  18.415  -2.328  1.00 20.00     0.009 C 
ENDBRANCH   8   9
ENDBRANCH   7   8
ENDBRANCH   5   7
TORSDOF 3
ENDMDL
MODEL 6
REMARK VINA RESULT:      -4.4     10.773     11.965
REMARK  3 active torsions:
REMARK  status: ('A' for Active; 'I' for Inactive)
REMARK    1  A    between atoms: C5_5  and  C8_8 
REMARK    2  A    between atoms: C8_8  and  C9_9 
REMARK    3  A    between atoms: C9_9  and  C10_10 
ROOT
HETATM    1  C1  UNL     1     -33.762  18.424  -2.043  1.00 20.00     0.131 C 
HETATM    2  C2  UNL     1     -33.227  18.501  -0.635  1.00 20.00     0.079 C 
HETATM    3  C3  UNL     1     -34.233  17.655   0.133  1.00 20.00     0.008 C 
HETATM    4  C4  UNL     1     -34.694  16.607  -0.873  1.00 20.00     0.013 C 
HETATM    5  C5  UNL     1     -34.860  17.390  -2.176  1.00 20.00     0.055 C 
HETATM    6  O11 UNL     1     -33.351  19.120  -2.962  1.00 20.00    -0.298 OA
ENDROOT
BRANCH   5   7
HETATM    7  C8  UNL     1     -34.710  16.523  -3.410  1.00 20.00     0.012 C 
BRANCH   7   8
HETATM    8  C9  UNL     1     -35.191  15.094  -3.149  1.00 20.00     0.005 C 
BRANCH   8   9
HETATM    9  C10 UNL     1     -34.153  14.019  -3.520  1.00 20.00    -0.023 C 
HETATM   10  C6  UNL     1     -32.773  14.664  -3.676  1.00 20.00     0.009 C 
HETATM   11  C7  UNL     1     -34.519  13.270  -4.802  1.00 20.00     0.009 C 
ENDBRANCH   8   9
ENDBRANCH   7   8
ENDBRANCH   5   7
TORSDOF 3
ENDMDL
MODEL 7
REMARK VINA RESULT:      -4.4     11.366     12.592
REMARK  3 active torsions:
REMARK  status: ('A' for Active; 'I' for Inactive)
REMARK    1  A    between atoms: C5_5  and  C8_8 
REMARK    2  A    between atoms: C8_8  and  C9_9 
REMARK    3  A    between atoms: C9_9  and  C10_10 
ROOT
HETATM    1  C1  UNL     1     -33.881  16.767  -3.955  1.00 20.00     0.131 C 
HETATM    2  C2  UNL     1     -33.565  16.101  -2.639  1.00 20.00     0.079 C 
HETATM    3  C3  UNL     1     -34.897  16.196  -1.907  1.00 20.00     0.008 C 
HETATM    4  C4  UNL     1     -35.943  16.130  -3.014  1.00 20.00     0.013 C 
HETATM    5  C5  UNL     1     -35.367  17.011  -4.124  1.00 20.00     0.055 C 
HETATM    6  O11 UNL     1     -33.031  17.069  -4.782  1.00 20.00    -0.298 OA
ENDROOT
BRANCH   5   7
HETATM    7  C8  UNL     1     -35.875  16.635  -5.501  1.00 20.00     0.012 C 
BRANCH   7   8
HETATM    8  C9  UNL     1     -36.387  15.193  -5.532  1.00 20.00     0.005 C 
BRANCH   8   9
HETATM    9  C10 UNL     1     -35.428  14.217  -6.237  1.00 20.00    -0.023 C 
HETATM   10  C6  UNL     1     -34.651  13.409  -5.194  1.00 20.00     0.009 C 
HETATM   11  C7  UNL     1     -34.449  14.930  -7.171  1.00 20.00     0.009 C 
ENDBRANCH   8   9
ENDBRANCH   7   8
ENDBRANCH   5   7
TORSDOF 3
ENDMDL
MODEL 8
REMARK VINA RESULT:      -4.4     10.922     12.210
REMARK  3 active torsions:
REMARK  status: ('A' for Active; 'I' for Inactive)
REMARK    1  A    between atoms: C5_5  and  C8_8 
REMARK    2  A    between atoms: C8_8  and  C9_9 
REMARK    3  A    between atoms: C9_9  and  C10_10 
ROOT
HETATM    1  C1  UNL     1     -35.858  14.939  -3.367  1.00 20.00     0.131 C 
HETATM    2  C2  UNL     1     -35.417  16.146  -2.578  1.00 20.00     0.079 C 
HETATM    3  C3  UNL     1     -33.909  15.946  -2.510  1.00 20.00     0.008 C 
HETATM    4  C4  UNL     1     -33.563  15.223  -3.806  1.00 20.00     0.013 C 
HETATM    5  C5  UNL     1     -34.684  14.195  -3.969  1.00 20.00     0.055 C 
HETATM    6  O11 UNL     1     -37.029  14.608  -3.500  1.00 20.00    -0.298 OA
ENDROOT
BRANCH   5   7
HETATM    7  C8  UNL     1     -34.914  13.794  -5.412  1.00 20.00     0.012 C 
BRANCH   7   8
HETATM    8  C9  UNL     1     -34.328  14.827  -6.377  1.00 20.00     0.005 C 
BRANCH   8   9
HETATM    9  C10 UNL     1     -35.395  15.690  -7.076  1.00 20.00    -0.023 C 
HETATM   10  C6  UNL     1     -35.445  17.077  -6.429  1.00 20.00     0.009 C 
HETATM   11  C7  UNL     1     -36.784  15.051  -7.033  1.00 20.00     0.009 C 
ENDBRANCH   8   9
ENDBRANCH   7   8
ENDBRANCH   5   7
TORSDOF 3
ENDMDL
MODEL 9
REMARK VINA RESULT:      -4.3     10.584     12.522
REMARK  3 active torsions:
REMARK  status: ('A' for Active; 'I' for Inactive)
REMARK    1  A    between atoms: C5_5  and  C8_8 
REMARK    2  A    between atoms: C8_8  and  C9_9 
REMARK    3  A    between atoms: C9_9  and  C10_10 
ROOT
HETATM    1  C1  UNL     1     -34.388  13.662  -4.794  1.00 20.00     0.131 C 
HETATM    2  C2  UNL     1     -33.718  14.238  -3.572  1.00 20.00     0.079 C 
HETATM    3  C3  UNL     1     -33.103  15.518  -4.123  1.00 20.00     0.008 C 
HETATM    4  C4  UNL     1     -34.055  15.950  -5.232  1.00 20.00     0.013 C 
HETATM    5  C5  UNL     1     -34.412  14.645  -5.946  1.00 20.00     0.055 C 
HETATM    6  O11 UNL     1     -34.856  12.531  -4.840  1.00 20.00    -0.298 OA
ENDROOT
BRANCH   5   7
HETATM    7  C8  UNL     1     -35.754  14.703  -6.647  1.00 20.00     0.012 C 
BRANCH   7   8
HETATM    8  C9  UNL     1     -36.673  15.746  -6.008  1.00 20.00     0.005 C 
BRANCH   8   9
HETATM    9  C10 UNL     1     -37.823  15.132  -5.189  1.00 20.00    -0.023 C 
HETATM   10  C6  UNL     1     -39.113  15.917  -5.437  1.00 20.00     0.009 C 
HETATM   11  C7  UNL     1     -37.520  15.096  -3.691  1.00 20.00     0.009 C 
ENDBRANCH   8   9
ENDBRANCH   7   8
ENDBRANCH   5   7
TORSDOF 3
ENDMDL
