MODEL 1
REMARK VINA RESULT:      -4.0      0.000      0.000
REMARK  1 active torsions:
REMARK  status: ('A' for Active; 'I' for Inactive)
REMARK    1  A    between atoms: C7_7  and  N9_9 
ROOT
HETATM    1  C1  UNL     1     -34.588  13.859  -4.838  1.00 20.00     0.089 C 
HETATM    2  C7  UNL     1     -34.217  15.238  -5.150  1.00 20.00     0.395 C 
HETATM    3  N8  UNL     1     -34.883  12.763  -4.595  1.00 20.00    -0.195 NA
ENDROOT
BRANCH   2   4
HETATM    4  N9  UNL     1     -34.574  16.137  -4.046  1.00 20.00     0.102 N 
HETATM    5  C3  UNL     1     -33.890  15.712  -2.817  1.00 20.00     0.274 C 
HETATM    6  C2  UNL     1     -34.540  16.277  -1.552  1.00 20.00     0.040 C 
HETATM    7  C5  UNL     1     -33.922  17.557  -0.999  1.00 20.00     0.075 C 
HETATM    8  S10 UNL     1     -33.574  18.919  -2.148  1.00 20.00    -0.167 SA
HETATM    9  C6  UNL     1     -34.782  18.593  -3.461  1.00 20.00     0.104 C 
HETATM   10  C4  UNL     1     -34.292  17.526  -4.439  1.00 20.00     0.283 C 
ENDBRANCH   2   4
TORSDOF 1
ENDMDL
MODEL 2
REMARK VINA RESULT:      -3.8      2.369      4.288
REMARK  1 active torsions:
REMARK  status: ('A' for Active; 'I' for Inactive)
REMARK    1  A    between atoms: C7_7  and  N9_9 
ROOT
HETATM    1  C1  UNL     1     -33.608  17.608  -0.916  1.00 20.00     0.089 C 
HETATM    2  C7  UNL     1     -34.518  16.559  -1.372  1.00 20.00     0.395 C 
HETATM    3  N8  UNL     1     -32.888  18.443  -0.551  1.00 20.00    -0.195 NA
ENDROOT
BRANCH   2   4
HETATM    4  N9  UNL     1     -34.020  15.934  -2.604  1.00 20.00     0.102 N 
HETATM    5  C3  UNL     1     -34.888  14.808  -2.975  1.00 20.00     0.274 C 
HETATM    6  C2  UNL     1     -34.211  13.833  -3.942  1.00 20.00     0.040 C 
HETATM    7  C5  UNL     1     -34.505  14.052  -5.422  1.00 20.00     0.075 C 
HETATM    8  S10 UNL     1     -34.383  15.735  -6.092  1.00 20.00    -0.167 SA
HETATM    9  C6  UNL     1     -33.207  16.492  -4.936  1.00 20.00     0.104 C 
HETATM   10  C4  UNL     1     -33.887  16.959  -3.650  1.00 20.00     0.283 C 
ENDBRANCH   2   4
TORSDOF 1
ENDMDL
MODEL 3
REMARK VINA RESULT:      -3.8      1.459      2.506
REMARK  1 active torsions:
REMARK  status: ('A' for Active; 'I' for Inactive)
REMARK    1  A    between atoms: C7_7  and  N9_9 
ROOT
HETATM    1  C1  UNL     1     -33.992  13.477  -4.122  1.00 20.00     0.089 C 
HETATM    2  C7  UNL     1     -32.879  14.305  -3.662  1.00 20.00     0.395 C 
HETATM    3  N8  UNL     1     -34.874  12.816  -4.487  1.00 20.00    -0.195 NA
ENDROOT
BRANCH   2   4
HETATM    4  N9  UNL     1     -33.267  15.720  -3.609  1.00 20.00     0.102 N 
HETATM    5  C3  UNL     1     -33.569  16.203  -4.963  1.00 20.00     0.274 C 
HETATM    6  C2  UNL     1     -33.526  17.729  -5.070  1.00 20.00     0.040 C 
HETATM    7  C5  UNL     1     -34.864  18.446  -4.928  1.00 20.00     0.075 C 
HETATM    8  S10 UNL     1     -35.957  17.977  -3.556  1.00 20.00    -0.167 SA
HETATM    9  C6  UNL     1     -34.762  17.333  -2.354  1.00 20.00     0.104 C 
HETATM   10  C4  UNL     1     -34.371  15.886  -2.653  1.00 20.00     0.283 C 
ENDBRANCH   2   4
TORSDOF 1
ENDMDL
MODEL 4
REMARK VINA RESULT:      -3.7      2.796      4.499
REMARK  1 active torsions:
REMARK  status: ('A' for Active; 'I' for Inactive)
REMARK    1  A    between atoms: C7_7  and  N9_9 
ROOT
HETATM    1  C1  UNL     1     -34.533  17.131  -0.423  1.00 20.00     0.089 C 
HETATM    2  C7  UNL     1     -33.826  16.932  -1.685  1.00 20.00     0.395 C 
HETATM    3  N8  UNL     1     -35.093  17.291   0.582  1.00 20.00    -0.195 NA
ENDROOT
BRANCH   2   4
HETATM    4  N9  UNL     1     -34.400  15.810  -2.436  1.00 20.00     0.102 N 
HETATM    5  C3  UNL     1     -35.648  16.233  -3.086  1.00 20.00     0.274 C 
HETATM    6  C2  UNL     1     -36.537  15.054  -3.487  1.00 20.00     0.040 C 
HETATM    7  C5  UNL     1     -36.398  14.574  -4.928  1.00 20.00     0.075 C 
HETATM    8  S10 UNL     1     -34.730  14.318  -5.599  1.00 20.00    -0.167 SA
HETATM    9  C6  UNL     1     -33.786  13.989  -4.086  1.00 20.00     0.104 C 
HETATM   10  C4  UNL     1     -33.392  15.278  -3.365  1.00 20.00     0.283 C 
ENDBRANCH   2   4
TORSDOF 1
ENDMDL
MODEL 5
REMARK VINA RESULT:      -3.7     11.650     12.715
REMARK  1 active torsions:
REMARK  status: ('A' for Active; 'I' for Inactive)
REMARK    1  A    between atoms: C7_7  and  N9_9 
ROOT
HETATM    1  C1  UNL     1     -32.198   8.398   2.083  1.00 20.00     0.089 C 
HETATM    2  C7  UNL     1     -31.962   7.221   2.916  1.00 20.00     0.395 C 
HETATM    3  N8  UNL     1     -32.382   9.333   1.420  1.00 20.00    -0.195 NA
ENDROOT
BRANCH   2   4
HETATM    4  N9  UNL     1     -33.174   6.854   3.658  1.00 20.00     0.102 N 
HETATM    5  C3  UNL     1     -33.755   5.631   3.086  1.00 20.00     0.274 C 
HETATM    6  C2  UNL     1     -35.224   5.438   3.471  1.00 20.00     0.040 C 
HETATM    7  C5  UNL     1     -35.485   4.541   4.676  1.00 20.00     0.075 C 
HETATM    8  S10 UNL     1     -34.506   4.805   6.182  1.00 20.00    -0.167 SA
HETATM    9  C6  UNL     1     -34.059   6.555   6.012  1.00 20.00     0.104 C 
HETATM   10  C4  UNL     1     -32.856   6.753   5.090  1.00 20.00     0.283 C 
ENDBRANCH   2   4
TORSDOF 1
ENDMDL
MODEL 6
REMARK VINA RESULT:      -3.7      1.569      2.623
REMARK  1 active torsions:
REMARK  status: ('A' for Active; 'I' for Inactive)
REMARK    1  A    between atoms: C7_7  and  N9_9 
ROOT
HETATM    1  C1  UNL     1     -36.566  14.163  -3.974  1.00 20.00     0.089 C 
HETATM    2  C7  UNL     1     -35.146  13.851  -4.117  1.00 20.00     0.395 C 
HETATM    3  N8  UNL     1     -37.695  14.408  -3.862  1.00 20.00    -0.195 NA
ENDROOT
BRANCH   2   4
HETATM    4  N9  UNL     1     -34.324  15.051  -3.921  1.00 20.00     0.102 N 
HETATM    5  C3  UNL     1     -34.505  15.968  -5.055  1.00 20.00     0.274 C 
HETATM    6  C2  UNL     1     -33.375  16.993  -5.173  1.00 20.00     0.040 C 
HETATM    7  C5  UNL     1     -33.636  18.350  -4.527  1.00 20.00     0.075 C 
HETATM    8  S10 UNL     1     -34.303  18.392  -2.839  1.00 20.00    -0.167 SA
HETATM    9  C6  UNL     1     -33.727  16.800  -2.190  1.00 20.00     0.104 C 
HETATM   10  C4  UNL     1     -34.635  15.646  -2.613  1.00 20.00     0.283 C 
ENDBRANCH   2   4
TORSDOF 1
ENDMDL
MODEL 7
REMARK VINA RESULT:      -3.7      1.882      1.906
REMARK  1 active torsions:
REMARK  status: ('A' for Active; 'I' for Inactive)
REMARK    1  A    between atoms: C7_7  and  N9_9 
ROOT
HETATM    1  C1  UNL     1     -37.346  14.749  -3.895  1.00 20.00     0.089 C 
HETATM    2  C7  UNL     1     -36.008  15.310  -4.066  1.00 20.00     0.395 C 
HETATM    3  N8  UNL     1     -38.410  14.301  -3.762  1.00 20.00    -0.195 NA
ENDROOT
BRANCH   2   4
HETATM    4  N9  UNL     1     -35.736  16.333  -3.049  1.00 20.00     0.102 N 
HETATM    5  C3  UNL     1     -34.624  15.899  -2.193  1.00 20.00     0.274 C 
HETATM    6  C2  UNL     1     -34.575  16.649  -0.860  1.00 20.00     0.040 C 
HETATM    7  C5  UNL     1     -33.643  17.854  -0.807  1.00 20.00     0.075 C 
HETATM    8  S10 UNL     1     -33.703  19.058  -2.166  1.00 20.00    -0.167 SA
HETATM    9  C6  UNL     1     -35.398  18.827  -2.768  1.00 20.00     0.104 C 
HETATM   10  C4  UNL     1     -35.514  17.627  -3.709  1.00 20.00     0.283 C 
ENDBRANCH   2   4
TORSDOF 1
ENDMDL
MODEL 8
REMARK VINA RESULT:      -3.6      2.578      4.199
REMARK  1 active torsions:
REMARK  status: ('A' for Active; 'I' for Inactive)
REMARK    1  A    between atoms: C7_7  and  N9_9 
ROOT
HETATM    1  C1  UNL     1     -34.939  17.132  -1.249  1.00 20.00     0.089 C 
HETATM    2  C7  UNL     1     -35.206  17.405  -2.659  1.00 20.00     0.395 C 
HETATM    3  N8  UNL     1     -34.728  16.918  -0.127  1.00 20.00    -0.195 NA
ENDROOT
BRANCH   2   4
HETATM    4  N9  UNL     1     -34.617  16.367  -3.514  1.00 20.00     0.102 N 
HETATM    5  C3  UNL     1     -35.164  15.053  -3.148  1.00 20.00     0.274 C 
HETATM    6  C2  UNL     1     -34.296  13.893  -3.640  1.00 20.00     0.040 C 
HETATM    7  C5  UNL     1     -34.707  13.269  -4.970  1.00 20.00     0.075 C 
HETATM    8  S10 UNL     1     -35.077  14.369  -6.366  1.00 20.00    -0.167 SA
HETATM    9  C6  UNL     1     -34.096  15.832  -5.934  1.00 20.00     0.104 C 
HETATM   10  C4  UNL     1     -34.816  16.727  -4.925  1.00 20.00     0.283 C 
ENDBRANCH   2   4
TORSDOF 1
ENDMDL
MODEL 9
REMARK VINA RESULT:      -3.6      2.657      4.504
REMARK  1 active torsions:
REMARK  status: ('A' for Active; 'I' for Inactive)
REMARK    1  A    between atoms: C7_7  and  N9_9 
ROOT
HETATM    1  C1  UNL     1     -34.290  16.989  -0.972  1.00 20.00     0.089 C 
HETATM    2  C7  UNL     1     -33.488  16.948  -2.193  1.00 20.00     0.395 C 
HETATM    3  N8  UNL     1     -34.923  17.021   0.001  1.00 20.00    -0.195 NA
ENDROOT
BRANCH   2   4
HETATM    4  N9  UNL     1     -34.260  16.383  -3.306  1.00 20.00     0.102 N 
HETATM    5  C3  UNL     1     -33.460  16.428  -4.538  1.00 20.00     0.274 C 
HETATM    6  C2  UNL     1     -34.313  16.304  -5.803  1.00 20.00     0.040 C 
HETATM    7  C5  UNL     1     -34.437  14.902  -6.389  1.00 20.00     0.075 C 
HETATM    8  S10 UNL     1     -34.828  13.526  -5.270  1.00 20.00    -0.167 SA
HETATM    9  C6  UNL     1     -35.694  14.392  -3.933  1.00 20.00     0.104 C 
HETATM   10  C4  UNL     1     -34.724  15.036  -2.943  1.00 20.00     0.283 C 
ENDBRANCH   2   4
TORSDOF 1
ENDMDL
