MODEL 1
REMARK VINA RESULT:      -4.1      0.000      0.000
REMARK  3 active torsions:
REMARK  status: ('A' for Active; 'I' for Inactive)
REMARK    1  A    between atoms: C6_6  and  C9_9 
REMARK    2  A    between atoms: C7_7  and  C10_10 
REMARK    3  A    between atoms: C10_10  and  N11_11 
ROOT
HETATM    1  C1  UNL     1     -34.137  15.402  -2.896  1.00 20.00     0.032 C 
HETATM    2  C2  UNL     1     -35.892  17.206  -2.679  1.00 20.00     0.032 C 
HETATM    3  C3  UNL     1     -33.432  16.227  -3.964  1.00 20.00     0.235 C 
HETATM    4  C4  UNL     1     -35.178  18.020  -3.750  1.00 20.00     0.235 C 
HETATM    5  C6  UNL     1     -34.958  16.255  -1.918  1.00 20.00    -0.012 C 
HETATM    6  N11 UNL     1     -34.407  17.123  -4.687  1.00 20.00    -0.069 N 
HETATM    7  H32 UNL     1     -33.810  17.775  -5.275  1.00 20.00     0.280 HD
ENDROOT
BRANCH   6   8
HETATM    8  C10 UNL     1     -35.276  16.396  -5.679  1.00 20.00     0.268 C 
BRANCH   8   9
HETATM    9  C7  UNL     1     -34.417  15.466  -6.507  1.00 20.00     0.171 A 
HETATM   10  C5  UNL     1     -34.970  14.763  -7.714  1.00 20.00     0.201 A 
HETATM   11  O12 UNL     1     -34.809  14.090  -6.456  1.00 20.00    -0.380 OA
ENDBRANCH   8   9
ENDBRANCH   6   8
BRANCH   5  12
HETATM   12  C9  UNL     1     -34.058  17.014  -0.939  1.00 20.00     0.000 C 
HETATM   13  C8  UNL     1     -34.792  17.388   0.308  1.00 20.00     0.005 C 
ENDBRANCH   5  12
TORSDOF 3
ENDMDL
MODEL 2
REMARK VINA RESULT:      -4.1      1.237      1.778
REMARK  3 active torsions:
REMARK  status: ('A' for Active; 'I' for Inactive)
REMARK    1  A    between atoms: C6_6  and  C9_9 
REMARK    2  A    between atoms: C7_7  and  C10_10 
REMARK    3  A    between atoms: C10_10  and  N11_11 
ROOT
HETATM    1  C1  UNL     1     -33.900  17.474  -3.312  1.00 20.00     0.032 C 
HETATM    2  C2  UNL     1     -34.433  15.025  -2.994  1.00 20.00     0.032 C 
HETATM    3  C3  UNL     1     -35.258  17.676  -3.971  1.00 20.00     0.235 C 
HETATM    4  C4  UNL     1     -35.788  15.241  -3.655  1.00 20.00     0.235 C 
HETATM    5  C6  UNL     1     -33.874  16.293  -2.332  1.00 20.00    -0.012 C 
HETATM    6  N11 UNL     1     -35.740  16.401  -4.618  1.00 20.00    -0.069 N 
HETATM    7  H32 UNL     1     -36.751  16.586  -4.888  1.00 20.00     0.280 HD
ENDROOT
BRANCH   6   8
HETATM    8  C10 UNL     1     -35.047  16.083  -5.916  1.00 20.00     0.268 C 
BRANCH   8   9
HETATM    9  C7  UNL     1     -35.557  14.759  -6.441  1.00 20.00     0.171 A 
HETATM   10  C5  UNL     1     -35.643  14.488  -7.917  1.00 20.00     0.201 A 
HETATM   11  O12 UNL     1     -36.801  14.836  -7.144  1.00 20.00    -0.380 OA
ENDBRANCH   8   9
ENDBRANCH   6   8
BRANCH   5  12
HETATM   12  C9  UNL     1     -34.612  16.622  -1.032  1.00 20.00     0.000 C 
HETATM   13  C8  UNL     1     -33.968  17.756  -0.303  1.00 20.00     0.005 C 
ENDBRANCH   5  12
TORSDOF 3
ENDMDL
MODEL 3
REMARK VINA RESULT:      -4.1      1.458      1.512
REMARK  3 active torsions:
REMARK  status: ('A' for Active; 'I' for Inactive)
REMARK    1  A    between atoms: C6_6  and  C9_9 
REMARK    2  A    between atoms: C7_7  and  C10_10 
REMARK    3  A    between atoms: C10_10  and  N11_11 
ROOT
HETATM    1  C1  UNL     1     -33.351  15.283  -3.491  1.00 20.00     0.032 C 
HETATM    2  C2  UNL     1     -35.748  15.936  -3.039  1.00 20.00     0.032 C 
HETATM    3  C3  UNL     1     -33.309  16.269  -4.651  1.00 20.00     0.235 C 
HETATM    4  C4  UNL     1     -35.693  16.918  -4.202  1.00 20.00     0.235 C 
HETATM    5  C6  UNL     1     -34.374  15.663  -2.412  1.00 20.00    -0.012 C 
HETATM    6  N11 UNL     1     -34.684  16.477  -5.234  1.00 20.00    -0.069 N 
HETATM    7  H32 UNL     1     -34.587  17.297  -5.902  1.00 20.00     0.280 HD
ENDROOT
BRANCH   6   8
HETATM    8  C10 UNL     1     -35.157  15.334  -6.092  1.00 20.00     0.268 C 
BRANCH   8   9
HETATM    9  C7  UNL     1     -36.274  15.815  -6.992  1.00 20.00     0.171 A 
HETATM   10  C5  UNL     1     -37.661  15.247  -6.882  1.00 20.00     0.201 A 
HETATM   11  O12 UNL     1     -36.755  14.835  -7.918  1.00 20.00    -0.380 OA
ENDBRANCH   8   9
ENDBRANCH   6   8
BRANCH   5  12
HETATM   12  C9  UNL     1     -33.893  16.848  -1.570  1.00 20.00     0.000 C 
HETATM   13  C8  UNL     1     -34.705  17.007  -0.326  1.00 20.00     0.005 C 
ENDBRANCH   5  12
TORSDOF 3
ENDMDL
MODEL 4
REMARK VINA RESULT:      -4.0      2.304      5.292
REMARK  3 active torsions:
REMARK  status: ('A' for Active; 'I' for Inactive)
REMARK    1  A    between atoms: C6_6  and  C9_9 
REMARK    2  A    between atoms: C7_7  and  C10_10 
REMARK    3  A    between atoms: C10_10  and  N11_11 
ROOT
HETATM    1  C1  UNL     1     -35.841  15.740  -4.756  1.00 20.00     0.032 C 
HETATM    2  C2  UNL     1     -34.015  14.062  -4.280  1.00 20.00     0.032 C 
HETATM    3  C3  UNL     1     -34.945  16.854  -4.231  1.00 20.00     0.235 C 
HETATM    4  C4  UNL     1     -33.128  15.185  -3.757  1.00 20.00     0.235 C 
HETATM    5  C6  UNL     1     -35.057  14.539  -5.301  1.00 20.00    -0.012 C 
HETATM    6  N11 UNL     1     -33.960  16.323  -3.219  1.00 20.00    -0.069 N 
HETATM    7  H32 UNL     1     -33.274  17.117  -3.048  1.00 20.00     0.280 HD
ENDROOT
BRANCH   6   8
HETATM    8  C10 UNL     1     -34.569  16.043  -1.871  1.00 20.00     0.268 C 
BRANCH   8   9
HETATM    9  C7  UNL     1     -34.320  17.221  -0.956  1.00 20.00     0.171 A 
HETATM   10  C5  UNL     1     -34.979  17.313   0.391  1.00 20.00     0.201 A 
HETATM   11  O12 UNL     1     -35.462  18.056  -0.738  1.00 20.00    -0.380 OA
ENDBRANCH   8   9
ENDBRANCH   6   8
BRANCH   5  12
HETATM   12  C9  UNL     1     -34.415  14.853  -6.656  1.00 20.00     0.000 C 
HETATM   13  C8  UNL     1     -35.355  14.587  -7.786  1.00 20.00     0.005 C 
ENDBRANCH   5  12
TORSDOF 3
ENDMDL
MODEL 5
REMARK VINA RESULT:      -4.0      1.818      2.118
REMARK  3 active torsions:
REMARK  status: ('A' for Active; 'I' for Inactive)
REMARK    1  A    between atoms: C6_6  and  C9_9 
REMARK    2  A    between atoms: C7_7  and  C10_10 
REMARK    3  A    between atoms: C10_10  and  N11_11 
ROOT
HETATM    1  C1  UNL     1     -34.538  16.459  -1.094  1.00 20.00     0.032 C 
HETATM    2  C2  UNL     1     -36.442  17.753  -2.133  1.00 20.00     0.032 C 
HETATM    3  C3  UNL     1     -33.897  16.313  -2.468  1.00 20.00     0.235 C 
HETATM    4  C4  UNL     1     -35.790  17.600  -3.502  1.00 20.00     0.235 C 
HETATM    5  C6  UNL     1     -35.436  17.698  -0.975  1.00 20.00    -0.012 C 
HETATM    6  N11 UNL     1     -34.939  16.355  -3.558  1.00 20.00    -0.069 N 
HETATM    7  H32 UNL     1     -34.395  16.426  -4.467  1.00 20.00     0.280 HD
ENDROOT
BRANCH   6   8
HETATM    8  C10 UNL     1     -35.735  15.083  -3.684  1.00 20.00     0.268 C 
BRANCH   8   9
HETATM    9  C7  UNL     1     -34.787  13.914  -3.831  1.00 20.00     0.171 A 
HETATM   10  C5  UNL     1     -34.544  13.272  -5.168  1.00 20.00     0.201 A 
HETATM   11  O12 UNL     1     -35.416  12.680  -4.192  1.00 20.00    -0.380 OA
ENDBRANCH   8   9
ENDBRANCH   6   8
BRANCH   5  12
HETATM   12  C9  UNL     1     -34.612  18.985  -0.882  1.00 20.00     0.000 C 
HETATM   13  C8  UNL     1     -33.548  18.885   0.162  1.00 20.00     0.005 C 
ENDBRANCH   5  12
TORSDOF 3
ENDMDL
MODEL 6
REMARK VINA RESULT:      -3.9      2.535      5.226
REMARK  3 active torsions:
REMARK  status: ('A' for Active; 'I' for Inactive)
REMARK    1  A    between atoms: C6_6  and  C9_9 
REMARK    2  A    between atoms: C7_7  and  C10_10 
REMARK    3  A    between atoms: C10_10  and  N11_11 
ROOT
HETATM    1  C1  UNL     1     -34.729  14.233  -3.587  1.00 20.00     0.032 C 
HETATM    2  C2  UNL     1     -33.457  16.046  -4.801  1.00 20.00     0.032 C 
HETATM    3  C3  UNL     1     -35.708  15.278  -3.069  1.00 20.00     0.235 C 
HETATM    4  C4  UNL     1     -34.443  17.081  -4.276  1.00 20.00     0.235 C 
HETATM    5  C6  UNL     1     -34.057  14.637  -4.906  1.00 20.00    -0.012 C 
HETATM    6  N11 UNL     1     -35.052  16.632  -2.970  1.00 20.00    -0.069 N 
HETATM    7  H32 UNL     1     -35.842  17.316  -2.777  1.00 20.00     0.280 HD
ENDROOT
BRANCH   6   8
HETATM    8  C10 UNL     1     -34.126  16.772  -1.791  1.00 20.00     0.268 C 
BRANCH   8   9
HETATM    9  C7  UNL     1     -34.748  17.704  -0.775  1.00 20.00     0.171 A 
HETATM   10  C5  UNL     1     -34.001  18.120   0.460  1.00 20.00     0.201 A 
HETATM   11  O12 UNL     1     -35.015  17.104   0.497  1.00 20.00    -0.380 OA
ENDBRANCH   8   9
ENDBRANCH   6   8
BRANCH   5  12
HETATM   12  C9  UNL     1     -35.022  14.523  -6.089  1.00 20.00     0.000 C 
HETATM   13  C8  UNL     1     -34.400  15.009  -7.357  1.00 20.00     0.005 C 
ENDBRANCH   5  12
TORSDOF 3
ENDMDL
MODEL 7
REMARK VINA RESULT:      -3.8      2.443      2.796
REMARK  3 active torsions:
REMARK  status: ('A' for Active; 'I' for Inactive)
REMARK    1  A    between atoms: C6_6  and  C9_9 
REMARK    2  A    between atoms: C7_7  and  C10_10 
REMARK    3  A    between atoms: C10_10  and  N11_11 
ROOT
HETATM    1  C1  UNL     1     -34.712  15.995  -1.825  1.00 20.00     0.032 C 
HETATM    2  C2  UNL     1     -35.861  18.007  -0.818  1.00 20.00     0.032 C 
HETATM    3  C3  UNL     1     -34.998  16.539  -3.219  1.00 20.00     0.235 C 
HETATM    4  C4  UNL     1     -36.140  18.539  -2.218  1.00 20.00     0.235 C 
HETATM    5  C6  UNL     1     -34.630  17.091  -0.754  1.00 20.00    -0.012 C 
HETATM    6  N11 UNL     1     -36.228  17.412  -3.217  1.00 20.00    -0.069 N 
HETATM    7  H32 UNL     1     -36.244  17.880  -4.170  1.00 20.00     0.280 HD
ENDROOT
BRANCH   6   8
HETATM    8  C10 UNL     1     -37.518  16.639  -3.146  1.00 20.00     0.268 C 
BRANCH   8   9
HETATM    9  C7  UNL     1     -37.495  15.533  -4.177  1.00 20.00     0.171 A 
HETATM   10  C5  UNL     1     -38.766  14.895  -4.664  1.00 20.00     0.201 A 
HETATM   11  O12 UNL     1     -37.925  14.257  -3.690  1.00 20.00    -0.380 OA
ENDBRANCH   8   9
ENDBRANCH   6   8
BRANCH   5  12
HETATM   12  C9  UNL     1     -33.328  17.889  -0.862  1.00 20.00     0.000 C 
HETATM   13  C8  UNL     1     -33.049  18.662   0.385  1.00 20.00     0.005 C 
ENDBRANCH   5  12
TORSDOF 3
ENDMDL
MODEL 8
REMARK VINA RESULT:      -3.6     13.705     14.297
REMARK  3 active torsions:
REMARK  status: ('A' for Active; 'I' for Inactive)
REMARK    1  A    between atoms: C6_6  and  C9_9 
REMARK    2  A    between atoms: C7_7  and  C10_10 
REMARK    3  A    between atoms: C10_10  and  N11_11 
ROOT
HETATM    1  C1  UNL     1     -42.399   6.044  -2.655  1.00 20.00     0.032 C 
HETATM    2  C2  UNL     1     -40.791   5.456  -0.798  1.00 20.00     0.032 C 
HETATM    3  C3  UNL     1     -43.233   4.816  -2.312  1.00 20.00     0.235 C 
HETATM    4  C4  UNL     1     -41.634   4.231  -0.466  1.00 20.00     0.235 C 
HETATM    5  C6  UNL     1     -41.596   6.581  -1.463  1.00 20.00    -0.012 C 
HETATM    6  N11 UNL     1     -42.380   3.743  -1.683  1.00 20.00    -0.069 N 
HETATM    7  H32 UNL     1     -43.064   3.015  -1.321  1.00 20.00     0.280 HD
ENDROOT
BRANCH   6   8
HETATM    8  C10 UNL     1     -41.514   3.003  -2.667  1.00 20.00     0.268 C 
BRANCH   8   9
HETATM    9  C7  UNL     1     -42.346   1.956  -3.375  1.00 20.00     0.171 A 
HETATM   10  C5  UNL     1     -41.713   0.727  -3.965  1.00 20.00     0.201 A 
HETATM   11  O12 UNL     1     -42.095   1.847  -4.780  1.00 20.00    -0.380 OA
ENDBRANCH   8   9
ENDBRANCH   6   8
BRANCH   5  12
HETATM   12  C9  UNL     1     -42.497   7.301  -0.455  1.00 20.00     0.000 C 
HETATM   13  C8  UNL     1     -43.417   8.266  -1.128  1.00 20.00     0.005 C 
ENDBRANCH   5  12
TORSDOF 3
ENDMDL
MODEL 9
REMARK VINA RESULT:      -3.5      2.700      5.215
REMARK  3 active torsions:
REMARK  status: ('A' for Active; 'I' for Inactive)
REMARK    1  A    between atoms: C6_6  and  C9_9 
REMARK    2  A    between atoms: C7_7  and  C10_10 
REMARK    3  A    between atoms: C10_10  and  N11_11 
ROOT
HETATM    1  C1  UNL     1     -35.188  17.383  -4.707  1.00 20.00     0.032 C 
HETATM    2  C2  UNL     1     -35.509  15.271  -3.360  1.00 20.00     0.032 C 
HETATM    3  C3  UNL     1     -33.907  17.672  -3.934  1.00 20.00     0.235 C 
HETATM    4  C4  UNL     1     -34.227  15.571  -2.595  1.00 20.00     0.235 C 
HETATM    5  C6  UNL     1     -35.534  15.889  -4.765  1.00 20.00    -0.012 C 
HETATM    6  N11 UNL     1     -33.955  17.055  -2.559  1.00 20.00    -0.069 N 
HETATM    7  H32 UNL     1     -32.971  17.152  -2.171  1.00 20.00     0.280 HD
ENDROOT
BRANCH   6   8
HETATM    8  C10 UNL     1     -34.828  17.806  -1.589  1.00 20.00     0.268 C 
BRANCH   8   9
HETATM    9  C7  UNL     1     -34.719  17.167  -0.222  1.00 20.00     0.171 A 
HETATM   10  C5  UNL     1     -35.421  17.755   0.970  1.00 20.00     0.201 A 
HETATM   11  O12 UNL     1     -34.017  17.952   0.747  1.00 20.00    -0.380 OA
ENDBRANCH   8   9
ENDBRANCH   6   8
BRANCH   5  12
HETATM   12  C9  UNL     1     -34.615  15.134  -5.730  1.00 20.00     0.000 C 
HETATM   13  C8  UNL     1     -34.847  13.659  -5.672  1.00 20.00     0.005 C 
ENDBRANCH   5  12
TORSDOF 3
ENDMDL
