MODEL 1
REMARK VINA RESULT:      -4.7      0.000      0.000
REMARK  3 active torsions:
REMARK  status: ('A' for Active; 'I' for Inactive)
REMARK    1  A    between atoms: C3_3  and  C4_4 
REMARK    2  A    between atoms: C3_3  and  C5_5 
REMARK    3  A    between atoms: C4_4  and  N6_6 
ROOT
HETATM    1  C3  UNL     1     -33.726   6.884   3.770  1.00 20.00     0.152 C 
ENDROOT
BRANCH   1   2
HETATM    2  C4  UNL     1     -33.858   5.856   4.904  1.00 20.00     0.224 C 
HETATM    3  C1  UNL     1     -33.950   6.559   6.257  1.00 20.00     0.043 C 
BRANCH   2   4
HETATM    4  N6  UNL     1     -35.043   5.018   4.729  1.00 20.00     0.083 N 
HETATM    5  C2  UNL     1     -35.069   3.950   5.717  1.00 20.00     0.307 C 
HETATM    6  H19 UNL     1     -35.875   5.596   4.833  1.00 20.00     0.315 HD
ENDBRANCH   2   4
ENDBRANCH   1   2
BRANCH   1   7
HETATM    7  C5  UNL     1     -32.347   6.936   3.140  1.00 20.00     0.389 C 
HETATM    8  F7  UNL     1     -31.437   7.499   3.962  1.00 20.00    -0.171 F 
HETATM    9  F8  UNL     1     -32.377   7.672   2.005  1.00 20.00    -0.171 F 
HETATM   10  F9  UNL     1     -31.910   5.702   2.813  1.00 20.00    -0.171 F 
ENDBRANCH   1   7
TORSDOF 3
ENDMDL
MODEL 2
REMARK VINA RESULT:      -4.5      3.067      4.185
REMARK  3 active torsions:
REMARK  status: ('A' for Active; 'I' for Inactive)
REMARK    1  A    between atoms: C3_3  and  C4_4 
REMARK    2  A    between atoms: C3_3  and  C5_5 
REMARK    3  A    between atoms: C4_4  and  N6_6 
ROOT
HETATM    1  C3  UNL     1     -33.896   6.395   5.092  1.00 20.00     0.152 C 
ENDROOT
BRANCH   1   2
HETATM    2  C4  UNL     1     -32.960   5.983   3.945  1.00 20.00     0.224 C 
HETATM    3  C1  UNL     1     -33.759   5.733   2.667  1.00 20.00     0.043 C 
BRANCH   2   4
HETATM    4  N6  UNL     1     -31.959   7.014   3.678  1.00 20.00     0.083 N 
HETATM    5  C2  UNL     1     -32.240   7.693   2.422  1.00 20.00     0.307 C 
HETATM    6  H19 UNL     1     -31.969   7.690   4.438  1.00 20.00     0.315 HD
ENDBRANCH   2   4
ENDBRANCH   1   2
BRANCH   1   7
HETATM    7  C5  UNL     1     -34.692   5.246   5.683  1.00 20.00     0.389 C 
HETATM    8  F7  UNL     1     -35.759   4.927   4.922  1.00 20.00    -0.171 F 
HETATM    9  F8  UNL     1     -35.154   5.578   6.910  1.00 20.00    -0.171 F 
HETATM   10  F9  UNL     1     -33.929   4.142   5.821  1.00 20.00    -0.171 F 
ENDBRANCH   1   7
TORSDOF 3
ENDMDL
MODEL 3
REMARK VINA RESULT:      -4.5      3.062      4.152
REMARK  3 active torsions:
REMARK  status: ('A' for Active; 'I' for Inactive)
REMARK    1  A    between atoms: C3_3  and  C4_4 
REMARK    2  A    between atoms: C3_3  and  C5_5 
REMARK    3  A    between atoms: C4_4  and  N6_6 
ROOT
HETATM    1  C3  UNL     1     -33.911   6.416   5.048  1.00 20.00     0.152 C 
ENDROOT
BRANCH   1   2
HETATM    2  C4  UNL     1     -32.955   5.981   3.927  1.00 20.00     0.224 C 
HETATM    3  C1  UNL     1     -33.729   5.711   2.638  1.00 20.00     0.043 C 
BRANCH   2   4
HETATM    4  N6  UNL     1     -31.944   7.004   3.661  1.00 20.00     0.083 N 
HETATM    5  C2  UNL     1     -32.234   7.705   2.419  1.00 20.00     0.307 C 
HETATM    6  H19 UNL     1     -31.937   7.669   4.431  1.00 20.00     0.315 HD
ENDBRANCH   2   4
ENDBRANCH   1   2
BRANCH   1   7
HETATM    7  C5  UNL     1     -34.677   5.271   5.685  1.00 20.00     0.389 C 
HETATM    8  F7  UNL     1     -33.921   4.159   5.799  1.00 20.00    -0.171 F 
HETATM    9  F8  UNL     1     -35.755   4.952   4.931  1.00 20.00    -0.171 F 
HETATM   10  F9  UNL     1     -35.124   5.603   6.913  1.00 20.00    -0.171 F 
ENDBRANCH   1   7
TORSDOF 3
ENDMDL
MODEL 4
REMARK VINA RESULT:      -4.3      1.343      2.059
REMARK  3 active torsions:
REMARK  status: ('A' for Active; 'I' for Inactive)
REMARK    1  A    between atoms: C3_3  and  C4_4 
REMARK    2  A    between atoms: C3_3  and  C5_5 
REMARK    3  A    between atoms: C4_4  and  N6_6 
ROOT
HETATM    1  C3  UNL     1     -32.854   6.202   3.171  1.00 20.00     0.152 C 
ENDROOT
BRANCH   1   2
HETATM    2  C4  UNL     1     -34.092   6.376   4.066  1.00 20.00     0.224 C 
HETATM    3  C1  UNL     1     -35.086   5.239   3.831  1.00 20.00     0.043 C 
BRANCH   2   4
HETATM    4  N6  UNL     1     -33.729   6.397   5.482  1.00 20.00     0.083 N 
HETATM    5  C2  UNL     1     -34.565   5.481   6.242  1.00 20.00     0.307 C 
HETATM    6  H19 UNL     1     -32.753   6.123   5.577  1.00 20.00     0.315 HD
ENDBRANCH   2   4
ENDBRANCH   1   2
BRANCH   1   7
HETATM    7  C5  UNL     1     -32.166   7.504   2.809  1.00 20.00     0.389 C 
HETATM    8  F7  UNL     1     -31.529   7.426   1.622  1.00 20.00    -0.171 F 
HETATM    9  F8  UNL     1     -31.242   7.823   3.744  1.00 20.00    -0.171 F 
HETATM   10  F9  UNL     1     -33.048   8.523   2.745  1.00 20.00    -0.171 F 
ENDBRANCH   1   7
TORSDOF 3
ENDMDL
MODEL 5
REMARK VINA RESULT:      -4.0      3.081      3.949
REMARK  3 active torsions:
REMARK  status: ('A' for Active; 'I' for Inactive)
REMARK    1  A    between atoms: C3_3  and  C4_4 
REMARK    2  A    between atoms: C3_3  and  C5_5 
REMARK    3  A    between atoms: C4_4  and  N6_6 
ROOT
HETATM    1  C3  UNL     1     -33.748   5.081   4.999  1.00 20.00     0.152 C 
ENDROOT
BRANCH   1   2
HETATM    2  C4  UNL     1     -33.695   6.616   5.041  1.00 20.00     0.224 C 
HETATM    3  C1  UNL     1     -33.529   7.107   6.478  1.00 20.00     0.043 C 
BRANCH   2   4
HETATM    4  N6  UNL     1     -32.589   7.134   4.237  1.00 20.00     0.083 N 
HETATM    5  C2  UNL     1     -32.310   6.253   3.114  1.00 20.00     0.307 C 
HETATM    6  H19 UNL     1     -32.837   8.058   3.890  1.00 20.00     0.315 HD
ENDBRANCH   2   4
ENDBRANCH   1   2
BRANCH   1   7
HETATM    7  C5  UNL     1     -35.148   4.507   5.112  1.00 20.00     0.389 C 
HETATM    8  F7  UNL     1     -35.620   4.571   6.374  1.00 20.00    -0.171 F 
HETATM    9  F8  UNL     1     -35.153   3.206   4.743  1.00 20.00    -0.171 F 
HETATM   10  F9  UNL     1     -36.012   5.161   4.308  1.00 20.00    -0.171 F 
ENDBRANCH   1   7
TORSDOF 3
ENDMDL
MODEL 6
REMARK VINA RESULT:      -4.0      1.374      2.215
REMARK  3 active torsions:
REMARK  status: ('A' for Active; 'I' for Inactive)
REMARK    1  A    between atoms: C3_3  and  C4_4 
REMARK    2  A    between atoms: C3_3  and  C5_5 
REMARK    3  A    between atoms: C4_4  and  N6_6 
ROOT
HETATM    1  C3  UNL     1     -33.222   5.563   4.601  1.00 20.00     0.152 C 
ENDROOT
BRANCH   1   2
HETATM    2  C4  UNL     1     -34.589   5.426   5.289  1.00 20.00     0.224 C 
HETATM    3  C1  UNL     1     -34.985   3.954   5.403  1.00 20.00     0.043 C 
BRANCH   2   4
HETATM    4  N6  UNL     1     -34.574   6.012   6.629  1.00 20.00     0.083 N 
HETATM    5  C2  UNL     1     -33.626   7.114   6.699  1.00 20.00     0.307 C 
HETATM    6  H19 UNL     1     -35.507   6.353   6.851  1.00 20.00     0.315 HD
ENDBRANCH   2   4
ENDBRANCH   1   2
BRANCH   1   7
HETATM    7  C5  UNL     1     -33.294   6.106   3.186  1.00 20.00     0.389 C 
HETATM    8  F7  UNL     1     -32.075   6.186   2.613  1.00 20.00    -0.171 F 
HETATM    9  F8  UNL     1     -33.823   7.351   3.188  1.00 20.00    -0.171 F 
HETATM   10  F9  UNL     1     -34.075   5.332   2.404  1.00 20.00    -0.171 F 
ENDBRANCH   1   7
TORSDOF 3
ENDMDL
MODEL 7
REMARK VINA RESULT:      -3.9     11.411     12.030
REMARK  3 active torsions:
REMARK  status: ('A' for Active; 'I' for Inactive)
REMARK    1  A    between atoms: C3_3  and  C4_4 
REMARK    2  A    between atoms: C3_3  and  C5_5 
REMARK    3  A    between atoms: C4_4  and  N6_6 
ROOT
HETATM    1  C3  UNL     1     -33.767  15.987  -3.016  1.00 20.00     0.152 C 
ENDROOT
BRANCH   1   2
HETATM    2  C4  UNL     1     -34.865  15.897  -1.945  1.00 20.00     0.224 C 
HETATM    3  C1  UNL     1     -34.516  16.777  -0.746  1.00 20.00     0.043 C 
BRANCH   2   4
HETATM    4  N6  UNL     1     -36.162  16.317  -2.473  1.00 20.00     0.083 N 
HETATM    5  C2  UNL     1     -35.998  17.356  -3.478  1.00 20.00     0.307 C 
HETATM    6  H19 UNL     1     -36.625  15.512  -2.890  1.00 20.00     0.315 HD
ENDBRANCH   2   4
ENDBRANCH   1   2
BRANCH   1   7
HETATM    7  C5  UNL     1     -33.443  14.662  -3.682  1.00 20.00     0.389 C 
HETATM    8  F7  UNL     1     -33.734  14.674  -4.999  1.00 20.00    -0.171 F 
HETATM    9  F8  UNL     1     -34.162  13.666  -3.117  1.00 20.00    -0.171 F 
HETATM   10  F9  UNL     1     -32.137  14.351  -3.543  1.00 20.00    -0.171 F 
ENDBRANCH   1   7
TORSDOF 3
ENDMDL
MODEL 8
REMARK VINA RESULT:      -3.8     11.416     11.994
REMARK  3 active torsions:
REMARK  status: ('A' for Active; 'I' for Inactive)
REMARK    1  A    between atoms: C3_3  and  C4_4 
REMARK    2  A    between atoms: C3_3  and  C5_5 
REMARK    3  A    between atoms: C4_4  and  N6_6 
ROOT
HETATM    1  C3  UNL     1     -33.721  16.038  -2.944  1.00 20.00     0.152 C 
ENDROOT
BRANCH   1   2
HETATM    2  C4  UNL     1     -34.842  15.920  -1.900  1.00 20.00     0.224 C 
HETATM    3  C1  UNL     1     -34.539  16.798  -0.687  1.00 20.00     0.043 C 
BRANCH   2   4
HETATM    4  N6  UNL     1     -36.134  16.320  -2.457  1.00 20.00     0.083 N 
HETATM    5  C2  UNL     1     -35.975  17.431  -3.382  1.00 20.00     0.307 C 
HETATM    6  H19 UNL     1     -36.543  15.527  -2.946  1.00 20.00     0.315 HD
ENDBRANCH   2   4
ENDBRANCH   1   2
BRANCH   1   7
HETATM    7  C5  UNL     1     -33.386  14.733  -3.641  1.00 20.00     0.389 C 
HETATM    8  F7  UNL     1     -32.077  14.424  -3.533  1.00 20.00    -0.171 F 
HETATM    9  F8  UNL     1     -33.674  14.818  -4.960  1.00 20.00    -0.171 F 
HETATM   10  F9  UNL     1     -34.102  13.708  -3.133  1.00 20.00    -0.171 F 
ENDBRANCH   1   7
TORSDOF 3
ENDMDL
MODEL 9
REMARK VINA RESULT:      -3.8     11.448     12.056
REMARK  3 active torsions:
REMARK  status: ('A' for Active; 'I' for Inactive)
REMARK    1  A    between atoms: C3_3  and  C4_4 
REMARK    2  A    between atoms: C3_3  and  C5_5 
REMARK    3  A    between atoms: C4_4  and  N6_6 
ROOT
HETATM    1  C3  UNL     1     -33.788  16.008  -3.045  1.00 20.00     0.152 C 
ENDROOT
BRANCH   1   2
HETATM    2  C4  UNL     1     -34.879  15.935  -1.965  1.00 20.00     0.224 C 
HETATM    3  C1  UNL     1     -34.499  16.794  -0.760  1.00 20.00     0.043 C 
BRANCH   2   4
HETATM    4  N6  UNL     1     -36.170  16.392  -2.478  1.00 20.00     0.083 N 
HETATM    5  C2  UNL     1     -35.986  17.351  -3.556  1.00 20.00     0.307 C 
HETATM    6  H19 UNL     1     -36.692  15.589  -2.823  1.00 20.00     0.315 HD
ENDBRANCH   2   4
ENDBRANCH   1   2
BRANCH   1   7
HETATM    7  C5  UNL     1     -33.471  14.675  -3.694  1.00 20.00     0.389 C 
HETATM    8  F7  UNL     1     -34.185  13.666  -3.153  1.00 20.00    -0.171 F 
HETATM    9  F8  UNL     1     -32.162  14.375  -3.534  1.00 20.00    -0.171 F 
HETATM   10  F9  UNL     1     -33.723  14.703  -5.019  1.00 20.00    -0.171 F 
ENDBRANCH   1   7
TORSDOF 3
ENDMDL
