MODEL 1
REMARK VINA RESULT:      -4.7      0.000      0.000
REMARK  2 active torsions:
REMARK  status: ('A' for Active; 'I' for Inactive)
REMARK    1  A    between atoms: C6_6  and  C9_9 
REMARK    2  A    between atoms: C7_7  and  N10_10 
ROOT
HETATM    1  C1  UNL     1     -35.742  14.741  -6.813  1.00 20.00     0.158 C 
HETATM    2  N10 UNL     1     -34.807  14.552  -6.131  1.00 20.00    -0.270 NA
HETATM    3  S11 UNL     1     -36.992  15.017  -7.761  1.00 20.00    -0.055 SA
ENDROOT
BRANCH   2   4
HETATM    4  C7  UNL     1     -35.075  13.744  -4.933  1.00 20.00     0.109 C 
HETATM    5  C4  UNL     1     -36.179  14.399  -4.105  1.00 20.00     0.028 C 
HETATM    6  C2  UNL     1     -35.716  15.664  -3.381  1.00 20.00     0.007 C 
HETATM    7  C6  UNL     1     -34.454  15.413  -2.547  1.00 20.00    -0.015 C 
HETATM    8  C3  UNL     1     -33.334  14.826  -3.414  1.00 20.00     0.007 C 
HETATM    9  C5  UNL     1     -33.783  13.556  -4.138  1.00 20.00     0.028 C 
BRANCH   7  10
HETATM   10  C9  UNL     1     -33.991  16.703  -1.869  1.00 20.00     0.000 C 
HETATM   11  C8  UNL     1     -34.636  16.885  -0.536  1.00 20.00     0.005 C 
ENDBRANCH   7  10
ENDBRANCH   2   4
TORSDOF 2
ENDMDL
MODEL 2
REMARK VINA RESULT:      -4.6      2.833      4.646
REMARK  2 active torsions:
REMARK  status: ('A' for Active; 'I' for Inactive)
REMARK    1  A    between atoms: C6_6  and  C9_9 
REMARK    2  A    between atoms: C7_7  and  N10_10 
ROOT
HETATM    1  C1  UNL     1     -34.640  16.203  -1.809  1.00 20.00     0.158 C 
HETATM    2  N10 UNL     1     -34.826  15.482  -2.715  1.00 20.00    -0.270 NA
HETATM    3  S11 UNL     1     -34.423  17.182  -0.572  1.00 20.00    -0.055 SA
ENDROOT
BRANCH   2   4
HETATM    4  C7  UNL     1     -33.616  15.115  -3.465  1.00 20.00     0.109 C 
HETATM    5  C4  UNL     1     -33.352  16.150  -4.557  1.00 20.00     0.028 C 
HETATM    6  C2  UNL     1     -34.334  16.055  -5.724  1.00 20.00     0.007 C 
HETATM    7  C6  UNL     1     -34.405  14.633  -6.294  1.00 20.00    -0.015 C 
HETATM    8  C3  UNL     1     -34.745  13.620  -5.196  1.00 20.00     0.007 C 
HETATM    9  C5  UNL     1     -33.765  13.701  -4.025  1.00 20.00     0.028 C 
BRANCH   7  10
HETATM   10  C9  UNL     1     -35.424  14.558  -7.431  1.00 20.00     0.000 C 
HETATM   11  C8  UNL     1     -36.752  15.097  -7.017  1.00 20.00     0.005 C 
ENDBRANCH   7  10
ENDBRANCH   2   4
TORSDOF 2
ENDMDL
MODEL 3
REMARK VINA RESULT:      -4.3      2.083      2.732
REMARK  2 active torsions:
REMARK  status: ('A' for Active; 'I' for Inactive)
REMARK    1  A    between atoms: C6_6  and  C9_9 
REMARK    2  A    between atoms: C7_7  and  N10_10 
ROOT
HETATM    1  C1  UNL     1     -38.631  14.653  -4.043  1.00 20.00     0.158 C 
HETATM    2  N10 UNL     1     -37.549  14.305  -3.755  1.00 20.00    -0.270 NA
HETATM    3  S11 UNL     1     -40.114  15.111  -4.403  1.00 20.00    -0.055 SA
ENDROOT
BRANCH   2   4
HETATM    4  C7  UNL     1     -36.510  14.666  -4.729  1.00 20.00     0.109 C 
HETATM    5  C4  UNL     1     -35.190  13.995  -4.349  1.00 20.00     0.028 C 
HETATM    6  C2  UNL     1     -34.528  14.625  -3.123  1.00 20.00     0.007 C 
HETATM    7  C6  UNL     1     -34.370  16.142  -3.278  1.00 20.00    -0.015 C 
HETATM    8  C3  UNL     1     -35.718  16.804  -3.584  1.00 20.00     0.007 C 
HETATM    9  C5  UNL     1     -36.387  16.187  -4.814  1.00 20.00     0.028 C 
BRANCH   7  10
HETATM   10  C9  UNL     1     -33.744  16.750  -2.022  1.00 20.00     0.000 C 
HETATM   11  C8  UNL     1     -34.650  16.628  -0.842  1.00 20.00     0.005 C 
ENDBRANCH   7  10
ENDBRANCH   2   4
TORSDOF 2
ENDMDL
MODEL 4
REMARK VINA RESULT:      -4.3      1.260      1.606
REMARK  2 active torsions:
REMARK  status: ('A' for Active; 'I' for Inactive)
REMARK    1  A    between atoms: C6_6  and  C9_9 
REMARK    2  A    between atoms: C7_7  and  N10_10 
ROOT
HETATM    1  C1  UNL     1     -35.963  15.302  -6.428  1.00 20.00     0.158 C 
HETATM    2  N10 UNL     1     -35.691  15.607  -5.329  1.00 20.00    -0.270 NA
HETATM    3  S11 UNL     1     -36.363  14.906  -7.918  1.00 20.00    -0.055 SA
ENDROOT
BRANCH   2   4
HETATM    4  C7  UNL     1     -34.390  15.112  -4.859  1.00 20.00     0.109 C 
HETATM    5  C4  UNL     1     -34.546  14.479  -3.477  1.00 20.00     0.028 C 
HETATM    6  C2  UNL     1     -34.769  15.508  -2.368  1.00 20.00     0.007 C 
HETATM    7  C6  UNL     1     -33.689  16.596  -2.375  1.00 20.00    -0.015 C 
HETATM    8  C3  UNL     1     -33.600  17.269  -3.750  1.00 20.00     0.007 C 
HETATM    9  C5  UNL     1     -33.370  16.250  -4.867  1.00 20.00     0.028 C 
BRANCH   7  10
HETATM   10  C9  UNL     1     -33.959  17.632  -1.284  1.00 20.00     0.000 C 
HETATM   11  C8  UNL     1     -34.762  17.056  -0.166  1.00 20.00     0.005 C 
ENDBRANCH   7  10
ENDBRANCH   2   4
TORSDOF 2
ENDMDL
MODEL 5
REMARK VINA RESULT:      -4.2      2.448      3.814
REMARK  2 active torsions:
REMARK  status: ('A' for Active; 'I' for Inactive)
REMARK    1  A    between atoms: C6_6  and  C9_9 
REMARK    2  A    between atoms: C7_7  and  N10_10 
ROOT
HETATM    1  C1  UNL     1     -33.754  15.017  -3.901  1.00 20.00     0.158 C 
HETATM    2  N10 UNL     1     -33.452  16.080  -3.510  1.00 20.00    -0.270 NA
HETATM    3  S11 UNL     1     -34.128  13.563  -4.435  1.00 20.00    -0.055 SA
ENDROOT
BRANCH   2   4
HETATM    4  C7  UNL     1     -34.585  16.974  -3.230  1.00 20.00     0.109 C 
HETATM    5  C4  UNL     1     -34.087  18.412  -3.093  1.00 20.00     0.028 C 
HETATM    6  C2  UNL     1     -33.323  18.661  -1.792  1.00 20.00     0.007 C 
HETATM    7  C6  UNL     1     -34.130  18.220  -0.565  1.00 20.00    -0.015 C 
HETATM    8  C3  UNL     1     -34.557  16.753  -0.689  1.00 20.00     0.007 C 
HETATM    9  C5  UNL     1     -35.328  16.493  -1.984  1.00 20.00     0.028 C 
BRANCH   7  10
HETATM   10  C9  UNL     1     -33.328  18.442   0.716  1.00 20.00     0.000 C 
HETATM   11  C8  UNL     1     -31.960  18.964   0.426  1.00 20.00     0.005 C 
ENDBRANCH   7  10
ENDBRANCH   2   4
TORSDOF 2
ENDMDL
MODEL 6
REMARK VINA RESULT:      -4.1      2.773      4.740
REMARK  2 active torsions:
REMARK  status: ('A' for Active; 'I' for Inactive)
REMARK    1  A    between atoms: C6_6  and  C9_9 
REMARK    2  A    between atoms: C7_7  and  N10_10 
ROOT
HETATM    1  C1  UNL     1     -34.538  16.096  -1.991  1.00 20.00     0.158 C 
HETATM    2  N10 UNL     1     -34.418  15.499  -2.992  1.00 20.00    -0.270 NA
HETATM    3  S11 UNL     1     -34.666  16.920  -0.633  1.00 20.00    -0.055 SA
ENDROOT
BRANCH   2   4
HETATM    4  C7  UNL     1     -35.608  14.736  -3.397  1.00 20.00     0.109 C 
HETATM    5  C4  UNL     1     -35.184  13.492  -4.176  1.00 20.00     0.028 C 
HETATM    6  C2  UNL     1     -34.675  13.809  -5.582  1.00 20.00     0.007 C 
HETATM    7  C6  UNL     1     -35.678  14.660  -6.372  1.00 20.00    -0.015 C 
HETATM    8  C3  UNL     1     -36.032  15.939  -5.606  1.00 20.00     0.007 C 
HETATM    9  C5  UNL     1     -36.549  15.634  -4.199  1.00 20.00     0.028 C 
BRANCH   7  10
HETATM   10  C9  UNL     1     -35.126  14.996  -7.757  1.00 20.00     0.000 C 
HETATM   11  C8  UNL     1     -34.798  16.447  -7.882  1.00 20.00     0.005 C 
ENDBRANCH   7  10
ENDBRANCH   2   4
TORSDOF 2
ENDMDL
MODEL 7
REMARK VINA RESULT:      -4.0      2.372      3.118
REMARK  2 active torsions:
REMARK  status: ('A' for Active; 'I' for Inactive)
REMARK    1  A    between atoms: C6_6  and  C9_9 
REMARK    2  A    between atoms: C7_7  and  N10_10 
ROOT
HETATM    1  C1  UNL     1     -37.044  16.035  -4.030  1.00 20.00     0.158 C 
HETATM    2  N10 UNL     1     -36.209  16.854  -3.963  1.00 20.00    -0.270 NA
HETATM    3  S11 UNL     1     -38.205  14.947  -4.121  1.00 20.00    -0.055 SA
ENDROOT
BRANCH   2   4
HETATM    4  C7  UNL     1     -34.838  16.327  -3.897  1.00 20.00     0.109 C 
HETATM    5  C4  UNL     1     -34.675  15.469  -2.643  1.00 20.00     0.028 C 
HETATM    6  C2  UNL     1     -34.624  16.292  -1.356  1.00 20.00     0.007 C 
HETATM    7  C6  UNL     1     -33.565  17.399  -1.428  1.00 20.00    -0.015 C 
HETATM    8  C3  UNL     1     -33.793  18.293  -2.652  1.00 20.00     0.007 C 
HETATM    9  C5  UNL     1     -33.838  17.482  -3.947  1.00 20.00     0.028 C 
BRANCH   7  10
HETATM   10  C9  UNL     1     -33.566  18.230  -0.145  1.00 20.00     0.000 C 
HETATM   11  C8  UNL     1     -32.489  19.263  -0.158  1.00 20.00     0.005 C 
ENDBRANCH   7  10
ENDBRANCH   2   4
TORSDOF 2
ENDMDL
MODEL 8
REMARK VINA RESULT:      -3.9      2.940      4.323
REMARK  2 active torsions:
REMARK  status: ('A' for Active; 'I' for Inactive)
REMARK    1  A    between atoms: C6_6  and  C9_9 
REMARK    2  A    between atoms: C7_7  and  N10_10 
ROOT
HETATM    1  C1  UNL     1     -36.578  18.224  -2.741  1.00 20.00     0.158 C 
HETATM    2  N10 UNL     1     -35.889  17.856  -3.614  1.00 20.00    -0.270 NA
HETATM    3  S11 UNL     1     -37.544  18.718  -1.574  1.00 20.00    -0.055 SA
ENDROOT
BRANCH   2   4
HETATM    4  C7  UNL     1     -34.448  17.937  -3.334  1.00 20.00     0.109 C 
HETATM    5  C4  UNL     1     -33.657  17.502  -4.567  1.00 20.00     0.028 C 
HETATM    6  C2  UNL     1     -33.717  15.996  -4.818  1.00 20.00     0.007 C 
HETATM    7  C6  UNL     1     -33.314  15.195  -3.573  1.00 20.00    -0.015 C 
HETATM    8  C3  UNL     1     -34.171  15.593  -2.366  1.00 20.00     0.007 C 
HETATM    9  C5  UNL     1     -34.114  17.098  -2.101  1.00 20.00     0.028 C 
BRANCH   7  10
HETATM   10  C9  UNL     1     -33.423  13.693  -3.840  1.00 20.00     0.000 C 
HETATM   11  C8  UNL     1     -34.749  13.332  -4.422  1.00 20.00     0.005 C 
ENDBRANCH   7  10
ENDBRANCH   2   4
TORSDOF 2
ENDMDL
MODEL 9
REMARK VINA RESULT:      -3.9      4.519      6.181
REMARK  2 active torsions:
REMARK  status: ('A' for Active; 'I' for Inactive)
REMARK    1  A    between atoms: C6_6  and  C9_9 
REMARK    2  A    between atoms: C7_7  and  N10_10 
ROOT
HETATM    1  C1  UNL     1     -32.197  19.094   0.398  1.00 20.00     0.158 C 
HETATM    2  N10 UNL     1     -32.389  18.965  -0.751  1.00 20.00    -0.270 NA
HETATM    3  S11 UNL     1     -31.902  19.263   1.954  1.00 20.00    -0.055 SA
ENDROOT
BRANCH   2   4
HETATM    4  C7  UNL     1     -33.795  19.104  -1.158  1.00 20.00     0.109 C 
HETATM    5  C4  UNL     1     -34.645  18.056  -0.443  1.00 20.00     0.028 C 
HETATM    6  C2  UNL     1     -34.431  16.641  -0.981  1.00 20.00     0.007 C 
HETATM    7  C6  UNL     1     -34.612  16.577  -2.503  1.00 20.00    -0.015 C 
HETATM    8  C3  UNL     1     -33.694  17.585  -3.205  1.00 20.00     0.007 C 
HETATM    9  C5  UNL     1     -33.904  19.006  -2.679  1.00 20.00     0.028 C 
BRANCH   7  10
HETATM   10  C9  UNL     1     -34.352  15.162  -3.018  1.00 20.00     0.000 C 
HETATM   11  C8  UNL     1     -33.262  15.138  -4.038  1.00 20.00     0.005 C 
ENDBRANCH   7  10
ENDBRANCH   2   4
TORSDOF 2
ENDMDL
