MODEL 1
REMARK VINA RESULT:      -4.3      0.000      0.000
REMARK  3 active torsions:
REMARK  status: ('A' for Active; 'I' for Inactive)
REMARK    1  A    between atoms: C4_4  and  N11_11 
REMARK    2  A    between atoms: C8_8  and  C9_9 
REMARK    3  A    between atoms: C8_8  and  N11_11 
ROOT
HETATM    1  C1  UNL     1     -33.899  15.176  -3.275  1.00 20.00     0.067 C 
HETATM    2  C2  UNL     1     -34.048  13.721  -3.703  1.00 20.00     0.274 C 
HETATM    3  C3  UNL     1     -36.195  14.591  -3.784  1.00 20.00     0.307 C 
HETATM    4  C4  UNL     1     -35.310  15.755  -3.347  1.00 20.00     0.250 C 
HETATM    5  C7  UNL     1     -35.102  14.005  -5.869  1.00 20.00     0.310 C 
HETATM    6  N10 UNL     1     -35.302  13.643  -4.466  1.00 20.00     0.086 N 
ENDROOT
BRANCH   4   7
HETATM    7  N11 UNL     1     -35.745  16.324  -2.101  1.00 20.00     0.090 N 
HETATM    8  H31 UNL     1     -36.074  17.276  -2.262  1.00 20.00     0.316 HD
BRANCH   7   9
HETATM    9  C8  UNL     1     -34.657  16.353  -1.133  1.00 20.00     0.274 C 
BRANCH   9  10
HETATM   10  C9  UNL     1     -34.600  17.687  -0.379  1.00 20.00     0.005 C 
HETATM   11  C5  UNL     1     -35.143  17.574   1.046  1.00 20.00     0.011 C 
HETATM   12  C6  UNL     1     -33.191  18.284  -0.372  1.00 20.00     0.011 C 
ENDBRANCH   9  10
ENDBRANCH   7   9
ENDBRANCH   4   7
TORSDOF 3
ENDMDL
MODEL 2
REMARK VINA RESULT:      -4.2      0.522      1.192
REMARK  3 active torsions:
REMARK  status: ('A' for Active; 'I' for Inactive)
REMARK    1  A    between atoms: C4_4  and  N11_11 
REMARK    2  A    between atoms: C8_8  and  C9_9 
REMARK    3  A    between atoms: C8_8  and  N11_11 
ROOT
HETATM    1  C1  UNL     1     -33.828  14.991  -3.451  1.00 20.00     0.067 C 
HETATM    2  C2  UNL     1     -33.910  13.614  -4.099  1.00 20.00     0.274 C 
HETATM    3  C3  UNL     1     -36.094  14.388  -4.061  1.00 20.00     0.307 C 
HETATM    4  C4  UNL     1     -35.264  15.510  -3.445  1.00 20.00     0.250 C 
HETATM    5  C7  UNL     1     -34.974  14.179  -6.203  1.00 20.00     0.310 C 
HETATM    6  N10 UNL     1     -35.158  13.597  -4.874  1.00 20.00     0.086 N 
ENDROOT
BRANCH   4   7
HETATM    7  N11 UNL     1     -35.725  15.860  -2.129  1.00 20.00     0.090 N 
HETATM    8  H31 UNL     1     -36.745  15.837  -2.112  1.00 20.00     0.316 HD
BRANCH   7   9
HETATM    9  C8  UNL     1     -35.271  17.192  -1.755  1.00 20.00     0.274 C 
BRANCH   9  10
HETATM   10  C9  UNL     1     -34.403  17.164  -0.491  1.00 20.00     0.005 C 
HETATM   11  C5  UNL     1     -33.193  18.095  -0.595  1.00 20.00     0.011 C 
HETATM   12  C6  UNL     1     -35.212  17.472   0.770  1.00 20.00     0.011 C 
ENDBRANCH   9  10
ENDBRANCH   7   9
ENDBRANCH   4   7
TORSDOF 3
ENDMDL
MODEL 3
REMARK VINA RESULT:      -4.0      1.465      4.951
REMARK  3 active torsions:
REMARK  status: ('A' for Active; 'I' for Inactive)
REMARK    1  A    between atoms: C4_4  and  N11_11 
REMARK    2  A    between atoms: C8_8  and  C9_9 
REMARK    3  A    between atoms: C8_8  and  N11_11 
ROOT
HETATM    1  C1  UNL     1     -33.712  17.054  -3.859  1.00 20.00     0.067 C 
HETATM    2  C2  UNL     1     -35.025  17.411  -3.172  1.00 20.00     0.274 C 
HETATM    3  C3  UNL     1     -34.729  15.149  -2.759  1.00 20.00     0.307 C 
HETATM    4  C4  UNL     1     -33.507  15.568  -3.570  1.00 20.00     0.250 C 
HETATM    5  C7  UNL     1     -34.542  16.702  -0.904  1.00 20.00     0.310 C 
HETATM    6  N10 UNL     1     -35.246  16.382  -2.146  1.00 20.00     0.086 N 
ENDROOT
BRANCH   4   7
HETATM    7  N11 UNL     1     -33.358  14.783  -4.764  1.00 20.00     0.090 N 
HETATM    8  H31 UNL     1     -33.226  15.404  -5.562  1.00 20.00     0.316 HD
BRANCH   7   9
HETATM    9  C8  UNL     1     -34.533  13.954  -4.994  1.00 20.00     0.274 C 
BRANCH   9  10
HETATM   10  C9  UNL     1     -35.261  14.343  -6.287  1.00 20.00     0.005 C 
HETATM   11  C5  UNL     1     -36.543  15.133  -6.018  1.00 20.00     0.011 C 
HETATM   12  C6  UNL     1     -34.351  15.107  -7.251  1.00 20.00     0.011 C 
ENDBRANCH   9  10
ENDBRANCH   7   9
ENDBRANCH   4   7
TORSDOF 3
ENDMDL
MODEL 4
REMARK VINA RESULT:      -4.0      0.935      1.385
REMARK  3 active torsions:
REMARK  status: ('A' for Active; 'I' for Inactive)
REMARK    1  A    between atoms: C4_4  and  N11_11 
REMARK    2  A    between atoms: C8_8  and  C9_9 
REMARK    3  A    between atoms: C8_8  and  N11_11 
ROOT
HETATM    1  C1  UNL     1     -35.986  16.031  -4.498  1.00 20.00     0.067 C 
HETATM    2  C2  UNL     1     -34.735  15.721  -5.313  1.00 20.00     0.274 C 
HETATM    3  C3  UNL     1     -34.384  14.693  -3.266  1.00 20.00     0.307 C 
HETATM    4  C4  UNL     1     -35.763  15.336  -3.156  1.00 20.00     0.250 C 
HETATM    5  C7  UNL     1     -34.737  13.299  -5.220  1.00 20.00     0.310 C 
HETATM    6  N10 UNL     1     -34.133  14.527  -4.705  1.00 20.00     0.086 N 
ENDROOT
BRANCH   4   7
HETATM    7  N11 UNL     1     -35.849  16.238  -2.040  1.00 20.00     0.090 N 
HETATM    8  H31 UNL     1     -36.204  17.138  -2.361  1.00 20.00     0.316 HD
BRANCH   7   9
HETATM    9  C8  UNL     1     -34.544  16.431  -1.423  1.00 20.00     0.274 C 
BRANCH   9  10
HETATM   10  C9  UNL     1     -34.512  17.683  -0.538  1.00 20.00     0.005 C 
HETATM   11  C5  UNL     1     -35.139  17.440   0.836  1.00 20.00     0.011 C 
HETATM   12  C6  UNL     1     -33.098  18.248  -0.391  1.00 20.00     0.011 C 
ENDBRANCH   9  10
ENDBRANCH   7   9
ENDBRANCH   4   7
TORSDOF 3
ENDMDL
MODEL 5
REMARK VINA RESULT:      -3.9      1.556      2.501
REMARK  3 active torsions:
REMARK  status: ('A' for Active; 'I' for Inactive)
REMARK    1  A    between atoms: C4_4  and  N11_11 
REMARK    2  A    between atoms: C8_8  and  C9_9 
REMARK    3  A    between atoms: C8_8  and  N11_11 
ROOT
HETATM    1  C1  UNL     1     -36.149  16.484  -5.216  1.00 20.00     0.067 C 
HETATM    2  C2  UNL     1     -34.856  16.228  -5.982  1.00 20.00     0.274 C 
HETATM    3  C3  UNL     1     -35.369  14.203  -4.979  1.00 20.00     0.307 C 
HETATM    4  C4  UNL     1     -36.497  15.144  -4.572  1.00 20.00     0.250 C 
HETATM    5  C7  UNL     1     -35.539  14.378  -7.393  1.00 20.00     0.310 C 
HETATM    6  N10 UNL     1     -34.789  14.777  -6.202  1.00 20.00     0.086 N 
ENDROOT
BRANCH   4   7
HETATM    7  N11 UNL     1     -36.637  15.231  -3.144  1.00 20.00     0.090 N 
HETATM    8  H31 UNL     1     -37.628  15.240  -2.903  1.00 20.00     0.316 HD
BRANCH   7   9
HETATM    9  C8  UNL     1     -36.011  16.442  -2.631  1.00 20.00     0.274 C 
BRANCH   9  10
HETATM   10  C9  UNL     1     -34.761  16.128  -1.798  1.00 20.00     0.005 C 
HETATM   11  C5  UNL     1     -33.468  16.357  -2.581  1.00 20.00     0.011 C 
HETATM   12  C6  UNL     1     -34.738  16.906  -0.481  1.00 20.00     0.011 C 
ENDBRANCH   9  10
ENDBRANCH   7   9
ENDBRANCH   4   7
TORSDOF 3
ENDMDL
MODEL 6
REMARK VINA RESULT:      -3.9      1.676      2.580
REMARK  3 active torsions:
REMARK  status: ('A' for Active; 'I' for Inactive)
REMARK    1  A    between atoms: C4_4  and  N11_11 
REMARK    2  A    between atoms: C8_8  and  C9_9 
REMARK    3  A    between atoms: C8_8  and  N11_11 
ROOT
HETATM    1  C1  UNL     1     -35.548  13.914  -4.538  1.00 20.00     0.067 C 
HETATM    2  C2  UNL     1     -36.306  14.880  -5.441  1.00 20.00     0.274 C 
HETATM    3  C3  UNL     1     -34.116  15.640  -5.456  1.00 20.00     0.307 C 
HETATM    4  C4  UNL     1     -34.101  14.403  -4.563  1.00 20.00     0.250 C 
HETATM    5  C7  UNL     1     -35.021  14.669  -7.487  1.00 20.00     0.310 C 
HETATM    6  N10 UNL     1     -35.301  15.500  -6.316  1.00 20.00     0.086 N 
ENDROOT
BRANCH   4   7
HETATM    7  N11 UNL     1     -33.586  14.691  -3.253  1.00 20.00     0.090 N 
HETATM    8  H31 UNL     1     -34.070  14.112  -2.566  1.00 20.00     0.316 HD
BRANCH   7   9
HETATM    9  C8  UNL     1     -33.779  16.094  -2.913  1.00 20.00     0.274 C 
BRANCH   9  10
HETATM   10  C9  UNL     1     -34.941  16.289  -1.932  1.00 20.00     0.005 C 
HETATM   11  C5  UNL     1     -34.481  16.865  -0.592  1.00 20.00     0.011 C 
HETATM   12  C6  UNL     1     -36.061  17.144  -2.528  1.00 20.00     0.011 C 
ENDBRANCH   9  10
ENDBRANCH   7   9
ENDBRANCH   4   7
TORSDOF 3
ENDMDL
MODEL 7
REMARK VINA RESULT:      -3.8      2.440      3.928
REMARK  3 active torsions:
REMARK  status: ('A' for Active; 'I' for Inactive)
REMARK    1  A    between atoms: C4_4  and  N11_11 
REMARK    2  A    between atoms: C8_8  and  C9_9 
REMARK    3  A    between atoms: C8_8  and  N11_11 
ROOT
HETATM    1  C1  UNL     1     -34.944  14.847  -7.110  1.00 20.00     0.067 C 
HETATM    2  C2  UNL     1     -36.432  15.054  -6.847  1.00 20.00     0.274 C 
HETATM    3  C3  UNL     1     -35.397  16.920  -5.940  1.00 20.00     0.307 C 
HETATM    4  C4  UNL     1     -34.265  16.085  -6.530  1.00 20.00     0.250 C 
HETATM    5  C7  UNL     1     -36.773  17.203  -7.918  1.00 20.00     0.310 C 
HETATM    6  N10 UNL     1     -36.616  16.498  -6.645  1.00 20.00     0.086 N 
ENDROOT
BRANCH   4   7
HETATM    7  N11 UNL     1     -33.264  15.765  -5.550  1.00 20.00     0.090 N 
HETATM    8  H31 UNL     1     -33.279  14.762  -5.369  1.00 20.00     0.316 HD
BRANCH   7   9
HETATM    9  C8  UNL     1     -33.507  16.479  -4.304  1.00 20.00     0.274 C 
BRANCH   9  10
HETATM   10  C9  UNL     1     -33.604  15.521  -3.109  1.00 20.00     0.005 C 
HETATM   11  C5  UNL     1     -34.453  16.093  -1.973  1.00 20.00     0.011 C 
HETATM   12  C6  UNL     1     -34.115  14.139  -3.520  1.00 20.00     0.011 C 
ENDBRANCH   9  10
ENDBRANCH   7   9
ENDBRANCH   4   7
TORSDOF 3
ENDMDL
MODEL 8
REMARK VINA RESULT:      -3.8     12.212     14.372
REMARK  3 active torsions:
REMARK  status: ('A' for Active; 'I' for Inactive)
REMARK    1  A    between atoms: C4_4  and  N11_11 
REMARK    2  A    between atoms: C8_8  and  C9_9 
REMARK    3  A    between atoms: C8_8  and  N11_11 
ROOT
HETATM    1  C1  UNL     1     -41.735   4.967   0.190  1.00 20.00     0.067 C 
HETATM    2  C2  UNL     1     -40.706   5.999  -0.259  1.00 20.00     0.274 C 
HETATM    3  C3  UNL     1     -41.985   5.571  -2.144  1.00 20.00     0.307 C 
HETATM    4  C4  UNL     1     -42.590   4.700  -1.047  1.00 20.00     0.250 C 
HETATM    5  C7  UNL     1     -42.169   7.747  -1.087  1.00 20.00     0.310 C 
HETATM    6  N10 UNL     1     -41.270   6.651  -1.449  1.00 20.00     0.086 N 
ENDROOT
BRANCH   4   7
HETATM    7  N11 UNL     1     -42.618   3.311  -1.416  1.00 20.00     0.090 N 
HETATM    8  H31 UNL     1     -42.210   2.755  -0.665  1.00 20.00     0.316 HD
BRANCH   7   9
HETATM    9  C8  UNL     1     -41.866   3.082  -2.643  1.00 20.00     0.274 C 
BRANCH   9  10
HETATM   10  C9  UNL     1     -42.439   1.911  -3.452  1.00 20.00     0.005 C 
HETATM   11  C5  UNL     1     -43.415   2.375  -4.534  1.00 20.00     0.011 C 
HETATM   12  C6  UNL     1     -41.338   1.038  -4.058  1.00 20.00     0.011 C 
ENDBRANCH   9  10
ENDBRANCH   7   9
ENDBRANCH   4   7
TORSDOF 3
ENDMDL
MODEL 9
REMARK VINA RESULT:      -3.8      1.770      4.997
REMARK  3 active torsions:
REMARK  status: ('A' for Active; 'I' for Inactive)
REMARK    1  A    between atoms: C4_4  and  N11_11 
REMARK    2  A    between atoms: C8_8  and  C9_9 
REMARK    3  A    between atoms: C8_8  and  N11_11 
ROOT
HETATM    1  C1  UNL     1     -34.639  16.250  -1.780  1.00 20.00     0.067 C 
HETATM    2  C2  UNL     1     -34.215  17.141  -0.618  1.00 20.00     0.274 C 
HETATM    3  C3  UNL     1     -33.747  18.377  -2.522  1.00 20.00     0.307 C 
HETATM    4  C4  UNL     1     -34.349  17.071  -3.033  1.00 20.00     0.250 C 
HETATM    5  C7  UNL     1     -35.546  19.117  -1.072  1.00 20.00     0.310 C 
HETATM    6  N10 UNL     1     -34.213  18.517  -1.135  1.00 20.00     0.086 N 
ENDROOT
BRANCH   4   7
HETATM    7  N11 UNL     1     -33.472  16.398  -3.952  1.00 20.00     0.090 N 
HETATM    8  H31 UNL     1     -33.819  16.526  -4.903  1.00 20.00     0.316 HD
BRANCH   7   9
HETATM    9  C8  UNL     1     -33.402  14.973  -3.657  1.00 20.00     0.274 C 
BRANCH   9  10
HETATM   10  C9  UNL     1     -34.090  14.133  -4.740  1.00 20.00     0.005 C 
HETATM   11  C5  UNL     1     -35.368  13.462  -4.232  1.00 20.00     0.011 C 
HETATM   12  C6  UNL     1     -34.376  14.946  -6.005  1.00 20.00     0.011 C 
ENDBRANCH   9  10
ENDBRANCH   7   9
ENDBRANCH   4   7
TORSDOF 3
ENDMDL
