MODEL 1
REMARK VINA RESULT:      -3.8      0.000      0.000
REMARK  1 active torsions:
REMARK  status: ('A' for Active; 'I' for Inactive)
REMARK    1  A    between atoms: C5_5  and  N7_7 
ROOT
HETATM    1  C1  UNL     1     -32.255   7.442   2.625  1.00 20.00     0.158 C 
HETATM    2  N7  UNL     1     -32.495   6.605   3.415  1.00 20.00    -0.268 NA
HETATM    3  S9  UNL     1     -31.903   8.567   1.555  1.00 20.00    -0.055 SA
ENDROOT
BRANCH   2   4
HETATM    4  C5  UNL     1     -33.879   6.583   3.889  1.00 20.00     0.139 C 
HETATM    5  C2  UNL     1     -34.666   5.495   3.162  1.00 20.00     0.059 C 
HETATM    6  C3  UNL     1     -34.955   4.451   4.230  1.00 20.00     0.274 C 
HETATM    7  N8  UNL     1     -35.045   5.265   5.442  1.00 20.00     0.086 N 
HETATM    8  C4  UNL     1     -33.914   6.192   5.364  1.00 20.00     0.299 C 
HETATM    9  C6  UNL     1     -35.021   4.459   6.655  1.00 20.00     0.310 C 
ENDBRANCH   2   4
TORSDOF 1
ENDMDL
MODEL 2
REMARK VINA RESULT:      -3.7     11.334     12.332
REMARK  1 active torsions:
REMARK  status: ('A' for Active; 'I' for Inactive)
REMARK    1  A    between atoms: C5_5  and  N7_7 
ROOT
HETATM    1  C1  UNL     1     -35.015  13.592  -5.629  1.00 20.00     0.158 C 
HETATM    2  N7  UNL     1     -34.832  12.939  -4.669  1.00 20.00    -0.268 NA
HETATM    3  S9  UNL     1     -35.270  14.454  -6.943  1.00 20.00    -0.055 SA
ENDROOT
BRANCH   2   4
HETATM    4  C5  UNL     1     -34.392  13.685  -3.489  1.00 20.00     0.139 C 
HETATM    5  C2  UNL     1     -32.969  14.199  -3.694  1.00 20.00     0.059 C 
HETATM    6  C3  UNL     1     -33.118  15.709  -3.807  1.00 20.00     0.274 C 
HETATM    7  N8  UNL     1     -34.282  15.969  -2.959  1.00 20.00     0.086 N 
HETATM    8  C4  UNL     1     -35.253  14.933  -3.316  1.00 20.00     0.299 C 
HETATM    9  C6  UNL     1     -34.811  17.313  -3.138  1.00 20.00     0.310 C 
ENDBRANCH   2   4
TORSDOF 1
ENDMDL
MODEL 3
REMARK VINA RESULT:      -3.7     11.372     12.534
REMARK  1 active torsions:
REMARK  status: ('A' for Active; 'I' for Inactive)
REMARK    1  A    between atoms: C5_5  and  N7_7 
ROOT
HETATM    1  C1  UNL     1     -34.628  16.361  -1.765  1.00 20.00     0.158 C 
HETATM    2  N7  UNL     1     -35.054  15.561  -2.514  1.00 20.00    -0.268 NA
HETATM    3  S9  UNL     1     -34.076  17.443  -0.736  1.00 20.00    -0.055 SA
ENDROOT
BRANCH   2   4
HETATM    4  C5  UNL     1     -34.157  15.209  -3.616  1.00 20.00     0.139 C 
HETATM    5  C2  UNL     1     -33.964  13.696  -3.673  1.00 20.00     0.059 C 
HETATM    6  C3  UNL     1     -34.668  13.267  -4.952  1.00 20.00     0.274 C 
HETATM    7  N8  UNL     1     -34.498  14.441  -5.808  1.00 20.00     0.086 N 
HETATM    8  C4  UNL     1     -34.801  15.587  -4.947  1.00 20.00     0.299 C 
HETATM    9  C6  UNL     1     -35.345  14.394  -6.991  1.00 20.00     0.310 C 
ENDBRANCH   2   4
TORSDOF 1
ENDMDL
MODEL 4
REMARK VINA RESULT:      -3.5     11.820     13.196
REMARK  1 active torsions:
REMARK  status: ('A' for Active; 'I' for Inactive)
REMARK    1  A    between atoms: C5_5  and  N7_7 
ROOT
HETATM    1  C1  UNL     1     -38.389  15.018  -3.774  1.00 20.00     0.158 C 
HETATM    2  N7  UNL     1     -37.542  14.203  -3.788  1.00 20.00    -0.268 NA
HETATM    3  S9  UNL     1     -39.556  16.101  -3.751  1.00 20.00    -0.055 SA
ENDROOT
BRANCH   2   4
HETATM    4  C5  UNL     1     -36.190  14.722  -4.000  1.00 20.00     0.139 C 
HETATM    5  C2  UNL     1     -35.177  13.581  -3.958  1.00 20.00     0.059 C 
HETATM    6  C3  UNL     1     -34.670  13.465  -5.388  1.00 20.00     0.274 C 
HETATM    7  N8  UNL     1     -34.770  14.844  -5.864  1.00 20.00     0.086 N 
HETATM    8  C4  UNL     1     -36.077  15.313  -5.402  1.00 20.00     0.299 C 
HETATM    9  C6  UNL     1     -34.621  14.946  -7.309  1.00 20.00     0.310 C 
ENDBRANCH   2   4
TORSDOF 1
ENDMDL
MODEL 5
REMARK VINA RESULT:      -3.4     11.590     12.905
REMARK  1 active torsions:
REMARK  status: ('A' for Active; 'I' for Inactive)
REMARK    1  A    between atoms: C5_5  and  N7_7 
ROOT
HETATM    1  C1  UNL     1     -34.549  16.576  -1.288  1.00 20.00     0.158 C 
HETATM    2  N7  UNL     1     -34.819  15.740  -2.070  1.00 20.00    -0.268 NA
HETATM    3  S9  UNL     1     -34.208  17.702  -0.217  1.00 20.00    -0.055 SA
ENDROOT
BRANCH   2   4
HETATM    4  C5  UNL     1     -33.804  15.506  -3.097  1.00 20.00     0.139 C 
HETATM    5  C2  UNL     1     -34.006  14.130  -3.730  1.00 20.00     0.059 C 
HETATM    6  C3  UNL     1     -34.462  14.424  -5.151  1.00 20.00     0.274 C 
HETATM    7  N8  UNL     1     -33.787  15.690  -5.437  1.00 20.00     0.086 N 
HETATM    8  C4  UNL     1     -33.981  16.505  -4.237  1.00 20.00     0.299 C 
HETATM    9  C6  UNL     1     -34.301  16.335  -6.637  1.00 20.00     0.310 C 
ENDBRANCH   2   4
TORSDOF 1
ENDMDL
MODEL 6
REMARK VINA RESULT:      -3.3     12.363     12.873
REMARK  1 active torsions:
REMARK  status: ('A' for Active; 'I' for Inactive)
REMARK    1  A    between atoms: C5_5  and  N7_7 
ROOT
HETATM    1  C1  UNL     1     -33.489  17.089  -5.164  1.00 20.00     0.158 C 
HETATM    2  N7  UNL     1     -32.794  16.250  -4.721  1.00 20.00    -0.268 NA
HETATM    3  S9  UNL     1     -34.407  18.236  -5.777  1.00 20.00    -0.055 SA
ENDROOT
BRANCH   2   4
HETATM    4  C5  UNL     1     -33.469  15.285  -3.853  1.00 20.00     0.139 C 
HETATM    5  C2  UNL     1     -33.985  15.981  -2.595  1.00 20.00     0.059 C 
HETATM    6  C3  UNL     1     -35.499  15.954  -2.735  1.00 20.00     0.274 C 
HETATM    7  N8  UNL     1     -35.719  14.720  -3.490  1.00 20.00     0.086 N 
HETATM    8  C4  UNL     1     -34.712  14.740  -4.553  1.00 20.00     0.299 C 
HETATM    9  C6  UNL     1     -37.075  14.621  -4.010  1.00 20.00     0.310 C 
ENDBRANCH   2   4
TORSDOF 1
ENDMDL
MODEL 7
REMARK VINA RESULT:      -3.3     11.621     12.741
REMARK  1 active torsions:
REMARK  status: ('A' for Active; 'I' for Inactive)
REMARK    1  A    between atoms: C5_5  and  N7_7 
ROOT
HETATM    1  C1  UNL     1     -34.833  16.356  -2.878  1.00 20.00     0.158 C 
HETATM    2  N7  UNL     1     -33.732  15.948  -2.820  1.00 20.00    -0.268 NA
HETATM    3  S9  UNL     1     -36.321  16.921  -2.931  1.00 20.00    -0.055 SA
ENDROOT
BRANCH   2   4
HETATM    4  C5  UNL     1     -33.304  15.163  -3.978  1.00 20.00     0.139 C 
HETATM    5  C2  UNL     1     -33.653  13.691  -3.772  1.00 20.00     0.059 C 
HETATM    6  C3  UNL     1     -34.750  13.410  -4.788  1.00 20.00     0.274 C 
HETATM    7  N8  UNL     1     -34.407  14.329  -5.874  1.00 20.00     0.086 N 
HETATM    8  C4  UNL     1     -34.087  15.596  -5.215  1.00 20.00     0.299 C 
HETATM    9  C6  UNL     1     -35.482  14.464  -6.847  1.00 20.00     0.310 C 
ENDBRANCH   2   4
TORSDOF 1
ENDMDL
MODEL 8
REMARK VINA RESULT:      -3.3     11.931     13.377
REMARK  1 active torsions:
REMARK  status: ('A' for Active; 'I' for Inactive)
REMARK    1  A    between atoms: C5_5  and  N7_7 
ROOT
HETATM    1  C1  UNL     1     -36.281  14.178  -4.097  1.00 20.00     0.158 C 
HETATM    2  N7  UNL     1     -35.386  13.448  -4.316  1.00 20.00    -0.268 NA
HETATM    3  S9  UNL     1     -37.507  15.145  -3.786  1.00 20.00    -0.055 SA
ENDROOT
BRANCH   2   4
HETATM    4  C5  UNL     1     -34.273  14.043  -5.057  1.00 20.00     0.139 C 
HETATM    5  C2  UNL     1     -34.747  14.505  -6.433  1.00 20.00     0.059 C 
HETATM    6  C3  UNL     1     -34.683  16.024  -6.372  1.00 20.00     0.274 C 
HETATM    7  N8  UNL     1     -33.573  16.250  -5.446  1.00 20.00     0.086 N 
HETATM    8  C4  UNL     1     -33.795  15.307  -4.348  1.00 20.00     0.299 C 
HETATM    9  C6  UNL     1     -33.503  17.630  -4.988  1.00 20.00     0.310 C 
ENDBRANCH   2   4
TORSDOF 1
ENDMDL
MODEL 9
REMARK VINA RESULT:      -3.3     11.885     12.629
REMARK  1 active torsions:
REMARK  status: ('A' for Active; 'I' for Inactive)
REMARK    1  A    between atoms: C5_5  and  N7_7 
ROOT
HETATM    1  C1  UNL     1     -33.734  17.616  -4.307  1.00 20.00     0.158 C 
HETATM    2  N7  UNL     1     -33.603  17.505  -3.144  1.00 20.00    -0.268 NA
HETATM    3  S9  UNL     1     -33.904  17.794  -5.880  1.00 20.00    -0.055 SA
ENDROOT
BRANCH   2   4
HETATM    4  C5  UNL     1     -33.845  16.159  -2.622  1.00 20.00     0.139 C 
HETATM    5  C2  UNL     1     -35.343  15.929  -2.436  1.00 20.00     0.059 C 
HETATM    6  C3  UNL     1     -35.708  14.896  -3.492  1.00 20.00     0.274 C 
HETATM    7  N8  UNL     1     -34.472  14.122  -3.607  1.00 20.00     0.086 N 
HETATM    8  C4  UNL     1     -33.400  15.119  -3.648  1.00 20.00     0.299 C 
HETATM    9  C6  UNL     1     -34.467  13.253  -4.774  1.00 20.00     0.310 C 
ENDBRANCH   2   4
TORSDOF 1
ENDMDL
