MODEL 1
REMARK VINA RESULT:      -4.8      0.000      0.000
REMARK  2 active torsions:
REMARK  status: ('A' for Active; 'I' for Inactive)
REMARK    1  A    between atoms: C6_6  and  C7_7 
REMARK    2  A    between atoms: C7_7  and  N8_8 
ROOT
HETATM    1  C1  UNL     1     -32.100   8.329   2.089  1.00 20.00     0.157 C 
HETATM    2  N8  UNL     1     -31.977   7.604   3.008  1.00 20.00    -0.273 NA
HETATM    3  S10 UNL     1     -32.252   9.326   0.856  1.00 20.00    -0.055 SA
ENDROOT
BRANCH   2   4
HETATM    4  C7  UNL     1     -32.625   6.305   2.863  1.00 20.00     0.182 C 
BRANCH   4   5
HETATM    5  C6  UNL     1     -33.751   6.202   3.883  1.00 20.00     0.141 C 
HETATM    6  C4  UNL     1     -33.222   6.387   5.307  1.00 20.00     0.034 C 
HETATM    7  C2  UNL     1     -34.335   6.170   6.328  1.00 20.00     0.005 C 
HETATM    8  C3  UNL     1     -35.045   4.845   6.071  1.00 20.00     0.026 C 
HETATM    9  C5  UNL     1     -35.471   4.735   4.613  1.00 20.00     0.168 C 
HETATM   10  O9  UNL     1     -34.351   4.909   3.744  1.00 20.00    -0.384 OA
ENDBRANCH   4   5
ENDBRANCH   2   4
TORSDOF 2
ENDMDL
MODEL 2
REMARK VINA RESULT:      -4.6      0.997      1.635
REMARK  2 active torsions:
REMARK  status: ('A' for Active; 'I' for Inactive)
REMARK    1  A    between atoms: C6_6  and  C7_7 
REMARK    2  A    between atoms: C7_7  and  N8_8 
ROOT
HETATM    1  C1  UNL     1     -32.195   8.165   2.192  1.00 20.00     0.157 C 
HETATM    2  N8  UNL     1     -32.183   7.249   2.931  1.00 20.00    -0.273 NA
HETATM    3  S10 UNL     1     -32.190   9.411   1.201  1.00 20.00    -0.055 SA
ENDROOT
BRANCH   2   4
HETATM    4  C7  UNL     1     -33.343   6.367   2.842  1.00 20.00     0.182 C 
BRANCH   4   5
HETATM    5  C6  UNL     1     -33.551   5.693   4.191  1.00 20.00     0.141 C 
HETATM    6  C4  UNL     1     -34.698   4.681   4.131  1.00 20.00     0.034 C 
HETATM    7  C2  UNL     1     -34.973   4.096   5.513  1.00 20.00     0.005 C 
HETATM    8  C3  UNL     1     -35.148   5.208   6.541  1.00 20.00     0.026 C 
HETATM    9  C5  UNL     1     -33.988   6.192   6.472  1.00 20.00     0.168 C 
HETATM   10  O9  UNL     1     -33.844   6.715   5.151  1.00 20.00    -0.384 OA
ENDBRANCH   4   5
ENDBRANCH   2   4
TORSDOF 2
ENDMDL
MODEL 3
REMARK VINA RESULT:      -3.9     11.575     12.324
REMARK  2 active torsions:
REMARK  status: ('A' for Active; 'I' for Inactive)
REMARK    1  A    between atoms: C6_6  and  C7_7 
REMARK    2  A    between atoms: C7_7  and  N8_8 
ROOT
HETATM    1  C1  UNL     1     -39.156  14.729  -4.124  1.00 20.00     0.157 C 
HETATM    2  N8  UNL     1     -38.090  14.348  -3.801  1.00 20.00    -0.273 NA
HETATM    3  S10 UNL     1     -40.604  15.222  -4.565  1.00 20.00    -0.055 SA
ENDROOT
BRANCH   2   4
HETATM    4  C7  UNL     1     -37.168  15.389  -3.356  1.00 20.00     0.182 C 
BRANCH   4   5
HETATM    5  C6  UNL     1     -35.787  15.095  -3.924  1.00 20.00     0.141 C 
HETATM    6  C4  UNL     1     -35.620  13.603  -4.223  1.00 20.00     0.034 C 
HETATM    7  C2  UNL     1     -34.196  13.302  -4.683  1.00 20.00     0.005 C 
HETATM    8  C3  UNL     1     -33.183  13.880  -3.702  1.00 20.00     0.026 C 
HETATM    9  C5  UNL     1     -33.478  15.348  -3.424  1.00 20.00     0.168 C 
HETATM   10  O9  UNL     1     -34.818  15.516  -2.958  1.00 20.00    -0.384 OA
ENDBRANCH   4   5
ENDBRANCH   2   4
TORSDOF 2
ENDMDL
MODEL 4
REMARK VINA RESULT:      -3.9     11.461     12.475
REMARK  2 active torsions:
REMARK  status: ('A' for Active; 'I' for Inactive)
REMARK    1  A    between atoms: C6_6  and  C7_7 
REMARK    2  A    between atoms: C7_7  and  N8_8 
ROOT
HETATM    1  C1  UNL     1     -34.729  16.630  -0.973  1.00 20.00     0.157 C 
HETATM    2  N8  UNL     1     -34.630  15.963  -1.938  1.00 20.00    -0.273 NA
HETATM    3  S10 UNL     1     -34.881  17.516   0.341  1.00 20.00    -0.055 SA
ENDROOT
BRANCH   2   4
HETATM    4  C7  UNL     1     -33.619  16.405  -2.893  1.00 20.00     0.182 C 
BRANCH   4   5
HETATM    5  C6  UNL     1     -33.652  15.482  -4.104  1.00 20.00     0.141 C 
HETATM    6  C4  UNL     1     -34.098  16.236  -5.359  1.00 20.00     0.034 C 
HETATM    7  C2  UNL     1     -34.238  15.280  -6.540  1.00 20.00     0.005 C 
HETATM    8  C3  UNL     1     -35.108  14.086  -6.162  1.00 20.00     0.026 C 
HETATM    9  C5  UNL     1     -34.617  13.451  -4.868  1.00 20.00     0.168 C 
HETATM   10  O9  UNL     1     -34.565  14.417  -3.817  1.00 20.00    -0.384 OA
ENDBRANCH   4   5
ENDBRANCH   2   4
TORSDOF 2
ENDMDL
MODEL 5
REMARK VINA RESULT:      -3.9     11.246     11.849
REMARK  2 active torsions:
REMARK  status: ('A' for Active; 'I' for Inactive)
REMARK    1  A    between atoms: C6_6  and  C7_7 
REMARK    2  A    between atoms: C7_7  and  N8_8 
ROOT
HETATM    1  C1  UNL     1     -34.308  17.402  -0.440  1.00 20.00     0.157 C 
HETATM    2  N8  UNL     1     -33.680  17.262  -1.426  1.00 20.00    -0.273 NA
HETATM    3  S10 UNL     1     -35.135  17.593   0.907  1.00 20.00    -0.055 SA
ENDROOT
BRANCH   2   4
HETATM    4  C7  UNL     1     -34.469  17.072  -2.639  1.00 20.00     0.182 C 
BRANCH   4   5
HETATM    5  C6  UNL     1     -34.589  15.580  -2.918  1.00 20.00     0.141 C 
HETATM    6  C4  UNL     1     -33.282  15.019  -3.485  1.00 20.00     0.034 C 
HETATM    7  C2  UNL     1     -33.448  13.552  -3.867  1.00 20.00     0.005 C 
HETATM    8  C3  UNL     1     -34.669  13.365  -4.759  1.00 20.00     0.026 C 
HETATM    9  C5  UNL     1     -35.897  14.015  -4.135  1.00 20.00     0.168 C 
HETATM   10  O9  UNL     1     -35.654  15.394  -3.857  1.00 20.00    -0.384 OA
ENDBRANCH   4   5
ENDBRANCH   2   4
TORSDOF 2
ENDMDL
MODEL 6
REMARK VINA RESULT:      -3.8     10.146     10.751
REMARK  2 active torsions:
REMARK  status: ('A' for Active; 'I' for Inactive)
REMARK    1  A    between atoms: C6_6  and  C7_7 
REMARK    2  A    between atoms: C7_7  and  N8_8 
ROOT
HETATM    1  C1  UNL     1     -42.340   8.582  -4.676  1.00 20.00     0.157 C 
HETATM    2  N8  UNL     1     -42.636   7.664  -4.001  1.00 20.00    -0.273 NA
HETATM    3  S10 UNL     1     -41.937   9.809  -5.607  1.00 20.00    -0.055 SA
ENDROOT
BRANCH   2   4
HETATM    4  C7  UNL     1     -42.925   7.987  -2.608  1.00 20.00     0.182 C 
BRANCH   4   5
HETATM    5  C6  UNL     1     -42.521   6.806  -1.737  1.00 20.00     0.141 C 
HETATM    6  C4  UNL     1     -41.259   7.122  -0.930  1.00 20.00     0.034 C 
HETATM    7  C2  UNL     1     -40.798   5.895  -0.149  1.00 20.00     0.005 C 
HETATM    8  C3  UNL     1     -40.689   4.684  -1.068  1.00 20.00     0.026 C 
HETATM    9  C5  UNL     1     -41.971   4.499  -1.870  1.00 20.00     0.168 C 
HETATM   10  O9  UNL     1     -42.289   5.686  -2.598  1.00 20.00    -0.384 OA
ENDBRANCH   4   5
ENDBRANCH   2   4
TORSDOF 2
ENDMDL
MODEL 7
REMARK VINA RESULT:      -3.8     11.543     12.337
REMARK  2 active torsions:
REMARK  status: ('A' for Active; 'I' for Inactive)
REMARK    1  A    between atoms: C6_6  and  C7_7 
REMARK    2  A    between atoms: C7_7  and  N8_8 
ROOT
HETATM    1  C1  UNL     1     -38.978  15.134  -3.395  1.00 20.00     0.157 C 
HETATM    2  N8  UNL     1     -38.196  14.332  -3.758  1.00 20.00    -0.273 NA
HETATM    3  S10 UNL     1     -40.047  16.202  -2.893  1.00 20.00    -0.055 SA
ENDROOT
BRANCH   2   4
HETATM    4  C7  UNL     1     -37.101  14.856  -4.567  1.00 20.00     0.182 C 
BRANCH   4   5
HETATM    5  C6  UNL     1     -35.802  14.710  -3.787  1.00 20.00     0.141 C 
HETATM    6  C4  UNL     1     -35.218  16.079  -3.427  1.00 20.00     0.034 C 
HETATM    7  C2  UNL     1     -33.862  15.924  -2.746  1.00 20.00     0.005 C 
HETATM    8  C3  UNL     1     -32.945  15.032  -3.575  1.00 20.00     0.026 C 
HETATM    9  C5  UNL     1     -33.645  13.726  -3.933  1.00 20.00     0.168 C 
HETATM   10  O9  UNL     1     -34.880  13.981  -4.604  1.00 20.00    -0.384 OA
ENDBRANCH   4   5
ENDBRANCH   2   4
TORSDOF 2
ENDMDL
MODEL 8
REMARK VINA RESULT:      -3.7     11.255     11.908
REMARK  2 active torsions:
REMARK  status: ('A' for Active; 'I' for Inactive)
REMARK    1  A    between atoms: C6_6  and  C7_7 
REMARK    2  A    between atoms: C7_7  and  N8_8 
ROOT
HETATM    1  C1  UNL     1     -34.806  17.258   0.208  1.00 20.00     0.157 C 
HETATM    2  N8  UNL     1     -34.692  16.569  -0.740  1.00 20.00    -0.273 NA
HETATM    3  S10 UNL     1     -34.946  18.173   1.503  1.00 20.00    -0.055 SA
ENDROOT
BRANCH   2   4
HETATM    4  C7  UNL     1     -35.356  17.059  -1.944  1.00 20.00     0.182 C 
BRANCH   4   5
HETATM    5  C6  UNL     1     -35.029  16.122  -3.099  1.00 20.00     0.141 C 
HETATM    6  C4  UNL     1     -36.155  15.109  -3.321  1.00 20.00     0.034 C 
HETATM    7  C2  UNL     1     -35.770  14.105  -4.404  1.00 20.00     0.005 C 
HETATM    8  C3  UNL     1     -34.405  13.495  -4.107  1.00 20.00     0.026 C 
HETATM    9  C5  UNL     1     -33.375  14.585  -3.836  1.00 20.00     0.168 C 
HETATM   10  O9  UNL     1     -33.810  15.442  -2.780  1.00 20.00    -0.384 OA
ENDBRANCH   4   5
ENDBRANCH   2   4
TORSDOF 2
ENDMDL
MODEL 9
REMARK VINA RESULT:      -3.5     12.018     12.780
REMARK  2 active torsions:
REMARK  status: ('A' for Active; 'I' for Inactive)
REMARK    1  A    between atoms: C6_6  and  C7_7 
REMARK    2  A    between atoms: C7_7  and  N8_8 
ROOT
HETATM    1  C1  UNL     1     -38.321  14.718  -4.048  1.00 20.00     0.157 C 
HETATM    2  N8  UNL     1     -37.304  14.695  -3.454  1.00 20.00    -0.273 NA
HETATM    3  S10 UNL     1     -39.707  14.757  -4.830  1.00 20.00    -0.055 SA
ENDROOT
BRANCH   2   4
HETATM    4  C7  UNL     1     -36.145  14.265  -4.230  1.00 20.00     0.182 C 
BRANCH   4   5
HETATM    5  C6  UNL     1     -34.941  15.100  -3.815  1.00 20.00     0.141 C 
HETATM    6  C4  UNL     1     -35.116  15.653  -2.398  1.00 20.00     0.034 C 
HETATM    7  C2  UNL     1     -33.960  16.579  -2.035  1.00 20.00     0.005 C 
HETATM    8  C3  UNL     1     -33.757  17.633  -3.117  1.00 20.00     0.026 C 
HETATM    9  C5  UNL     1     -33.661  16.983  -4.491  1.00 20.00     0.168 C 
HETATM   10  O9  UNL     1     -34.809  16.175  -4.751  1.00 20.00    -0.384 OA
ENDBRANCH   4   5
ENDBRANCH   2   4
TORSDOF 2
ENDMDL
