MODEL 1
REMARK VINA RESULT:      -4.0      0.000      0.000
REMARK  1 active torsions:
REMARK  status: ('A' for Active; 'I' for Inactive)
REMARK    1  A    between atoms: C3_3  and  O8_8 
ROOT
HETATM    1  C1  UNL     1     -33.634  15.723  -4.040  1.00 20.00     0.040 C 
HETATM    2  C2  UNL     1     -32.592  14.661  -3.739  1.00 20.00     0.172 C 
HETATM    3  C3  UNL     1     -34.698  13.659  -3.716  1.00 20.00     0.264 C 
HETATM    4  C4  UNL     1     -34.793  14.909  -4.601  1.00 20.00     0.004 C 
HETATM    5  C5  UNL     1     -34.567  14.595  -6.091  1.00 20.00     0.020 C 
HETATM    6  C6  UNL     1     -36.136  15.623  -4.442  1.00 20.00     0.020 C 
HETATM    7  O7  UNL     1     -33.296  13.436  -3.491  1.00 20.00    -0.361 OA
ENDROOT
BRANCH   3   8
HETATM    8  O8  UNL     1     -35.327  12.540  -4.317  1.00 20.00    -0.371 OA
HETATM    9  H20 UNL     1     -35.081  11.765  -3.787  1.00 20.00     0.212 HD
ENDBRANCH   3   8
TORSDOF 1
ENDMDL
MODEL 2
REMARK VINA RESULT:      -4.0      1.308      2.549
REMARK  1 active torsions:
REMARK  status: ('A' for Active; 'I' for Inactive)
REMARK    1  A    between atoms: C3_3  and  O8_8 
ROOT
HETATM    1  C1  UNL     1     -33.854  15.683  -5.273  1.00 20.00     0.040 C 
HETATM    2  C2  UNL     1     -35.075  15.454  -6.143  1.00 20.00     0.172 C 
HETATM    3  C3  UNL     1     -34.619  13.486  -4.978  1.00 20.00     0.264 C 
HETATM    4  C4  UNL     1     -34.028  14.648  -4.169  1.00 20.00     0.004 C 
HETATM    5  C5  UNL     1     -34.994  15.164  -3.086  1.00 20.00     0.020 C 
HETATM    6  C6  UNL     1     -32.700  14.271  -3.510  1.00 20.00     0.020 C 
HETATM    7  O7  UNL     1     -35.467  14.085  -5.973  1.00 20.00    -0.361 OA
ENDROOT
BRANCH   3   8
HETATM    8  O8  UNL     1     -35.325  12.576  -4.152  1.00 20.00    -0.371 OA
HETATM    9  H20 UNL     1     -34.694  12.256  -3.489  1.00 20.00     0.212 HD
ENDBRANCH   3   8
TORSDOF 1
ENDMDL
MODEL 3
REMARK VINA RESULT:      -3.9      1.922      3.011
REMARK  1 active torsions:
REMARK  status: ('A' for Active; 'I' for Inactive)
REMARK    1  A    between atoms: C3_3  and  O8_8 
ROOT
HETATM    1  C1  UNL     1     -35.652  14.267  -4.695  1.00 20.00     0.040 C 
HETATM    2  C2  UNL     1     -35.243  14.178  -6.154  1.00 20.00     0.172 C 
HETATM    3  C3  UNL     1     -33.884  15.753  -5.099  1.00 20.00     0.264 C 
HETATM    4  C4  UNL     1     -34.388  14.784  -4.021  1.00 20.00     0.004 C 
HETATM    5  C5  UNL     1     -33.401  13.632  -3.756  1.00 20.00     0.020 C 
HETATM    6  C6  UNL     1     -34.683  15.499  -2.701  1.00 20.00     0.020 C 
HETATM    7  O7  UNL     1     -34.203  15.144  -6.362  1.00 20.00    -0.361 OA
ENDROOT
BRANCH   3   8
HETATM    8  O8  UNL     1     -32.496  16.011  -4.967  1.00 20.00    -0.371 OA
HETATM    9  H20 UNL     1     -32.172  16.248  -5.850  1.00 20.00     0.212 HD
ENDBRANCH   3   8
TORSDOF 1
ENDMDL
MODEL 4
REMARK VINA RESULT:      -3.9      1.130      2.567
REMARK  1 active torsions:
REMARK  status: ('A' for Active; 'I' for Inactive)
REMARK    1  A    between atoms: C3_3  and  O8_8 
ROOT
HETATM    1  C1  UNL     1     -35.663  15.274  -4.597  1.00 20.00     0.040 C 
HETATM    2  C2  UNL     1     -36.230  13.932  -4.170  1.00 20.00     0.172 C 
HETATM    3  C3  UNL     1     -33.935  13.691  -4.510  1.00 20.00     0.264 C 
HETATM    4  C4  UNL     1     -34.200  15.168  -4.187  1.00 20.00     0.004 C 
HETATM    5  C5  UNL     1     -34.030  15.484  -2.689  1.00 20.00     0.020 C 
HETATM    6  C6  UNL     1     -33.300  16.103  -4.997  1.00 20.00     0.020 C 
HETATM    7  O7  UNL     1     -35.148  12.990  -4.190  1.00 20.00    -0.361 OA
ENDROOT
BRANCH   3   8
HETATM    8  O8  UNL     1     -32.822  13.188  -3.791  1.00 20.00    -0.371 OA
HETATM    9  H20 UNL     1     -32.072  13.768  -3.998  1.00 20.00     0.212 HD
ENDBRANCH   3   8
TORSDOF 1
ENDMDL
MODEL 5
REMARK VINA RESULT:      -3.9      1.341      2.817
REMARK  1 active torsions:
REMARK  status: ('A' for Active; 'I' for Inactive)
REMARK    1  A    between atoms: C3_3  and  O8_8 
ROOT
HETATM    1  C1  UNL     1     -36.272  16.147  -4.327  1.00 20.00     0.040 C 
HETATM    2  C2  UNL     1     -37.374  15.379  -3.621  1.00 20.00     0.172 C 
HETATM    3  C3  UNL     1     -35.847  13.847  -4.496  1.00 20.00     0.264 C 
HETATM    4  C4  UNL     1     -35.102  15.173  -4.288  1.00 20.00     0.004 C 
HETATM    5  C5  UNL     1     -34.384  15.238  -2.927  1.00 20.00     0.020 C 
HETATM    6  C6  UNL     1     -34.085  15.440  -5.399  1.00 20.00     0.020 C 
HETATM    7  O7  UNL     1     -37.100  13.982  -3.804  1.00 20.00    -0.361 OA
ENDROOT
BRANCH   3   8
HETATM    8  O8  UNL     1     -35.094  12.742  -4.027  1.00 20.00    -0.371 OA
HETATM    9  H20 UNL     1     -35.682  11.970  -4.063  1.00 20.00     0.212 HD
ENDBRANCH   3   8
TORSDOF 1
ENDMDL
MODEL 6
REMARK VINA RESULT:      -3.7      1.948      2.662
REMARK  1 active torsions:
REMARK  status: ('A' for Active; 'I' for Inactive)
REMARK    1  A    between atoms: C3_3  and  O8_8 
ROOT
HETATM    1  C1  UNL     1     -35.625  15.015  -3.394  1.00 20.00     0.040 C 
HETATM    2  C2  UNL     1     -35.152  16.305  -2.750  1.00 20.00     0.172 C 
HETATM    3  C3  UNL     1     -33.296  15.182  -3.606  1.00 20.00     0.264 C 
HETATM    4  C4  UNL     1     -34.522  14.718  -4.402  1.00 20.00     0.004 C 
HETATM    5  C5  UNL     1     -34.730  15.531  -5.693  1.00 20.00     0.020 C 
HETATM    6  C6  UNL     1     -34.446  13.232  -4.759  1.00 20.00     0.020 C 
HETATM    7  O7  UNL     1     -33.721  16.330  -2.853  1.00 20.00    -0.361 OA
ENDROOT
BRANCH   3   8
HETATM    8  O8  UNL     1     -32.199  15.477  -4.454  1.00 20.00    -0.371 OA
HETATM    9  H20 UNL     1     -31.672  14.664  -4.519  1.00 20.00     0.212 HD
ENDBRANCH   3   8
TORSDOF 1
ENDMDL
MODEL 7
REMARK VINA RESULT:      -3.6      2.095      3.125
REMARK  1 active torsions:
REMARK  status: ('A' for Active; 'I' for Inactive)
REMARK    1  A    between atoms: C3_3  and  O8_8 
ROOT
HETATM    1  C1  UNL     1     -35.648  16.382  -4.165  1.00 20.00     0.040 C 
HETATM    2  C2  UNL     1     -35.345  16.283  -5.649  1.00 20.00     0.172 C 
HETATM    3  C3  UNL     1     -33.327  16.258  -4.479  1.00 20.00     0.264 C 
HETATM    4  C4  UNL     1     -34.418  15.749  -3.527  1.00 20.00     0.004 C 
HETATM    5  C5  UNL     1     -34.532  14.213  -3.529  1.00 20.00     0.020 C 
HETATM    6  C6  UNL     1     -34.195  16.228  -2.092  1.00 20.00     0.020 C 
HETATM    7  O7  UNL     1     -33.917  16.270  -5.790  1.00 20.00    -0.361 OA
ENDROOT
BRANCH   3   8
HETATM    8  O8  UNL     1     -32.164  15.450  -4.425  1.00 20.00    -0.371 OA
HETATM    9  H20 UNL     1     -31.944  15.217  -5.341  1.00 20.00     0.212 HD
ENDBRANCH   3   8
TORSDOF 1
ENDMDL
MODEL 8
REMARK VINA RESULT:      -3.6     11.064     12.273
REMARK  1 active torsions:
REMARK  status: ('A' for Active; 'I' for Inactive)
REMARK    1  A    between atoms: C3_3  and  O8_8 
ROOT
HETATM    1  C1  UNL     1     -43.229   6.277  -0.336  1.00 20.00     0.040 C 
HETATM    2  C2  UNL     1     -42.891   5.407   0.860  1.00 20.00     0.172 C 
HETATM    3  C3  UNL     1     -41.625   4.684  -0.961  1.00 20.00     0.264 C 
HETATM    4  C4  UNL     1     -41.982   6.156  -1.204  1.00 20.00     0.004 C 
HETATM    5  C5  UNL     1     -40.883   7.118  -0.715  1.00 20.00     0.020 C 
HETATM    6  C6  UNL     1     -42.270   6.440  -2.679  1.00 20.00     0.020 C 
HETATM    7  O7  UNL     1     -41.956   4.416   0.413  1.00 20.00    -0.361 OA
ENDROOT
BRANCH   3   8
HETATM    8  O8  UNL     1     -40.262   4.420  -1.243  1.00 20.00    -0.371 OA
HETATM    9  H20 UNL     1     -40.239   3.965  -2.100  1.00 20.00     0.212 HD
ENDBRANCH   3   8
TORSDOF 1
ENDMDL
MODEL 9
REMARK VINA RESULT:      -3.5     11.288     12.465
REMARK  1 active torsions:
REMARK  status: ('A' for Active; 'I' for Inactive)
REMARK    1  A    between atoms: C3_3  and  O8_8 
ROOT
HETATM    1  C1  UNL     1     -43.062   6.132  -1.349  1.00 20.00     0.040 C 
HETATM    2  C2  UNL     1     -41.899   6.955  -1.870  1.00 20.00     0.172 C 
HETATM    3  C3  UNL     1     -41.049   5.034  -0.855  1.00 20.00     0.264 C 
HETATM    4  C4  UNL     1     -42.484   4.723  -1.302  1.00 20.00     0.004 C 
HETATM    5  C5  UNL     1     -42.538   4.065  -2.693  1.00 20.00     0.020 C 
HETATM    6  C6  UNL     1     -43.215   3.828  -0.301  1.00 20.00     0.020 C 
HETATM    7  O7  UNL     1     -40.694   6.273  -1.491  1.00 20.00    -0.361 OA
ENDROOT
BRANCH   3   8
HETATM    8  O8  UNL     1     -40.155   3.987  -1.190  1.00 20.00    -0.371 OA
HETATM    9  H20 UNL     1     -40.698   3.255  -1.524  1.00 20.00     0.212 HD
ENDBRANCH   3   8
TORSDOF 1
ENDMDL
