MODEL 1
REMARK VINA RESULT:      -4.9      0.000      0.000
REMARK  1 active torsions:
REMARK  status: ('A' for Active; 'I' for Inactive)
REMARK    1  A    between atoms: C1_1  and  O10_10 
ROOT
HETATM    1  C1  UNL     1     -34.834  13.496  -3.982  1.00 20.00     0.099 C 
HETATM    2  C2  UNL     1     -35.441  14.700  -3.897  1.00 20.00     0.026 C 
HETATM    3  C3  UNL     1     -33.448  13.868  -3.568  1.00 20.00     0.183 C 
HETATM    4  C4  UNL     1     -35.706  15.460  -5.172  1.00 20.00     0.018 C 
HETATM    5  C5  UNL     1     -34.791  15.573  -2.853  1.00 20.00     0.030 C 
HETATM    6  C6  UNL     1     -34.317  15.838  -5.752  1.00 20.00     0.002 C 
HETATM    7  C7  UNL     1     -33.206  16.127  -4.689  1.00 20.00     0.013 C 
HETATM    8  C8  UNL     1     -33.373  15.368  -3.345  1.00 20.00     0.063 C 
HETATM    9  O9  UNL     1     -32.508  13.091  -3.528  1.00 20.00    -0.290 OA
ENDROOT
BRANCH   1  10
HETATM   10  O10 UNL     1     -35.004  12.532  -4.933  1.00 20.00    -0.360 OA
HETATM   11  H20 UNL     1     -34.635  11.690  -4.635  1.00 20.00     0.217 HD
ENDBRANCH   1  10
TORSDOF 1
ENDMDL
MODEL 2
REMARK VINA RESULT:      -4.8      1.424      2.912
REMARK  1 active torsions:
REMARK  status: ('A' for Active; 'I' for Inactive)
REMARK    1  A    between atoms: C1_1  and  O10_10 
ROOT
HETATM    1  C1  UNL     1     -35.415  13.863  -4.582  1.00 20.00     0.099 C 
HETATM    2  C2  UNL     1     -34.558  14.888  -4.785  1.00 20.00     0.026 C 
HETATM    3  C3  UNL     1     -36.623  14.615  -4.126  1.00 20.00     0.183 C 
HETATM    4  C4  UNL     1     -33.496  15.151  -3.748  1.00 20.00     0.018 C 
HETATM    5  C5  UNL     1     -35.289  16.151  -5.166  1.00 20.00     0.030 C 
HETATM    6  C6  UNL     1     -34.242  15.603  -2.463  1.00 20.00     0.002 C 
HETATM    7  C7  UNL     1     -35.553  16.420  -2.707  1.00 20.00     0.013 C 
HETATM    8  C8  UNL     1     -36.292  16.093  -4.033  1.00 20.00     0.063 C 
HETATM    9  O9  UNL     1     -37.669  14.092  -3.780  1.00 20.00    -0.290 OA
ENDROOT
BRANCH   1  10
HETATM   10  O10 UNL     1     -35.150  12.641  -4.036  1.00 20.00    -0.360 OA
HETATM   11  H20 UNL     1     -34.932  12.726  -3.099  1.00 20.00     0.217 HD
ENDBRANCH   1  10
TORSDOF 1
ENDMDL
MODEL 3
REMARK VINA RESULT:      -4.8      1.868      2.876
REMARK  1 active torsions:
REMARK  status: ('A' for Active; 'I' for Inactive)
REMARK    1  A    between atoms: C1_1  and  O10_10 
ROOT
HETATM    1  C1  UNL     1     -35.146  15.264  -3.062  1.00 20.00     0.099 C 
HETATM    2  C2  UNL     1     -33.878  15.057  -3.479  1.00 20.00     0.026 C 
HETATM    3  C3  UNL     1     -35.864  14.242  -3.882  1.00 20.00     0.183 C 
HETATM    4  C4  UNL     1     -33.281  16.028  -4.465  1.00 20.00     0.018 C 
HETATM    5  C5  UNL     1     -33.664  13.627  -3.906  1.00 20.00     0.030 C 
HETATM    6  C6  UNL     1     -34.085  15.864  -5.782  1.00 20.00     0.002 C 
HETATM    7  C7  UNL     1     -34.602  14.416  -6.071  1.00 20.00     0.013 C 
HETATM    8  C8  UNL     1     -34.878  13.554  -4.809  1.00 20.00     0.063 C 
HETATM    9  O9  UNL     1     -37.073  14.077  -3.873  1.00 20.00    -0.290 OA
ENDROOT
BRANCH   1  10
HETATM   10  O10 UNL     1     -35.762  16.452  -2.797  1.00 20.00    -0.360 OA
HETATM   11  H20 UNL     1     -36.246  16.765  -3.573  1.00 20.00     0.217 HD
ENDBRANCH   1  10
TORSDOF 1
ENDMDL
MODEL 4
REMARK VINA RESULT:      -4.7      1.695      2.751
REMARK  1 active torsions:
REMARK  status: ('A' for Active; 'I' for Inactive)
REMARK    1  A    between atoms: C1_1  and  O10_10 
ROOT
HETATM    1  C1  UNL     1     -33.176  15.318  -3.572  1.00 20.00     0.099 C 
HETATM    2  C2  UNL     1     -34.327  14.689  -3.249  1.00 20.00     0.026 C 
HETATM    3  C3  UNL     1     -33.703  16.389  -4.472  1.00 20.00     0.183 C 
HETATM    4  C4  UNL     1     -34.647  13.384  -3.933  1.00 20.00     0.018 C 
HETATM    5  C5  UNL     1     -35.501  15.636  -3.279  1.00 20.00     0.030 C 
HETATM    6  C6  UNL     1     -34.872  13.720  -5.432  1.00 20.00     0.002 C 
HETATM    7  C7  UNL     1     -35.510  15.120  -5.713  1.00 20.00     0.013 C 
HETATM    8  C8  UNL     1     -35.200  16.208  -4.649  1.00 20.00     0.063 C 
HETATM    9  O9  UNL     1     -33.007  17.204  -5.053  1.00 20.00    -0.290 OA
ENDROOT
BRANCH   1  10
HETATM   10  O10 UNL     1     -31.961  14.762  -3.846  1.00 20.00    -0.360 OA
HETATM   11  H20 UNL     1     -31.364  15.419  -4.230  1.00 20.00     0.217 HD
ENDBRANCH   1  10
TORSDOF 1
ENDMDL
MODEL 5
REMARK VINA RESULT:      -4.7      0.775      2.715
REMARK  1 active torsions:
REMARK  status: ('A' for Active; 'I' for Inactive)
REMARK    1  A    between atoms: C1_1  and  O10_10 
ROOT
HETATM    1  C1  UNL     1     -33.500  14.012  -4.126  1.00 20.00     0.099 C 
HETATM    2  C2  UNL     1     -33.543  15.362  -4.175  1.00 20.00     0.026 C 
HETATM    3  C3  UNL     1     -34.936  13.693  -4.388  1.00 20.00     0.183 C 
HETATM    4  C4  UNL     1     -33.523  16.127  -2.876  1.00 20.00     0.018 C 
HETATM    5  C5  UNL     1     -34.638  15.846  -5.091  1.00 20.00     0.030 C 
HETATM    6  C6  UNL     1     -34.852  15.788  -2.149  1.00 20.00     0.002 C 
HETATM    7  C7  UNL     1     -36.080  15.541  -3.086  1.00 20.00     0.013 C 
HETATM    8  C8  UNL     1     -35.730  14.983  -4.492  1.00 20.00     0.063 C 
HETATM    9  O9  UNL     1     -35.400  12.565  -4.402  1.00 20.00    -0.290 OA
ENDROOT
BRANCH   1  10
HETATM   10  O10 UNL     1     -32.793  13.223  -3.267  1.00 20.00    -0.360 OA
HETATM   11  H20 UNL     1     -31.998  13.680  -2.961  1.00 20.00     0.217 HD
ENDBRANCH   1  10
TORSDOF 1
ENDMDL
MODEL 6
REMARK VINA RESULT:      -4.6      2.023      3.264
REMARK  1 active torsions:
REMARK  status: ('A' for Active; 'I' for Inactive)
REMARK    1  A    between atoms: C1_1  and  O10_10 
ROOT
HETATM    1  C1  UNL     1     -33.496  16.197  -4.257  1.00 20.00     0.099 C 
HETATM    2  C2  UNL     1     -33.579  15.289  -3.260  1.00 20.00     0.026 C 
HETATM    3  C3  UNL     1     -34.940  16.542  -4.423  1.00 20.00     0.183 C 
HETATM    4  C4  UNL     1     -33.463  13.827  -3.612  1.00 20.00     0.018 C 
HETATM    5  C5  UNL     1     -34.767  15.555  -2.369  1.00 20.00     0.030 C 
HETATM    6  C6  UNL     1     -34.711  13.483  -4.469  1.00 20.00     0.002 C 
HETATM    7  C7  UNL     1     -36.011  14.269  -4.098  1.00 20.00     0.013 C 
HETATM    8  C8  UNL     1     -35.775  15.680  -3.493  1.00 20.00     0.063 C 
HETATM    9  O9  UNL     1     -35.371  17.317  -5.259  1.00 20.00    -0.290 OA
ENDROOT
BRANCH   1  10
HETATM   10  O10 UNL     1     -32.691  16.167  -5.358  1.00 20.00    -0.360 OA
HETATM   11  H20 UNL     1     -33.000  16.798  -6.023  1.00 20.00     0.217 HD
ENDBRANCH   1  10
TORSDOF 1
ENDMDL
MODEL 7
REMARK VINA RESULT:      -4.6      1.192      2.472
REMARK  1 active torsions:
REMARK  status: ('A' for Active; 'I' for Inactive)
REMARK    1  A    between atoms: C1_1  and  O10_10 
ROOT
HETATM    1  C1  UNL     1     -34.273  13.743  -4.469  1.00 20.00     0.099 C 
HETATM    2  C2  UNL     1     -33.781  14.740  -3.703  1.00 20.00     0.026 C 
HETATM    3  C3  UNL     1     -34.610  14.505  -5.710  1.00 20.00     0.183 C 
HETATM    4  C4  UNL     1     -34.659  15.311  -2.619  1.00 20.00     0.018 C 
HETATM    5  C5  UNL     1     -33.157  15.826  -4.543  1.00 20.00     0.030 C 
HETATM    6  C6  UNL     1     -35.844  16.010  -3.339  1.00 20.00     0.002 C 
HETATM    7  C7  UNL     1     -35.495  16.661  -4.717  1.00 20.00     0.013 C 
HETATM    8  C8  UNL     1     -34.331  15.980  -5.488  1.00 20.00     0.063 C 
HETATM    9  O9  UNL     1     -35.133  14.016  -6.697  1.00 20.00    -0.290 OA
ENDROOT
BRANCH   1  10
HETATM   10  O10 UNL     1     -35.075  12.706  -4.090  1.00 20.00    -0.360 OA
HETATM   11  H20 UNL     1     -35.723  12.508  -4.779  1.00 20.00     0.217 HD
ENDBRANCH   1  10
TORSDOF 1
ENDMDL
MODEL 8
REMARK VINA RESULT:      -4.6      1.883      2.624
REMARK  1 active torsions:
REMARK  status: ('A' for Active; 'I' for Inactive)
REMARK    1  A    between atoms: C1_1  and  O10_10 
ROOT
HETATM    1  C1  UNL     1     -34.278  15.041  -5.658  1.00 20.00     0.099 C 
HETATM    2  C2  UNL     1     -34.537  14.030  -4.800  1.00 20.00     0.026 C 
HETATM    3  C3  UNL     1     -33.437  15.917  -4.787  1.00 20.00     0.183 C 
HETATM    4  C4  UNL     1     -35.893  13.978  -4.143  1.00 20.00     0.018 C 
HETATM    5  C5  UNL     1     -33.425  13.858  -3.797  1.00 20.00     0.030 C 
HETATM    6  C6  UNL     1     -35.976  15.218  -3.214  1.00 20.00     0.002 C 
HETATM    7  C7  UNL     1     -34.623  15.656  -2.563  1.00 20.00     0.013 C 
HETATM    8  C8  UNL     1     -33.356  15.317  -3.395  1.00 20.00     0.063 C 
HETATM    9  O9  UNL     1     -32.987  16.998  -5.127  1.00 20.00    -0.290 OA
ENDROOT
BRANCH   1  10
HETATM   10  O10 UNL     1     -35.124  15.620  -6.558  1.00 20.00    -0.360 OA
HETATM   11  H20 UNL     1     -34.739  16.432  -6.914  1.00 20.00     0.217 HD
ENDBRANCH   1  10
TORSDOF 1
ENDMDL
MODEL 9
REMARK VINA RESULT:      -4.6      1.135      1.791
REMARK  1 active torsions:
REMARK  status: ('A' for Active; 'I' for Inactive)
REMARK    1  A    between atoms: C1_1  and  O10_10 
ROOT
HETATM    1  C1  UNL     1     -35.797  14.666  -5.269  1.00 20.00     0.099 C 
HETATM    2  C2  UNL     1     -35.660  15.791  -4.534  1.00 20.00     0.026 C 
HETATM    3  C3  UNL     1     -34.978  13.717  -4.456  1.00 20.00     0.183 C 
HETATM    4  C4  UNL     1     -34.703  16.850  -5.016  1.00 20.00     0.018 C 
HETATM    5  C5  UNL     1     -35.451  15.474  -3.074  1.00 20.00     0.030 C 
HETATM    6  C6  UNL     1     -33.283  16.230  -4.925  1.00 20.00     0.002 C 
HETATM    7  C7  UNL     1     -33.069  15.224  -3.747  1.00 20.00     0.013 C 
HETATM    8  C8  UNL     1     -34.345  14.463  -3.295  1.00 20.00     0.063 C 
HETATM    9  O9  UNL     1     -34.771  12.553  -4.756  1.00 20.00    -0.290 OA
ENDROOT
BRANCH   1  10
HETATM   10  O10 UNL     1     -35.798  14.543  -6.628  1.00 20.00    -0.360 OA
HETATM   11  H20 UNL     1     -36.228  15.305  -7.038  1.00 20.00     0.217 HD
ENDBRANCH   1  10
TORSDOF 1
ENDMDL
