MODEL 1
REMARK VINA RESULT:      -5.2      0.000      0.000
REMARK  3 active torsions:
REMARK  status: ('A' for Active; 'I' for Inactive)
REMARK    1  A    between atoms: C3_3  and  C4_4 
REMARK    2  A    between atoms: C4_4  and  C5_5 
REMARK    3  A    between atoms: C4_4  and  O6_6 
ROOT
HETATM    1  C4  UNL     1     -33.935   6.147   3.875  1.00 20.00     0.229 C 
ENDROOT
BRANCH   1   2
HETATM    2  C3  UNL     1     -33.832   5.391   5.155  1.00 20.00     0.023 A 
HETATM    3  C1  UNL     1     -34.407   5.962   6.421  1.00 20.00     0.008 A 
HETATM    4  C2  UNL     1     -35.058   4.773   5.769  1.00 20.00     0.008 A 
ENDBRANCH   1   2
BRANCH   1   5
HETATM    5  C5  UNL     1     -32.583   6.620   3.373  1.00 20.00     0.413 C 
HETATM    6  F7  UNL     1     -31.911   7.285   4.338  1.00 20.00    -0.168 F 
HETATM    7  F8  UNL     1     -31.815   5.574   2.993  1.00 20.00    -0.168 F 
HETATM    8  F9  UNL     1     -32.710   7.448   2.314  1.00 20.00    -0.168 F 
ENDBRANCH   1   5
BRANCH   1   9
HETATM    9  O6  UNL     1     -34.512   5.316   2.866  1.00 20.00    -0.386 OA
HETATM   10  H16 UNL     1     -35.274   4.880   3.273  1.00 20.00     0.210 HD
ENDBRANCH   1   9
TORSDOF 3
ENDMDL
MODEL 2
REMARK VINA RESULT:      -5.0      2.753      3.646
REMARK  3 active torsions:
REMARK  status: ('A' for Active; 'I' for Inactive)
REMARK    1  A    between atoms: C3_3  and  C4_4 
REMARK    2  A    between atoms: C4_4  and  C5_5 
REMARK    3  A    between atoms: C4_4  and  O6_6 
ROOT
HETATM    1  C4  UNL     1     -34.462   4.646   4.928  1.00 20.00     0.229 C 
ENDROOT
BRANCH   1   2
HETATM    2  C3  UNL     1     -34.463   5.763   3.941  1.00 20.00     0.023 A 
HETATM    3  C1  UNL     1     -33.166   6.317   3.424  1.00 20.00     0.008 A 
HETATM    4  C2  UNL     1     -34.054   5.512   2.516  1.00 20.00     0.008 A 
ENDBRANCH   1   2
BRANCH   1   5
HETATM    5  C5  UNL     1     -34.551   5.141   6.360  1.00 20.00     0.413 C 
HETATM    6  F7  UNL     1     -35.766   4.876   6.892  1.00 20.00    -0.168 F 
HETATM    7  F8  UNL     1     -33.629   4.534   7.140  1.00 20.00    -0.168 F 
HETATM    8  F9  UNL     1     -34.349   6.473   6.439  1.00 20.00    -0.168 F 
ENDBRANCH   1   5
BRANCH   1   9
HETATM    9  O6  UNL     1     -35.578   3.787   4.691  1.00 20.00    -0.386 OA
HETATM   10  H16 UNL     1     -36.253   4.329   4.257  1.00 20.00     0.210 HD
ENDBRANCH   1   9
TORSDOF 3
ENDMDL
MODEL 3
REMARK VINA RESULT:      -5.0      2.751      3.719
REMARK  3 active torsions:
REMARK  status: ('A' for Active; 'I' for Inactive)
REMARK    1  A    between atoms: C3_3  and  C4_4 
REMARK    2  A    between atoms: C4_4  and  C5_5 
REMARK    3  A    between atoms: C4_4  and  O6_6 
ROOT
HETATM    1  C4  UNL     1     -34.463   4.644   4.928  1.00 20.00     0.229 C 
ENDROOT
BRANCH   1   2
HETATM    2  C3  UNL     1     -34.463   5.762   3.943  1.00 20.00     0.023 A 
HETATM    3  C1  UNL     1     -33.166   6.311   3.420  1.00 20.00     0.008 A 
HETATM    4  C2  UNL     1     -34.062   5.512   2.516  1.00 20.00     0.008 A 
ENDBRANCH   1   2
BRANCH   1   5
HETATM    5  C5  UNL     1     -34.553   5.137   6.361  1.00 20.00     0.413 C 
HETATM    6  F7  UNL     1     -33.623   4.540   7.140  1.00 20.00    -0.168 F 
HETATM    7  F8  UNL     1     -34.341   6.470   6.429  1.00 20.00    -0.168 F 
HETATM    8  F9  UNL     1     -35.765   4.881   6.898  1.00 20.00    -0.168 F 
ENDBRANCH   1   5
BRANCH   1   9
HETATM    9  O6  UNL     1     -35.580   3.786   4.689  1.00 20.00    -0.386 OA
HETATM   10  H16 UNL     1     -35.233   2.882   4.682  1.00 20.00     0.210 HD
ENDBRANCH   1   9
TORSDOF 3
ENDMDL
MODEL 4
REMARK VINA RESULT:      -5.0      2.751      3.727
REMARK  3 active torsions:
REMARK  status: ('A' for Active; 'I' for Inactive)
REMARK    1  A    between atoms: C3_3  and  C4_4 
REMARK    2  A    between atoms: C4_4  and  C5_5 
REMARK    3  A    between atoms: C4_4  and  O6_6 
ROOT
HETATM    1  C4  UNL     1     -34.461   4.645   4.929  1.00 20.00     0.229 C 
ENDROOT
BRANCH   1   2
HETATM    2  C3  UNL     1     -34.474   5.762   3.943  1.00 20.00     0.023 A 
HETATM    3  C1  UNL     1     -33.184   6.340   3.435  1.00 20.00     0.008 A 
HETATM    4  C2  UNL     1     -34.052   5.520   2.521  1.00 20.00     0.008 A 
ENDBRANCH   1   2
BRANCH   1   5
HETATM    5  C5  UNL     1     -34.544   5.137   6.362  1.00 20.00     0.413 C 
HETATM    6  F7  UNL     1     -34.337   6.471   6.432  1.00 20.00    -0.168 F 
HETATM    7  F8  UNL     1     -35.764   4.890   6.889  1.00 20.00    -0.168 F 
HETATM    8  F9  UNL     1     -33.624   4.536   7.147  1.00 20.00    -0.168 F 
ENDBRANCH   1   5
BRANCH   1   9
HETATM    9  O6  UNL     1     -35.574   3.779   4.698  1.00 20.00    -0.386 OA
HETATM   10  H16 UNL     1     -36.354   4.348   4.635  1.00 20.00     0.210 HD
ENDBRANCH   1   9
TORSDOF 3
ENDMDL
MODEL 5
REMARK VINA RESULT:      -5.0      2.464      3.567
REMARK  3 active torsions:
REMARK  status: ('A' for Active; 'I' for Inactive)
REMARK    1  A    between atoms: C3_3  and  C4_4 
REMARK    2  A    between atoms: C4_4  and  C5_5 
REMARK    3  A    between atoms: C4_4  and  O6_6 
ROOT
HETATM    1  C4  UNL     1     -33.948   6.484   4.090  1.00 20.00     0.229 C 
ENDROOT
BRANCH   1   2
HETATM    2  C3  UNL     1     -32.610   6.486   3.434  1.00 20.00     0.023 A 
HETATM    3  C1  UNL     1     -32.238   7.580   2.474  1.00 20.00     0.008 A 
HETATM    4  C2  UNL     1     -31.578   7.508   3.824  1.00 20.00     0.008 A 
ENDBRANCH   1   2
BRANCH   1   5
HETATM    5  C5  UNL     1     -34.832   5.353   3.598  1.00 20.00     0.413 C 
HETATM    6  F7  UNL     1     -36.103   5.773   3.414  1.00 20.00    -0.168 F 
HETATM    7  F8  UNL     1     -34.390   4.873   2.414  1.00 20.00    -0.168 F 
HETATM    8  F9  UNL     1     -34.860   4.327   4.476  1.00 20.00    -0.168 F 
ENDBRANCH   1   5
BRANCH   1   9
HETATM    9  O6  UNL     1     -33.796   6.338   5.504  1.00 20.00    -0.386 OA
HETATM   10  H16 UNL     1     -33.009   6.846   5.748  1.00 20.00     0.210 HD
ENDBRANCH   1   9
TORSDOF 3
ENDMDL
MODEL 6
REMARK VINA RESULT:      -4.8      2.936      3.848
REMARK  3 active torsions:
REMARK  status: ('A' for Active; 'I' for Inactive)
REMARK    1  A    between atoms: C3_3  and  C4_4 
REMARK    2  A    between atoms: C4_4  and  C5_5 
REMARK    3  A    between atoms: C4_4  and  O6_6 
ROOT
HETATM    1  C4  UNL     1     -34.155   6.167   5.230  1.00 20.00     0.229 C 
ENDROOT
BRANCH   1   2
HETATM    2  C3  UNL     1     -33.045   5.961   4.258  1.00 20.00     0.023 A 
HETATM    3  C1  UNL     1     -33.339   5.828   2.790  1.00 20.00     0.008 A 
HETATM    4  C2  UNL     1     -32.655   7.062   3.311  1.00 20.00     0.008 A 
ENDBRANCH   1   2
BRANCH   1   5
HETATM    5  C5  UNL     1     -34.835   4.866   5.616  1.00 20.00     0.413 C 
HETATM    6  F7  UNL     1     -33.926   3.900   5.877  1.00 20.00    -0.168 F 
HETATM    7  F8  UNL     1     -35.587   5.024   6.728  1.00 20.00    -0.168 F 
HETATM    8  F9  UNL     1     -35.642   4.417   4.631  1.00 20.00    -0.168 F 
ENDBRANCH   1   5
BRANCH   1   9
HETATM    9  O6  UNL     1     -33.650   6.768   6.424  1.00 20.00    -0.386 OA
HETATM   10  H16 UNL     1     -32.966   7.395   6.146  1.00 20.00     0.210 HD
ENDBRANCH   1   9
TORSDOF 3
ENDMDL
MODEL 7
REMARK VINA RESULT:      -4.8      1.520      1.866
REMARK  3 active torsions:
REMARK  status: ('A' for Active; 'I' for Inactive)
REMARK    1  A    between atoms: C3_3  and  C4_4 
REMARK    2  A    between atoms: C4_4  and  C5_5 
REMARK    3  A    between atoms: C4_4  and  O6_6 
ROOT
HETATM    1  C4  UNL     1     -33.385   5.806   4.686  1.00 20.00     0.229 C 
ENDROOT
BRANCH   1   2
HETATM    2  C3  UNL     1     -34.755   5.277   4.938  1.00 20.00     0.023 A 
HETATM    3  C1  UNL     1     -34.965   3.811   5.193  1.00 20.00     0.008 A 
HETATM    4  C2  UNL     1     -35.141   4.801   6.311  1.00 20.00     0.008 A 
ENDBRANCH   1   2
BRANCH   1   5
HETATM    5  C5  UNL     1     -33.137   6.092   3.216  1.00 20.00     0.413 C 
HETATM    6  F7  UNL     1     -31.916   5.653   2.834  1.00 20.00    -0.168 F 
HETATM    7  F8  UNL     1     -34.051   5.468   2.441  1.00 20.00    -0.168 F 
HETATM    8  F9  UNL     1     -33.201   7.414   2.950  1.00 20.00    -0.168 F 
ENDBRANCH   1   5
BRANCH   1   9
HETATM    9  O6  UNL     1     -33.194   7.025   5.407  1.00 20.00    -0.386 OA
HETATM   10  H16 UNL     1     -33.671   6.924   6.244  1.00 20.00     0.210 HD
ENDBRANCH   1   9
TORSDOF 3
ENDMDL
MODEL 8
REMARK VINA RESULT:      -4.6      2.215      2.721
REMARK  3 active torsions:
REMARK  status: ('A' for Active; 'I' for Inactive)
REMARK    1  A    between atoms: C3_3  and  C4_4 
REMARK    2  A    between atoms: C4_4  and  C5_5 
REMARK    3  A    between atoms: C4_4  and  O6_6 
ROOT
HETATM    1  C4  UNL     1     -33.649   5.971   4.182  1.00 20.00     0.229 C 
ENDROOT
BRANCH   1   2
HETATM    2  C3  UNL     1     -34.245   6.636   5.375  1.00 20.00     0.023 A 
HETATM    3  C1  UNL     1     -34.473   5.859   6.640  1.00 20.00     0.008 A 
HETATM    4  C2  UNL     1     -33.400   6.911   6.588  1.00 20.00     0.008 A 
ENDBRANCH   1   2
BRANCH   1   5
HETATM    5  C5  UNL     1     -34.670   5.164   3.401  1.00 20.00     0.413 C 
HETATM    6  F7  UNL     1     -34.895   3.966   3.986  1.00 20.00    -0.168 F 
HETATM    7  F8  UNL     1     -35.855   5.812   3.339  1.00 20.00    -0.168 F 
HETATM    8  F9  UNL     1     -34.257   4.933   2.136  1.00 20.00    -0.168 F 
ENDBRANCH   1   5
BRANCH   1   9
HETATM    9  O6  UNL     1     -33.101   6.953   3.301  1.00 20.00    -0.386 OA
HETATM   10  H16 UNL     1     -33.505   7.798   3.548  1.00 20.00     0.210 HD
ENDBRANCH   1   9
TORSDOF 3
ENDMDL
MODEL 9
REMARK VINA RESULT:      -4.4     11.107     12.393
REMARK  3 active torsions:
REMARK  status: ('A' for Active; 'I' for Inactive)
REMARK    1  A    between atoms: C3_3  and  C4_4 
REMARK    2  A    between atoms: C4_4  and  C5_5 
REMARK    3  A    between atoms: C4_4  and  O6_6 
ROOT
HETATM    1  C4  UNL     1     -34.373  13.526  -4.927  1.00 20.00     0.229 C 
ENDROOT
BRANCH   1   2
HETATM    2  C3  UNL     1     -35.050  14.575  -5.741  1.00 20.00     0.023 A 
HETATM    3  C1  UNL     1     -34.346  15.194  -6.916  1.00 20.00     0.008 A 
HETATM    4  C2  UNL     1     -35.510  14.268  -7.139  1.00 20.00     0.008 A 
ENDBRANCH   1   2
BRANCH   1   5
HETATM    5  C5  UNL     1     -33.522  14.115  -3.817  1.00 20.00     0.413 C 
HETATM    6  F7  UNL     1     -34.277  14.436  -2.742  1.00 20.00    -0.168 F 
HETATM    7  F8  UNL     1     -32.587  13.231  -3.403  1.00 20.00    -0.168 F 
HETATM    8  F9  UNL     1     -32.885  15.235  -4.220  1.00 20.00    -0.168 F 
ENDBRANCH   1   5
BRANCH   1   9
HETATM    9  O6  UNL     1     -35.348  12.673  -4.326  1.00 20.00    -0.386 OA
HETATM   10  H16 UNL     1     -34.907  11.826  -4.162  1.00 20.00     0.210 HD
ENDBRANCH   1   9
TORSDOF 3
ENDMDL
