MODEL 1
REMARK VINA RESULT:      -4.6      0.000      0.000
REMARK  7 active torsions:
REMARK  status: ('A' for Active; 'I' for Inactive)
REMARK    1  A    between atoms: C1_1  and  C6_6 
REMARK    2  A    between atoms: C1_1  and  C11_11 
REMARK    3  A    between atoms: C6_6  and  C12_12 
REMARK    4  A    between atoms: C7_7  and  C9_9 
REMARK    5  A    between atoms: C8_8  and  C12_12 
REMARK    6  A    between atoms: C9_9  and  C10_10 
REMARK    7  A    between atoms: C10_10  and  C12_12 
ROOT
HETATM    1  C12 UNL     1     -33.758  15.522  -3.071  1.00 20.00    -0.008 C 
ENDROOT
BRANCH   1   2
HETATM    2  C6  UNL     1     -35.215  15.094  -3.338  1.00 20.00     0.083 C 
BRANCH   2   3
HETATM    3  C1  UNL     1     -35.350  13.993  -4.384  1.00 20.00     0.130 C 
HETATM    4  O13 UNL     1     -34.891  12.865  -4.209  1.00 20.00    -0.298 OA
BRANCH   3   5
HETATM    5  C11 UNL     1     -36.104  14.363  -5.658  1.00 20.00     0.047 C 
HETATM    6  C4  UNL     1     -35.166  14.398  -6.860  1.00 20.00     0.017 C 
HETATM    7  C5  UNL     1     -36.796  15.708  -5.466  1.00 20.00     0.017 C 
ENDBRANCH   3   5
ENDBRANCH   2   3
ENDBRANCH   1   2
BRANCH   1   8
HETATM    8  C8  UNL     1     -33.052  15.909  -4.388  1.00 20.00     0.000 C 
HETATM    9  C3  UNL     1     -33.473  17.247  -4.982  1.00 20.00     0.005 C 
ENDBRANCH   1   8
BRANCH   1  10
HETATM   10  C10 UNL     1     -33.714  16.635  -1.997  1.00 20.00     0.005 C 
BRANCH  10  11
HETATM   11  C9  UNL     1     -34.837  16.528  -0.961  1.00 20.00     0.000 C 
BRANCH  11  12
HETATM   12  C7  UNL     1     -34.650  17.470   0.231  1.00 20.00    -0.005 C 
HETATM   13  C2  UNL     1     -33.420  18.358   0.115  1.00 20.00     0.005 C 
ENDBRANCH  11  12
ENDBRANCH  10  11
ENDBRANCH   1  10
TORSDOF 7
ENDMDL
MODEL 2
REMARK VINA RESULT:      -4.4      1.699      2.374
REMARK  7 active torsions:
REMARK  status: ('A' for Active; 'I' for Inactive)
REMARK    1  A    between atoms: C1_1  and  C6_6 
REMARK    2  A    between atoms: C1_1  and  C11_11 
REMARK    3  A    between atoms: C6_6  and  C12_12 
REMARK    4  A    between atoms: C7_7  and  C9_9 
REMARK    5  A    between atoms: C8_8  and  C12_12 
REMARK    6  A    between atoms: C9_9  and  C10_10 
REMARK    7  A    between atoms: C10_10  and  C12_12 
ROOT
HETATM    1  C12 UNL     1     -34.445  16.732  -2.262  1.00 20.00    -0.008 C 
ENDROOT
BRANCH   1   2
HETATM    2  C6  UNL     1     -33.801  15.447  -2.822  1.00 20.00     0.083 C 
BRANCH   2   3
HETATM    3  C1  UNL     1     -33.552  15.490  -4.325  1.00 20.00     0.130 C 
HETATM    4  O13 UNL     1     -32.814  16.328  -4.842  1.00 20.00    -0.298 OA
BRANCH   3   5
HETATM    5  C11 UNL     1     -34.255  14.419  -5.155  1.00 20.00     0.047 C 
HETATM    6  C4  UNL     1     -35.204  15.048  -6.171  1.00 20.00     0.017 C 
HETATM    7  C5  UNL     1     -35.001  13.466  -4.228  1.00 20.00     0.017 C 
ENDBRANCH   3   5
ENDBRANCH   2   3
ENDBRANCH   1   2
BRANCH   1   8
HETATM    8  C8  UNL     1     -35.761  17.051  -3.003  1.00 20.00     0.000 C 
HETATM    9  C3  UNL     1     -35.796  18.393  -3.721  1.00 20.00     0.005 C 
ENDBRANCH   1   8
BRANCH   1  10
HETATM   10  C10 UNL     1     -34.611  16.625  -0.728  1.00 20.00     0.005 C 
BRANCH  10  11
HETATM   11  C9  UNL     1     -34.246  17.914   0.016  1.00 20.00     0.000 C 
BRANCH  11  12
HETATM   12  C7  UNL     1     -33.060  18.654  -0.608  1.00 20.00    -0.005 C 
HETATM   13  C2  UNL     1     -31.918  18.901   0.366  1.00 20.00     0.005 C 
ENDBRANCH  11  12
ENDBRANCH  10  11
ENDBRANCH   1  10
TORSDOF 7
ENDMDL
MODEL 3
REMARK VINA RESULT:      -4.4      1.887      4.510
REMARK  7 active torsions:
REMARK  status: ('A' for Active; 'I' for Inactive)
REMARK    1  A    between atoms: C1_1  and  C6_6 
REMARK    2  A    between atoms: C1_1  and  C11_11 
REMARK    3  A    between atoms: C6_6  and  C12_12 
REMARK    4  A    between atoms: C7_7  and  C9_9 
REMARK    5  A    between atoms: C8_8  and  C12_12 
REMARK    6  A    between atoms: C9_9  and  C10_10 
REMARK    7  A    between atoms: C10_10  and  C12_12 
ROOT
HETATM    1  C12 UNL     1     -35.712  14.551  -6.725  1.00 20.00    -0.008 C 
ENDROOT
BRANCH   1   2
HETATM    2  C6  UNL     1     -35.998  14.606  -5.211  1.00 20.00     0.083 C 
BRANCH   2   3
HETATM    3  C1  UNL     1     -35.022  13.788  -4.372  1.00 20.00     0.130 C 
HETATM    4  O13 UNL     1     -34.793  12.602  -4.606  1.00 20.00    -0.298 OA
BRANCH   3   5
HETATM    5  C11 UNL     1     -34.327  14.530  -3.233  1.00 20.00     0.047 C 
HETATM    6  C4  UNL     1     -35.167  15.711  -2.756  1.00 20.00     0.017 C 
HETATM    7  C5  UNL     1     -32.948  14.990  -3.693  1.00 20.00     0.017 C 
ENDBRANCH   3   5
ENDBRANCH   2   3
ENDBRANCH   1   2
BRANCH   1   8
HETATM    8  C8  UNL     1     -36.893  15.140  -7.526  1.00 20.00     0.000 C 
HETATM    9  C3  UNL     1     -38.041  15.684  -6.686  1.00 20.00     0.005 C 
ENDBRANCH   1   8
BRANCH   1  10
HETATM   10  C10 UNL     1     -34.356  15.228  -7.040  1.00 20.00     0.005 C 
BRANCH  10  11
HETATM   11  C9  UNL     1     -34.477  16.726  -7.336  1.00 20.00     0.000 C 
BRANCH  11  12
HETATM   12  C7  UNL     1     -34.061  17.608  -6.156  1.00 20.00    -0.005 C 
HETATM   13  C2  UNL     1     -35.234  18.273  -5.452  1.00 20.00     0.005 C 
ENDBRANCH  11  12
ENDBRANCH  10  11
ENDBRANCH   1  10
TORSDOF 7
ENDMDL
MODEL 4
REMARK VINA RESULT:      -4.3      1.953      3.250
REMARK  7 active torsions:
REMARK  status: ('A' for Active; 'I' for Inactive)
REMARK    1  A    between atoms: C1_1  and  C6_6 
REMARK    2  A    between atoms: C1_1  and  C11_11 
REMARK    3  A    between atoms: C6_6  and  C12_12 
REMARK    4  A    between atoms: C7_7  and  C9_9 
REMARK    5  A    between atoms: C8_8  and  C12_12 
REMARK    6  A    between atoms: C9_9  and  C10_10 
REMARK    7  A    between atoms: C10_10  and  C12_12 
ROOT
HETATM    1  C12 UNL     1     -33.611  17.441  -1.274  1.00 20.00    -0.008 C 
ENDROOT
BRANCH   1   2
HETATM    2  C6  UNL     1     -34.131  17.430  -2.725  1.00 20.00     0.083 C 
BRANCH   2   3
HETATM    3  C1  UNL     1     -33.667  16.224  -3.534  1.00 20.00     0.130 C 
HETATM    4  O13 UNL     1     -32.820  16.318  -4.422  1.00 20.00    -0.298 OA
BRANCH   3   5
HETATM    5  C11 UNL     1     -34.298  14.883  -3.167  1.00 20.00     0.047 C 
HETATM    6  C4  UNL     1     -33.591  13.732  -3.875  1.00 20.00     0.017 C 
HETATM    7  C5  UNL     1     -35.782  14.909  -3.514  1.00 20.00     0.017 C 
ENDBRANCH   3   5
ENDBRANCH   2   3
ENDBRANCH   1   2
BRANCH   1   8
HETATM    8  C8  UNL     1     -33.092  18.844  -0.891  1.00 20.00     0.000 C 
HETATM    9  C3  UNL     1     -31.965  18.863   0.133  1.00 20.00     0.005 C 
ENDBRANCH   1   8
BRANCH   1  10
HETATM   10  C10 UNL     1     -34.694  16.901  -0.311  1.00 20.00     0.005 C 
BRANCH  10  11
HETATM   11  C9  UNL     1     -35.603  17.995   0.260  1.00 20.00     0.000 C 
BRANCH  11  12
HETATM   12  C7  UNL     1     -35.834  17.860   1.767  1.00 20.00    -0.005 C 
HETATM   13  C2  UNL     1     -34.606  18.189   2.602  1.00 20.00     0.005 C 
ENDBRANCH  11  12
ENDBRANCH  10  11
ENDBRANCH   1  10
TORSDOF 7
ENDMDL
MODEL 5
REMARK VINA RESULT:      -4.3      1.731      4.047
REMARK  7 active torsions:
REMARK  status: ('A' for Active; 'I' for Inactive)
REMARK    1  A    between atoms: C1_1  and  C6_6 
REMARK    2  A    between atoms: C1_1  and  C11_11 
REMARK    3  A    between atoms: C6_6  and  C12_12 
REMARK    4  A    between atoms: C7_7  and  C9_9 
REMARK    5  A    between atoms: C8_8  and  C12_12 
REMARK    6  A    between atoms: C9_9  and  C10_10 
REMARK    7  A    between atoms: C10_10  and  C12_12 
ROOT
HETATM    1  C12 UNL     1     -34.687  16.240  -2.496  1.00 20.00    -0.008 C 
ENDROOT
BRANCH   1   2
HETATM    2  C6  UNL     1     -34.083  17.393  -3.324  1.00 20.00     0.083 C 
BRANCH   2   3
HETATM    3  C1  UNL     1     -33.578  16.963  -4.697  1.00 20.00     0.130 C 
HETATM    4  O13 UNL     1     -32.599  16.231  -4.835  1.00 20.00    -0.298 OA
BRANCH   3   5
HETATM    5  C11 UNL     1     -34.371  17.477  -5.897  1.00 20.00     0.047 C 
HETATM    6  C4  UNL     1     -34.462  16.417  -6.989  1.00 20.00     0.017 C 
HETATM    7  C5  UNL     1     -33.724  18.752  -6.425  1.00 20.00     0.017 C 
ENDBRANCH   3   5
ENDBRANCH   2   3
ENDBRANCH   1   2
BRANCH   1   8
HETATM    8  C8  UNL     1     -34.608  16.553  -0.987  1.00 20.00     0.000 C 
HETATM    9  C3  UNL     1     -33.680  17.699  -0.607  1.00 20.00     0.005 C 
ENDBRANCH   1   8
BRANCH   1  10
HETATM   10  C10 UNL     1     -36.120  15.922  -2.986  1.00 20.00     0.005 C 
BRANCH  10  11
HETATM   11  C9  UNL     1     -36.212  14.629  -3.802  1.00 20.00     0.000 C 
BRANCH  11  12
HETATM   12  C7  UNL     1     -34.946  13.772  -3.718  1.00 20.00    -0.005 C 
HETATM   13  C2  UNL     1     -34.517  13.191  -5.056  1.00 20.00     0.005 C 
ENDBRANCH  11  12
ENDBRANCH  10  11
ENDBRANCH   1  10
TORSDOF 7
ENDMDL
MODEL 6
REMARK VINA RESULT:      -4.3      1.384      1.779
REMARK  7 active torsions:
REMARK  status: ('A' for Active; 'I' for Inactive)
REMARK    1  A    between atoms: C1_1  and  C6_6 
REMARK    2  A    between atoms: C1_1  and  C11_11 
REMARK    3  A    between atoms: C6_6  and  C12_12 
REMARK    4  A    between atoms: C7_7  and  C9_9 
REMARK    5  A    between atoms: C8_8  and  C12_12 
REMARK    6  A    between atoms: C9_9  and  C10_10 
REMARK    7  A    between atoms: C10_10  and  C12_12 
ROOT
HETATM    1  C12 UNL     1     -34.874  15.620  -2.358  1.00 20.00    -0.008 C 
ENDROOT
BRANCH   1   2
HETATM    2  C6  UNL     1     -36.086  16.173  -3.134  1.00 20.00     0.083 C 
BRANCH   2   3
HETATM    3  C1  UNL     1     -36.683  15.182  -4.127  1.00 20.00     0.130 C 
HETATM    4  O13 UNL     1     -37.239  14.147  -3.764  1.00 20.00    -0.298 OA
BRANCH   3   5
HETATM    5  C11 UNL     1     -36.568  15.557  -5.603  1.00 20.00     0.047 C 
HETATM    6  C4  UNL     1     -35.646  14.593  -6.343  1.00 20.00     0.017 C 
HETATM    7  C5  UNL     1     -36.071  16.992  -5.726  1.00 20.00     0.017 C 
ENDBRANCH   3   5
ENDBRANCH   2   3
ENDBRANCH   1   2
BRANCH   1   8
HETATM    8  C8  UNL     1     -33.630  15.546  -3.268  1.00 20.00     0.000 C 
HETATM    9  C3  UNL     1     -33.151  14.139  -3.602  1.00 20.00     0.005 C 
ENDBRANCH   1   8
BRANCH   1  10
HETATM   10  C10 UNL     1     -34.644  16.440  -1.066  1.00 20.00     0.005 C 
BRANCH  10  11
HETATM   11  C9  UNL     1     -33.676  17.613  -1.253  1.00 20.00     0.000 C 
BRANCH  11  12
HETATM   12  C7  UNL     1     -33.453  18.420   0.029  1.00 20.00    -0.005 C 
HETATM   13  C2  UNL     1     -32.009  18.853   0.229  1.00 20.00     0.005 C 
ENDBRANCH  11  12
ENDBRANCH  10  11
ENDBRANCH   1  10
TORSDOF 7
ENDMDL
MODEL 7
REMARK VINA RESULT:      -4.3      1.900      2.845
REMARK  7 active torsions:
REMARK  status: ('A' for Active; 'I' for Inactive)
REMARK    1  A    between atoms: C1_1  and  C6_6 
REMARK    2  A    between atoms: C1_1  and  C11_11 
REMARK    3  A    between atoms: C6_6  and  C12_12 
REMARK    4  A    between atoms: C7_7  and  C9_9 
REMARK    5  A    between atoms: C8_8  and  C12_12 
REMARK    6  A    between atoms: C9_9  and  C10_10 
REMARK    7  A    between atoms: C10_10  and  C12_12 
ROOT
HETATM    1  C12 UNL     1     -34.151  15.689  -3.571  1.00 20.00    -0.008 C 
ENDROOT
BRANCH   1   2
HETATM    2  C6  UNL     1     -33.210  16.027  -4.745  1.00 20.00     0.083 C 
BRANCH   2   3
HETATM    3  C1  UNL     1     -33.717  17.161  -5.629  1.00 20.00     0.130 C 
HETATM    4  O13 UNL     1     -33.416  18.336  -5.424  1.00 20.00    -0.298 OA
BRANCH   3   5
HETATM    5  C11 UNL     1     -34.608  16.755  -6.801  1.00 20.00     0.047 C 
HETATM    6  C4  UNL     1     -36.084  16.918  -6.450  1.00 20.00     0.017 C 
HETATM    7  C5  UNL     1     -34.297  15.317  -7.201  1.00 20.00     0.017 C 
ENDBRANCH   3   5
ENDBRANCH   2   3
ENDBRANCH   1   2
BRANCH   1   8
HETATM    8  C8  UNL     1     -34.208  14.164  -3.339  1.00 20.00     0.000 C 
HETATM    9  C3  UNL     1     -35.140  13.399  -4.270  1.00 20.00     0.005 C 
ENDBRANCH   1   8
BRANCH   1  10
HETATM   10  C10 UNL     1     -33.744  16.489  -2.310  1.00 20.00     0.005 C 
BRANCH  10  11
HETATM   11  C9  UNL     1     -34.766  16.396  -1.173  1.00 20.00     0.000 C 
BRANCH  11  12
HETATM   12  C7  UNL     1     -34.508  17.401  -0.047  1.00 20.00    -0.005 C 
HETATM   13  C2  UNL     1     -33.272  18.259  -0.272  1.00 20.00     0.005 C 
ENDBRANCH  11  12
ENDBRANCH  10  11
ENDBRANCH   1  10
TORSDOF 7
ENDMDL
MODEL 8
REMARK VINA RESULT:      -4.3      2.001      5.256
REMARK  7 active torsions:
REMARK  status: ('A' for Active; 'I' for Inactive)
REMARK    1  A    between atoms: C1_1  and  C6_6 
REMARK    2  A    between atoms: C1_1  and  C11_11 
REMARK    3  A    between atoms: C6_6  and  C12_12 
REMARK    4  A    between atoms: C7_7  and  C9_9 
REMARK    5  A    between atoms: C8_8  and  C12_12 
REMARK    6  A    between atoms: C9_9  and  C10_10 
REMARK    7  A    between atoms: C10_10  and  C12_12 
ROOT
HETATM    1  C12 UNL     1     -33.548  15.864  -3.299  1.00 20.00    -0.008 C 
ENDROOT
BRANCH   1   2
HETATM    2  C6  UNL     1     -34.931  15.861  -2.615  1.00 20.00     0.083 C 
BRANCH   2   3
HETATM    3  C1  UNL     1     -35.171  17.066  -1.712  1.00 20.00     0.130 C 
HETATM    4  O13 UNL     1     -35.993  17.939  -1.989  1.00 20.00    -0.298 OA
BRANCH   3   5
HETATM    5  C11 UNL     1     -34.344  17.121  -0.430  1.00 20.00     0.047 C 
HETATM    6  C4  UNL     1     -35.221  17.447   0.775  1.00 20.00     0.017 C 
HETATM    7  C5  UNL     1     -33.229  18.149  -0.587  1.00 20.00     0.017 C 
ENDBRANCH   3   5
ENDBRANCH   2   3
ENDBRANCH   1   2
BRANCH   1   8
HETATM    8  C8  UNL     1     -33.152  14.437  -3.734  1.00 20.00     0.000 C 
HETATM    9  C3  UNL     1     -34.296  13.433  -3.792  1.00 20.00     0.005 C 
ENDBRANCH   1   8
BRANCH   1  10
HETATM   10  C10 UNL     1     -33.523  16.891  -4.456  1.00 20.00     0.005 C 
BRANCH  10  11
HETATM   11  C9  UNL     1     -34.753  16.812  -5.367  1.00 20.00     0.000 C 
BRANCH  11  12
HETATM   12  C7  UNL     1     -34.407  16.458  -6.816  1.00 20.00    -0.005 C 
HETATM   13  C2  UNL     1     -34.599  14.986  -7.143  1.00 20.00     0.005 C 
ENDBRANCH  11  12
ENDBRANCH  10  11
ENDBRANCH   1  10
TORSDOF 7
ENDMDL
MODEL 9
REMARK VINA RESULT:      -4.3      1.382      3.424
REMARK  7 active torsions:
REMARK  status: ('A' for Active; 'I' for Inactive)
REMARK    1  A    between atoms: C1_1  and  C6_6 
REMARK    2  A    between atoms: C1_1  and  C11_11 
REMARK    3  A    between atoms: C6_6  and  C12_12 
REMARK    4  A    between atoms: C7_7  and  C9_9 
REMARK    5  A    between atoms: C8_8  and  C12_12 
REMARK    6  A    between atoms: C9_9  and  C10_10 
REMARK    7  A    between atoms: C10_10  and  C12_12 
ROOT
HETATM    1  C12 UNL     1     -34.709  15.801  -3.220  1.00 20.00    -0.008 C 
ENDROOT
BRANCH   1   2
HETATM    2  C6  UNL     1     -35.452  14.481  -3.511  1.00 20.00     0.083 C 
BRANCH   2   3
HETATM    3  C1  UNL     1     -36.796  14.675  -4.206  1.00 20.00     0.130 C 
HETATM    4  O13 UNL     1     -37.839  14.201  -3.758  1.00 20.00    -0.298 OA
BRANCH   3   5
HETATM    5  C11 UNL     1     -36.778  15.509  -5.485  1.00 20.00     0.047 C 
HETATM    6  C4  UNL     1     -38.195  15.840  -5.944  1.00 20.00     0.017 C 
HETATM    7  C5  UNL     1     -36.014  14.759  -6.571  1.00 20.00     0.017 C 
ENDBRANCH   3   5
ENDBRANCH   2   3
ENDBRANCH   1   2
BRANCH   1   8
HETATM    8  C8  UNL     1     -34.762  16.136  -1.714  1.00 20.00     0.000 C 
HETATM    9  C3  UNL     1     -33.809  17.233  -1.258  1.00 20.00     0.005 C 
ENDBRANCH   1   8
BRANCH   1  10
HETATM   10  C10 UNL     1     -33.271  15.743  -3.788  1.00 20.00     0.005 C 
BRANCH  10  11
HETATM   11  C9  UNL     1     -33.115  16.471  -5.127  1.00 20.00     0.000 C 
BRANCH  11  12
HETATM   12  C7  UNL     1     -33.653  17.905  -5.100  1.00 20.00    -0.005 C 
HETATM   13  C2  UNL     1     -34.426  18.287  -6.353  1.00 20.00     0.005 C 
ENDBRANCH  11  12
ENDBRANCH  10  11
ENDBRANCH   1  10
TORSDOF 7
ENDMDL
