MODEL 1
REMARK VINA RESULT:      -4.1      0.000      0.000
REMARK  0 active torsions:
REMARK  status: ('A' for Active; 'I' for Inactive)
ROOT
HETATM    1  C1  UNL     1     -33.933   5.626   3.907  1.00 20.00     0.137 C 
HETATM    2  C2  UNL     1     -34.919   5.145   6.130  1.00 20.00     0.108 C 
HETATM    3  C3  UNL     1     -34.987   4.929   4.636  1.00 20.00     0.326 C 
HETATM    4  N4  UNL     1     -33.096   6.180   3.325  1.00 20.00    -0.191 NA
HETATM    5  F5  UNL     1     -36.194   5.347   4.177  1.00 20.00    -0.190 F 
HETATM    6  F6  UNL     1     -34.907   3.600   4.370  1.00 20.00    -0.190 F 
ENDROOT
TORSDOF 0
ENDMDL
MODEL 2
REMARK VINA RESULT:      -4.0      2.081      2.599
REMARK  0 active torsions:
REMARK  status: ('A' for Active; 'I' for Inactive)
ROOT
HETATM    1  C1  UNL     1     -34.150   6.075   6.291  1.00 20.00     0.137 C 
HETATM    2  C2  UNL     1     -35.288   4.900   4.429  1.00 20.00     0.108 C 
HETATM    3  C3  UNL     1     -34.756   4.827   5.841  1.00 20.00     0.326 C 
HETATM    4  N4  UNL     1     -33.667   7.068   6.651  1.00 20.00    -0.191 NA
HETATM    5  F5  UNL     1     -33.834   3.834   5.922  1.00 20.00    -0.190 F 
HETATM    6  F6  UNL     1     -35.764   4.493   6.686  1.00 20.00    -0.190 F 
ENDROOT
TORSDOF 0
ENDMDL
MODEL 3
REMARK VINA RESULT:      -4.0      1.474      2.371
REMARK  0 active torsions:
REMARK  status: ('A' for Active; 'I' for Inactive)
ROOT
HETATM    1  C1  UNL     1     -34.560   5.682   5.491  1.00 20.00     0.137 C 
HETATM    2  C2  UNL     1     -34.098   5.327   3.081  1.00 20.00     0.108 C 
HETATM    3  C3  UNL     1     -35.005   5.044   4.257  1.00 20.00     0.326 C 
HETATM    4  N4  UNL     1     -34.207   6.189   6.474  1.00 20.00    -0.191 NA
HETATM    5  F5  UNL     1     -35.079   3.703   4.453  1.00 20.00    -0.190 F 
HETATM    6  F6  UNL     1     -36.262   5.467   3.967  1.00 20.00    -0.190 F 
ENDROOT
TORSDOF 0
ENDMDL
MODEL 4
REMARK VINA RESULT:      -3.9      1.752      1.883
REMARK  0 active torsions:
REMARK  status: ('A' for Active; 'I' for Inactive)
ROOT
HETATM    1  C1  UNL     1     -34.857   5.247   4.479  1.00 20.00     0.137 C 
HETATM    2  C2  UNL     1     -34.012   6.407   6.500  1.00 20.00     0.108 C 
HETATM    3  C3  UNL     1     -34.580   5.138   5.907  1.00 20.00     0.326 C 
HETATM    4  N4  UNL     1     -35.079   5.331   3.342  1.00 20.00    -0.191 NA
HETATM    5  F5  UNL     1     -35.726   4.813   6.557  1.00 20.00    -0.190 F 
HETATM    6  F6  UNL     1     -33.710   4.117   6.113  1.00 20.00    -0.190 F 
ENDROOT
TORSDOF 0
ENDMDL
MODEL 5
REMARK VINA RESULT:      -3.9      1.249      1.496
REMARK  0 active torsions:
REMARK  status: ('A' for Active; 'I' for Inactive)
ROOT
HETATM    1  C1  UNL     1     -33.734   5.794   4.304  1.00 20.00     0.137 C 
HETATM    2  C2  UNL     1     -34.557   3.796   5.519  1.00 20.00     0.108 C 
HETATM    3  C3  UNL     1     -34.802   5.234   5.124  1.00 20.00     0.326 C 
HETATM    4  N4  UNL     1     -32.884   6.241   3.651  1.00 20.00    -0.191 NA
HETATM    5  F5  UNL     1     -34.943   5.989   6.244  1.00 20.00    -0.190 F 
HETATM    6  F6  UNL     1     -35.974   5.320   4.445  1.00 20.00    -0.190 F 
ENDROOT
TORSDOF 0
ENDMDL
MODEL 6
REMARK VINA RESULT:      -3.7      1.961      2.606
REMARK  0 active torsions:
REMARK  status: ('A' for Active; 'I' for Inactive)
ROOT
HETATM    1  C1  UNL     1     -34.947   4.622   4.960  1.00 20.00     0.137 C 
HETATM    2  C2  UNL     1     -33.972   6.659   3.939  1.00 20.00     0.108 C 
HETATM    3  C3  UNL     1     -34.850   5.442   3.758  1.00 20.00     0.326 C 
HETATM    4  N4  UNL     1     -35.026   3.967   5.915  1.00 20.00    -0.191 NA
HETATM    5  F5  UNL     1     -34.362   4.684   2.743  1.00 20.00    -0.190 F 
HETATM    6  F6  UNL     1     -36.095   5.836   3.387  1.00 20.00    -0.190 F 
ENDROOT
TORSDOF 0
ENDMDL
MODEL 7
REMARK VINA RESULT:      -3.6      1.788      1.931
REMARK  0 active torsions:
REMARK  status: ('A' for Active; 'I' for Inactive)
ROOT
HETATM    1  C1  UNL     1     -34.253   6.115   5.731  1.00 20.00     0.137 C 
HETATM    2  C2  UNL     1     -34.857   3.768   5.209  1.00 20.00     0.108 C 
HETATM    3  C3  UNL     1     -34.717   5.187   4.706  1.00 20.00     0.326 C 
HETATM    4  N4  UNL     1     -33.884   6.855   6.546  1.00 20.00    -0.191 NA
HETATM    5  F5  UNL     1     -35.915   5.614   4.232  1.00 20.00    -0.190 F 
HETATM    6  F6  UNL     1     -33.852   5.210   3.661  1.00 20.00    -0.190 F 
ENDROOT
TORSDOF 0
ENDMDL
MODEL 8
REMARK VINA RESULT:      -3.6     12.339     12.843
REMARK  0 active torsions:
REMARK  status: ('A' for Active; 'I' for Inactive)
ROOT
HETATM    1  C1  UNL     1     -34.099  13.754  -4.129  1.00 20.00     0.137 C 
HETATM    2  C2  UNL     1     -33.285  16.013  -4.745  1.00 20.00     0.108 C 
HETATM    3  C3  UNL     1     -33.304  14.906  -3.716  1.00 20.00     0.326 C 
HETATM    4  N4  UNL     1     -34.731  12.837  -4.456  1.00 20.00    -0.191 NA
HETATM    5  F5  UNL     1     -33.798  15.388  -2.547  1.00 20.00    -0.190 F 
HETATM    6  F6  UNL     1     -32.033  14.502  -3.467  1.00 20.00    -0.190 F 
ENDROOT
TORSDOF 0
ENDMDL
MODEL 9
REMARK VINA RESULT:      -3.5      2.325      2.717
REMARK  0 active torsions:
REMARK  status: ('A' for Active; 'I' for Inactive)
ROOT
HETATM    1  C1  UNL     1     -34.694   4.746   4.967  1.00 20.00     0.137 C 
HETATM    2  C2  UNL     1     -33.806   6.691   6.222  1.00 20.00     0.108 C 
HETATM    3  C3  UNL     1     -34.020   6.037   4.876  1.00 20.00     0.326 C 
HETATM    4  N4  UNL     1     -35.229   3.719   5.037  1.00 20.00    -0.191 NA
HETATM    5  F5  UNL     1     -32.821   5.869   4.264  1.00 20.00    -0.190 F 
HETATM    6  F6  UNL     1     -34.750   6.864   4.085  1.00 20.00    -0.190 F 
ENDROOT
TORSDOF 0
ENDMDL
