MODEL 1
REMARK VINA RESULT:      -4.4      0.000      0.000
REMARK  4 active torsions:
REMARK  status: ('A' for Active; 'I' for Inactive)
REMARK    1  A    between atoms: C1_1  and  C9_9 
REMARK    2  A    between atoms: C6_6  and  C7_7 
REMARK    3  A    between atoms: C6_6  and  C8_8 
REMARK    4  A    between atoms: C7_7  and  C9_9 
ROOT
HETATM    1  C7  UNL     1     -33.753   7.130   3.720  1.00 20.00     0.016 C 
ENDROOT
BRANCH   1   2
HETATM    2  C6  UNL     1     -34.373   5.733   3.875  1.00 20.00     0.005 C 
BRANCH   2   3
HETATM    3  C8  UNL     1     -34.909   5.459   5.295  1.00 20.00    -0.023 C 
HETATM    4  C2  UNL     1     -34.138   6.303   6.312  1.00 20.00     0.009 C 
HETATM    5  C3  UNL     1     -34.820   3.981   5.678  1.00 20.00     0.009 C 
ENDBRANCH   2   3
ENDBRANCH   1   2
BRANCH   1   6
HETATM    6  C9  UNL     1     -32.290   7.138   3.216  1.00 20.00     0.006 C 
HETATM    7  C4  UNL     1     -31.883   5.705   2.838  1.00 20.00     0.022 C 
HETATM    8  C5  UNL     1     -31.318   7.673   4.275  1.00 20.00     0.022 C 
BRANCH   6   9
HETATM    9  C1  UNL     1     -32.208   7.968   1.937  1.00 20.00     0.239 C 
HETATM   10  O10 UNL     1     -32.447   9.170   1.871  1.00 20.00    -0.306 OA
ENDBRANCH   6   9
ENDBRANCH   1   6
TORSDOF 4
ENDMDL
MODEL 2
REMARK VINA RESULT:      -4.4      1.889      4.344
REMARK  4 active torsions:
REMARK  status: ('A' for Active; 'I' for Inactive)
REMARK    1  A    between atoms: C1_1  and  C9_9 
REMARK    2  A    between atoms: C6_6  and  C7_7 
REMARK    3  A    between atoms: C6_6  and  C8_8 
REMARK    4  A    between atoms: C7_7  and  C9_9 
ROOT
HETATM    1  C7  UNL     1     -33.138   5.531   4.232  1.00 20.00     0.016 C 
ENDROOT
BRANCH   1   2
HETATM    2  C6  UNL     1     -33.219   6.386   2.958  1.00 20.00     0.005 C 
BRANCH   2   3
HETATM    3  C8  UNL     1     -31.958   7.241   2.718  1.00 20.00    -0.023 C 
HETATM    4  C2  UNL     1     -31.374   7.690   4.060  1.00 20.00     0.009 C 
HETATM    5  C3  UNL     1     -32.238   8.463   1.843  1.00 20.00     0.009 C 
ENDBRANCH   2   3
ENDBRANCH   1   2
BRANCH   1   6
HETATM    6  C9  UNL     1     -34.496   5.286   4.935  1.00 20.00     0.006 C 
HETATM    7  C4  UNL     1     -34.592   3.806   5.336  1.00 20.00     0.022 C 
HETATM    8  C5  UNL     1     -35.684   5.641   4.032  1.00 20.00     0.022 C 
BRANCH   6   9
HETATM    9  C1  UNL     1     -34.539   6.094   6.229  1.00 20.00     0.239 C 
HETATM   10  O10 UNL     1     -33.651   6.853   6.606  1.00 20.00    -0.306 OA
ENDBRANCH   6   9
ENDBRANCH   1   6
TORSDOF 4
ENDMDL
MODEL 3
REMARK VINA RESULT:      -4.3     10.820     11.841
REMARK  4 active torsions:
REMARK  status: ('A' for Active; 'I' for Inactive)
REMARK    1  A    between atoms: C1_1  and  C9_9 
REMARK    2  A    between atoms: C6_6  and  C7_7 
REMARK    3  A    between atoms: C6_6  and  C8_8 
REMARK    4  A    between atoms: C7_7  and  C9_9 
ROOT
HETATM    1  C7  UNL     1     -34.693  15.497  -2.645  1.00 20.00     0.016 C 
ENDROOT
BRANCH   1   2
HETATM    2  C6  UNL     1     -34.143  16.927  -2.521  1.00 20.00     0.005 C 
BRANCH   2   3
HETATM    3  C8  UNL     1     -33.683  17.280  -1.093  1.00 20.00    -0.023 C 
HETATM    4  C2  UNL     1     -34.839  17.075  -0.111  1.00 20.00     0.009 C 
HETATM    5  C3  UNL     1     -33.162  18.713  -0.984  1.00 20.00     0.009 C 
ENDBRANCH   2   3
ENDBRANCH   1   2
BRANCH   1   6
HETATM    6  C9  UNL     1     -34.196  14.716  -3.886  1.00 20.00     0.006 C 
HETATM    7  C4  UNL     1     -32.846  14.059  -3.556  1.00 20.00     0.022 C 
HETATM    8  C5  UNL     1     -34.025  15.626  -5.109  1.00 20.00     0.022 C 
BRANCH   6   9
HETATM    9  C1  UNL     1     -35.172  13.583  -4.186  1.00 20.00     0.239 C 
HETATM   10  O10 UNL     1     -34.869  12.531  -4.740  1.00 20.00    -0.306 OA
ENDBRANCH   6   9
ENDBRANCH   1   6
TORSDOF 4
ENDMDL
MODEL 4
REMARK VINA RESULT:      -4.3     11.256     12.167
REMARK  4 active torsions:
REMARK  status: ('A' for Active; 'I' for Inactive)
REMARK    1  A    between atoms: C1_1  and  C9_9 
REMARK    2  A    between atoms: C6_6  and  C7_7 
REMARK    3  A    between atoms: C6_6  and  C8_8 
REMARK    4  A    between atoms: C7_7  and  C9_9 
ROOT
HETATM    1  C7  UNL     1     -33.930  15.114  -3.466  1.00 20.00     0.016 C 
ENDROOT
BRANCH   1   2
HETATM    2  C6  UNL     1     -34.719  15.656  -2.263  1.00 20.00     0.005 C 
BRANCH   2   3
HETATM    3  C8  UNL     1     -33.988  16.791  -1.518  1.00 20.00    -0.023 C 
HETATM    4  C2  UNL     1     -34.727  17.116  -0.218  1.00 20.00     0.009 C 
HETATM    5  C3  UNL     1     -33.854  18.056  -2.366  1.00 20.00     0.009 C 
ENDBRANCH   2   3
ENDBRANCH   1   2
BRANCH   1   6
HETATM    6  C9  UNL     1     -34.735  15.034  -4.786  1.00 20.00     0.006 C 
HETATM    7  C4  UNL     1     -33.979  15.805  -5.881  1.00 20.00     0.022 C 
HETATM    8  C5  UNL     1     -36.143  15.624  -4.639  1.00 20.00     0.022 C 
BRANCH   6   9
HETATM    9  C1  UNL     1     -34.802  13.579  -5.241  1.00 20.00     0.239 C 
HETATM   10  O10 UNL     1     -34.977  12.623  -4.493  1.00 20.00    -0.306 OA
ENDBRANCH   6   9
ENDBRANCH   1   6
TORSDOF 4
ENDMDL
MODEL 5
REMARK VINA RESULT:      -4.2      2.407      4.532
REMARK  4 active torsions:
REMARK  status: ('A' for Active; 'I' for Inactive)
REMARK    1  A    between atoms: C1_1  and  C9_9 
REMARK    2  A    between atoms: C6_6  and  C7_7 
REMARK    3  A    between atoms: C6_6  and  C8_8 
REMARK    4  A    between atoms: C7_7  and  C9_9 
ROOT
HETATM    1  C7  UNL     1     -32.943   5.645   4.198  1.00 20.00     0.016 C 
ENDROOT
BRANCH   1   2
HETATM    2  C6  UNL     1     -33.068   6.434   2.885  1.00 20.00     0.005 C 
BRANCH   2   3
HETATM    3  C8  UNL     1     -31.888   7.396   2.639  1.00 20.00    -0.023 C 
HETATM    4  C2  UNL     1     -31.288   7.834   3.977  1.00 20.00     0.009 C 
HETATM    5  C3  UNL     1     -32.296   8.627   1.829  1.00 20.00     0.009 C 
ENDBRANCH   2   3
ENDBRANCH   1   2
BRANCH   1   6
HETATM    6  C9  UNL     1     -34.226   5.621   5.064  1.00 20.00     0.006 C 
HETATM    7  C4  UNL     1     -35.434   5.967   4.178  1.00 20.00     0.022 C 
HETATM    8  C5  UNL     1     -34.156   6.618   6.227  1.00 20.00     0.022 C 
BRANCH   6   9
HETATM    9  C1  UNL     1     -34.453   4.202   5.578  1.00 20.00     0.239 C 
HETATM   10  O10 UNL     1     -35.177   3.373   5.037  1.00 20.00    -0.306 OA
ENDBRANCH   6   9
ENDBRANCH   1   6
TORSDOF 4
ENDMDL
MODEL 6
REMARK VINA RESULT:      -4.1     11.141     12.425
REMARK  4 active torsions:
REMARK  status: ('A' for Active; 'I' for Inactive)
REMARK    1  A    between atoms: C1_1  and  C9_9 
REMARK    2  A    between atoms: C6_6  and  C7_7 
REMARK    3  A    between atoms: C6_6  and  C8_8 
REMARK    4  A    between atoms: C7_7  and  C9_9 
ROOT
HETATM    1  C7  UNL     1     -33.912  15.681  -4.796  1.00 20.00     0.016 C 
ENDROOT
BRANCH   1   2
HETATM    2  C6  UNL     1     -33.370  15.437  -3.378  1.00 20.00     0.005 C 
BRANCH   2   3
HETATM    3  C8  UNL     1     -33.613  16.622  -2.422  1.00 20.00    -0.023 C 
HETATM    4  C2  UNL     1     -34.762  16.290  -1.467  1.00 20.00     0.009 C 
HETATM    5  C3  UNL     1     -33.922  17.921  -3.168  1.00 20.00     0.009 C 
ENDBRANCH   2   3
ENDBRANCH   1   2
BRANCH   1   6
HETATM    6  C9  UNL     1     -35.209  14.908  -5.135  1.00 20.00     0.006 C 
HETATM    7  C4  UNL     1     -35.113  14.376  -6.574  1.00 20.00     0.022 C 
HETATM    8  C5  UNL     1     -36.456  15.792  -5.009  1.00 20.00     0.022 C 
BRANCH   6   9
HETATM    9  C1  UNL     1     -35.315  13.688  -4.224  1.00 20.00     0.239 C 
HETATM   10  O10 UNL     1     -34.974  12.552  -4.539  1.00 20.00    -0.306 OA
ENDBRANCH   6   9
ENDBRANCH   1   6
TORSDOF 4
ENDMDL
MODEL 7
REMARK VINA RESULT:      -3.9     11.423     12.225
REMARK  4 active torsions:
REMARK  status: ('A' for Active; 'I' for Inactive)
REMARK    1  A    between atoms: C1_1  and  C9_9 
REMARK    2  A    between atoms: C6_6  and  C7_7 
REMARK    3  A    between atoms: C6_6  and  C8_8 
REMARK    4  A    between atoms: C7_7  and  C9_9 
ROOT
HETATM    1  C7  UNL     1     -34.096  15.130  -3.049  1.00 20.00     0.016 C 
ENDROOT
BRANCH   1   2
HETATM    2  C6  UNL     1     -34.941  15.945  -2.057  1.00 20.00     0.005 C 
BRANCH   2   3
HETATM    3  C8  UNL     1     -34.102  16.906  -1.190  1.00 20.00    -0.023 C 
HETATM    4  C2  UNL     1     -34.862  17.241   0.096  1.00 20.00     0.009 C 
HETATM    5  C3  UNL     1     -33.744  18.197  -1.928  1.00 20.00     0.009 C 
ENDBRANCH   2   3
ENDBRANCH   1   2
BRANCH   1   6
HETATM    6  C9  UNL     1     -34.697  15.018  -4.471  1.00 20.00     0.006 C 
HETATM    7  C4  UNL     1     -36.106  15.632  -4.469  1.00 20.00     0.022 C 
HETATM    8  C5  UNL     1     -34.784  13.563  -4.947  1.00 20.00     0.022 C 
BRANCH   6   9
HETATM    9  C1  UNL     1     -33.857  15.853  -5.433  1.00 20.00     0.239 C 
HETATM   10  O10 UNL     1     -32.912  16.561  -5.099  1.00 20.00    -0.306 OA
ENDBRANCH   6   9
ENDBRANCH   1   6
TORSDOF 4
ENDMDL
MODEL 8
REMARK VINA RESULT:      -3.9     10.929     12.979
REMARK  4 active torsions:
REMARK  status: ('A' for Active; 'I' for Inactive)
REMARK    1  A    between atoms: C1_1  and  C9_9 
REMARK    2  A    between atoms: C6_6  and  C7_7 
REMARK    3  A    between atoms: C6_6  and  C8_8 
REMARK    4  A    between atoms: C7_7  and  C9_9 
ROOT
HETATM    1  C7  UNL     1     -34.409  16.717  -4.211  1.00 20.00     0.016 C 
ENDROOT
BRANCH   1   2
HETATM    2  C6  UNL     1     -33.504  16.266  -5.368  1.00 20.00     0.005 C 
BRANCH   2   3
HETATM    3  C8  UNL     1     -34.239  16.190  -6.722  1.00 20.00    -0.023 C 
HETATM    4  C2  UNL     1     -35.464  17.106  -6.698  1.00 20.00     0.009 C 
HETATM    5  C3  UNL     1     -34.667  14.765  -7.075  1.00 20.00     0.009 C 
ENDBRANCH   2   3
ENDBRANCH   1   2
BRANCH   1   6
HETATM    6  C9  UNL     1     -34.750  15.609  -3.186  1.00 20.00     0.006 C 
HETATM    7  C4  UNL     1     -36.187  15.123  -3.434  1.00 20.00     0.022 C 
HETATM    8  C5  UNL     1     -34.631  16.105  -1.740  1.00 20.00     0.022 C 
BRANCH   6   9
HETATM    9  C1  UNL     1     -33.836  14.411  -3.425  1.00 20.00     0.239 C 
HETATM   10  O10 UNL     1     -34.220  13.249  -3.521  1.00 20.00    -0.306 OA
ENDBRANCH   6   9
ENDBRANCH   1   6
TORSDOF 4
ENDMDL
MODEL 9
REMARK VINA RESULT:      -3.8      1.060      1.771
REMARK  4 active torsions:
REMARK  status: ('A' for Active; 'I' for Inactive)
REMARK    1  A    between atoms: C1_1  and  C9_9 
REMARK    2  A    between atoms: C6_6  and  C7_7 
REMARK    3  A    between atoms: C6_6  and  C8_8 
REMARK    4  A    between atoms: C7_7  and  C9_9 
ROOT
HETATM    1  C7  UNL     1     -33.769   7.091   3.821  1.00 20.00     0.016 C 
ENDROOT
BRANCH   1   2
HETATM    2  C6  UNL     1     -34.541   5.767   3.935  1.00 20.00     0.005 C 
BRANCH   2   3
HETATM    3  C8  UNL     1     -34.938   5.417   5.383  1.00 20.00    -0.023 C 
HETATM    4  C2  UNL     1     -34.103   6.243   6.364  1.00 20.00     0.009 C 
HETATM    5  C3  UNL     1     -34.773   3.929   5.692  1.00 20.00     0.009 C 
ENDBRANCH   2   3
ENDBRANCH   1   2
BRANCH   1   6
HETATM    6  C9  UNL     1     -32.435   6.998   3.043  1.00 20.00     0.006 C 
HETATM    7  C4  UNL     1     -32.423   8.068   1.939  1.00 20.00     0.022 C 
HETATM    8  C5  UNL     1     -32.233   5.618   2.406  1.00 20.00     0.022 C 
BRANCH   6   9
HETATM    9  C1  UNL     1     -31.283   7.333   3.988  1.00 20.00     0.239 C 
HETATM   10  O10 UNL     1     -31.272   8.284   4.763  1.00 20.00    -0.306 OA
ENDBRANCH   6   9
ENDBRANCH   1   6
TORSDOF 4
ENDMDL
