MODEL 1
REMARK VINA RESULT:      -5.0      0.000      0.000
REMARK  7 active torsions:
REMARK  status: ('A' for Active; 'I' for Inactive)
REMARK    1  A    between atoms: C1_1  and  C6_6 
REMARK    2  A    between atoms: C2_2  and  C7_7 
REMARK    3  A    between atoms: C3_3  and  C8_8 
REMARK    4  A    between atoms: C6_6  and  C10_10 
REMARK    5  A    between atoms: C7_7  and  C11_11 
REMARK    6  A    between atoms: C8_8  and  C10_10 
REMARK    7  A    between atoms: C9_9  and  C11_11 
ROOT
HETATM    1  C1  UNL     1     -34.395  16.624  -1.302  1.00 20.00    -0.107 C 
HETATM    2  C2  UNL     1     -34.137  17.380  -0.405  1.00 20.00    -0.107 C 
ENDROOT
BRANCH   1   3
HETATM    3  C6  UNL     1     -34.699  15.717  -2.416  1.00 20.00     0.094 C 
BRANCH   3   4
HETATM    4  C10 UNL     1     -33.489  15.503  -3.328  1.00 20.00     0.019 C 
BRANCH   4   5
HETATM    5  C8  UNL     1     -33.309  14.042  -3.743  1.00 20.00     0.079 C 
BRANCH   5   6
HETATM    6  C3  UNL     1     -34.402  13.566  -4.683  1.00 20.00     0.123 C 
HETATM    7  C4  UNL     1     -34.640  14.413  -5.907  1.00 20.00     0.091 C 
HETATM    8  O12 UNL     1     -35.065  12.551  -4.477  1.00 20.00    -0.298 OA
ENDBRANCH   5   6
ENDBRANCH   4   5
ENDBRANCH   3   4
ENDBRANCH   1   3
BRANCH   2   9
HETATM    9  C7  UNL     1     -33.807  18.319   0.675  1.00 20.00     0.094 C 
BRANCH   9  10
HETATM   10  C11 UNL     1     -32.477  19.035   0.428  1.00 20.00     0.012 C 
BRANCH  10  11
HETATM   11  C9  UNL     1     -31.584  19.081   1.671  1.00 20.00    -0.004 C 
HETATM   12  C5  UNL     1     -32.348  18.665   2.919  1.00 20.00     0.005 C 
ENDBRANCH  10  11
ENDBRANCH   9  10
ENDBRANCH   2   9
TORSDOF 7
ENDMDL
MODEL 2
REMARK VINA RESULT:      -4.9      1.055      1.563
REMARK  7 active torsions:
REMARK  status: ('A' for Active; 'I' for Inactive)
REMARK    1  A    between atoms: C1_1  and  C6_6 
REMARK    2  A    between atoms: C2_2  and  C7_7 
REMARK    3  A    between atoms: C3_3  and  C8_8 
REMARK    4  A    between atoms: C6_6  and  C10_10 
REMARK    5  A    between atoms: C7_7  and  C11_11 
REMARK    6  A    between atoms: C8_8  and  C10_10 
REMARK    7  A    between atoms: C9_9  and  C11_11 
ROOT
HETATM    1  C1  UNL     1     -34.656  16.511  -1.224  1.00 20.00    -0.107 C 
HETATM    2  C2  UNL     1     -34.522  17.212  -0.258  1.00 20.00    -0.107 C 
ENDROOT
BRANCH   1   3
HETATM    3  C6  UNL     1     -34.833  15.635  -2.389  1.00 20.00     0.094 C 
BRANCH   3   4
HETATM    4  C10 UNL     1     -33.554  15.520  -3.219  1.00 20.00     0.019 C 
BRANCH   4   5
HETATM    5  C8  UNL     1     -33.293  14.097  -3.716  1.00 20.00     0.079 C 
BRANCH   5   6
HETATM    6  C3  UNL     1     -34.373  13.606  -4.663  1.00 20.00     0.123 C 
HETATM    7  C4  UNL     1     -34.609  14.443  -5.894  1.00 20.00     0.091 C 
HETATM    8  O12 UNL     1     -35.028  12.584  -4.458  1.00 20.00    -0.298 OA
ENDBRANCH   5   6
ENDBRANCH   4   5
ENDBRANCH   3   4
ENDBRANCH   1   3
BRANCH   2   9
HETATM    9  C7  UNL     1     -34.373  18.053   0.937  1.00 20.00     0.094 C 
BRANCH   9  10
HETATM   10  C11 UNL     1     -35.303  17.611   2.070  1.00 20.00     0.012 C 
BRANCH  10  11
HETATM   11  C9  UNL     1     -34.780  18.001   3.456  1.00 20.00    -0.004 C 
HETATM   12  C5  UNL     1     -33.328  18.448   3.396  1.00 20.00     0.005 C 
ENDBRANCH  10  11
ENDBRANCH   9  10
ENDBRANCH   2   9
TORSDOF 7
ENDMDL
MODEL 3
REMARK VINA RESULT:      -4.8      1.095      1.898
REMARK  7 active torsions:
REMARK  status: ('A' for Active; 'I' for Inactive)
REMARK    1  A    between atoms: C1_1  and  C6_6 
REMARK    2  A    between atoms: C2_2  and  C7_7 
REMARK    3  A    between atoms: C3_3  and  C8_8 
REMARK    4  A    between atoms: C6_6  and  C10_10 
REMARK    5  A    between atoms: C7_7  and  C11_11 
REMARK    6  A    between atoms: C8_8  and  C10_10 
REMARK    7  A    between atoms: C9_9  and  C11_11 
ROOT
HETATM    1  C1  UNL     1     -33.770  16.238  -2.582  1.00 20.00    -0.107 C 
HETATM    2  C2  UNL     1     -34.244  16.565  -1.528  1.00 20.00    -0.107 C 
ENDROOT
BRANCH   1   3
HETATM    3  C6  UNL     1     -33.165  15.843  -3.861  1.00 20.00     0.094 C 
BRANCH   3   4
HETATM    4  C10 UNL     1     -34.155  15.951  -5.021  1.00 20.00     0.019 C 
BRANCH   4   5
HETATM    5  C8  UNL     1     -34.527  14.591  -5.615  1.00 20.00     0.079 C 
BRANCH   5   6
HETATM    6  C3  UNL     1     -35.350  13.746  -4.659  1.00 20.00     0.123 C 
HETATM    7  C4  UNL     1     -36.591  14.394  -4.101  1.00 20.00     0.091 C 
HETATM    8  O12 UNL     1     -35.041  12.597  -4.347  1.00 20.00    -0.298 OA
ENDBRANCH   5   6
ENDBRANCH   4   5
ENDBRANCH   3   4
ENDBRANCH   1   3
BRANCH   2   9
HETATM    9  C7  UNL     1     -34.800  16.964  -0.229  1.00 20.00     0.094 C 
BRANCH   9  10
HETATM   10  C11 UNL     1     -34.146  18.239   0.308  1.00 20.00     0.012 C 
BRANCH  10  11
HETATM   11  C9  UNL     1     -32.763  18.501  -0.296  1.00 20.00    -0.004 C 
HETATM   12  C5  UNL     1     -31.795  19.041   0.745  1.00 20.00     0.005 C 
ENDBRANCH  10  11
ENDBRANCH   9  10
ENDBRANCH   2   9
TORSDOF 7
ENDMDL
MODEL 4
REMARK VINA RESULT:      -4.6      1.409      2.094
REMARK  7 active torsions:
REMARK  status: ('A' for Active; 'I' for Inactive)
REMARK    1  A    between atoms: C1_1  and  C6_6 
REMARK    2  A    between atoms: C2_2  and  C7_7 
REMARK    3  A    between atoms: C3_3  and  C8_8 
REMARK    4  A    between atoms: C6_6  and  C10_10 
REMARK    5  A    between atoms: C7_7  and  C11_11 
REMARK    6  A    between atoms: C8_8  and  C10_10 
REMARK    7  A    between atoms: C9_9  and  C11_11 
ROOT
HETATM    1  C1  UNL     1     -33.686  16.081  -2.599  1.00 20.00    -0.107 C 
HETATM    2  C2  UNL     1     -34.192  16.524  -1.604  1.00 20.00    -0.107 C 
ENDROOT
BRANCH   1   3
HETATM    3  C6  UNL     1     -33.089  15.545  -3.829  1.00 20.00     0.094 C 
BRANCH   3   4
HETATM    4  C10 UNL     1     -33.953  15.833  -5.058  1.00 20.00     0.019 C 
BRANCH   4   5
HETATM    5  C8  UNL     1     -34.555  14.568  -5.672  1.00 20.00     0.079 C 
BRANCH   5   6
HETATM    6  C3  UNL     1     -35.359  13.761  -4.668  1.00 20.00     0.123 C 
HETATM    7  C4  UNL     1     -36.615  14.412  -4.147  1.00 20.00     0.091 C 
HETATM    8  O12 UNL     1     -35.023  12.639  -4.289  1.00 20.00    -0.298 OA
ENDBRANCH   5   6
ENDBRANCH   4   5
ENDBRANCH   3   4
ENDBRANCH   1   3
BRANCH   2   9
HETATM    9  C7  UNL     1     -34.831  17.076  -0.402  1.00 20.00     0.094 C 
BRANCH   9  10
HETATM   10  C11 UNL     1     -33.923  18.068   0.328  1.00 20.00     0.012 C 
BRANCH  10  11
HETATM   11  C9  UNL     1     -34.551  18.619   1.612  1.00 20.00    -0.004 C 
HETATM   12  C5  UNL     1     -35.367  17.556   2.331  1.00 20.00     0.005 C 
ENDBRANCH  10  11
ENDBRANCH   9  10
ENDBRANCH   2   9
TORSDOF 7
ENDMDL
MODEL 5
REMARK VINA RESULT:      -4.6     10.427     11.535
REMARK  7 active torsions:
REMARK  status: ('A' for Active; 'I' for Inactive)
REMARK    1  A    between atoms: C1_1  and  C6_6 
REMARK    2  A    between atoms: C2_2  and  C7_7 
REMARK    3  A    between atoms: C3_3  and  C8_8 
REMARK    4  A    between atoms: C6_6  and  C10_10 
REMARK    5  A    between atoms: C7_7  and  C11_11 
REMARK    6  A    between atoms: C8_8  and  C10_10 
REMARK    7  A    between atoms: C9_9  and  C11_11 
ROOT
HETATM    1  C1  UNL     1     -33.085   5.904   3.311  1.00 20.00    -0.107 C 
HETATM    2  C2  UNL     1     -34.174   5.529   3.653  1.00 20.00    -0.107 C 
ENDROOT
BRANCH   1   3
HETATM    3  C6  UNL     1     -31.756   6.384   2.910  1.00 20.00     0.094 C 
BRANCH   3   4
HETATM    4  C10 UNL     1     -31.747   7.890   2.645  1.00 20.00     0.019 C 
BRANCH   4   5
HETATM    5  C8  UNL     1     -31.602   8.232   1.160  1.00 20.00     0.079 C 
BRANCH   5   6
HETATM    6  C3  UNL     1     -32.528   9.356   0.731  1.00 20.00     0.123 C 
HETATM    7  C4  UNL     1     -32.847  10.389   1.780  1.00 20.00     0.091 C 
HETATM    8  O12 UNL     1     -32.998   9.438  -0.403  1.00 20.00    -0.298 OA
ENDBRANCH   5   6
ENDBRANCH   4   5
ENDBRANCH   3   4
ENDBRANCH   1   3
BRANCH   2   9
HETATM    9  C7  UNL     1     -35.505   5.089   4.090  1.00 20.00     0.094 C 
BRANCH   9  10
HETATM   10  C11 UNL     1     -35.435   4.174   5.315  1.00 20.00     0.012 C 
BRANCH  10  11
HETATM   11  C9  UNL     1     -34.321   4.568   6.291  1.00 20.00    -0.004 C 
HETATM   12  C5  UNL     1     -34.431   6.030   6.697  1.00 20.00     0.005 C 
ENDBRANCH  10  11
ENDBRANCH   9  10
ENDBRANCH   2   9
TORSDOF 7
ENDMDL
MODEL 6
REMARK VINA RESULT:      -4.5     10.896     12.034
REMARK  7 active torsions:
REMARK  status: ('A' for Active; 'I' for Inactive)
REMARK    1  A    between atoms: C1_1  and  C6_6 
REMARK    2  A    between atoms: C2_2  and  C7_7 
REMARK    3  A    between atoms: C3_3  and  C8_8 
REMARK    4  A    between atoms: C6_6  and  C10_10 
REMARK    5  A    between atoms: C7_7  and  C11_11 
REMARK    6  A    between atoms: C8_8  and  C10_10 
REMARK    7  A    between atoms: C9_9  and  C11_11 
ROOT
HETATM    1  C1  UNL     1     -33.432   6.041   2.876  1.00 20.00    -0.107 C 
HETATM    2  C2  UNL     1     -32.592   6.891   2.762  1.00 20.00    -0.107 C 
ENDROOT
BRANCH   1   3
HETATM    3  C6  UNL     1     -34.476   5.015   3.000  1.00 20.00     0.094 C 
BRANCH   3   4
HETATM    4  C10 UNL     1     -35.479   5.349   4.105  1.00 20.00     0.019 C 
BRANCH   4   5
HETATM    5  C8  UNL     1     -35.313   4.469   5.345  1.00 20.00     0.079 C 
BRANCH   5   6
HETATM    6  C3  UNL     1     -34.252   4.997   6.294  1.00 20.00     0.123 C 
HETATM    7  C4  UNL     1     -34.125   6.497   6.378  1.00 20.00     0.091 C 
HETATM    8  O12 UNL     1     -33.530   4.262   6.966  1.00 20.00    -0.298 OA
ENDBRANCH   5   6
ENDBRANCH   4   5
ENDBRANCH   3   4
ENDBRANCH   1   3
BRANCH   2   9
HETATM    9  C7  UNL     1     -31.579   7.943   2.604  1.00 20.00     0.094 C 
BRANCH   9  10
HETATM   10  C11 UNL     1     -31.489   8.442   1.160  1.00 20.00     0.012 C 
BRANCH  10  11
HETATM   11  C9  UNL     1     -32.456   9.593   0.865  1.00 20.00    -0.004 C 
HETATM   12  C5  UNL     1     -32.770  10.390   2.122  1.00 20.00     0.005 C 
ENDBRANCH  10  11
ENDBRANCH   9  10
ENDBRANCH   2   9
TORSDOF 7
ENDMDL
MODEL 7
REMARK VINA RESULT:      -4.5      2.758      6.913
REMARK  7 active torsions:
REMARK  status: ('A' for Active; 'I' for Inactive)
REMARK    1  A    between atoms: C1_1  and  C6_6 
REMARK    2  A    between atoms: C2_2  and  C7_7 
REMARK    3  A    between atoms: C3_3  and  C8_8 
REMARK    4  A    between atoms: C6_6  and  C10_10 
REMARK    5  A    between atoms: C7_7  and  C11_11 
REMARK    6  A    between atoms: C8_8  and  C10_10 
REMARK    7  A    between atoms: C9_9  and  C11_11 
ROOT
HETATM    1  C1  UNL     1     -34.203  16.966  -1.221  1.00 20.00    -0.107 C 
HETATM    2  C2  UNL     1     -33.862  16.683  -2.338  1.00 20.00    -0.107 C 
ENDROOT
BRANCH   1   3
HETATM    3  C6  UNL     1     -34.601  17.294   0.154  1.00 20.00     0.094 C 
BRANCH   3   4
HETATM    4  C10 UNL     1     -34.181  18.709   0.551  1.00 20.00     0.019 C 
BRANCH   4   5
HETATM    5  C8  UNL     1     -33.269  18.737   1.779  1.00 20.00     0.079 C 
BRANCH   5   6
HETATM    6  C3  UNL     1     -31.835  19.091   1.428  1.00 20.00     0.123 C 
HETATM    7  C4  UNL     1     -30.891  19.263   2.591  1.00 20.00     0.091 C 
HETATM    8  O12 UNL     1     -31.445  19.231   0.270  1.00 20.00    -0.298 OA
ENDBRANCH   5   6
ENDBRANCH   4   5
ENDBRANCH   3   4
ENDBRANCH   1   3
BRANCH   2   9
HETATM    9  C7  UNL     1     -33.426  16.323  -3.693  1.00 20.00     0.094 C 
BRANCH   9  10
HETATM   10  C11 UNL     1     -33.199  14.817  -3.843  1.00 20.00     0.012 C 
BRANCH  10  11
HETATM   11  C9  UNL     1     -34.460  13.994  -3.563  1.00 20.00    -0.004 C 
HETATM   12  C5  UNL     1     -34.867  13.172  -4.777  1.00 20.00     0.005 C 
ENDBRANCH  10  11
ENDBRANCH   9  10
ENDBRANCH   2   9
TORSDOF 7
ENDMDL
MODEL 8
REMARK VINA RESULT:      -4.5      2.004      3.130
REMARK  7 active torsions:
REMARK  status: ('A' for Active; 'I' for Inactive)
REMARK    1  A    between atoms: C1_1  and  C6_6 
REMARK    2  A    between atoms: C2_2  and  C7_7 
REMARK    3  A    between atoms: C3_3  and  C8_8 
REMARK    4  A    between atoms: C6_6  and  C10_10 
REMARK    5  A    between atoms: C7_7  and  C11_11 
REMARK    6  A    between atoms: C8_8  and  C10_10 
REMARK    7  A    between atoms: C9_9  and  C11_11 
ROOT
HETATM    1  C1  UNL     1     -34.050  17.537  -4.866  1.00 20.00    -0.107 C 
HETATM    2  C2  UNL     1     -33.901  17.943  -3.745  1.00 20.00    -0.107 C 
ENDROOT
BRANCH   1   3
HETATM    3  C6  UNL     1     -34.211  17.057  -6.245  1.00 20.00     0.094 C 
BRANCH   3   4
HETATM    4  C10 UNL     1     -34.157  15.531  -6.329  1.00 20.00     0.019 C 
BRANCH   4   5
HETATM    5  C8  UNL     1     -35.156  14.848  -5.393  1.00 20.00     0.079 C 
BRANCH   5   6
HETATM    6  C3  UNL     1     -34.525  13.722  -4.593  1.00 20.00     0.123 C 
HETATM    7  C4  UNL     1     -33.376  14.109  -3.696  1.00 20.00     0.091 C 
HETATM    8  O12 UNL     1     -34.915  12.557  -4.656  1.00 20.00    -0.298 OA
ENDBRANCH   5   6
ENDBRANCH   4   5
ENDBRANCH   3   4
ENDBRANCH   1   3
BRANCH   2   9
HETATM    9  C7  UNL     1     -33.696  18.449  -2.382  1.00 20.00     0.094 C 
BRANCH   9  10
HETATM   10  C11 UNL     1     -33.459  17.319  -1.378  1.00 20.00     0.012 C 
BRANCH  10  11
HETATM   11  C9  UNL     1     -34.759  16.758  -0.794  1.00 20.00    -0.004 C 
HETATM   12  C5  UNL     1     -35.070  17.375   0.562  1.00 20.00     0.005 C 
ENDBRANCH  10  11
ENDBRANCH   9  10
ENDBRANCH   2   9
TORSDOF 7
ENDMDL
MODEL 9
REMARK VINA RESULT:      -4.4     10.507     11.533
REMARK  7 active torsions:
REMARK  status: ('A' for Active; 'I' for Inactive)
REMARK    1  A    between atoms: C1_1  and  C6_6 
REMARK    2  A    between atoms: C2_2  and  C7_7 
REMARK    3  A    between atoms: C3_3  and  C8_8 
REMARK    4  A    between atoms: C6_6  and  C10_10 
REMARK    5  A    between atoms: C7_7  and  C11_11 
REMARK    6  A    between atoms: C8_8  and  C10_10 
REMARK    7  A    between atoms: C9_9  and  C11_11 
ROOT
HETATM    1  C1  UNL     1     -33.073   6.569   3.947  1.00 20.00    -0.107 C 
HETATM    2  C2  UNL     1     -33.507   6.541   5.067  1.00 20.00    -0.107 C 
ENDROOT
BRANCH   1   3
HETATM    3  C6  UNL     1     -32.534   6.628   2.583  1.00 20.00     0.094 C 
BRANCH   3   4
HETATM    4  C10 UNL     1     -31.522   7.763   2.415  1.00 20.00     0.019 C 
BRANCH   4   5
HETATM    5  C8  UNL     1     -31.443   8.282   0.978  1.00 20.00     0.079 C 
BRANCH   5   6
HETATM    6  C3  UNL     1     -32.505   9.324   0.679  1.00 20.00     0.123 C 
HETATM    7  C4  UNL     1     -32.834  10.277   1.799  1.00 20.00     0.091 C 
HETATM    8  O12 UNL     1     -33.075   9.406  -0.409  1.00 20.00    -0.298 OA
ENDBRANCH   5   6
ENDBRANCH   4   5
ENDBRANCH   3   4
ENDBRANCH   1   3
BRANCH   2   9
HETATM    9  C7  UNL     1     -34.026   6.530   6.441  1.00 20.00     0.094 C 
BRANCH   9  10
HETATM   10  C11 UNL     1     -34.949   5.337   6.697  1.00 20.00     0.012 C 
BRANCH  10  11
HETATM   11  C9  UNL     1     -34.496   4.066   5.973  1.00 20.00    -0.004 C 
HETATM   12  C5  UNL     1     -35.288   3.843   4.694  1.00 20.00     0.005 C 
ENDBRANCH  10  11
ENDBRANCH   9  10
ENDBRANCH   2   9
TORSDOF 7
ENDMDL
