MODEL 1
REMARK VINA RESULT:      -4.8      0.000      0.000
REMARK  2 active torsions:
REMARK  status: ('A' for Active; 'I' for Inactive)
REMARK    1  A    between atoms: C6_6  and  C9_9 
REMARK    2  A    between atoms: C10_10  and  N12_12 
ROOT
HETATM    1  C1  UNL     1     -34.664  13.679  -5.130  1.00 20.00     0.092 C 
HETATM    2  C8  UNL     1     -34.267  15.179  -7.055  1.00 20.00     0.056 C 
HETATM    3  C10 UNL     1     -34.589  15.074  -5.574  1.00 20.00     0.289 C 
HETATM    4  N11 UNL     1     -34.725  12.576  -4.777  1.00 20.00    -0.195 NA
ENDROOT
BRANCH   3   5
HETATM    5  N12 UNL     1     -33.503  15.778  -4.803  1.00 20.00    -0.055 N 
HETATM    6  C4  UNL     1     -33.447  15.392  -3.346  1.00 20.00     0.237 C 
HETATM    7  C2  UNL     1     -34.572  16.056  -2.563  1.00 20.00     0.032 C 
HETATM    8  C6  UNL     1     -34.622  17.578  -2.747  1.00 20.00    -0.012 C 
HETATM    9  C3  UNL     1     -34.609  17.946  -4.237  1.00 20.00     0.032 C 
HETATM   10  C5  UNL     1     -33.483  17.271  -5.011  1.00 20.00     0.237 C 
HETATM   11  H31 UNL     1     -32.595  15.421  -5.226  1.00 20.00     0.281 HD
BRANCH   8  12
HETATM   12  C9  UNL     1     -33.491  18.276  -1.985  1.00 20.00     0.000 C 
HETATM   13  C7  UNL     1     -33.512  17.933  -0.531  1.00 20.00     0.005 C 
ENDBRANCH   8  12
ENDBRANCH   3   5
TORSDOF 2
ENDMDL
MODEL 2
REMARK VINA RESULT:      -4.5      1.629      2.880
REMARK  2 active torsions:
REMARK  status: ('A' for Active; 'I' for Inactive)
REMARK    1  A    between atoms: C6_6  and  C9_9 
REMARK    2  A    between atoms: C10_10  and  N12_12 
ROOT
HETATM    1  C1  UNL     1     -34.520  16.800  -7.244  1.00 20.00     0.092 C 
HETATM    2  C8  UNL     1     -35.186  14.423  -7.105  1.00 20.00     0.056 C 
HETATM    3  C10 UNL     1     -34.560  15.609  -6.390  1.00 20.00     0.289 C 
HETATM    4  N11 UNL     1     -34.486  17.744  -7.918  1.00 20.00    -0.195 NA
ENDROOT
BRANCH   3   5
HETATM    5  N12 UNL     1     -35.381  15.909  -5.164  1.00 20.00    -0.055 N 
HETATM    6  C4  UNL     1     -35.032  17.221  -4.508  1.00 20.00     0.237 C 
HETATM    7  C2  UNL     1     -33.727  17.112  -3.730  1.00 20.00     0.032 C 
HETATM    8  C6  UNL     1     -33.718  15.952  -2.725  1.00 20.00    -0.012 C 
HETATM    9  C3  UNL     1     -34.142  14.642  -3.403  1.00 20.00     0.032 C 
HETATM   10  C5  UNL     1     -35.446  14.766  -4.183  1.00 20.00     0.237 C 
HETATM   11  H31 UNL     1     -36.375  16.029  -5.525  1.00 20.00     0.281 HD
BRANCH   8  12
HETATM   12  C9  UNL     1     -34.585  16.259  -1.500  1.00 20.00     0.000 C 
HETATM   13  C7  UNL     1     -34.095  17.465  -0.767  1.00 20.00     0.005 C 
ENDBRANCH   8  12
ENDBRANCH   3   5
TORSDOF 2
ENDMDL
MODEL 3
REMARK VINA RESULT:      -4.2      1.937      4.579
REMARK  2 active torsions:
REMARK  status: ('A' for Active; 'I' for Inactive)
REMARK    1  A    between atoms: C6_6  and  C9_9 
REMARK    2  A    between atoms: C10_10  and  N12_12 
ROOT
HETATM    1  C1  UNL     1     -34.481  17.156  -0.881  1.00 20.00     0.092 C 
HETATM    2  C8  UNL     1     -33.559  18.772  -2.510  1.00 20.00     0.056 C 
HETATM    3  C10 UNL     1     -33.947  17.328  -2.235  1.00 20.00     0.289 C 
HETATM    4  N11 UNL     1     -34.903  17.016   0.190  1.00 20.00    -0.195 NA
ENDROOT
BRANCH   3   5
HETATM    5  N12 UNL     1     -34.998  16.924  -3.235  1.00 20.00    -0.055 N 
HETATM    6  C4  UNL     1     -35.513  15.520  -3.038  1.00 20.00     0.237 C 
HETATM    7  C2  UNL     1     -34.503  14.493  -3.534  1.00 20.00     0.032 C 
HETATM    8  C6  UNL     1     -34.054  14.737  -4.981  1.00 20.00    -0.012 C 
HETATM    9  C3  UNL     1     -33.600  16.190  -5.172  1.00 20.00     0.032 C 
HETATM   10  C5  UNL     1     -34.616  17.208  -4.666  1.00 20.00     0.237 C 
HETATM   11  H31 UNL     1     -35.826  17.560  -3.032  1.00 20.00     0.281 HD
BRANCH   8  12
HETATM   12  C9  UNL     1     -35.147  14.353  -5.983  1.00 20.00     0.000 C 
HETATM   13  C7  UNL     1     -34.777  14.739  -7.378  1.00 20.00     0.005 C 
ENDBRANCH   8  12
ENDBRANCH   3   5
TORSDOF 2
ENDMDL
MODEL 4
REMARK VINA RESULT:      -4.2      1.607      2.156
REMARK  2 active torsions:
REMARK  status: ('A' for Active; 'I' for Inactive)
REMARK    1  A    between atoms: C6_6  and  C9_9 
REMARK    2  A    between atoms: C10_10  and  N12_12 
ROOT
HETATM    1  C1  UNL     1     -35.013  15.136  -6.575  1.00 20.00     0.092 C 
HETATM    2  C8  UNL     1     -37.170  16.044  -5.774  1.00 20.00     0.056 C 
HETATM    3  C10 UNL     1     -35.775  15.570  -5.399  1.00 20.00     0.289 C 
HETATM    4  N11 UNL     1     -34.409  14.792  -7.503  1.00 20.00    -0.195 NA
ENDROOT
BRANCH   3   5
HETATM    5  N12 UNL     1     -35.051  16.711  -4.736  1.00 20.00    -0.055 N 
HETATM    6  C4  UNL     1     -33.645  16.369  -4.308  1.00 20.00     0.237 C 
HETATM    7  C2  UNL     1     -33.652  15.510  -3.050  1.00 20.00     0.032 C 
HETATM    8  C6  UNL     1     -34.463  16.125  -1.902  1.00 20.00    -0.012 C 
HETATM    9  C3  UNL     1     -35.864  16.526  -2.381  1.00 20.00     0.032 C 
HETATM   10  C5  UNL     1     -35.845  17.380  -3.643  1.00 20.00     0.237 C 
HETATM   11  H31 UNL     1     -34.943  17.445  -5.498  1.00 20.00     0.281 HD
BRANCH   8  12
HETATM   12  C9  UNL     1     -33.727  17.305  -1.260  1.00 20.00     0.000 C 
HETATM   13  C7  UNL     1     -34.344  17.697   0.043  1.00 20.00     0.005 C 
ENDBRANCH   8  12
ENDBRANCH   3   5
TORSDOF 2
ENDMDL
MODEL 5
REMARK VINA RESULT:      -4.2      1.956      2.672
REMARK  2 active torsions:
REMARK  status: ('A' for Active; 'I' for Inactive)
REMARK    1  A    between atoms: C6_6  and  C9_9 
REMARK    2  A    between atoms: C10_10  and  N12_12 
ROOT
HETATM    1  C1  UNL     1     -36.463  16.246  -6.445  1.00 20.00     0.092 C 
HETATM    2  C8  UNL     1     -34.693  14.522  -6.358  1.00 20.00     0.056 C 
HETATM    3  C10 UNL     1     -35.294  15.757  -5.708  1.00 20.00     0.289 C 
HETATM    4  N11 UNL     1     -37.388  16.635  -7.026  1.00 20.00    -0.195 NA
ENDROOT
BRANCH   3   5
HETATM    5  N12 UNL     1     -35.711  15.397  -4.306  1.00 20.00    -0.055 N 
HETATM    6  C4  UNL     1     -36.363  16.533  -3.558  1.00 20.00     0.237 C 
HETATM    7  C2  UNL     1     -35.326  17.549  -3.096  1.00 20.00     0.032 C 
HETATM    8  C6  UNL     1     -34.180  16.921  -2.292  1.00 20.00    -0.012 C 
HETATM    9  C3  UNL     1     -33.579  15.727  -3.044  1.00 20.00     0.032 C 
HETATM   10  C5  UNL     1     -34.627  14.720  -3.506  1.00 20.00     0.237 C 
HETATM   11  H31 UNL     1     -36.472  14.664  -4.427  1.00 20.00     0.281 HD
BRANCH   8  12
HETATM   12  C9  UNL     1     -34.630  16.530  -0.881  1.00 20.00     0.000 C 
HETATM   13  C7  UNL     1     -34.434  17.649   0.090  1.00 20.00     0.005 C 
ENDBRANCH   8  12
ENDBRANCH   3   5
TORSDOF 2
ENDMDL
MODEL 6
REMARK VINA RESULT:      -4.1      1.875      3.268
REMARK  2 active torsions:
REMARK  status: ('A' for Active; 'I' for Inactive)
REMARK    1  A    between atoms: C6_6  and  C9_9 
REMARK    2  A    between atoms: C10_10  and  N12_12 
ROOT
HETATM    1  C1  UNL     1     -33.647  18.226  -5.944  1.00 20.00     0.092 C 
HETATM    2  C8  UNL     1     -34.112  15.798  -5.866  1.00 20.00     0.056 C 
HETATM    3  C10 UNL     1     -33.781  17.052  -5.075  1.00 20.00     0.289 C 
HETATM    4  N11 UNL     1     -33.540  19.155  -6.629  1.00 20.00    -0.195 NA
ENDROOT
BRANCH   3   5
HETATM    5  N12 UNL     1     -34.891  17.295  -4.087  1.00 20.00    -0.055 N 
HETATM    6  C4  UNL     1     -34.686  18.522  -3.235  1.00 20.00     0.237 C 
HETATM    7  C2  UNL     1     -33.644  18.268  -2.153  1.00 20.00     0.032 C 
HETATM    8  C6  UNL     1     -33.946  17.027  -1.302  1.00 20.00    -0.012 C 
HETATM    9  C3  UNL     1     -34.218  15.809  -2.194  1.00 20.00     0.032 C 
HETATM   10  C5  UNL     1     -35.258  16.078  -3.276  1.00 20.00     0.237 C 
HETATM   11  H31 UNL     1     -35.746  17.504  -4.684  1.00 20.00     0.281 HD
BRANCH   8  12
HETATM   12  C9  UNL     1     -35.100  17.280  -0.327  1.00 20.00     0.000 C 
HETATM   13  C7  UNL     1     -34.624  17.915   0.939  1.00 20.00     0.005 C 
ENDBRANCH   8  12
ENDBRANCH   3   5
TORSDOF 2
ENDMDL
MODEL 7
REMARK VINA RESULT:      -4.1      2.115      4.988
REMARK  2 active torsions:
REMARK  status: ('A' for Active; 'I' for Inactive)
REMARK    1  A    between atoms: C6_6  and  C9_9 
REMARK    2  A    between atoms: C10_10  and  N12_12 
ROOT
HETATM    1  C1  UNL     1     -36.156  18.106  -2.037  1.00 20.00     0.092 C 
HETATM    2  C8  UNL     1     -34.564  16.632  -0.853  1.00 20.00     0.056 C 
HETATM    3  C10 UNL     1     -35.482  16.804  -2.051  1.00 20.00     0.289 C 
HETATM    4  N11 UNL     1     -36.692  19.135  -2.029  1.00 20.00    -0.195 NA
ENDROOT
BRANCH   3   5
HETATM    5  N12 UNL     1     -34.652  16.692  -3.303  1.00 20.00    -0.055 N 
HETATM    6  C4  UNL     1     -35.434  16.926  -4.571  1.00 20.00     0.237 C 
HETATM    7  C2  UNL     1     -36.294  15.716  -4.913  1.00 20.00     0.032 C 
HETATM    8  C6  UNL     1     -35.499  14.405  -4.968  1.00 20.00    -0.012 C 
HETATM    9  C3  UNL     1     -34.660  14.225  -3.696  1.00 20.00     0.032 C 
HETATM   10  C5  UNL     1     -33.808  15.444  -3.361  1.00 20.00     0.237 C 
HETATM   11  H31 UNL     1     -33.961  17.498  -3.244  1.00 20.00     0.281 HD
BRANCH   8  12
HETATM   12  C9  UNL     1     -34.634  14.322  -6.229  1.00 20.00     0.000 C 
HETATM   13  C7  UNL     1     -35.455  14.462  -7.470  1.00 20.00     0.005 C 
ENDBRANCH   8  12
ENDBRANCH   3   5
TORSDOF 2
ENDMDL
MODEL 8
REMARK VINA RESULT:      -4.0      1.677      2.584
REMARK  2 active torsions:
REMARK  status: ('A' for Active; 'I' for Inactive)
REMARK    1  A    between atoms: C6_6  and  C9_9 
REMARK    2  A    between atoms: C10_10  and  N12_12 
ROOT
HETATM    1  C1  UNL     1     -34.403  13.624  -4.408  1.00 20.00     0.092 C 
HETATM    2  C8  UNL     1     -32.347  14.703  -3.557  1.00 20.00     0.056 C 
HETATM    3  C10 UNL     1     -33.801  14.884  -3.962  1.00 20.00     0.289 C 
HETATM    4  N11 UNL     1     -34.882  12.628  -4.761  1.00 20.00    -0.195 NA
ENDROOT
BRANCH   3   5
HETATM    5  N12 UNL     1     -34.563  15.400  -2.770  1.00 20.00    -0.055 N 
HETATM    6  C4  UNL     1     -36.023  15.654  -3.048  1.00 20.00     0.237 C 
HETATM    7  C2  UNL     1     -36.210  16.937  -3.849  1.00 20.00     0.032 C 
HETATM    8  C6  UNL     1     -35.532  18.154  -3.208  1.00 20.00    -0.012 C 
HETATM    9  C3  UNL     1     -34.067  17.846  -2.872  1.00 20.00     0.032 C 
HETATM   10  C5  UNL     1     -33.892  16.558  -2.076  1.00 20.00     0.237 C 
HETATM   11  H31 UNL     1     -34.544  14.601  -2.068  1.00 20.00     0.281 HD
BRANCH   8  12
HETATM   12  C9  UNL     1     -36.301  18.645  -1.977  1.00 20.00     0.000 C 
HETATM   13  C7  UNL     1     -37.731  18.932  -2.299  1.00 20.00     0.005 C 
ENDBRANCH   8  12
ENDBRANCH   3   5
TORSDOF 2
ENDMDL
MODEL 9
REMARK VINA RESULT:      -4.0      2.697      4.895
REMARK  2 active torsions:
REMARK  status: ('A' for Active; 'I' for Inactive)
REMARK    1  A    between atoms: C6_6  and  C9_9 
REMARK    2  A    between atoms: C10_10  and  N12_12 
ROOT
HETATM    1  C1  UNL     1     -35.967  18.732  -0.976  1.00 20.00     0.092 C 
HETATM    2  C8  UNL     1     -37.674  18.333  -2.721  1.00 20.00     0.056 C 
HETATM    3  C10 UNL     1     -36.255  18.061  -2.248  1.00 20.00     0.289 C 
HETATM    4  N11 UNL     1     -35.736  19.263   0.029  1.00 20.00    -0.195 NA
ENDROOT
BRANCH   3   5
HETATM    5  N12 UNL     1     -36.095  16.575  -2.068  1.00 20.00    -0.055 N 
HETATM    6  C4  UNL     1     -34.735  16.170  -1.555  1.00 20.00     0.237 C 
HETATM    7  C2  UNL     1     -33.689  16.251  -2.660  1.00 20.00     0.032 C 
HETATM    8  C6  UNL     1     -34.079  15.467  -3.920  1.00 20.00    -0.012 C 
HETATM    9  C3  UNL     1     -35.492  15.847  -4.381  1.00 20.00     0.032 C 
HETATM   10  C5  UNL     1     -36.528  15.768  -3.266  1.00 20.00     0.237 C 
HETATM   11  H31 UNL     1     -36.777  16.319  -1.293  1.00 20.00     0.281 HD
BRANCH   8  12
HETATM   12  C9  UNL     1     -33.942  13.956  -3.709  1.00 20.00     0.000 C 
HETATM   13  C7  UNL     1     -34.523  13.186  -4.849  1.00 20.00     0.005 C 
ENDBRANCH   8  12
ENDBRANCH   3   5
TORSDOF 2
ENDMDL
