MODEL 1
REMARK VINA RESULT:      -4.7      0.000      0.000
REMARK  2 active torsions:
REMARK  status: ('A' for Active; 'I' for Inactive)
REMARK    1  A    between atoms: C3_3  and  C8_8 
REMARK    2  A    between atoms: C7_7  and  C8_8 
ROOT
HETATM    1  C1  UNL     1     -32.063   7.885   2.353  1.00 20.00     0.088 C 
HETATM    2  C2  UNL     1     -32.453   7.355   3.613  1.00 20.00     0.096 C 
HETATM    3  C3  UNL     1     -33.306   6.324   3.776  1.00 20.00    -0.070 C 
HETATM    4  C4  UNL     1     -33.904   5.669   2.554  1.00 20.00     0.044 C 
HETATM    5  N9  UNL     1     -31.740   8.323   1.328  1.00 20.00    -0.192 NA
ENDROOT
BRANCH   3   6
HETATM    6  C8  UNL     1     -33.718   5.762   5.137  1.00 20.00     0.010 C 
HETATM    7  C6  UNL     1     -33.706   6.854   6.214  1.00 20.00     0.015 C 
BRANCH   6   8
HETATM    8  C7  UNL     1     -35.094   5.062   5.134  1.00 20.00     0.004 C 
HETATM    9  C5  UNL     1     -35.146   3.830   6.028  1.00 20.00     0.006 C 
ENDBRANCH   6   8
ENDBRANCH   3   6
TORSDOF 2
ENDMDL
MODEL 2
REMARK VINA RESULT:      -4.6     11.107     12.065
REMARK  2 active torsions:
REMARK  status: ('A' for Active; 'I' for Inactive)
REMARK    1  A    between atoms: C3_3  and  C8_8 
REMARK    2  A    between atoms: C7_7  and  C8_8 
ROOT
HETATM    1  C1  UNL     1     -34.622  13.561  -4.054  1.00 20.00     0.088 C 
HETATM    2  C2  UNL     1     -34.491  14.535  -3.026  1.00 20.00     0.096 C 
HETATM    3  C3  UNL     1     -33.829  15.702  -3.161  1.00 20.00    -0.070 C 
HETATM    4  C4  UNL     1     -33.171  16.021  -4.482  1.00 20.00     0.044 C 
HETATM    5  N9  UNL     1     -34.733  12.762  -4.888  1.00 20.00    -0.192 NA
ENDROOT
BRANCH   3   6
HETATM    6  C8  UNL     1     -33.695  16.742  -2.047  1.00 20.00     0.010 C 
HETATM    7  C6  UNL     1     -33.820  18.166  -2.602  1.00 20.00     0.015 C 
BRANCH   6   8
HETATM    8  C7  UNL     1     -34.701  16.552  -0.892  1.00 20.00     0.004 C 
HETATM    9  C5  UNL     1     -34.547  17.584   0.217  1.00 20.00     0.006 C 
ENDBRANCH   6   8
ENDBRANCH   3   6
TORSDOF 2
ENDMDL
MODEL 3
REMARK VINA RESULT:      -4.2     11.368     12.238
REMARK  2 active torsions:
REMARK  status: ('A' for Active; 'I' for Inactive)
REMARK    1  A    between atoms: C3_3  and  C8_8 
REMARK    2  A    between atoms: C7_7  and  C8_8 
ROOT
HETATM    1  C1  UNL     1     -37.683  14.763  -3.726  1.00 20.00     0.088 C 
HETATM    2  C2  UNL     1     -36.481  15.395  -3.304  1.00 20.00     0.096 C 
HETATM    3  C3  UNL     1     -35.252  14.856  -3.430  1.00 20.00    -0.070 C 
HETATM    4  C4  UNL     1     -35.113  13.490  -4.058  1.00 20.00     0.044 C 
HETATM    5  N9  UNL     1     -38.668  14.255  -4.068  1.00 20.00    -0.192 NA
ENDROOT
BRANCH   3   6
HETATM    6  C8  UNL     1     -33.966  15.545  -2.972  1.00 20.00     0.010 C 
HETATM    7  C6  UNL     1     -33.011  15.775  -4.150  1.00 20.00     0.015 C 
BRANCH   6   8
HETATM    8  C7  UNL     1     -34.202  16.882  -2.237  1.00 20.00     0.004 C 
HETATM    9  C5  UNL     1     -34.489  16.710  -0.751  1.00 20.00     0.006 C 
ENDBRANCH   6   8
ENDBRANCH   3   6
TORSDOF 2
ENDMDL
MODEL 4
REMARK VINA RESULT:      -4.1     11.252     12.367
REMARK  2 active torsions:
REMARK  status: ('A' for Active; 'I' for Inactive)
REMARK    1  A    between atoms: C3_3  and  C8_8 
REMARK    2  A    between atoms: C7_7  and  C8_8 
ROOT
HETATM    1  C1  UNL     1     -35.079  13.613  -4.157  1.00 20.00     0.088 C 
HETATM    2  C2  UNL     1     -35.392  14.770  -3.393  1.00 20.00     0.096 C 
HETATM    3  C3  UNL     1     -34.491  15.695  -3.004  1.00 20.00    -0.070 C 
HETATM    4  C4  UNL     1     -33.043  15.512  -3.391  1.00 20.00     0.044 C 
HETATM    5  N9  UNL     1     -34.831  12.667  -4.781  1.00 20.00    -0.192 NA
ENDROOT
BRANCH   3   6
HETATM    6  C8  UNL     1     -34.840  16.936  -2.182  1.00 20.00     0.010 C 
HETATM    7  C6  UNL     1     -34.585  16.701  -0.688  1.00 20.00     0.015 C 
BRANCH   6   8
HETATM    8  C7  UNL     1     -34.097  18.212  -2.633  1.00 20.00     0.004 C 
HETATM    9  C5  UNL     1     -33.279  18.857  -1.523  1.00 20.00     0.006 C 
ENDBRANCH   6   8
ENDBRANCH   3   6
TORSDOF 2
ENDMDL
MODEL 5
REMARK VINA RESULT:      -4.1      2.469      4.504
REMARK  2 active torsions:
REMARK  status: ('A' for Active; 'I' for Inactive)
REMARK    1  A    between atoms: C3_3  and  C8_8 
REMARK    2  A    between atoms: C7_7  and  C8_8 
ROOT
HETATM    1  C1  UNL     1     -34.522   5.231   5.533  1.00 20.00     0.088 C 
HETATM    2  C2  UNL     1     -33.722   6.313   5.074  1.00 20.00     0.096 C 
HETATM    3  C3  UNL     1     -33.321   6.477   3.797  1.00 20.00    -0.070 C 
HETATM    4  C4  UNL     1     -33.734   5.456   2.765  1.00 20.00     0.044 C 
HETATM    5  N9  UNL     1     -35.175   4.351   5.915  1.00 20.00    -0.192 NA
ENDROOT
BRANCH   3   6
HETATM    6  C8  UNL     1     -32.461   7.646   3.315  1.00 20.00     0.010 C 
HETATM    7  C6  UNL     1     -31.154   7.739   4.113  1.00 20.00     0.015 C 
BRANCH   6   8
HETATM    8  C7  UNL     1     -32.136   7.601   1.806  1.00 20.00     0.004 C 
HETATM    9  C5  UNL     1     -32.135   8.975   1.150  1.00 20.00     0.006 C 
ENDBRANCH   6   8
ENDBRANCH   3   6
TORSDOF 2
ENDMDL
MODEL 6
REMARK VINA RESULT:      -4.1     11.476     12.133
REMARK  2 active torsions:
REMARK  status: ('A' for Active; 'I' for Inactive)
REMARK    1  A    between atoms: C3_3  and  C8_8 
REMARK    2  A    between atoms: C7_7  and  C8_8 
ROOT
HETATM    1  C1  UNL     1     -34.057  16.824  -1.456  1.00 20.00     0.088 C 
HETATM    2  C2  UNL     1     -34.829  15.836  -2.125  1.00 20.00     0.096 C 
HETATM    3  C3  UNL     1     -34.375  15.068  -3.137  1.00 20.00    -0.070 C 
HETATM    4  C4  UNL     1     -32.954  15.251  -3.611  1.00 20.00     0.044 C 
HETATM    5  N9  UNL     1     -33.433  17.633  -0.905  1.00 20.00    -0.192 NA
ENDROOT
BRANCH   3   6
HETATM    6  C8  UNL     1     -35.215  14.008  -3.849  1.00 20.00     0.010 C 
HETATM    7  C6  UNL     1     -36.648  14.502  -4.084  1.00 20.00     0.015 C 
BRANCH   6   8
HETATM    8  C7  UNL     1     -34.613  13.529  -5.187  1.00 20.00     0.004 C 
HETATM    9  C5  UNL     1     -35.201  14.237  -6.400  1.00 20.00     0.006 C 
ENDBRANCH   6   8
ENDBRANCH   3   6
TORSDOF 2
ENDMDL
MODEL 7
REMARK VINA RESULT:      -3.9     11.551     12.558
REMARK  2 active torsions:
REMARK  status: ('A' for Active; 'I' for Inactive)
REMARK    1  A    between atoms: C3_3  and  C8_8 
REMARK    2  A    between atoms: C7_7  and  C8_8 
ROOT
HETATM    1  C1  UNL     1     -34.487  16.572  -1.211  1.00 20.00     0.088 C 
HETATM    2  C2  UNL     1     -33.918  15.989  -2.377  1.00 20.00     0.096 C 
HETATM    3  C3  UNL     1     -34.627  15.371  -3.343  1.00 20.00    -0.070 C 
HETATM    4  C4  UNL     1     -36.127  15.276  -3.203  1.00 20.00     0.044 C 
HETATM    5  N9  UNL     1     -34.944  17.051  -0.258  1.00 20.00    -0.192 NA
ENDROOT
BRANCH   3   6
HETATM    6  C8  UNL     1     -34.004  14.747  -4.593  1.00 20.00     0.010 C 
HETATM    7  C6  UNL     1     -34.478  13.301  -4.786  1.00 20.00     0.015 C 
BRANCH   6   8
HETATM    8  C7  UNL     1     -34.265  15.549  -5.886  1.00 20.00     0.004 C 
HETATM    9  C5  UNL     1     -34.835  14.701  -7.016  1.00 20.00     0.006 C 
ENDBRANCH   6   8
ENDBRANCH   3   6
TORSDOF 2
ENDMDL
MODEL 8
REMARK VINA RESULT:      -3.9     11.432     12.509
REMARK  2 active torsions:
REMARK  status: ('A' for Active; 'I' for Inactive)
REMARK    1  A    between atoms: C3_3  and  C8_8 
REMARK    2  A    between atoms: C7_7  and  C8_8 
ROOT
HETATM    1  C1  UNL     1     -34.724  16.989  -0.326  1.00 20.00     0.088 C 
HETATM    2  C2  UNL     1     -34.648  16.206  -1.510  1.00 20.00     0.096 C 
HETATM    3  C3  UNL     1     -34.215  16.665  -2.702  1.00 20.00    -0.070 C 
HETATM    4  C4  UNL     1     -33.775  18.105  -2.814  1.00 20.00     0.044 C 
HETATM    5  N9  UNL     1     -34.789  17.621   0.645  1.00 20.00    -0.192 NA
ENDROOT
BRANCH   3   6
HETATM    6  C8  UNL     1     -34.138  15.814  -3.969  1.00 20.00     0.010 C 
HETATM    7  C6  UNL     1     -33.213  16.454  -5.012  1.00 20.00     0.015 C 
BRANCH   6   8
HETATM    8  C7  UNL     1     -33.692  14.357  -3.716  1.00 20.00     0.004 C 
HETATM    9  C5  UNL     1     -34.447  13.340  -4.562  1.00 20.00     0.006 C 
ENDBRANCH   6   8
ENDBRANCH   3   6
TORSDOF 2
ENDMDL
MODEL 9
REMARK VINA RESULT:      -3.9      9.721     10.614
REMARK  2 active torsions:
REMARK  status: ('A' for Active; 'I' for Inactive)
REMARK    1  A    between atoms: C3_3  and  C8_8 
REMARK    2  A    between atoms: C7_7  and  C8_8 
ROOT
HETATM    1  C1  UNL     1     -42.764   7.303  -3.619  1.00 20.00     0.088 C 
HETATM    2  C2  UNL     1     -42.077   6.864  -2.454  1.00 20.00     0.096 C 
HETATM    3  C3  UNL     1     -42.015   5.581  -2.043  1.00 20.00    -0.070 C 
HETATM    4  C4  UNL     1     -42.713   4.519  -2.857  1.00 20.00     0.044 C 
HETATM    5  N9  UNL     1     -43.322   7.669  -4.569  1.00 20.00    -0.192 NA
ENDROOT
BRANCH   3   6
HETATM    6  C8  UNL     1     -41.273   5.121  -0.788  1.00 20.00     0.010 C 
HETATM    7  C6  UNL     1     -40.507   6.282  -0.140  1.00 20.00     0.015 C 
BRANCH   6   8
HETATM    8  C7  UNL     1     -42.184   4.457   0.268  1.00 20.00     0.004 C 
HETATM    9  C5  UNL     1     -43.128   5.437   0.951  1.00 20.00     0.006 C 
ENDBRANCH   6   8
ENDBRANCH   3   6
TORSDOF 2
ENDMDL
