MODEL 1
REMARK VINA RESULT:      -4.7      0.000      0.000
REMARK  1 active torsions:
REMARK  status: ('A' for Active; 'I' for Inactive)
REMARK    1  A    between atoms: C3_3  and  C6_6 
ROOT
HETATM    1  C1  UNL     1     -32.201   7.079   3.444  1.00 20.00     0.088 C 
HETATM    2  C2  UNL     1     -33.490   6.569   3.125  1.00 20.00     0.096 C 
HETATM    3  C3  UNL     1     -34.245   5.879   4.002  1.00 20.00    -0.070 C 
HETATM    4  C7  UNL     1     -35.595   5.328   3.716  1.00 20.00     0.044 C 
HETATM    5  N8  UNL     1     -31.149   7.497   3.699  1.00 20.00    -0.192 NA
ENDROOT
BRANCH   3   6
HETATM    6  C6  UNL     1     -33.723   5.620   5.392  1.00 20.00     0.015 A 
HETATM    7  C4  UNL     1     -34.149   6.554   6.459  1.00 20.00     0.010 A 
HETATM    8  C5  UNL     1     -34.698   5.160   6.406  1.00 20.00     0.010 A 
ENDBRANCH   3   6
TORSDOF 1
ENDMDL
MODEL 2
REMARK VINA RESULT:      -4.5      1.701      3.065
REMARK  1 active torsions:
REMARK  status: ('A' for Active; 'I' for Inactive)
REMARK    1  A    between atoms: C3_3  and  C6_6 
ROOT
HETATM    1  C1  UNL     1     -33.801   6.786   6.774  1.00 20.00     0.088 C 
HETATM    2  C2  UNL     1     -34.404   5.555   6.396  1.00 20.00     0.096 C 
HETATM    3  C3  UNL     1     -34.625   5.209   5.113  1.00 20.00    -0.070 C 
HETATM    4  C7  UNL     1     -35.251   3.936   4.669  1.00 20.00     0.044 C 
HETATM    5  N8  UNL     1     -33.309   7.790   7.088  1.00 20.00    -0.192 NA
ENDROOT
BRANCH   3   6
HETATM    6  C6  UNL     1     -34.225   6.152   4.007  1.00 20.00     0.015 A 
HETATM    7  C4  UNL     1     -32.842   6.042   3.492  1.00 20.00     0.010 A 
HETATM    8  C5  UNL     1     -34.000   5.566   2.668  1.00 20.00     0.010 A 
ENDBRANCH   3   6
TORSDOF 1
ENDMDL
MODEL 3
REMARK VINA RESULT:      -4.1      1.011      2.185
REMARK  1 active torsions:
REMARK  status: ('A' for Active; 'I' for Inactive)
REMARK    1  A    between atoms: C3_3  and  C6_6 
ROOT
HETATM    1  C1  UNL     1     -32.357   7.297   3.149  1.00 20.00     0.088 C 
HETATM    2  C2  UNL     1     -32.746   7.215   4.515  1.00 20.00     0.096 C 
HETATM    3  C3  UNL     1     -33.661   6.337   4.967  1.00 20.00    -0.070 C 
HETATM    4  C7  UNL     1     -34.098   6.213   6.382  1.00 20.00     0.044 C 
HETATM    5  N8  UNL     1     -32.037   7.368   2.035  1.00 20.00    -0.192 NA
ENDROOT
BRANCH   3   6
HETATM    6  C6  UNL     1     -34.321   5.385   4.002  1.00 20.00     0.015 A 
HETATM    7  C4  UNL     1     -35.226   4.363   4.573  1.00 20.00     0.010 A 
HETATM    8  C5  UNL     1     -35.780   5.525   3.806  1.00 20.00     0.010 A 
ENDBRANCH   3   6
TORSDOF 1
ENDMDL
MODEL 4
REMARK VINA RESULT:      -4.1     11.688     12.292
REMARK  1 active torsions:
REMARK  status: ('A' for Active; 'I' for Inactive)
REMARK    1  A    between atoms: C3_3  and  C6_6 
ROOT
HETATM    1  C1  UNL     1     -35.518  13.725  -4.224  1.00 20.00     0.088 C 
HETATM    2  C2  UNL     1     -36.282  14.909  -4.030  1.00 20.00     0.096 C 
HETATM    3  C3  UNL     1     -35.973  15.839  -3.106  1.00 20.00    -0.070 C 
HETATM    4  C7  UNL     1     -36.739  17.090  -2.868  1.00 20.00     0.044 C 
HETATM    5  N8  UNL     1     -34.899  12.756  -4.386  1.00 20.00    -0.192 NA
ENDROOT
BRANCH   3   6
HETATM    6  C6  UNL     1     -34.768  15.641  -2.223  1.00 20.00     0.015 A 
HETATM    7  C4  UNL     1     -33.734  16.699  -2.240  1.00 20.00     0.010 A 
HETATM    8  C5  UNL     1     -34.633  16.536  -1.052  1.00 20.00     0.010 A 
ENDBRANCH   3   6
TORSDOF 1
ENDMDL
MODEL 5
REMARK VINA RESULT:      -4.1     11.990     12.786
REMARK  1 active torsions:
REMARK  status: ('A' for Active; 'I' for Inactive)
REMARK    1  A    between atoms: C3_3  and  C6_6 
ROOT
HETATM    1  C1  UNL     1     -34.597  13.729  -4.915  1.00 20.00     0.088 C 
HETATM    2  C2  UNL     1     -34.245  15.049  -5.311  1.00 20.00     0.096 C 
HETATM    3  C3  UNL     1     -33.852  15.998  -4.439  1.00 20.00    -0.070 C 
HETATM    4  C7  UNL     1     -33.474  17.388  -4.804  1.00 20.00     0.044 C 
HETATM    5  N8  UNL     1     -34.886  12.650  -4.597  1.00 20.00    -0.192 NA
ENDROOT
BRANCH   3   6
HETATM    6  C6  UNL     1     -33.775  15.672  -2.969  1.00 20.00     0.015 A 
HETATM    7  C4  UNL     1     -33.720  16.812  -2.026  1.00 20.00     0.010 A 
HETATM    8  C5  UNL     1     -34.963  15.983  -2.144  1.00 20.00     0.010 A 
ENDBRANCH   3   6
TORSDOF 1
ENDMDL
MODEL 6
REMARK VINA RESULT:      -4.0     11.940     12.415
REMARK  1 active torsions:
REMARK  status: ('A' for Active; 'I' for Inactive)
REMARK    1  A    between atoms: C3_3  and  C6_6 
ROOT
HETATM    1  C1  UNL     1     -36.532  14.245  -3.926  1.00 20.00     0.088 C 
HETATM    2  C2  UNL     1     -35.119  14.107  -4.023  1.00 20.00     0.096 C 
HETATM    3  C3  UNL     1     -34.257  15.019  -3.533  1.00 20.00    -0.070 C 
HETATM    4  C7  UNL     1     -32.776  14.918  -3.609  1.00 20.00     0.044 C 
HETATM    5  N8  UNL     1     -37.685  14.353  -3.851  1.00 20.00    -0.192 NA
ENDROOT
BRANCH   3   6
HETATM    6  C6  UNL     1     -34.786  16.252  -2.848  1.00 20.00     0.015 A 
HETATM    7  C4  UNL     1     -34.699  16.296  -1.371  1.00 20.00     0.010 A 
HETATM    8  C5  UNL     1     -33.797  17.149  -2.210  1.00 20.00     0.010 A 
ENDBRANCH   3   6
TORSDOF 1
ENDMDL
MODEL 7
REMARK VINA RESULT:      -4.0      2.343      3.783
REMARK  1 active torsions:
REMARK  status: ('A' for Active; 'I' for Inactive)
REMARK    1  A    between atoms: C3_3  and  C6_6 
ROOT
HETATM    1  C1  UNL     1     -34.952   4.292   5.464  1.00 20.00     0.088 C 
HETATM    2  C2  UNL     1     -34.404   5.286   6.321  1.00 20.00     0.096 C 
HETATM    3  C3  UNL     1     -33.826   6.413   5.863  1.00 20.00    -0.070 C 
HETATM    4  C7  UNL     1     -33.241   7.480   6.717  1.00 20.00     0.044 C 
HETATM    5  N8  UNL     1     -35.400   3.477   4.769  1.00 20.00    -0.192 NA
ENDROOT
BRANCH   3   6
HETATM    6  C6  UNL     1     -33.741   6.656   4.378  1.00 20.00     0.015 A 
HETATM    7  C4  UNL     1     -32.484   7.241   3.858  1.00 20.00     0.010 A 
HETATM    8  C5  UNL     1     -32.814   5.801   3.604  1.00 20.00     0.010 A 
ENDBRANCH   3   6
TORSDOF 1
ENDMDL
MODEL 8
REMARK VINA RESULT:      -4.0     11.550     12.394
REMARK  1 active torsions:
REMARK  status: ('A' for Active; 'I' for Inactive)
REMARK    1  A    between atoms: C3_3  and  C6_6 
ROOT
HETATM    1  C1  UNL     1     -37.303  14.984  -3.538  1.00 20.00     0.088 C 
HETATM    2  C2  UNL     1     -36.206  15.803  -3.153  1.00 20.00     0.096 C 
HETATM    3  C3  UNL     1     -34.937  15.354  -3.100  1.00 20.00    -0.070 C 
HETATM    4  C7  UNL     1     -33.759  16.170  -2.705  1.00 20.00     0.044 C 
HETATM    5  N8  UNL     1     -38.202  14.320  -3.852  1.00 20.00    -0.192 NA
ENDROOT
BRANCH   3   6
HETATM    6  C6  UNL     1     -34.638  13.921  -3.459  1.00 20.00     0.015 A 
HETATM    7  C4  UNL     1     -34.267  13.639  -4.864  1.00 20.00     0.010 A 
HETATM    8  C5  UNL     1     -33.234  13.583  -3.780  1.00 20.00     0.010 A 
ENDBRANCH   3   6
TORSDOF 1
ENDMDL
MODEL 9
REMARK VINA RESULT:      -3.9      2.096      3.479
REMARK  1 active torsions:
REMARK  status: ('A' for Active; 'I' for Inactive)
REMARK    1  A    between atoms: C3_3  and  C6_6 
ROOT
HETATM    1  C1  UNL     1     -34.881   5.259   5.715  1.00 20.00     0.088 C 
HETATM    2  C2  UNL     1     -35.043   4.961   4.334  1.00 20.00     0.096 C 
HETATM    3  C3  UNL     1     -34.278   5.507   3.369  1.00 20.00    -0.070 C 
HETATM    4  C7  UNL     1     -34.408   5.226   1.916  1.00 20.00     0.044 C 
HETATM    5  N8  UNL     1     -34.753   5.499   6.843  1.00 20.00    -0.192 NA
ENDROOT
BRANCH   3   6
HETATM    6  C6  UNL     1     -33.192   6.483   3.743  1.00 20.00     0.015 A 
HETATM    7  C4  UNL     1     -31.834   6.218   3.219  1.00 20.00     0.010 A 
HETATM    8  C5  UNL     1     -32.655   7.343   2.665  1.00 20.00     0.010 A 
ENDBRANCH   3   6
TORSDOF 1
ENDMDL
