MODEL 1
REMARK VINA RESULT:      -4.1      0.000      0.000
REMARK  4 active torsions:
REMARK  status: ('A' for Active; 'I' for Inactive)
REMARK    1  A    between atoms: C4_4  and  N11_11 
REMARK    2  A    between atoms: C7_7  and  C9_9 
REMARK    3  A    between atoms: C8_8  and  N11_11 
REMARK    4  A    between atoms: C9_9  and  N11_11 
ROOT
HETATM    1  C1  UNL     1     -33.973  14.055  -3.509  1.00 20.00     0.095 C 
HETATM    2  C9  UNL     1     -34.752  15.254  -3.164  1.00 20.00     0.328 C 
HETATM    3  N10 UNL     1     -33.362  13.108  -3.781  1.00 20.00    -0.195 NA
ENDROOT
BRANCH   2   4
HETATM    4  C7  UNL     1     -33.964  16.228  -2.280  1.00 20.00     0.046 C 
HETATM    5  C5  UNL     1     -34.641  16.578  -0.959  1.00 20.00     0.008 C 
ENDBRANCH   2   4
BRANCH   2   6
HETATM    6  N11 UNL     1     -35.239  15.902  -4.357  1.00 20.00     0.110 N 
BRANCH   6   7
HETATM    7  C4  UNL     1     -34.158  16.103  -5.332  1.00 20.00     0.224 A 
HETATM    8  C2  UNL     1     -34.470  16.573  -6.726  1.00 20.00     0.038 A 
HETATM    9  C3  UNL     1     -33.769  17.489  -5.766  1.00 20.00     0.038 A 
ENDBRANCH   6   7
BRANCH   6  10
HETATM   10  C8  UNL     1     -36.326  15.129  -4.975  1.00 20.00     0.270 C 
HETATM   11  C6  UNL     1     -37.445  14.911  -4.015  1.00 20.00     0.037 C 
ENDBRANCH   6  10
ENDBRANCH   2   6
TORSDOF 4
ENDMDL
MODEL 2
REMARK VINA RESULT:      -4.0      1.598      3.734
REMARK  4 active torsions:
REMARK  status: ('A' for Active; 'I' for Inactive)
REMARK    1  A    between atoms: C4_4  and  N11_11 
REMARK    2  A    between atoms: C7_7  and  C9_9 
REMARK    3  A    between atoms: C8_8  and  N11_11 
REMARK    4  A    between atoms: C9_9  and  N11_11 
ROOT
HETATM    1  C1  UNL     1     -34.555  13.719  -4.776  1.00 20.00     0.095 C 
HETATM    2  C9  UNL     1     -33.960  14.949  -5.317  1.00 20.00     0.328 C 
HETATM    3  N10 UNL     1     -35.022  12.747  -4.347  1.00 20.00    -0.195 NA
ENDROOT
BRANCH   2   4
HETATM    4  C7  UNL     1     -34.392  15.221  -6.763  1.00 20.00     0.046 C 
HETATM    5  C5  UNL     1     -35.885  15.045  -7.024  1.00 20.00     0.008 C 
ENDBRANCH   2   4
BRANCH   2   6
HETATM    6  N11 UNL     1     -34.252  16.072  -4.460  1.00 20.00     0.110 N 
BRANCH   6   7
HETATM    7  C4  UNL     1     -33.876  15.792  -3.068  1.00 20.00     0.224 A 
HETATM    8  C2  UNL     1     -33.700  16.918  -2.086  1.00 20.00     0.038 A 
HETATM    9  C3  UNL     1     -34.868  15.985  -1.954  1.00 20.00     0.038 A 
ENDBRANCH   6   7
BRANCH   6  10
HETATM   10  C8  UNL     1     -33.565  17.287  -4.924  1.00 20.00     0.270 C 
HETATM   11  C6  UNL     1     -34.539  18.380  -5.209  1.00 20.00     0.037 C 
ENDBRANCH   6  10
ENDBRANCH   2   6
TORSDOF 4
ENDMDL
MODEL 3
REMARK VINA RESULT:      -3.9      1.512      3.970
REMARK  4 active torsions:
REMARK  status: ('A' for Active; 'I' for Inactive)
REMARK    1  A    between atoms: C4_4  and  N11_11 
REMARK    2  A    between atoms: C7_7  and  C9_9 
REMARK    3  A    between atoms: C8_8  and  N11_11 
REMARK    4  A    between atoms: C9_9  and  N11_11 
ROOT
HETATM    1  C1  UNL     1     -36.612  14.380  -3.960  1.00 20.00     0.095 C 
HETATM    2  C9  UNL     1     -35.148  14.437  -4.080  1.00 20.00     0.328 C 
HETATM    3  N10 UNL     1     -37.767  14.333  -3.862  1.00 20.00    -0.195 NA
ENDROOT
BRANCH   2   4
HETATM    4  C7  UNL     1     -34.661  14.036  -5.478  1.00 20.00     0.046 C 
HETATM    5  C5  UNL     1     -35.576  14.467  -6.619  1.00 20.00     0.008 C 
ENDBRANCH   2   4
BRANCH   2   6
HETATM    6  N11 UNL     1     -34.660  15.742  -3.708  1.00 20.00     0.110 N 
BRANCH   6   7
HETATM    7  C4  UNL     1     -34.566  15.879  -2.247  1.00 20.00     0.224 A 
HETATM    8  C2  UNL     1     -33.764  16.994  -1.638  1.00 20.00     0.038 A 
HETATM    9  C3  UNL     1     -35.261  17.009  -1.539  1.00 20.00     0.038 A 
ENDBRANCH   6   7
BRANCH   6  10
HETATM   10  C8  UNL     1     -33.349  16.012  -4.315  1.00 20.00     0.270 C 
HETATM   11  C6  UNL     1     -33.393  17.230  -5.173  1.00 20.00     0.037 C 
ENDBRANCH   6  10
ENDBRANCH   2   6
TORSDOF 4
ENDMDL
MODEL 4
REMARK VINA RESULT:      -3.9      1.426      2.701
REMARK  4 active torsions:
REMARK  status: ('A' for Active; 'I' for Inactive)
REMARK    1  A    between atoms: C4_4  and  N11_11 
REMARK    2  A    between atoms: C7_7  and  C9_9 
REMARK    3  A    between atoms: C8_8  and  N11_11 
REMARK    4  A    between atoms: C9_9  and  N11_11 
ROOT
HETATM    1  C1  UNL     1     -36.516  14.948  -3.683  1.00 20.00     0.095 C 
HETATM    2  C9  UNL     1     -35.276  15.734  -3.617  1.00 20.00     0.328 C 
HETATM    3  N10 UNL     1     -37.497  14.330  -3.736  1.00 20.00    -0.195 NA
ENDROOT
BRANCH   2   4
HETATM    4  C7  UNL     1     -34.546  15.564  -2.279  1.00 20.00     0.046 C 
HETATM    5  C5  UNL     1     -34.773  16.696  -1.282  1.00 20.00     0.008 C 
ENDBRANCH   2   4
BRANCH   2   6
HETATM    6  N11 UNL     1     -34.415  15.416  -4.729  1.00 20.00     0.110 N 
BRANCH   6   7
HETATM    7  C4  UNL     1     -35.132  15.531  -6.007  1.00 20.00     0.224 A 
HETATM    8  C2  UNL     1     -34.397  15.366  -7.309  1.00 20.00     0.038 A 
HETATM    9  C3  UNL     1     -35.371  14.316  -6.861  1.00 20.00     0.038 A 
ENDBRANCH   6   7
BRANCH   6  10
HETATM   10  C8  UNL     1     -33.228  16.283  -4.748  1.00 20.00     0.270 C 
HETATM   11  C6  UNL     1     -33.613  17.718  -4.881  1.00 20.00     0.037 C 
ENDBRANCH   6  10
ENDBRANCH   2   6
TORSDOF 4
ENDMDL
MODEL 5
REMARK VINA RESULT:      -3.9      1.565      4.019
REMARK  4 active torsions:
REMARK  status: ('A' for Active; 'I' for Inactive)
REMARK    1  A    between atoms: C4_4  and  N11_11 
REMARK    2  A    between atoms: C7_7  and  C9_9 
REMARK    3  A    between atoms: C8_8  and  N11_11 
REMARK    4  A    between atoms: C9_9  and  N11_11 
ROOT
HETATM    1  C1  UNL     1     -36.741  14.582  -4.153  1.00 20.00     0.095 C 
HETATM    2  C9  UNL     1     -35.423  14.880  -4.731  1.00 20.00     0.328 C 
HETATM    3  N10 UNL     1     -37.780  14.344  -3.695  1.00 20.00    -0.195 NA
ENDROOT
BRANCH   2   4
HETATM    4  C7  UNL     1     -35.524  15.468  -6.144  1.00 20.00     0.046 C 
HETATM    5  C5  UNL     1     -34.550  14.868  -7.154  1.00 20.00     0.008 C 
ENDBRANCH   2   4
BRANCH   2   6
HETATM    6  N11 UNL     1     -34.669  15.743  -3.855  1.00 20.00     0.110 N 
BRANCH   6   7
HETATM    7  C4  UNL     1     -35.338  15.898  -2.556  1.00 20.00     0.224 A 
HETATM    8  C2  UNL     1     -34.574  16.400  -1.362  1.00 20.00     0.038 A 
HETATM    9  C3  UNL     1     -35.619  17.267  -2.000  1.00 20.00     0.038 A 
ENDBRANCH   6   7
BRANCH   6  10
HETATM   10  C8  UNL     1     -33.305  15.233  -3.651  1.00 20.00     0.270 C 
HETATM   11  C6  UNL     1     -33.275  13.743  -3.700  1.00 20.00     0.037 C 
ENDBRANCH   6  10
ENDBRANCH   2   6
TORSDOF 4
ENDMDL
MODEL 6
REMARK VINA RESULT:      -3.9      2.049      3.034
REMARK  4 active torsions:
REMARK  status: ('A' for Active; 'I' for Inactive)
REMARK    1  A    between atoms: C4_4  and  N11_11 
REMARK    2  A    between atoms: C7_7  and  C9_9 
REMARK    3  A    between atoms: C8_8  and  N11_11 
REMARK    4  A    between atoms: C9_9  and  N11_11 
ROOT
HETATM    1  C1  UNL     1     -37.050  14.551  -3.883  1.00 20.00     0.095 C 
HETATM    2  C9  UNL     1     -35.606  14.826  -3.893  1.00 20.00     0.328 C 
HETATM    3  N10 UNL     1     -38.190  14.337  -3.873  1.00 20.00    -0.195 NA
ENDROOT
BRANCH   2   4
HETATM    4  C7  UNL     1     -34.767  13.542  -3.917  1.00 20.00     0.046 C 
HETATM    5  C5  UNL     1     -33.267  13.758  -3.744  1.00 20.00     0.008 C 
ENDBRANCH   2   4
BRANCH   2   6
HETATM    6  N11 UNL     1     -35.263  15.698  -4.989  1.00 20.00     0.110 N 
BRANCH   6   7
HETATM    7  C4  UNL     1     -35.628  15.098  -6.281  1.00 20.00     0.224 A 
HETATM    8  C2  UNL     1     -35.637  15.933  -7.531  1.00 20.00     0.038 A 
HETATM    9  C3  UNL     1     -34.586  14.879  -7.342  1.00 20.00     0.038 A 
ENDBRANCH   6   7
BRANCH   6  10
HETATM   10  C8  UNL     1     -35.916  17.008  -4.850  1.00 20.00     0.270 C 
HETATM   11  C6  UNL     1     -34.936  18.058  -4.452  1.00 20.00     0.037 C 
ENDBRANCH   6  10
ENDBRANCH   2   6
TORSDOF 4
ENDMDL
MODEL 7
REMARK VINA RESULT:      -3.9      0.997      3.506
REMARK  4 active torsions:
REMARK  status: ('A' for Active; 'I' for Inactive)
REMARK    1  A    between atoms: C4_4  and  N11_11 
REMARK    2  A    between atoms: C7_7  and  C9_9 
REMARK    3  A    between atoms: C8_8  and  N11_11 
REMARK    4  A    between atoms: C9_9  and  N11_11 
ROOT
HETATM    1  C1  UNL     1     -35.237  13.698  -4.542  1.00 20.00     0.095 C 
HETATM    2  C9  UNL     1     -35.931  14.993  -4.497  1.00 20.00     0.328 C 
HETATM    3  N10 UNL     1     -34.688  12.677  -4.582  1.00 20.00    -0.195 NA
ENDROOT
BRANCH   2   4
HETATM    4  C7  UNL     1     -37.238  14.928  -3.697  1.00 20.00     0.046 C 
HETATM    5  C5  UNL     1     -38.505  15.030  -4.540  1.00 20.00     0.008 C 
ENDBRANCH   2   4
BRANCH   2   6
HETATM    6  N11 UNL     1     -35.054  16.020  -3.989  1.00 20.00     0.110 N 
BRANCH   6   7
HETATM    7  C4  UNL     1     -34.760  15.812  -2.564  1.00 20.00     0.224 A 
HETATM    8  C2  UNL     1     -33.698  16.628  -1.880  1.00 20.00     0.038 A 
HETATM    9  C3  UNL     1     -35.144  16.849  -1.546  1.00 20.00     0.038 A 
ENDBRANCH   6   7
BRANCH   6  10
HETATM   10  C8  UNL     1     -33.798  16.071  -4.751  1.00 20.00     0.270 C 
HETATM   11  C6  UNL     1     -33.701  17.329  -5.545  1.00 20.00     0.037 C 
ENDBRANCH   6  10
ENDBRANCH   2   6
TORSDOF 4
ENDMDL
MODEL 8
REMARK VINA RESULT:      -3.9      1.751      3.839
REMARK  4 active torsions:
REMARK  status: ('A' for Active; 'I' for Inactive)
REMARK    1  A    between atoms: C4_4  and  N11_11 
REMARK    2  A    between atoms: C7_7  and  C9_9 
REMARK    3  A    between atoms: C8_8  and  N11_11 
REMARK    4  A    between atoms: C9_9  and  N11_11 
ROOT
HETATM    1  C1  UNL     1     -36.555  14.599  -3.597  1.00 20.00     0.095 C 
HETATM    2  C9  UNL     1     -35.153  14.887  -3.260  1.00 20.00     0.328 C 
HETATM    3  N10 UNL     1     -37.662  14.372  -3.860  1.00 20.00    -0.195 NA
ENDROOT
BRANCH   2   4
HETATM    4  C7  UNL     1     -34.183  14.433  -4.359  1.00 20.00     0.046 C 
HETATM    5  C5  UNL     1     -34.574  13.133  -5.055  1.00 20.00     0.008 C 
ENDBRANCH   2   4
BRANCH   2   6
HETATM    6  N11 UNL     1     -34.982  16.285  -2.953  1.00 20.00     0.110 N 
BRANCH   6   7
HETATM    7  C4  UNL     1     -34.112  16.471  -1.783  1.00 20.00     0.224 A 
HETATM    8  C2  UNL     1     -33.854  17.847  -1.237  1.00 20.00     0.038 A 
HETATM    9  C3  UNL     1     -34.691  16.877  -0.456  1.00 20.00     0.038 A 
ENDBRANCH   6   7
BRANCH   6  10
HETATM   10  C8  UNL     1     -34.430  17.018  -4.101  1.00 20.00     0.270 C 
HETATM   11  C6  UNL     1     -35.412  18.008  -4.630  1.00 20.00     0.037 C 
ENDBRANCH   6  10
ENDBRANCH   2   6
TORSDOF 4
ENDMDL
MODEL 9
REMARK VINA RESULT:      -3.8      1.090      3.172
REMARK  4 active torsions:
REMARK  status: ('A' for Active; 'I' for Inactive)
REMARK    1  A    between atoms: C4_4  and  N11_11 
REMARK    2  A    between atoms: C7_7  and  C9_9 
REMARK    3  A    between atoms: C8_8  and  N11_11 
REMARK    4  A    between atoms: C9_9  and  N11_11 
ROOT
HETATM    1  C1  UNL     1     -33.366  14.383  -3.781  1.00 20.00     0.095 C 
HETATM    2  C9  UNL     1     -33.510  15.846  -3.793  1.00 20.00     0.328 C 
HETATM    3  N10 UNL     1     -33.251  13.229  -3.768  1.00 20.00    -0.195 NA
ENDROOT
BRANCH   2   4
HETATM    4  C7  UNL     1     -33.231  16.449  -5.176  1.00 20.00     0.046 C 
HETATM    5  C5  UNL     1     -33.536  17.939  -5.293  1.00 20.00     0.008 C 
ENDBRANCH   2   4
BRANCH   2   6
HETATM    6  N11 UNL     1     -34.810  16.231  -3.304  1.00 20.00     0.110 N 
BRANCH   6   7
HETATM    7  C4  UNL     1     -35.872  15.424  -3.921  1.00 20.00     0.224 A 
HETATM    8  C2  UNL     1     -37.294  15.551  -3.451  1.00 20.00     0.038 A 
HETATM    9  C3  UNL     1     -36.904  16.066  -4.805  1.00 20.00     0.038 A 
ENDBRANCH   6   7
BRANCH   6  10
HETATM   10  C8  UNL     1     -34.885  16.111  -1.841  1.00 20.00     0.270 C 
HETATM   11  C6  UNL     1     -33.986  17.095  -1.173  1.00 20.00     0.037 C 
ENDBRANCH   6  10
ENDBRANCH   2   6
TORSDOF 4
ENDMDL
