MODEL 1
REMARK VINA RESULT:      -4.3      0.000      0.000
REMARK  0 active torsions:
REMARK  status: ('A' for Active; 'I' for Inactive)
ROOT
HETATM    1  C1  UNL     1     -32.476   6.995   2.832  1.00 20.00     0.088 C 
HETATM    2  C2  UNL     1     -34.171   5.776   4.034  1.00 20.00    -0.060 C 
HETATM    3  C3  UNL     1     -33.459   5.976   2.918  1.00 20.00     0.097 C 
HETATM    4  C4  UNL     1     -35.222   4.714   4.179  1.00 20.00     0.046 C 
HETATM    5  C5  UNL     1     -33.941   6.529   5.309  1.00 20.00     0.108 C 
HETATM    6  C6  UNL     1     -34.990   4.072   5.537  1.00 20.00     0.078 C 
HETATM    7  N7  UNL     1     -31.672   7.827   2.756  1.00 20.00    -0.192 NA
HETATM    8  S8  UNL     1     -34.533   5.437   6.640  1.00 20.00    -0.165 SA
ENDROOT
TORSDOF 0
ENDMDL
MODEL 2
REMARK VINA RESULT:      -3.9     11.878     12.584
REMARK  0 active torsions:
REMARK  status: ('A' for Active; 'I' for Inactive)
ROOT
HETATM    1  C1  UNL     1     -34.335  13.540  -4.168  1.00 20.00     0.088 C 
HETATM    2  C2  UNL     1     -34.528  15.509  -2.795  1.00 20.00    -0.060 C 
HETATM    3  C3  UNL     1     -33.772  14.558  -3.358  1.00 20.00     0.097 C 
HETATM    4  C4  UNL     1     -33.985  16.609  -1.930  1.00 20.00     0.046 C 
HETATM    5  C5  UNL     1     -36.000  15.649  -3.038  1.00 20.00     0.108 C 
HETATM    6  C6  UNL     1     -34.673  17.886  -2.386  1.00 20.00     0.078 C 
HETATM    7  N7  UNL     1     -34.791  12.704  -4.831  1.00 20.00    -0.192 NA
HETATM    8  S8  UNL     1     -36.384  17.404  -2.745  1.00 20.00    -0.165 SA
ENDROOT
TORSDOF 0
ENDMDL
MODEL 3
REMARK VINA RESULT:      -3.6     11.793     12.429
REMARK  0 active torsions:
REMARK  status: ('A' for Active; 'I' for Inactive)
ROOT
HETATM    1  C1  UNL     1     -34.811  17.240  -0.922  1.00 20.00     0.088 C 
HETATM    2  C2  UNL     1     -34.133  15.875  -2.788  1.00 20.00    -0.060 C 
HETATM    3  C3  UNL     1     -33.816  16.639  -1.735  1.00 20.00     0.097 C 
HETATM    4  C4  UNL     1     -33.122  15.216  -3.680  1.00 20.00     0.046 C 
HETATM    5  C5  UNL     1     -35.540  15.506  -3.149  1.00 20.00     0.108 C 
HETATM    6  C6  UNL     1     -33.618  13.796  -3.905  1.00 20.00     0.078 C 
HETATM    7  N7  UNL     1     -35.621  17.734  -0.255  1.00 20.00    -0.192 NA
HETATM    8  S8  UNL     1     -35.418  13.939  -4.067  1.00 20.00    -0.165 SA
ENDROOT
TORSDOF 0
ENDMDL
MODEL 4
REMARK VINA RESULT:      -3.6     13.060     14.470
REMARK  0 active torsions:
REMARK  status: ('A' for Active; 'I' for Inactive)
ROOT
HETATM    1  C1  UNL     1     -34.856  13.513  -5.159  1.00 20.00     0.088 C 
HETATM    2  C2  UNL     1     -34.388  15.599  -6.269  1.00 20.00    -0.060 C 
HETATM    3  C3  UNL     1     -35.002  14.409  -6.249  1.00 20.00     0.097 C 
HETATM    4  C4  UNL     1     -34.508  16.585  -7.394  1.00 20.00     0.046 C 
HETATM    5  C5  UNL     1     -33.581  16.134  -5.126  1.00 20.00     0.108 C 
HETATM    6  C6  UNL     1     -34.714  17.945  -6.747  1.00 20.00     0.078 C 
HETATM    7  N7  UNL     1     -34.739  12.776  -4.271  1.00 20.00    -0.192 NA
HETATM    8  S8  UNL     1     -33.637  17.946  -5.288  1.00 20.00    -0.165 SA
ENDROOT
TORSDOF 0
ENDMDL
MODEL 5
REMARK VINA RESULT:      -3.6     12.370     13.585
REMARK  0 active torsions:
REMARK  status: ('A' for Active; 'I' for Inactive)
ROOT
HETATM    1  C1  UNL     1     -34.614  13.713  -4.953  1.00 20.00     0.088 C 
HETATM    2  C2  UNL     1     -33.822  15.975  -4.706  1.00 20.00    -0.060 C 
HETATM    3  C3  UNL     1     -34.249  14.975  -5.488  1.00 20.00     0.097 C 
HETATM    4  C4  UNL     1     -33.424  17.328  -5.218  1.00 20.00     0.046 C 
HETATM    5  C5  UNL     1     -33.779  15.896  -3.210  1.00 20.00     0.108 C 
HETATM    6  C6  UNL     1     -34.056  18.341  -4.277  1.00 20.00     0.078 C 
HETATM    7  N7  UNL     1     -34.912  12.679  -4.521  1.00 20.00    -0.192 NA
HETATM    8  S8  UNL     1     -33.902  17.615  -2.622  1.00 20.00    -0.165 SA
ENDROOT
TORSDOF 0
ENDMDL
MODEL 6
REMARK VINA RESULT:      -3.5     12.129     12.997
REMARK  0 active torsions:
REMARK  status: ('A' for Active; 'I' for Inactive)
ROOT
HETATM    1  C1  UNL     1     -33.821  17.444  -2.780  1.00 20.00     0.088 C 
HETATM    2  C2  UNL     1     -33.833  15.253  -3.780  1.00 20.00    -0.060 C 
HETATM    3  C3  UNL     1     -33.756  16.030  -2.693  1.00 20.00     0.097 C 
HETATM    4  C4  UNL     1     -33.771  13.754  -3.746  1.00 20.00     0.046 C 
HETATM    5  C5  UNL     1     -34.088  15.782  -5.159  1.00 20.00     0.108 C 
HETATM    6  C6  UNL     1     -34.868  13.262  -4.676  1.00 20.00     0.078 C 
HETATM    7  N7  UNL     1     -33.873  18.601  -2.845  1.00 20.00    -0.192 NA
HETATM    8  S8  UNL     1     -34.856  14.411  -6.079  1.00 20.00    -0.165 SA
ENDROOT
TORSDOF 0
ENDMDL
MODEL 7
REMARK VINA RESULT:      -3.5     12.405     12.940
REMARK  0 active torsions:
REMARK  status: ('A' for Active; 'I' for Inactive)
ROOT
HETATM    1  C1  UNL     1     -33.871  17.234  -1.058  1.00 20.00     0.088 C 
HETATM    2  C2  UNL     1     -34.441  15.738  -2.857  1.00 20.00    -0.060 C 
HETATM    3  C3  UNL     1     -34.655  16.193  -1.617  1.00 20.00     0.097 C 
HETATM    4  C4  UNL     1     -35.239  14.640  -3.497  1.00 20.00     0.046 C 
HETATM    5  C5  UNL     1     -33.438  16.335  -3.797  1.00 20.00     0.108 C 
HETATM    6  C6  UNL     1     -35.544  15.106  -4.912  1.00 20.00     0.078 C 
HETATM    7  N7  UNL     1     -33.232  18.085  -0.596  1.00 20.00    -0.192 NA
HETATM    8  S8  UNL     1     -34.039  15.949  -5.471  1.00 20.00    -0.165 SA
ENDROOT
TORSDOF 0
ENDMDL
MODEL 8
REMARK VINA RESULT:      -3.4     12.405     13.034
REMARK  0 active torsions:
REMARK  status: ('A' for Active; 'I' for Inactive)
ROOT
HETATM    1  C1  UNL     1     -34.399  14.830  -4.399  1.00 20.00     0.088 C 
HETATM    2  C2  UNL     1     -34.500  16.292  -2.488  1.00 20.00    -0.060 C 
HETATM    3  C3  UNL     1     -34.483  15.056  -3.001  1.00 20.00     0.097 C 
HETATM    4  C4  UNL     1     -34.588  16.589  -1.019  1.00 20.00     0.046 C 
HETATM    5  C5  UNL     1     -34.336  17.534  -3.311  1.00 20.00     0.108 C 
HETATM    6  C6  UNL     1     -33.570  17.685  -0.746  1.00 20.00     0.078 C 
HETATM    7  N7  UNL     1     -34.330  14.639  -5.541  1.00 20.00    -0.192 NA
HETATM    8  S8  UNL     1     -33.663  18.791  -2.180  1.00 20.00    -0.165 SA
ENDROOT
TORSDOF 0
ENDMDL
MODEL 9
REMARK VINA RESULT:      -3.4     12.317     13.504
REMARK  0 active torsions:
REMARK  status: ('A' for Active; 'I' for Inactive)
ROOT
HETATM    1  C1  UNL     1     -37.591  14.809  -4.418  1.00 20.00     0.088 C 
HETATM    2  C2  UNL     1     -35.317  15.221  -5.099  1.00 20.00    -0.060 C 
HETATM    3  C3  UNL     1     -36.633  15.371  -5.300  1.00 20.00     0.097 C 
HETATM    4  C4  UNL     1     -34.261  15.794  -5.999  1.00 20.00     0.046 C 
HETATM    5  C5  UNL     1     -34.735  14.543  -3.896  1.00 20.00     0.108 C 
HETATM    6  C6  UNL     1     -33.208  16.399  -5.084  1.00 20.00     0.078 C 
HETATM    7  N7  UNL     1     -38.379  14.351  -3.701  1.00 20.00    -0.192 NA
HETATM    8  S8  UNL     1     -33.071  15.251  -3.688  1.00 20.00    -0.165 SA
ENDROOT
TORSDOF 0
ENDMDL
