MODEL 1
REMARK VINA RESULT:      -5.7      0.000      0.000
REMARK  2 active torsions:
REMARK  status: ('A' for Active; 'I' for Inactive)
REMARK    1  A    between atoms: C3_3  and  C8_8 
REMARK    2  A    between atoms: C7_7  and  C8_8 
ROOT
HETATM    1  C1  UNL     1     -32.912   7.126   5.044  1.00 20.00     0.053 A 
HETATM    2  C2  UNL     1     -34.501   5.844   6.337  1.00 20.00     0.087 A 
HETATM    3  C3  UNL     1     -33.223   6.370   3.914  1.00 20.00    -0.007 A 
HETATM    4  C4  UNL     1     -33.551   6.863   6.256  1.00 20.00     0.120 A 
HETATM    5  C5  UNL     1     -34.813   5.089   5.207  1.00 20.00     0.158 A 
HETATM    6  C6  UNL     1     -34.173   5.352   3.995  1.00 20.00     0.161 A 
HETATM    7  F10 UNL     1     -33.252   7.588   7.343  1.00 20.00    -0.206 F 
HETATM    8  F11 UNL     1     -35.725   4.112   5.284  1.00 20.00    -0.203 F 
HETATM    9  F12 UNL     1     -34.479   4.622   2.914  1.00 20.00    -0.202 F 
ENDROOT
BRANCH   3  10
HETATM   10  C8  UNL     1     -32.538   6.654   2.619  1.00 20.00     0.111 C 
BRANCH  10  11
HETATM   11  C7  UNL     1     -32.085   8.090   2.466  1.00 20.00     0.235 C 
HETATM   12  O9  UNL     1     -32.026   8.690   1.399  1.00 20.00    -0.307 OA
ENDBRANCH  10  11
ENDBRANCH   3  10
TORSDOF 2
ENDMDL
MODEL 2
REMARK VINA RESULT:      -5.0      0.889      2.763
REMARK  2 active torsions:
REMARK  status: ('A' for Active; 'I' for Inactive)
REMARK    1  A    between atoms: C3_3  and  C8_8 
REMARK    2  A    between atoms: C7_7  and  C8_8 
ROOT
HETATM    1  C1  UNL     1     -34.082   5.403   3.538  1.00 20.00     0.053 A 
HETATM    2  C2  UNL     1     -34.702   5.700   5.854  1.00 20.00     0.087 A 
HETATM    3  C3  UNL     1     -33.060   6.340   3.692  1.00 20.00    -0.007 A 
HETATM    4  C4  UNL     1     -34.903   5.083   4.619  1.00 20.00     0.120 A 
HETATM    5  C5  UNL     1     -33.679   6.636   6.009  1.00 20.00     0.158 A 
HETATM    6  C6  UNL     1     -32.859   6.956   4.927  1.00 20.00     0.161 A 
HETATM    7  F10 UNL     1     -35.886   4.184   4.472  1.00 20.00    -0.206 F 
HETATM    8  F11 UNL     1     -33.487   7.229   7.194  1.00 20.00    -0.203 F 
HETATM    9  F12 UNL     1     -31.878   7.856   5.083  1.00 20.00    -0.202 F 
ENDROOT
BRANCH   3  10
HETATM   10  C8  UNL     1     -32.183   6.679   2.533  1.00 20.00     0.111 C 
BRANCH  10  11
HETATM   11  C7  UNL     1     -32.200   8.146   2.159  1.00 20.00     0.235 C 
HETATM   12  O9  UNL     1     -31.830   8.592   1.079  1.00 20.00    -0.307 OA
ENDBRANCH  10  11
ENDBRANCH   3  10
TORSDOF 2
ENDMDL
MODEL 3
REMARK VINA RESULT:      -4.9     11.440     13.083
REMARK  2 active torsions:
REMARK  status: ('A' for Active; 'I' for Inactive)
REMARK    1  A    between atoms: C3_3  and  C8_8 
REMARK    2  A    between atoms: C7_7  and  C8_8 
ROOT
HETATM    1  C1  UNL     1     -34.480  15.479  -2.682  1.00 20.00     0.053 A 
HETATM    2  C2  UNL     1     -33.970  17.754  -2.049  1.00 20.00     0.087 A 
HETATM    3  C3  UNL     1     -34.098  15.760  -3.995  1.00 20.00    -0.007 A 
HETATM    4  C4  UNL     1     -34.415  16.477  -1.710  1.00 20.00     0.120 A 
HETATM    5  C5  UNL     1     -33.587  18.035  -3.361  1.00 20.00     0.158 A 
HETATM    6  C6  UNL     1     -33.652  17.037  -4.333  1.00 20.00     0.161 A 
HETATM    7  F10 UNL     1     -34.782  16.209  -0.449  1.00 20.00    -0.206 F 
HETATM    8  F11 UNL     1     -33.159  19.261  -3.687  1.00 20.00    -0.203 F 
HETATM    9  F12 UNL     1     -33.283  17.314  -5.592  1.00 20.00    -0.202 F 
ENDROOT
BRANCH   3  10
HETATM   10  C8  UNL     1     -34.167  14.690  -5.033  1.00 20.00     0.111 C 
BRANCH  10  11
HETATM   11  C7  UNL     1     -34.193  13.286  -4.468  1.00 20.00     0.235 C 
HETATM   12  O9  UNL     1     -35.198  12.589  -4.384  1.00 20.00    -0.307 OA
ENDBRANCH  10  11
ENDBRANCH   3  10
TORSDOF 2
ENDMDL
MODEL 4
REMARK VINA RESULT:      -4.9      9.969     11.026
REMARK  2 active torsions:
REMARK  status: ('A' for Active; 'I' for Inactive)
REMARK    1  A    between atoms: C3_3  and  C8_8 
REMARK    2  A    between atoms: C7_7  and  C8_8 
ROOT
HETATM    1  C1  UNL     1     -42.420   5.220  -2.680  1.00 20.00     0.053 A 
HETATM    2  C2  UNL     1     -40.797   4.677  -0.974  1.00 20.00     0.087 A 
HETATM    3  C3  UNL     1     -42.441   6.544  -2.237  1.00 20.00    -0.007 A 
HETATM    4  C4  UNL     1     -41.597   4.288  -2.048  1.00 20.00     0.120 A 
HETATM    5  C5  UNL     1     -40.818   6.000  -0.532  1.00 20.00     0.158 A 
HETATM    6  C6  UNL     1     -41.640   6.933  -1.163  1.00 20.00     0.161 A 
HETATM    7  F10 UNL     1     -41.576   3.017  -2.472  1.00 20.00    -0.206 F 
HETATM    8  F11 UNL     1     -40.050   6.374   0.500  1.00 20.00    -0.203 F 
HETATM    9  F12 UNL     1     -41.655   8.202  -0.733  1.00 20.00    -0.202 F 
ENDROOT
BRANCH   3  10
HETATM   10  C8  UNL     1     -43.321   7.539  -2.915  1.00 20.00     0.111 C 
BRANCH  10  11
HETATM   11  C7  UNL     1     -42.783   8.033  -4.241  1.00 20.00     0.235 C 
HETATM   12  O9  UNL     1     -43.417   8.040  -5.290  1.00 20.00    -0.307 OA
ENDBRANCH  10  11
ENDBRANCH   3  10
TORSDOF 2
ENDMDL
MODEL 5
REMARK VINA RESULT:      -4.9     11.609     12.098
REMARK  2 active torsions:
REMARK  status: ('A' for Active; 'I' for Inactive)
REMARK    1  A    between atoms: C3_3  and  C8_8 
REMARK    2  A    between atoms: C7_7  and  C8_8 
ROOT
HETATM    1  C1  UNL     1     -35.904  15.639  -2.912  1.00 20.00     0.053 A 
HETATM    2  C2  UNL     1     -35.763  13.702  -4.349  1.00 20.00     0.087 A 
HETATM    3  C3  UNL     1     -34.514  15.649  -2.791  1.00 20.00    -0.007 A 
HETATM    4  C4  UNL     1     -36.528  14.666  -3.692  1.00 20.00     0.120 A 
HETATM    5  C5  UNL     1     -34.374  13.712  -4.228  1.00 20.00     0.158 A 
HETATM    6  C6  UNL     1     -33.749  14.685  -3.448  1.00 20.00     0.161 A 
HETATM    7  F10 UNL     1     -37.863  14.656  -3.809  1.00 20.00    -0.206 F 
HETATM    8  F11 UNL     1     -33.639  12.786  -4.858  1.00 20.00    -0.203 F 
HETATM    9  F12 UNL     1     -32.414  14.688  -3.336  1.00 20.00    -0.202 F 
ENDROOT
BRANCH   3  10
HETATM   10  C8  UNL     1     -33.849  16.692  -1.956  1.00 20.00     0.111 C 
BRANCH  10  11
HETATM   11  C7  UNL     1     -34.528  16.940  -0.626  1.00 20.00     0.235 C 
HETATM   12  O9  UNL     1     -34.096  17.683   0.247  1.00 20.00    -0.307 OA
ENDBRANCH  10  11
ENDBRANCH   3  10
TORSDOF 2
ENDMDL
MODEL 6
REMARK VINA RESULT:      -4.8     11.420     13.359
REMARK  2 active torsions:
REMARK  status: ('A' for Active; 'I' for Inactive)
REMARK    1  A    between atoms: C3_3  and  C8_8 
REMARK    2  A    between atoms: C7_7  and  C8_8 
ROOT
HETATM    1  C1  UNL     1     -33.565  16.275  -4.689  1.00 20.00     0.053 A 
HETATM    2  C2  UNL     1     -33.815  18.471  -3.711  1.00 20.00     0.087 A 
HETATM    3  C3  UNL     1     -33.895  15.694  -3.464  1.00 20.00    -0.007 A 
HETATM    4  C4  UNL     1     -33.525  17.664  -4.812  1.00 20.00     0.120 A 
HETATM    5  C5  UNL     1     -34.145  17.889  -2.487  1.00 20.00     0.158 A 
HETATM    6  C6  UNL     1     -34.185  16.500  -2.364  1.00 20.00     0.161 A 
HETATM    7  F10 UNL     1     -33.208  18.224  -5.987  1.00 20.00    -0.206 F 
HETATM    8  F11 UNL     1     -34.423  18.664  -1.431  1.00 20.00    -0.203 F 
HETATM    9  F12 UNL     1     -34.503  15.949  -1.184  1.00 20.00    -0.202 F 
ENDROOT
BRANCH   3  10
HETATM   10  C8  UNL     1     -33.937  14.208  -3.336  1.00 20.00     0.111 C 
BRANCH  10  11
HETATM   11  C7  UNL     1     -35.016  13.549  -4.169  1.00 20.00     0.235 C 
HETATM   12  O9  UNL     1     -34.862  12.521  -4.818  1.00 20.00    -0.307 OA
ENDBRANCH  10  11
ENDBRANCH   3  10
TORSDOF 2
ENDMDL
MODEL 7
REMARK VINA RESULT:      -4.8     11.451     13.167
REMARK  2 active torsions:
REMARK  status: ('A' for Active; 'I' for Inactive)
REMARK    1  A    between atoms: C3_3  and  C8_8 
REMARK    2  A    between atoms: C7_7  and  C8_8 
ROOT
HETATM    1  C1  UNL     1     -34.524  14.739  -3.150  1.00 20.00     0.053 A 
HETATM    2  C2  UNL     1     -34.534  14.518  -5.556  1.00 20.00     0.087 A 
HETATM    3  C3  UNL     1     -34.011  16.031  -3.272  1.00 20.00    -0.007 A 
HETATM    4  C4  UNL     1     -34.786  13.983  -4.293  1.00 20.00     0.120 A 
HETATM    5  C5  UNL     1     -34.022  15.810  -5.678  1.00 20.00     0.158 A 
HETATM    6  C6  UNL     1     -33.760  16.566  -4.535  1.00 20.00     0.161 A 
HETATM    7  F10 UNL     1     -35.278  12.743  -4.177  1.00 20.00    -0.206 F 
HETATM    8  F11 UNL     1     -33.780  16.323  -6.891  1.00 20.00    -0.203 F 
HETATM    9  F12 UNL     1     -33.267  17.806  -4.661  1.00 20.00    -0.202 F 
ENDROOT
BRANCH   3  10
HETATM   10  C8  UNL     1     -33.732  16.838  -2.048  1.00 20.00     0.111 C 
BRANCH  10  11
HETATM   11  C7  UNL     1     -34.670  16.549  -0.895  1.00 20.00     0.235 C 
HETATM   12  O9  UNL     1     -34.683  17.169   0.162  1.00 20.00    -0.307 OA
ENDBRANCH  10  11
ENDBRANCH   3  10
TORSDOF 2
ENDMDL
MODEL 8
REMARK VINA RESULT:      -4.7      9.918     10.914
REMARK  2 active torsions:
REMARK  status: ('A' for Active; 'I' for Inactive)
REMARK    1  A    between atoms: C3_3  and  C8_8 
REMARK    2  A    between atoms: C7_7  and  C8_8 
ROOT
HETATM    1  C1  UNL     1     -41.214   4.865  -0.696  1.00 20.00     0.053 A 
HETATM    2  C2  UNL     1     -41.152   7.242  -1.125  1.00 20.00     0.087 A 
HETATM    3  C3  UNL     1     -41.995   4.681  -1.838  1.00 20.00    -0.007 A 
HETATM    4  C4  UNL     1     -40.792   6.146  -0.340  1.00 20.00     0.120 A 
HETATM    5  C5  UNL     1     -41.933   7.057  -2.266  1.00 20.00     0.158 A 
HETATM    6  C6  UNL     1     -42.354   5.777  -2.622  1.00 20.00     0.161 A 
HETATM    7  F10 UNL     1     -40.042   6.324   0.755  1.00 20.00    -0.206 F 
HETATM    8  F11 UNL     1     -42.278   8.110  -3.019  1.00 20.00    -0.203 F 
HETATM    9  F12 UNL     1     -43.105   5.608  -3.719  1.00 20.00    -0.202 F 
ENDROOT
BRANCH   3  10
HETATM   10  C8  UNL     1     -42.445   3.309  -2.216  1.00 20.00     0.111 C 
BRANCH  10  11
HETATM   11  C7  UNL     1     -41.534   2.616  -3.207  1.00 20.00     0.235 C 
HETATM   12  O9  UNL     1     -41.558   1.414  -3.450  1.00 20.00    -0.307 OA
ENDBRANCH  10  11
ENDBRANCH   3  10
TORSDOF 2
ENDMDL
MODEL 9
REMARK VINA RESULT:      -4.7     11.593     13.182
REMARK  2 active torsions:
REMARK  status: ('A' for Active; 'I' for Inactive)
REMARK    1  A    between atoms: C3_3  and  C8_8 
REMARK    2  A    between atoms: C7_7  and  C8_8 
ROOT
HETATM    1  C1  UNL     1     -33.835  16.742  -4.927  1.00 20.00     0.053 A 
HETATM    2  C2  UNL     1     -34.485  15.001  -6.471  1.00 20.00     0.087 A 
HETATM    3  C3  UNL     1     -33.877  15.825  -3.876  1.00 20.00    -0.007 A 
HETATM    4  C4  UNL     1     -34.139  16.329  -6.224  1.00 20.00     0.120 A 
HETATM    5  C5  UNL     1     -34.526  14.084  -5.420  1.00 20.00     0.158 A 
HETATM    6  C6  UNL     1     -34.222  14.497  -4.123  1.00 20.00     0.161 A 
HETATM    7  F10 UNL     1     -34.100  17.209  -7.234  1.00 20.00    -0.206 F 
HETATM    8  F11 UNL     1     -34.859  12.808  -5.657  1.00 20.00    -0.203 F 
HETATM    9  F12 UNL     1     -34.264  13.610  -3.119  1.00 20.00    -0.202 F 
ENDROOT
BRANCH   3  10
HETATM   10  C8  UNL     1     -33.550  16.270  -2.490  1.00 20.00     0.111 C 
BRANCH  10  11
HETATM   11  C7  UNL     1     -34.752  16.358  -1.574  1.00 20.00     0.235 C 
HETATM   12  O9  UNL     1     -34.705  16.686  -0.394  1.00 20.00    -0.307 OA
ENDBRANCH  10  11
ENDBRANCH   3  10
TORSDOF 2
ENDMDL
