MODEL 1
REMARK VINA RESULT:      -3.7      0.000      0.000
REMARK  4 active torsions:
REMARK  status: ('A' for Active; 'I' for Inactive)
REMARK    1  A    between atoms: C4_4  and  C5_5 
REMARK    2  A    between atoms: C4_4  and  O8_8 
REMARK    3  A    between atoms: C5_5  and  S9_9 
REMARK    4  A    between atoms: C6_6  and  S9_9 
ROOT
HETATM    1  C1  UNL     1     -34.714  13.825  -5.034  1.00 20.00     0.074 C 
HETATM    2  C2  UNL     1     -34.435  15.086  -7.134  1.00 20.00     0.037 C 
HETATM    3  C6  UNL     1     -34.645  15.167  -5.626  1.00 20.00     0.150 C 
HETATM    4  N7  UNL     1     -34.771  12.766  -4.561  1.00 20.00    -0.196 NA
ENDROOT
BRANCH   3   5
HETATM    5  S9  UNL     1     -33.311  16.137  -4.887  1.00 20.00    -0.148 SA
BRANCH   5   6
HETATM    6  C5  UNL     1     -33.506  15.578  -3.167  1.00 20.00     0.101 C 
BRANCH   6   7
HETATM    7  C4  UNL     1     -33.909  16.725  -2.253  1.00 20.00     0.177 C 
BRANCH   7   8
HETATM    8  O8  UNL     1     -34.671  16.232  -1.160  1.00 20.00    -0.395 OA
HETATM    9  C3  UNL     1     -34.722  17.171  -0.094  1.00 20.00     0.201 C 
ENDBRANCH   7   8
ENDBRANCH   6   7
ENDBRANCH   5   6
ENDBRANCH   3   5
TORSDOF 4
ENDMDL
MODEL 2
REMARK VINA RESULT:      -3.6      2.440      4.273
REMARK  4 active torsions:
REMARK  status: ('A' for Active; 'I' for Inactive)
REMARK    1  A    between atoms: C4_4  and  C5_5 
REMARK    2  A    between atoms: C4_4  and  O8_8 
REMARK    3  A    between atoms: C5_5  and  S9_9 
REMARK    4  A    between atoms: C6_6  and  S9_9 
ROOT
HETATM    1  C1  UNL     1     -34.490  13.786  -3.901  1.00 20.00     0.074 C 
HETATM    2  C2  UNL     1     -34.864  15.704  -2.398  1.00 20.00     0.037 C 
HETATM    3  C6  UNL     1     -33.869  14.966  -3.285  1.00 20.00     0.150 C 
HETATM    4  N7  UNL     1     -34.977  12.852  -4.389  1.00 20.00    -0.196 NA
ENDROOT
BRANCH   3   5
HETATM    5  S9  UNL     1     -33.233  16.098  -4.541  1.00 20.00    -0.148 SA
BRANCH   5   6
HETATM    6  C5  UNL     1     -34.815  16.530  -5.327  1.00 20.00     0.101 C 
BRANCH   6   7
HETATM    7  C4  UNL     1     -34.725  16.445  -6.842  1.00 20.00     0.177 C 
BRANCH   7   8
HETATM    8  O8  UNL     1     -34.351  15.132  -7.235  1.00 20.00    -0.395 OA
HETATM    9  C3  UNL     1     -35.467  14.394  -7.716  1.00 20.00     0.201 C 
ENDBRANCH   7   8
ENDBRANCH   6   7
ENDBRANCH   5   6
ENDBRANCH   3   5
TORSDOF 4
ENDMDL
MODEL 3
REMARK VINA RESULT:      -3.6     11.880     12.670
REMARK  4 active torsions:
REMARK  status: ('A' for Active; 'I' for Inactive)
REMARK    1  A    between atoms: C4_4  and  C5_5 
REMARK    2  A    between atoms: C4_4  and  O8_8 
REMARK    3  A    between atoms: C5_5  and  S9_9 
REMARK    4  A    between atoms: C6_6  and  S9_9 
ROOT
HETATM    1  C1  UNL     1     -34.255   6.253   6.102  1.00 20.00     0.074 C 
HETATM    2  C2  UNL     1     -34.812   3.894   5.646  1.00 20.00     0.037 C 
HETATM    3  C6  UNL     1     -34.988   5.344   5.210  1.00 20.00     0.150 C 
HETATM    4  N7  UNL     1     -33.679   6.974   6.806  1.00 20.00    -0.196 NA
ENDROOT
BRANCH   3   5
HETATM    5  S9  UNL     1     -34.436   5.527   3.499  1.00 20.00    -0.148 SA
BRANCH   5   6
HETATM    6  C5  UNL     1     -32.932   6.500   3.813  1.00 20.00     0.101 C 
BRANCH   6   7
HETATM    7  C4  UNL     1     -32.275   6.941   2.515  1.00 20.00     0.177 C 
BRANCH   7   8
HETATM    8  O8  UNL     1     -32.263   8.360   2.433  1.00 20.00    -0.395 OA
HETATM    9  C3  UNL     1     -31.980   8.803   1.112  1.00 20.00     0.201 C 
ENDBRANCH   7   8
ENDBRANCH   6   7
ENDBRANCH   5   6
ENDBRANCH   3   5
TORSDOF 4
ENDMDL
MODEL 4
REMARK VINA RESULT:      -3.6      1.811      1.838
REMARK  4 active torsions:
REMARK  status: ('A' for Active; 'I' for Inactive)
REMARK    1  A    between atoms: C4_4  and  C5_5 
REMARK    2  A    between atoms: C4_4  and  O8_8 
REMARK    3  A    between atoms: C5_5  and  S9_9 
REMARK    4  A    between atoms: C6_6  and  S9_9 
ROOT
HETATM    1  C1  UNL     1     -36.808  14.496  -4.196  1.00 20.00     0.074 C 
HETATM    2  C2  UNL     1     -35.374  14.337  -6.195  1.00 20.00     0.037 C 
HETATM    3  C6  UNL     1     -35.467  14.761  -4.733  1.00 20.00     0.150 C 
HETATM    4  N7  UNL     1     -37.867  14.289  -3.767  1.00 20.00    -0.196 NA
ENDROOT
BRANCH   3   5
HETATM    5  S9  UNL     1     -34.200  13.897  -3.778  1.00 20.00    -0.148 SA
BRANCH   5   6
HETATM    6  C5  UNL     1     -33.100  15.312  -3.466  1.00 20.00     0.101 C 
BRANCH   6   7
HETATM    7  C4  UNL     1     -33.832  16.438  -2.754  1.00 20.00     0.177 C 
BRANCH   7   8
HETATM    8  O8  UNL     1     -34.533  15.929  -1.628  1.00 20.00    -0.395 OA
HETATM    9  C3  UNL     1     -34.606  16.888  -0.581  1.00 20.00     0.201 C 
ENDBRANCH   7   8
ENDBRANCH   6   7
ENDBRANCH   5   6
ENDBRANCH   3   5
TORSDOF 4
ENDMDL
MODEL 5
REMARK VINA RESULT:      -3.5      2.753      3.584
REMARK  4 active torsions:
REMARK  status: ('A' for Active; 'I' for Inactive)
REMARK    1  A    between atoms: C4_4  and  C5_5 
REMARK    2  A    between atoms: C4_4  and  O8_8 
REMARK    3  A    between atoms: C5_5  and  S9_9 
REMARK    4  A    between atoms: C6_6  and  S9_9 
ROOT
HETATM    1  C1  UNL     1     -37.178  15.224  -3.581  1.00 20.00     0.074 C 
HETATM    2  C2  UNL     1     -35.690  16.771  -4.794  1.00 20.00     0.037 C 
HETATM    3  C6  UNL     1     -36.236  16.342  -3.436  1.00 20.00     0.150 C 
HETATM    4  N7  UNL     1     -37.924  14.341  -3.690  1.00 20.00    -0.196 NA
ENDROOT
BRANCH   3   5
HETATM    5  S9  UNL     1     -34.861  15.900  -2.351  1.00 20.00    -0.148 SA
BRANCH   5   6
HETATM    6  C5  UNL     1     -33.594  15.638  -3.629  1.00 20.00     0.101 C 
BRANCH   6   7
HETATM    7  C4  UNL     1     -33.079  14.208  -3.616  1.00 20.00     0.177 C 
BRANCH   7   8
HETATM    8  O8  UNL     1     -34.168  13.296  -3.662  1.00 20.00    -0.395 OA
HETATM    9  C3  UNL     1     -34.630  13.103  -4.993  1.00 20.00     0.201 C 
ENDBRANCH   7   8
ENDBRANCH   6   7
ENDBRANCH   5   6
ENDBRANCH   3   5
TORSDOF 4
ENDMDL
MODEL 6
REMARK VINA RESULT:      -3.5      1.750      2.046
REMARK  4 active torsions:
REMARK  status: ('A' for Active; 'I' for Inactive)
REMARK    1  A    between atoms: C4_4  and  C5_5 
REMARK    2  A    between atoms: C4_4  and  O8_8 
REMARK    3  A    between atoms: C5_5  and  S9_9 
REMARK    4  A    between atoms: C6_6  and  S9_9 
ROOT
HETATM    1  C1  UNL     1     -36.168  14.149  -4.263  1.00 20.00     0.074 C 
HETATM    2  C2  UNL     1     -33.798  13.562  -3.921  1.00 20.00     0.037 C 
HETATM    3  C6  UNL     1     -34.859  14.019  -4.916  1.00 20.00     0.150 C 
HETATM    4  N7  UNL     1     -37.205  14.252  -3.752  1.00 20.00    -0.196 NA
ENDROOT
BRANCH   3   5
HETATM    5  S9  UNL     1     -34.345  15.583  -5.662  1.00 20.00    -0.148 SA
BRANCH   5   6
HETATM    6  C5  UNL     1     -33.208  16.134  -4.354  1.00 20.00     0.101 C 
BRANCH   6   7
HETATM    7  C4  UNL     1     -33.821  17.244  -3.516  1.00 20.00     0.177 C 
BRANCH   7   8
HETATM    8  O8  UNL     1     -33.602  16.991  -2.135  1.00 20.00    -0.395 OA
HETATM    9  C3  UNL     1     -34.709  16.321  -1.546  1.00 20.00     0.201 C 
ENDBRANCH   7   8
ENDBRANCH   6   7
ENDBRANCH   5   6
ENDBRANCH   3   5
TORSDOF 4
ENDMDL
MODEL 7
REMARK VINA RESULT:      -3.5      1.312      1.378
REMARK  4 active torsions:
REMARK  status: ('A' for Active; 'I' for Inactive)
REMARK    1  A    between atoms: C4_4  and  C5_5 
REMARK    2  A    between atoms: C4_4  and  O8_8 
REMARK    3  A    between atoms: C5_5  and  S9_9 
REMARK    4  A    between atoms: C6_6  and  S9_9 
ROOT
HETATM    1  C1  UNL     1     -35.026  13.623  -5.220  1.00 20.00     0.074 C 
HETATM    2  C2  UNL     1     -34.476  14.891  -7.262  1.00 20.00     0.037 C 
HETATM    3  C6  UNL     1     -35.465  14.700  -6.118  1.00 20.00     0.150 C 
HETATM    4  N7  UNL     1     -34.684  12.773  -4.508  1.00 20.00    -0.196 NA
ENDROOT
BRANCH   3   5
HETATM    5  S9  UNL     1     -35.655  16.258  -5.223  1.00 20.00    -0.148 SA
BRANCH   5   6
HETATM    6  C5  UNL     1     -33.901  16.553  -4.842  1.00 20.00     0.101 C 
BRANCH   6   7
HETATM    7  C4  UNL     1     -33.718  17.054  -3.419  1.00 20.00     0.177 C 
BRANCH   7   8
HETATM    8  O8  UNL     1     -33.889  15.984  -2.500  1.00 20.00    -0.395 OA
HETATM    9  C3  UNL     1     -34.628  16.392  -1.356  1.00 20.00     0.201 C 
ENDBRANCH   7   8
ENDBRANCH   6   7
ENDBRANCH   5   6
ENDBRANCH   3   5
TORSDOF 4
ENDMDL
MODEL 8
REMARK VINA RESULT:      -3.5     11.648     12.450
REMARK  4 active torsions:
REMARK  status: ('A' for Active; 'I' for Inactive)
REMARK    1  A    between atoms: C4_4  and  C5_5 
REMARK    2  A    between atoms: C4_4  and  O8_8 
REMARK    3  A    between atoms: C5_5  and  S9_9 
REMARK    4  A    between atoms: C6_6  and  S9_9 
ROOT
HETATM    1  C1  UNL     1     -34.600   4.541   5.465  1.00 20.00     0.074 C 
HETATM    2  C2  UNL     1     -33.962   6.703   6.464  1.00 20.00     0.037 C 
HETATM    3  C6  UNL     1     -33.748   5.728   5.311  1.00 20.00     0.150 C 
HETATM    4  N7  UNL     1     -35.270   3.600   5.583  1.00 20.00    -0.196 NA
ENDROOT
BRANCH   3   5
HETATM    5  S9  UNL     1     -34.079   6.569   3.747  1.00 20.00    -0.148 SA
BRANCH   5   6
HETATM    6  C5  UNL     1     -32.419   6.426   3.019  1.00 20.00     0.101 C 
BRANCH   6   7
HETATM    7  C4  UNL     1     -31.746   7.784   2.900  1.00 20.00     0.177 C 
BRANCH   7   8
HETATM    8  O8  UNL     1     -31.808   8.244   1.557  1.00 20.00    -0.395 OA
HETATM    9  C3  UNL     1     -32.405   9.531   1.473  1.00 20.00     0.201 C 
ENDBRANCH   7   8
ENDBRANCH   6   7
ENDBRANCH   5   6
ENDBRANCH   3   5
TORSDOF 4
ENDMDL
MODEL 9
REMARK VINA RESULT:      -3.5      2.784      3.132
REMARK  4 active torsions:
REMARK  status: ('A' for Active; 'I' for Inactive)
REMARK    1  A    between atoms: C4_4  and  C5_5 
REMARK    2  A    between atoms: C4_4  and  O8_8 
REMARK    3  A    between atoms: C5_5  and  S9_9 
REMARK    4  A    between atoms: C6_6  and  S9_9 
ROOT
HETATM    1  C1  UNL     1     -37.098  14.591  -4.074  1.00 20.00     0.074 C 
HETATM    2  C2  UNL     1     -35.927  14.834  -6.231  1.00 20.00     0.037 C 
HETATM    3  C6  UNL     1     -35.787  14.769  -4.714  1.00 20.00     0.150 C 
HETATM    4  N7  UNL     1     -38.131  14.452  -3.564  1.00 20.00    -0.196 NA
ENDROOT
BRANCH   3   5
HETATM    5  S9  UNL     1     -34.660  13.427  -4.274  1.00 20.00    -0.148 SA
BRANCH   5   6
HETATM    6  C5  UNL     1     -33.218  14.437  -3.820  1.00 20.00     0.101 C 
BRANCH   6   7
HETATM    7  C4  UNL     1     -33.555  15.920  -3.820  1.00 20.00     0.177 C 
BRANCH   7   8
HETATM    8  O8  UNL     1     -32.842  16.582  -4.856  1.00 20.00    -0.395 OA
HETATM    9  C3  UNL     1     -33.527  17.746  -5.299  1.00 20.00     0.201 C 
ENDBRANCH   7   8
ENDBRANCH   6   7
ENDBRANCH   5   6
ENDBRANCH   3   5
TORSDOF 4
ENDMDL
