MODEL 1
REMARK VINA RESULT:      -4.9      0.000      0.000
REMARK  3 active torsions:
REMARK  status: ('A' for Active; 'I' for Inactive)
REMARK    1  A    between atoms: C5_5  and  C9_9 
REMARK    2  A    between atoms: C6_6  and  C10_10 
REMARK    3  A    between atoms: C10_10  and  C11_11 
ROOT
HETATM    1  C1  UNL     1     -34.806  13.692  -4.380  1.00 20.00     0.131 C 
HETATM    2  C2  UNL     1     -33.458  13.762  -3.696  1.00 20.00     0.079 C 
HETATM    3  C3  UNL     1     -33.069  15.210  -3.430  1.00 20.00     0.012 C 
HETATM    4  C4  UNL     1     -35.491  15.905  -3.448  1.00 20.00     0.016 C 
HETATM    5  C5  UNL     1     -35.936  14.462  -3.707  1.00 20.00     0.055 C 
HETATM    6  C6  UNL     1     -34.167  15.963  -2.668  1.00 20.00    -0.013 C 
HETATM    7  O12 UNL     1     -34.978  12.977  -5.365  1.00 20.00    -0.298 OA
ENDROOT
BRANCH   6   8
HETATM    8  C10 UNL     1     -33.752  17.413  -2.422  1.00 20.00     0.004 C 
BRANCH   8   9
HETATM    9  C11 UNL     1     -33.567  17.688  -0.933  1.00 20.00    -0.004 C 
HETATM   10  C8  UNL     1     -34.711  17.106  -0.119  1.00 20.00     0.005 C 
ENDBRANCH   8   9
ENDBRANCH   6   8
BRANCH   5  11
HETATM   11  C9  UNL     1     -37.213  14.434  -4.543  1.00 20.00     0.007 C 
HETATM   12  C7  UNL     1     -38.396  14.906  -3.762  1.00 20.00     0.006 C 
ENDBRANCH   5  11
TORSDOF 3
ENDMDL
MODEL 2
REMARK VINA RESULT:      -4.8      1.727      2.582
REMARK  3 active torsions:
REMARK  status: ('A' for Active; 'I' for Inactive)
REMARK    1  A    between atoms: C5_5  and  C9_9 
REMARK    2  A    between atoms: C6_6  and  C10_10 
REMARK    3  A    between atoms: C10_10  and  C11_11 
ROOT
HETATM    1  C1  UNL     1     -33.724  16.128  -4.966  1.00 20.00     0.131 C 
HETATM    2  C2  UNL     1     -33.412  17.502  -4.413  1.00 20.00     0.079 C 
HETATM    3  C3  UNL     1     -34.162  17.735  -3.108  1.00 20.00     0.012 C 
HETATM    4  C4  UNL     1     -34.303  15.252  -2.700  1.00 20.00     0.016 C 
HETATM    5  C5  UNL     1     -33.543  14.963  -4.000  1.00 20.00     0.055 C 
HETATM    6  C6  UNL     1     -33.907  16.610  -2.097  1.00 20.00    -0.013 C 
HETATM    7  O12 UNL     1     -34.014  15.975  -6.151  1.00 20.00    -0.298 OA
ENDROOT
BRANCH   6   8
HETATM    8  C10 UNL     1     -34.676  16.867  -0.802  1.00 20.00     0.004 C 
BRANCH   8   9
HETATM    9  C11 UNL     1     -34.012  17.962   0.026  1.00 20.00    -0.004 C 
HETATM   10  C8  UNL     1     -34.642  18.066   1.406  1.00 20.00     0.005 C 
ENDBRANCH   8   9
ENDBRANCH   6   8
BRANCH   5  11
HETATM   11  C9  UNL     1     -34.007  13.645  -4.613  1.00 20.00     0.007 C 
HETATM   12  C7  UNL     1     -35.440  13.362  -4.299  1.00 20.00     0.006 C 
ENDBRANCH   5  11
TORSDOF 3
ENDMDL
MODEL 3
REMARK VINA RESULT:      -4.8     10.604     11.677
REMARK  3 active torsions:
REMARK  status: ('A' for Active; 'I' for Inactive)
REMARK    1  A    between atoms: C5_5  and  C9_9 
REMARK    2  A    between atoms: C6_6  and  C10_10 
REMARK    3  A    between atoms: C10_10  and  C11_11 
ROOT
HETATM    1  C1  UNL     1     -34.766   5.276   4.006  1.00 20.00     0.131 C 
HETATM    2  C2  UNL     1     -34.231   5.093   2.603  1.00 20.00     0.079 C 
HETATM    3  C3  UNL     1     -33.411   6.305   2.182  1.00 20.00     0.012 C 
HETATM    4  C4  UNL     1     -32.932   6.868   4.591  1.00 20.00     0.016 C 
HETATM    5  C5  UNL     1     -33.739   5.655   5.068  1.00 20.00     0.055 C 
HETATM    6  C6  UNL     1     -32.314   6.633   3.203  1.00 20.00    -0.013 C 
HETATM    7  O12 UNL     1     -35.943   5.038   4.269  1.00 20.00    -0.298 OA
ENDROOT
BRANCH   6   8
HETATM    8  C10 UNL     1     -31.513   7.855   2.758  1.00 20.00     0.004 C 
BRANCH   8   9
HETATM    9  C11 UNL     1     -31.995   8.368   1.405  1.00 20.00    -0.004 C 
HETATM   10  C8  UNL     1     -32.445   9.818   1.495  1.00 20.00     0.005 C 
ENDBRANCH   8   9
ENDBRANCH   6   8
BRANCH   5  11
HETATM   11  C9  UNL     1     -34.399   5.942   6.413  1.00 20.00     0.007 C 
HETATM   12  C7  UNL     1     -33.885   7.205   7.024  1.00 20.00     0.006 C 
ENDBRANCH   5  11
TORSDOF 3
ENDMDL
MODEL 4
REMARK VINA RESULT:      -4.6      1.426      1.635
REMARK  3 active torsions:
REMARK  status: ('A' for Active; 'I' for Inactive)
REMARK    1  A    between atoms: C5_5  and  C9_9 
REMARK    2  A    between atoms: C6_6  and  C10_10 
REMARK    3  A    between atoms: C10_10  and  C11_11 
ROOT
HETATM    1  C1  UNL     1     -35.227  14.199  -5.535  1.00 20.00     0.131 C 
HETATM    2  C2  UNL     1     -34.236  13.534  -4.605  1.00 20.00     0.079 C 
HETATM    3  C3  UNL     1     -33.580  14.565  -3.697  1.00 20.00     0.012 C 
HETATM    4  C4  UNL     1     -35.554  16.109  -3.960  1.00 20.00     0.016 C 
HETATM    5  C5  UNL     1     -36.262  15.102  -4.872  1.00 20.00     0.055 C 
HETATM    6  C6  UNL     1     -34.621  15.414  -2.956  1.00 20.00    -0.013 C 
HETATM    7  O12 UNL     1     -35.238  13.941  -6.737  1.00 20.00    -0.298 OA
ENDROOT
BRANCH   6   8
HETATM    8  C10 UNL     1     -33.935  16.443  -2.058  1.00 20.00     0.004 C 
BRANCH   8   9
HETATM    9  C11 UNL     1     -34.697  16.631  -0.751  1.00 20.00    -0.004 C 
HETATM   10  C8  UNL     1     -34.159  17.818   0.033  1.00 20.00     0.005 C 
ENDBRANCH   8   9
ENDBRANCH   6   8
BRANCH   5  11
HETATM   11  C9  UNL     1     -37.125  15.822  -5.904  1.00 20.00     0.007 C 
HETATM   12  C7  UNL     1     -36.623  17.202  -6.179  1.00 20.00     0.006 C 
ENDBRANCH   5  11
TORSDOF 3
ENDMDL
MODEL 5
REMARK VINA RESULT:      -4.6      2.661      5.110
REMARK  3 active torsions:
REMARK  status: ('A' for Active; 'I' for Inactive)
REMARK    1  A    between atoms: C5_5  and  C9_9 
REMARK    2  A    between atoms: C6_6  and  C10_10 
REMARK    3  A    between atoms: C10_10  and  C11_11 
ROOT
HETATM    1  C1  UNL     1     -35.885  18.016  -1.472  1.00 20.00     0.131 C 
HETATM    2  C2  UNL     1     -36.534  17.283  -2.625  1.00 20.00     0.079 C 
HETATM    3  C3  UNL     1     -35.475  16.681  -3.539  1.00 20.00     0.012 C 
HETATM    4  C4  UNL     1     -33.814  16.632  -1.645  1.00 20.00     0.016 C 
HETATM    5  C5  UNL     1     -34.845  17.230  -0.682  1.00 20.00     0.055 C 
HETATM    6  C6  UNL     1     -34.481  15.810  -2.759  1.00 20.00    -0.013 C 
HETATM    7  O12 UNL     1     -36.255  19.144  -1.151  1.00 20.00    -0.298 OA
ENDROOT
BRANCH   6   8
HETATM    8  C10 UNL     1     -33.428  15.225  -3.699  1.00 20.00     0.004 C 
BRANCH   8   9
HETATM    9  C11 UNL     1     -33.553  13.708  -3.792  1.00 20.00    -0.004 C 
HETATM   10  C8  UNL     1     -34.599  13.304  -4.819  1.00 20.00     0.005 C 
ENDBRANCH   8   9
ENDBRANCH   6   8
BRANCH   5  11
HETATM   11  C9  UNL     1     -34.161  18.097   0.371  1.00 20.00     0.007 C 
HETATM   12  C7  UNL     1     -32.826  18.580  -0.093  1.00 20.00     0.006 C 
ENDBRANCH   5  11
TORSDOF 3
ENDMDL
MODEL 6
REMARK VINA RESULT:      -4.5      1.467      2.889
REMARK  3 active torsions:
REMARK  status: ('A' for Active; 'I' for Inactive)
REMARK    1  A    between atoms: C5_5  and  C9_9 
REMARK    2  A    between atoms: C6_6  and  C10_10 
REMARK    3  A    between atoms: C10_10  and  C11_11 
ROOT
HETATM    1  C1  UNL     1     -37.118  15.094  -3.848  1.00 20.00     0.131 C 
HETATM    2  C2  UNL     1     -37.682  16.489  -3.690  1.00 20.00     0.079 C 
HETATM    3  C3  UNL     1     -36.858  17.289  -2.691  1.00 20.00     0.012 C 
HETATM    4  C4  UNL     1     -34.844  15.840  -3.133  1.00 20.00     0.016 C 
HETATM    5  C5  UNL     1     -35.627  15.008  -4.155  1.00 20.00     0.055 C 
HETATM    6  C6  UNL     1     -35.366  17.284  -3.051  1.00 20.00    -0.013 C 
HETATM    7  O12 UNL     1     -37.852  14.109  -3.818  1.00 20.00    -0.298 OA
ENDROOT
BRANCH   6   8
HETATM    8  C10 UNL     1     -34.564  18.088  -2.029  1.00 20.00     0.004 C 
BRANCH   8   9
HETATM    9  C11 UNL     1     -34.046  17.194  -0.907  1.00 20.00    -0.004 C 
HETATM   10  C8  UNL     1     -34.885  17.350   0.351  1.00 20.00     0.005 C 
ENDBRANCH   8   9
ENDBRANCH   6   8
BRANCH   5  11
HETATM   11  C9  UNL     1     -35.136  13.564  -4.164  1.00 20.00     0.007 C 
HETATM   12  C7  UNL     1     -33.670  13.476  -3.891  1.00 20.00     0.006 C 
ENDBRANCH   5  11
TORSDOF 3
ENDMDL
MODEL 7
REMARK VINA RESULT:      -4.5      2.354      4.733
REMARK  3 active torsions:
REMARK  status: ('A' for Active; 'I' for Inactive)
REMARK    1  A    between atoms: C5_5  and  C9_9 
REMARK    2  A    between atoms: C6_6  and  C10_10 
REMARK    3  A    between atoms: C10_10  and  C11_11 
ROOT
HETATM    1  C1  UNL     1     -33.600  18.301  -2.669  1.00 20.00     0.131 C 
HETATM    2  C2  UNL     1     -33.716  17.876  -4.116  1.00 20.00     0.079 C 
HETATM    3  C3  UNL     1     -33.534  16.370  -4.247  1.00 20.00     0.012 C 
HETATM    4  C4  UNL     1     -34.268  16.034  -1.860  1.00 20.00     0.016 C 
HETATM    5  C5  UNL     1     -34.476  17.542  -1.679  1.00 20.00     0.055 C 
HETATM    6  C6  UNL     1     -34.481  15.600  -3.319  1.00 20.00    -0.013 C 
HETATM    7  O12 UNL     1     -32.906  19.263  -2.346  1.00 20.00    -0.298 OA
ENDROOT
BRANCH   6   8
HETATM    8  C10 UNL     1     -34.271  14.094  -3.467  1.00 20.00     0.004 C 
BRANCH   8   9
HETATM    9  C11 UNL     1     -35.442  13.442  -4.196  1.00 20.00    -0.004 C 
HETATM   10  C8  UNL     1     -36.548  14.448  -4.469  1.00 20.00     0.005 C 
ENDBRANCH   8   9
ENDBRANCH   6   8
BRANCH   5  11
HETATM   11  C9  UNL     1     -34.189  17.956  -0.238  1.00 20.00     0.007 C 
HETATM   12  C7  UNL     1     -35.180  17.371   0.714  1.00 20.00     0.006 C 
ENDBRANCH   5  11
TORSDOF 3
ENDMDL
MODEL 8
REMARK VINA RESULT:      -4.4     10.642     12.951
REMARK  3 active torsions:
REMARK  status: ('A' for Active; 'I' for Inactive)
REMARK    1  A    between atoms: C5_5  and  C9_9 
REMARK    2  A    between atoms: C6_6  and  C10_10 
REMARK    3  A    between atoms: C10_10  and  C11_11 
ROOT
HETATM    1  C1  UNL     1     -41.480   6.929  -1.430  1.00 20.00     0.131 C 
HETATM    2  C2  UNL     1     -40.730   5.764  -0.822  1.00 20.00     0.079 C 
HETATM    3  C3  UNL     1     -41.570   4.496  -0.885  1.00 20.00     0.012 C 
HETATM    4  C4  UNL     1     -42.870   5.407  -2.842  1.00 20.00     0.016 C 
HETATM    5  C5  UNL     1     -42.047   6.701  -2.827  1.00 20.00     0.055 C 
HETATM    6  C6  UNL     1     -42.064   4.212  -2.310  1.00 20.00    -0.013 C 
HETATM    7  O12 UNL     1     -41.538   8.014  -0.855  1.00 20.00    -0.298 OA
ENDROOT
BRANCH   6   8
HETATM    8  C10 UNL     1     -42.908   2.939  -2.341  1.00 20.00     0.004 C 
BRANCH   8   9
HETATM    9  C11 UNL     1     -42.629   2.122  -3.598  1.00 20.00    -0.004 C 
HETATM   10  C8  UNL     1     -41.134   1.954  -3.824  1.00 20.00     0.005 C 
ENDBRANCH   8   9
ENDBRANCH   6   8
BRANCH   5  11
HETATM   11  C9  UNL     1     -42.892   7.883  -3.293  1.00 20.00     0.007 C 
HETATM   12  C7  UNL     1     -42.337   8.505  -4.532  1.00 20.00     0.006 C 
ENDBRANCH   5  11
TORSDOF 3
ENDMDL
MODEL 9
REMARK VINA RESULT:      -4.4      4.131      6.808
REMARK  3 active torsions:
REMARK  status: ('A' for Active; 'I' for Inactive)
REMARK    1  A    between atoms: C5_5  and  C9_9 
REMARK    2  A    between atoms: C6_6  and  C10_10 
REMARK    3  A    between atoms: C10_10  and  C11_11 
ROOT
HETATM    1  C1  UNL     1     -32.768  18.710   2.897  1.00 20.00     0.131 C 
HETATM    2  C2  UNL     1     -31.830  19.262   1.846  1.00 20.00     0.079 C 
HETATM    3  C3  UNL     1     -32.031  18.544   0.519  1.00 20.00     0.012 C 
HETATM    4  C4  UNL     1     -34.390  17.933   1.163  1.00 20.00     0.016 C 
HETATM    5  C5  UNL     1     -34.242  18.650   2.509  1.00 20.00     0.055 C 
HETATM    6  C6  UNL     1     -33.501  18.564   0.079  1.00 20.00    -0.013 C 
HETATM    7  O12 UNL     1     -32.360  18.419   4.019  1.00 20.00    -0.298 OA
ENDROOT
BRANCH   6   8
HETATM    8  C10 UNL     1     -33.674  17.832  -1.251  1.00 20.00     0.004 C 
BRANCH   8   9
HETATM    9  C11 UNL     1     -34.547  16.593  -1.089  1.00 20.00    -0.004 C 
HETATM   10  C8  UNL     1     -34.771  15.900  -2.424  1.00 20.00     0.005 C 
ENDBRANCH   8   9
ENDBRANCH   6   8
BRANCH   5  11
HETATM   11  C9  UNL     1     -35.080  17.961   3.582  1.00 20.00     0.007 C 
HETATM   12  C7  UNL     1     -36.543  18.120   3.329  1.00 20.00     0.006 C 
ENDBRANCH   5  11
TORSDOF 3
ENDMDL
