MODEL 1
REMARK VINA RESULT:      -4.9      0.000      0.000
REMARK  4 active torsions:
REMARK  status: ('A' for Active; 'I' for Inactive)
REMARK    1  A    between atoms: C5_5  and  C9_9 
REMARK    2  A    between atoms: C6_6  and  C10_10 
REMARK    3  A    between atoms: C9_9  and  C12_12 
REMARK    4  A    between atoms: C11_11  and  C12_12 
ROOT
HETATM    1  C1  UNL     1     -35.526  17.594  -2.757  1.00 20.00     0.131 C 
HETATM    2  C2  UNL     1     -36.501  16.511  -3.160  1.00 20.00     0.079 C 
HETATM    3  C3  UNL     1     -35.788  15.382  -3.890  1.00 20.00     0.012 C 
HETATM    4  C4  UNL     1     -33.612  15.975  -2.772  1.00 20.00     0.016 C 
HETATM    5  C5  UNL     1     -34.257  17.159  -2.043  1.00 20.00     0.056 C 
HETATM    6  C6  UNL     1     -34.601  14.841  -3.082  1.00 20.00    -0.014 C 
HETATM    7  O13 UNL     1     -35.795  18.786  -2.912  1.00 20.00    -0.298 OA
ENDROOT
BRANCH   5   8
HETATM    8  C9  UNL     1     -34.562  16.859  -0.578  1.00 20.00     0.012 C 
BRANCH   8   9
HETATM    9  C12 UNL     1     -34.076  17.985   0.331  1.00 20.00     0.000 C 
BRANCH   9  10
HETATM   10  C11 UNL     1     -32.912  18.742  -0.306  1.00 20.00    -0.005 C 
HETATM   11  C8  UNL     1     -31.806  19.013   0.701  1.00 20.00     0.005 C 
ENDBRANCH   9  10
ENDBRANCH   8   9
ENDBRANCH   5   8
BRANCH   6  12
HETATM   12  C10 UNL     1     -33.901  13.716  -3.846  1.00 20.00     0.000 C 
HETATM   13  C7  UNL     1     -34.739  13.213  -4.973  1.00 20.00     0.005 C 
ENDBRANCH   6  12
TORSDOF 4
ENDMDL
MODEL 2
REMARK VINA RESULT:      -4.9      2.584      5.653
REMARK  4 active torsions:
REMARK  status: ('A' for Active; 'I' for Inactive)
REMARK    1  A    between atoms: C5_5  and  C9_9 
REMARK    2  A    between atoms: C6_6  and  C10_10 
REMARK    3  A    between atoms: C9_9  and  C12_12 
REMARK    4  A    between atoms: C11_11  and  C12_12 
ROOT
HETATM    1  C1  UNL     1     -34.913  13.948  -4.364  1.00 20.00     0.131 C 
HETATM    2  C2  UNL     1     -35.981  14.579  -3.501  1.00 20.00     0.079 C 
HETATM    3  C3  UNL     1     -35.360  15.464  -2.429  1.00 20.00     0.012 C 
HETATM    4  C4  UNL     1     -33.293  15.784  -3.829  1.00 20.00     0.016 C 
HETATM    5  C5  UNL     1     -33.839  14.864  -4.926  1.00 20.00     0.056 C 
HETATM    6  C6  UNL     1     -34.396  16.495  -3.029  1.00 20.00    -0.014 C 
HETATM    7  O13 UNL     1     -34.967  12.758  -4.680  1.00 20.00    -0.298 OA
ENDROOT
BRANCH   5   8
HETATM    8  C9  UNL     1     -34.386  15.630  -6.127  1.00 20.00     0.012 C 
BRANCH   8   9
HETATM    9  C12 UNL     1     -34.457  14.741  -7.366  1.00 20.00     0.000 C 
BRANCH   9  10
HETATM   10  C11 UNL     1     -35.894  14.620  -7.874  1.00 20.00    -0.005 C 
HETATM   11  C8  UNL     1     -36.831  15.549  -7.120  1.00 20.00     0.005 C 
ENDBRANCH   9  10
ENDBRANCH   8   9
ENDBRANCH   5   8
BRANCH   6  12
HETATM   12  C10 UNL     1     -33.783  17.361  -1.927  1.00 20.00     0.000 C 
HETATM   13  C7  UNL     1     -34.366  17.043  -0.591  1.00 20.00     0.005 C 
ENDBRANCH   6  12
TORSDOF 4
ENDMDL
MODEL 3
REMARK VINA RESULT:      -4.8      2.165      3.548
REMARK  4 active torsions:
REMARK  status: ('A' for Active; 'I' for Inactive)
REMARK    1  A    between atoms: C5_5  and  C9_9 
REMARK    2  A    between atoms: C6_6  and  C10_10 
REMARK    3  A    between atoms: C9_9  and  C12_12 
REMARK    4  A    between atoms: C11_11  and  C12_12 
ROOT
HETATM    1  C1  UNL     1     -33.993  14.042  -4.058  1.00 20.00     0.131 C 
HETATM    2  C2  UNL     1     -34.413  14.253  -5.495  1.00 20.00     0.079 C 
HETATM    3  C3  UNL     1     -35.917  14.465  -5.596  1.00 20.00     0.012 C 
HETATM    4  C4  UNL     1     -36.006  15.274  -3.214  1.00 20.00     0.016 C 
HETATM    5  C5  UNL     1     -34.503  15.037  -3.029  1.00 20.00     0.056 C 
HETATM    6  C6  UNL     1     -36.398  15.587  -4.667  1.00 20.00    -0.014 C 
HETATM    7  O13 UNL     1     -33.192  13.159  -3.750  1.00 20.00    -0.298 OA
ENDROOT
BRANCH   5   8
HETATM    8  C9  UNL     1     -33.686  16.323  -3.101  1.00 20.00     0.012 C 
BRANCH   8   9
HETATM    9  C12 UNL     1     -34.313  17.427  -2.254  1.00 20.00     0.000 C 
BRANCH   9  10
HETATM   10  C11 UNL     1     -33.809  17.368  -0.813  1.00 20.00    -0.005 C 
HETATM   11  C8  UNL     1     -34.960  17.273   0.175  1.00 20.00     0.005 C 
ENDBRANCH   9  10
ENDBRANCH   8   9
ENDBRANCH   5   8
BRANCH   6  12
HETATM   12  C10 UNL     1     -37.911  15.770  -4.785  1.00 20.00     0.000 C 
HETATM   13  C7  UNL     1     -38.649  14.837  -3.884  1.00 20.00     0.005 C 
ENDBRANCH   6  12
TORSDOF 4
ENDMDL
MODEL 4
REMARK VINA RESULT:      -4.7      1.179      4.963
REMARK  4 active torsions:
REMARK  status: ('A' for Active; 'I' for Inactive)
REMARK    1  A    between atoms: C5_5  and  C9_9 
REMARK    2  A    between atoms: C6_6  and  C10_10 
REMARK    3  A    between atoms: C9_9  and  C12_12 
REMARK    4  A    between atoms: C11_11  and  C12_12 
ROOT
HETATM    1  C1  UNL     1     -35.603  17.041  -3.336  1.00 20.00     0.131 C 
HETATM    2  C2  UNL     1     -34.900  18.379  -3.388  1.00 20.00     0.079 C 
HETATM    3  C3  UNL     1     -34.534  18.855  -1.990  1.00 20.00     0.012 C 
HETATM    4  C4  UNL     1     -34.539  16.487  -1.136  1.00 20.00     0.016 C 
HETATM    5  C5  UNL     1     -34.955  15.945  -2.507  1.00 20.00     0.056 C 
HETATM    6  C6  UNL     1     -33.737  17.796  -1.217  1.00 20.00    -0.014 C 
HETATM    7  O13 UNL     1     -36.605  16.820  -4.017  1.00 20.00    -0.298 OA
ENDROOT
BRANCH   5   8
HETATM    8  C9  UNL     1     -33.793  15.328  -3.280  1.00 20.00     0.012 C 
BRANCH   8   9
HETATM    9  C12 UNL     1     -33.986  13.825  -3.465  1.00 20.00     0.000 C 
BRANCH   9  10
HETATM   10  C11 UNL     1     -35.209  13.531  -4.332  1.00 20.00    -0.005 C 
HETATM   11  C8  UNL     1     -35.016  14.030  -5.755  1.00 20.00     0.005 C 
ENDBRANCH   9  10
ENDBRANCH   8   9
ENDBRANCH   5   8
BRANCH   6  12
HETATM   12  C10 UNL     1     -33.393  18.300   0.185  1.00 20.00     0.000 C 
HETATM   13  C7  UNL     1     -32.018  18.879   0.238  1.00 20.00     0.005 C 
ENDBRANCH   6  12
TORSDOF 4
ENDMDL
MODEL 5
REMARK VINA RESULT:      -4.6      2.574      4.828
REMARK  4 active torsions:
REMARK  status: ('A' for Active; 'I' for Inactive)
REMARK    1  A    between atoms: C5_5  and  C9_9 
REMARK    2  A    between atoms: C6_6  and  C10_10 
REMARK    3  A    between atoms: C9_9  and  C12_12 
REMARK    4  A    between atoms: C11_11  and  C12_12 
ROOT
HETATM    1  C1  UNL     1     -35.013  13.896  -4.167  1.00 20.00     0.131 C 
HETATM    2  C2  UNL     1     -36.096  14.681  -3.462  1.00 20.00     0.079 C 
HETATM    3  C3  UNL     1     -35.515  15.515  -2.329  1.00 20.00     0.012 C 
HETATM    4  C4  UNL     1     -33.259  15.535  -3.446  1.00 20.00     0.016 C 
HETATM    5  C5  UNL     1     -33.768  14.656  -4.593  1.00 20.00     0.056 C 
HETATM    6  C6  UNL     1     -34.358  16.400  -2.810  1.00 20.00    -0.014 C 
HETATM    7  O13 UNL     1     -35.176  12.714  -4.470  1.00 20.00    -0.298 OA
ENDROOT
BRANCH   5   8
HETATM    8  C9  UNL     1     -34.053  15.446  -5.867  1.00 20.00     0.012 C 
BRANCH   8   9
HETATM    9  C12 UNL     1     -33.396  16.823  -5.823  1.00 20.00     0.000 C 
BRANCH   9  10
HETATM   10  C11 UNL     1     -34.371  17.912  -6.271  1.00 20.00    -0.005 C 
HETATM   11  C8  UNL     1     -35.815  17.488  -6.058  1.00 20.00     0.005 C 
ENDBRANCH   9  10
ENDBRANCH   8   9
ENDBRANCH   5   8
BRANCH   6  12
HETATM   12  C10 UNL     1     -33.790  17.218  -1.649  1.00 20.00     0.000 C 
HETATM   13  C7  UNL     1     -34.598  17.041  -0.406  1.00 20.00     0.005 C 
ENDBRANCH   6  12
TORSDOF 4
ENDMDL
MODEL 6
REMARK VINA RESULT:      -4.6      2.255      4.964
REMARK  4 active torsions:
REMARK  status: ('A' for Active; 'I' for Inactive)
REMARK    1  A    between atoms: C5_5  and  C9_9 
REMARK    2  A    between atoms: C6_6  and  C10_10 
REMARK    3  A    between atoms: C9_9  and  C12_12 
REMARK    4  A    between atoms: C11_11  and  C12_12 
ROOT
HETATM    1  C1  UNL     1     -37.547  14.960  -3.770  1.00 20.00     0.131 C 
HETATM    2  C2  UNL     1     -37.565  16.436  -3.446  1.00 20.00     0.079 C 
HETATM    3  C3  UNL     1     -36.407  16.807  -2.532  1.00 20.00     0.012 C 
HETATM    4  C4  UNL     1     -35.082  14.823  -3.336  1.00 20.00     0.016 C 
HETATM    5  C5  UNL     1     -36.230  14.366  -4.243  1.00 20.00     0.056 C 
HETATM    6  C6  UNL     1     -35.060  16.342  -3.102  1.00 20.00    -0.014 C 
HETATM    7  O13 UNL     1     -38.578  14.287  -3.747  1.00 20.00    -0.298 OA
ENDROOT
BRANCH   5   8
HETATM    8  C9  UNL     1     -36.002  14.713  -5.711  1.00 20.00     0.012 C 
BRANCH   8   9
HETATM    9  C12 UNL     1     -34.540  14.525  -6.105  1.00 20.00     0.000 C 
BRANCH   9  10
HETATM   10  C11 UNL     1     -33.965  15.802  -6.715  1.00 20.00    -0.005 C 
HETATM   11  C8  UNL     1     -35.011  16.902  -6.792  1.00 20.00     0.005 C 
ENDBRANCH   9  10
ENDBRANCH   8   9
ENDBRANCH   5   8
BRANCH   6  12
HETATM   12  C10 UNL     1     -33.918  16.721  -2.158  1.00 20.00     0.000 C 
HETATM   13  C7  UNL     1     -34.389  16.838  -0.747  1.00 20.00     0.005 C 
ENDBRANCH   6  12
TORSDOF 4
ENDMDL
MODEL 7
REMARK VINA RESULT:      -4.5      1.214      1.694
REMARK  4 active torsions:
REMARK  status: ('A' for Active; 'I' for Inactive)
REMARK    1  A    between atoms: C5_5  and  C9_9 
REMARK    2  A    between atoms: C6_6  and  C10_10 
REMARK    3  A    between atoms: C9_9  and  C12_12 
REMARK    4  A    between atoms: C11_11  and  C12_12 
ROOT
HETATM    1  C1  UNL     1     -34.680  17.786  -2.937  1.00 20.00     0.131 C 
HETATM    2  C2  UNL     1     -36.041  17.535  -3.545  1.00 20.00     0.079 C 
HETATM    3  C3  UNL     1     -36.059  16.223  -4.315  1.00 20.00     0.012 C 
HETATM    4  C4  UNL     1     -34.151  15.336  -2.933  1.00 20.00     0.016 C 
HETATM    5  C5  UNL     1     -34.047  16.649  -2.151  1.00 20.00     0.056 C 
HETATM    6  C6  UNL     1     -35.568  15.050  -3.456  1.00 20.00    -0.014 C 
HETATM    7  O13 UNL     1     -34.150  18.896  -2.993  1.00 20.00    -0.298 OA
ENDROOT
BRANCH   5   8
HETATM    8  C9  UNL     1     -34.675  16.566  -0.763  1.00 20.00     0.012 C 
BRANCH   8   9
HETATM    9  C12 UNL     1     -34.239  17.737   0.114  1.00 20.00     0.000 C 
BRANCH   9  10
HETATM   10  C11 UNL     1     -35.394  18.234   0.983  1.00 20.00    -0.005 C 
HETATM   11  C8  UNL     1     -35.368  17.596   2.362  1.00 20.00     0.005 C 
ENDBRANCH   9  10
ENDBRANCH   8   9
ENDBRANCH   5   8
BRANCH   6  12
HETATM   12  C10 UNL     1     -35.589  13.750  -4.260  1.00 20.00     0.000 C 
HETATM   13  C7  UNL     1     -34.211  13.297  -4.608  1.00 20.00     0.005 C 
ENDBRANCH   6  12
TORSDOF 4
ENDMDL
MODEL 8
REMARK VINA RESULT:      -4.4      1.394      4.677
REMARK  4 active torsions:
REMARK  status: ('A' for Active; 'I' for Inactive)
REMARK    1  A    between atoms: C5_5  and  C9_9 
REMARK    2  A    between atoms: C6_6  and  C10_10 
REMARK    3  A    between atoms: C9_9  and  C12_12 
REMARK    4  A    between atoms: C11_11  and  C12_12 
ROOT
HETATM    1  C1  UNL     1     -35.094  17.961  -4.787  1.00 20.00     0.131 C 
HETATM    2  C2  UNL     1     -33.729  18.101  -4.151  1.00 20.00     0.079 C 
HETATM    3  C3  UNL     1     -33.824  18.016  -2.635  1.00 20.00     0.012 C 
HETATM    4  C4  UNL     1     -35.968  16.708  -2.800  1.00 20.00     0.016 C 
HETATM    5  C5  UNL     1     -35.959  16.798  -4.329  1.00 20.00     0.056 C 
HETATM    6  C6  UNL     1     -34.562  16.751  -2.180  1.00 20.00    -0.014 C 
HETATM    7  O13 UNL     1     -35.450  18.699  -5.706  1.00 20.00    -0.298 OA
ENDROOT
BRANCH   5   8
HETATM    8  C9  UNL     1     -35.492  15.509  -4.998  1.00 20.00     0.012 C 
BRANCH   8   9
HETATM    9  C12 UNL     1     -36.030  14.280  -4.270  1.00 20.00     0.000 C 
BRANCH   9  10
HETATM   10  C11 UNL     1     -34.971  13.181  -4.190  1.00 20.00    -0.005 C 
HETATM   11  C8  UNL     1     -33.591  13.756  -3.916  1.00 20.00     0.005 C 
ENDBRANCH   9  10
ENDBRANCH   8   9
ENDBRANCH   5   8
BRANCH   6  12
HETATM   12  C10 UNL     1     -34.648  16.699  -0.654  1.00 20.00     0.000 C 
HETATM   13  C7  UNL     1     -33.940  17.852  -0.025  1.00 20.00     0.005 C 
ENDBRANCH   6  12
TORSDOF 4
ENDMDL
MODEL 9
REMARK VINA RESULT:      -4.4      2.341      3.389
REMARK  4 active torsions:
REMARK  status: ('A' for Active; 'I' for Inactive)
REMARK    1  A    between atoms: C5_5  and  C9_9 
REMARK    2  A    between atoms: C6_6  and  C10_10 
REMARK    3  A    between atoms: C9_9  and  C12_12 
REMARK    4  A    between atoms: C11_11  and  C12_12 
ROOT
HETATM    1  C1  UNL     1     -36.382  14.640  -3.977  1.00 20.00     0.131 C 
HETATM    2  C2  UNL     1     -35.484  13.952  -4.980  1.00 20.00     0.079 C 
HETATM    3  C3  UNL     1     -34.993  14.933  -6.033  1.00 20.00     0.012 C 
HETATM    4  C4  UNL     1     -35.328  16.863  -4.452  1.00 20.00     0.016 C 
HETATM    5  C5  UNL     1     -35.877  15.936  -3.364  1.00 20.00     0.056 C 
HETATM    6  C6  UNL     1     -34.338  16.168  -5.401  1.00 20.00    -0.014 C 
HETATM    7  O13 UNL     1     -37.433  14.121  -3.599  1.00 20.00    -0.298 OA
ENDROOT
BRANCH   5   8
HETATM    8  C9  UNL     1     -34.856  15.630  -2.272  1.00 20.00     0.012 C 
BRANCH   8   9
HETATM    9  C12 UNL     1     -33.985  16.847  -1.972  1.00 20.00     0.000 C 
BRANCH   9  10
HETATM   10  C11 UNL     1     -34.715  17.835  -1.063  1.00 20.00    -0.005 C 
HETATM   11  C8  UNL     1     -34.924  17.262   0.329  1.00 20.00     0.005 C 
ENDBRANCH   9  10
ENDBRANCH   8   9
ENDBRANCH   5   8
BRANCH   6  12
HETATM   12  C10 UNL     1     -33.864  17.138  -6.484  1.00 20.00     0.000 C 
HETATM   13  C7  UNL     1     -33.645  18.509  -5.935  1.00 20.00     0.005 C 
ENDBRANCH   6  12
TORSDOF 4
ENDMDL
