MODEL 1
REMARK VINA RESULT:      -4.6      0.000      0.000
REMARK  5 active torsions:
REMARK  status: ('A' for Active; 'I' for Inactive)
REMARK    1  A    between atoms: C3_3  and  C4_4 
REMARK    2  A    between atoms: C3_3  and  C5_5 
REMARK    3  A    between atoms: C4_4  and  C6_6 
REMARK    4  A    between atoms: C5_5  and  C7_7 
REMARK    5  A    between atoms: C6_6  and  O8_8 
ROOT
HETATM    1  C3  UNL     1     -33.660   5.673   2.844  1.00 20.00     0.004 C 
ENDROOT
BRANCH   1   2
HETATM    2  C4  UNL     1     -32.250   6.215   3.088  1.00 20.00     0.026 C 
BRANCH   2   3
HETATM    3  C6  UNL     1     -32.150   7.730   2.985  1.00 20.00     0.167 C 
BRANCH   3   4
HETATM    4  O8  UNL     1     -31.797   8.074   1.651  1.00 20.00    -0.396 OA
HETATM    5  C2  UNL     1     -32.313   9.347   1.287  1.00 20.00     0.201 C 
ENDBRANCH   3   4
ENDBRANCH   2   3
ENDBRANCH   1   2
BRANCH   1   6
HETATM    6  C5  UNL     1     -34.618   5.942   4.011  1.00 20.00     0.020 C 
BRANCH   6   7
HETATM    7  C7  UNL     1     -34.096   5.418   5.357  1.00 20.00     0.078 C 
HETATM    8  C1  UNL     1     -34.037   6.534   6.393  1.00 20.00     0.026 C 
HETATM    9 CL9  UNL     1     -35.134   4.102   5.983  1.00 20.00    -0.125 Cl
ENDBRANCH   6   7
ENDBRANCH   1   6
TORSDOF 5
ENDMDL
MODEL 2
REMARK VINA RESULT:      -4.5      1.223      1.412
REMARK  5 active torsions:
REMARK  status: ('A' for Active; 'I' for Inactive)
REMARK    1  A    between atoms: C3_3  and  C4_4 
REMARK    2  A    between atoms: C3_3  and  C5_5 
REMARK    3  A    between atoms: C4_4  and  C6_6 
REMARK    4  A    between atoms: C5_5  and  C7_7 
REMARK    5  A    between atoms: C6_6  and  O8_8 
ROOT
HETATM    1  C3  UNL     1     -33.971   6.666   3.582  1.00 20.00     0.004 C 
ENDROOT
BRANCH   1   2
HETATM    2  C4  UNL     1     -32.541   6.453   3.082  1.00 20.00     0.026 C 
BRANCH   2   3
HETATM    3  C6  UNL     1     -31.745   7.742   2.937  1.00 20.00     0.167 C 
BRANCH   3   4
HETATM    4  O8  UNL     1     -31.844   8.190   1.591  1.00 20.00    -0.396 OA
HETATM    5  C2  UNL     1     -32.413   9.490   1.515  1.00 20.00     0.201 C 
ENDBRANCH   3   4
ENDBRANCH   2   3
ENDBRANCH   1   2
BRANCH   1   6
HETATM    6  C5  UNL     1     -34.700   5.355   3.902  1.00 20.00     0.020 C 
BRANCH   6   7
HETATM    7  C7  UNL     1     -35.048   5.203   5.390  1.00 20.00     0.078 C 
HETATM    8  C1  UNL     1     -34.747   3.793   5.882  1.00 20.00     0.026 C 
HETATM    9 CL9  UNL     1     -34.130   6.371   6.388  1.00 20.00    -0.125 Cl
ENDBRANCH   6   7
ENDBRANCH   1   6
TORSDOF 5
ENDMDL
MODEL 3
REMARK VINA RESULT:      -4.0      3.267      4.558
REMARK  5 active torsions:
REMARK  status: ('A' for Active; 'I' for Inactive)
REMARK    1  A    between atoms: C3_3  and  C4_4 
REMARK    2  A    between atoms: C3_3  and  C5_5 
REMARK    3  A    between atoms: C4_4  and  C6_6 
REMARK    4  A    between atoms: C5_5  and  C7_7 
REMARK    5  A    between atoms: C6_6  and  O8_8 
ROOT
HETATM    1  C3  UNL     1     -33.917   5.424   2.810  1.00 20.00     0.004 C 
ENDROOT
BRANCH   1   2
HETATM    2  C4  UNL     1     -34.699   5.886   4.041  1.00 20.00     0.026 C 
BRANCH   2   3
HETATM    3  C6  UNL     1     -35.081   4.754   4.985  1.00 20.00     0.167 C 
BRANCH   3   4
HETATM    4  O8  UNL     1     -34.847   5.176   6.322  1.00 20.00    -0.396 OA
HETATM    5  C2  UNL     1     -34.099   6.384   6.363  1.00 20.00     0.201 C 
ENDBRANCH   3   4
ENDBRANCH   2   3
ENDBRANCH   1   2
BRANCH   1   6
HETATM    6  C5  UNL     1     -32.471   5.931   2.789  1.00 20.00     0.020 C 
BRANCH   6   7
HETATM    7  C7  UNL     1     -32.357   7.446   3.016  1.00 20.00     0.078 C 
HETATM    8  C1  UNL     1     -31.294   7.765   4.060  1.00 20.00     0.026 C 
HETATM    9 CL9  UNL     1     -31.947   8.295   1.495  1.00 20.00    -0.125 Cl
ENDBRANCH   6   7
ENDBRANCH   1   6
TORSDOF 5
ENDMDL
MODEL 4
REMARK VINA RESULT:      -3.9      3.409      5.050
REMARK  5 active torsions:
REMARK  status: ('A' for Active; 'I' for Inactive)
REMARK    1  A    between atoms: C3_3  and  C4_4 
REMARK    2  A    between atoms: C3_3  and  C5_5 
REMARK    3  A    between atoms: C4_4  and  C6_6 
REMARK    4  A    between atoms: C5_5  and  C7_7 
REMARK    5  A    between atoms: C6_6  and  O8_8 
ROOT
HETATM    1  C3  UNL     1     -32.494   6.361   3.203  1.00 20.00     0.004 C 
ENDROOT
BRANCH   1   2
HETATM    2  C4  UNL     1     -33.778   6.410   4.035  1.00 20.00     0.026 C 
BRANCH   2   3
HETATM    3  C6  UNL     1     -34.817   5.378   3.618  1.00 20.00     0.167 C 
BRANCH   3   4
HETATM    4  O8  UNL     1     -35.203   4.631   4.764  1.00 20.00    -0.396 OA
HETATM    5  C2  UNL     1     -34.707   5.219   5.960  1.00 20.00     0.201 C 
ENDBRANCH   3   4
ENDBRANCH   2   3
ENDBRANCH   1   2
BRANCH   1   6
HETATM    6  C5  UNL     1     -31.865   7.743   2.985  1.00 20.00     0.020 C 
BRANCH   6   7
HETATM    7  C7  UNL     1     -32.432   8.479   1.762  1.00 20.00     0.078 C 
HETATM    8  C1  UNL     1     -32.722   9.939   2.089  1.00 20.00     0.026 C 
HETATM    9 CL9  UNL     1     -31.292   8.411   0.385  1.00 20.00    -0.125 Cl
ENDBRANCH   6   7
ENDBRANCH   1   6
TORSDOF 5
ENDMDL
MODEL 5
REMARK VINA RESULT:      -3.9      1.019      1.482
REMARK  5 active torsions:
REMARK  status: ('A' for Active; 'I' for Inactive)
REMARK    1  A    between atoms: C3_3  and  C4_4 
REMARK    2  A    between atoms: C3_3  and  C5_5 
REMARK    3  A    between atoms: C4_4  and  C6_6 
REMARK    4  A    between atoms: C5_5  and  C7_7 
REMARK    5  A    between atoms: C6_6  and  O8_8 
ROOT
HETATM    1  C3  UNL     1     -33.012   6.212   3.648  1.00 20.00     0.004 C 
ENDROOT
BRANCH   1   2
HETATM    2  C4  UNL     1     -31.897   7.241   3.449  1.00 20.00     0.026 C 
BRANCH   2   3
HETATM    3  C6  UNL     1     -31.865   7.847   2.053  1.00 20.00     0.167 C 
BRANCH   3   4
HETATM    4  O8  UNL     1     -32.478   9.129   2.098  1.00 20.00    -0.396 OA
HETATM    5  C2  UNL     1     -32.368   9.803   0.852  1.00 20.00     0.201 C 
ENDBRANCH   3   4
ENDBRANCH   2   3
ENDBRANCH   1   2
BRANCH   1   6
HETATM    6  C5  UNL     1     -33.630   6.257   5.050  1.00 20.00     0.020 C 
BRANCH   6   7
HETATM    7  C7  UNL     1     -34.992   5.550   5.134  1.00 20.00     0.078 C 
HETATM    8  C1  UNL     1     -35.588   5.343   3.747  1.00 20.00     0.026 C 
HETATM    9 CL9  UNL     1     -34.843   3.961   5.942  1.00 20.00    -0.125 Cl
ENDBRANCH   6   7
ENDBRANCH   1   6
TORSDOF 5
ENDMDL
MODEL 6
REMARK VINA RESULT:      -3.7     11.170     11.540
REMARK  5 active torsions:
REMARK  status: ('A' for Active; 'I' for Inactive)
REMARK    1  A    between atoms: C3_3  and  C4_4 
REMARK    2  A    between atoms: C3_3  and  C5_5 
REMARK    3  A    between atoms: C4_4  and  C6_6 
REMARK    4  A    between atoms: C5_5  and  C7_7 
REMARK    5  A    between atoms: C6_6  and  O8_8 
ROOT
HETATM    1  C3  UNL     1     -33.930  16.457  -2.151  1.00 20.00     0.004 C 
ENDROOT
BRANCH   1   2
HETATM    2  C4  UNL     1     -34.338  15.243  -2.989  1.00 20.00     0.026 C 
BRANCH   2   3
HETATM    3  C6  UNL     1     -33.165  14.533  -3.650  1.00 20.00     0.167 C 
BRANCH   3   4
HETATM    4  O8  UNL     1     -33.585  13.235  -4.050  1.00 20.00    -0.396 OA
HETATM    5  C2  UNL     1     -34.912  13.251  -4.559  1.00 20.00     0.201 C 
ENDBRANCH   3   4
ENDBRANCH   2   3
ENDBRANCH   1   2
BRANCH   1   6
HETATM    6  C5  UNL     1     -34.711  16.572  -0.836  1.00 20.00     0.020 C 
BRANCH   6   7
HETATM    7  C7  UNL     1     -34.496  17.913  -0.120  1.00 20.00     0.078 C 
HETATM    8  C1  UNL     1     -34.948  17.836   1.333  1.00 20.00     0.026 C 
HETATM    9 CL9  UNL     1     -32.774  18.398  -0.164  1.00 20.00    -0.125 Cl
ENDBRANCH   6   7
ENDBRANCH   1   6
TORSDOF 5
ENDMDL
MODEL 7
REMARK VINA RESULT:      -3.6     11.039     11.763
REMARK  5 active torsions:
REMARK  status: ('A' for Active; 'I' for Inactive)
REMARK    1  A    between atoms: C3_3  and  C4_4 
REMARK    2  A    between atoms: C3_3  and  C5_5 
REMARK    3  A    between atoms: C4_4  and  C6_6 
REMARK    4  A    between atoms: C5_5  and  C7_7 
REMARK    5  A    between atoms: C6_6  and  O8_8 
ROOT
HETATM    1  C3  UNL     1     -33.147  14.745  -3.717  1.00 20.00     0.004 C 
ENDROOT
BRANCH   1   2
HETATM    2  C4  UNL     1     -34.221  13.661  -3.608  1.00 20.00     0.026 C 
BRANCH   2   3
HETATM    3  C6  UNL     1     -34.763  13.199  -4.954  1.00 20.00     0.167 C 
BRANCH   3   4
HETATM    4  O8  UNL     1     -34.573  14.241  -5.903  1.00 20.00    -0.396 OA
HETATM    5  C2  UNL     1     -35.812  14.810  -6.306  1.00 20.00     0.201 C 
ENDBRANCH   3   4
ENDBRANCH   2   3
ENDBRANCH   1   2
BRANCH   1   6
HETATM    6  C5  UNL     1     -33.542  16.056  -3.025  1.00 20.00     0.020 C 
BRANCH   6   7
HETATM    7  C7  UNL     1     -34.803  15.927  -2.159  1.00 20.00     0.078 C 
HETATM    8  C1  UNL     1     -34.631  16.651  -0.829  1.00 20.00     0.026 C 
HETATM    9 CL9  UNL     1     -36.233  16.597  -3.001  1.00 20.00    -0.125 Cl
ENDBRANCH   6   7
ENDBRANCH   1   6
TORSDOF 5
ENDMDL
MODEL 8
REMARK VINA RESULT:      -3.5     11.150     11.955
REMARK  5 active torsions:
REMARK  status: ('A' for Active; 'I' for Inactive)
REMARK    1  A    between atoms: C3_3  and  C4_4 
REMARK    2  A    between atoms: C3_3  and  C5_5 
REMARK    3  A    between atoms: C4_4  and  C6_6 
REMARK    4  A    between atoms: C5_5  and  C7_7 
REMARK    5  A    between atoms: C6_6  and  O8_8 
ROOT
HETATM    1  C3  UNL     1     -34.502  16.589  -0.984  1.00 20.00     0.004 C 
ENDROOT
BRANCH   1   2
HETATM    2  C4  UNL     1     -34.698  15.812  -2.287  1.00 20.00     0.026 C 
BRANCH   2   3
HETATM    3  C6  UNL     1     -33.648  16.118  -3.346  1.00 20.00     0.167 C 
BRANCH   3   4
HETATM    4  O8  UNL     1     -32.872  14.947  -3.570  1.00 20.00    -0.396 OA
HETATM    5  C2  UNL     1     -33.697  13.815  -3.814  1.00 20.00     0.201 C 
ENDBRANCH   3   4
ENDBRANCH   2   3
ENDBRANCH   1   2
BRANCH   1   6
HETATM    6  C5  UNL     1     -33.501  17.744  -1.116  1.00 20.00     0.020 C 
BRANCH   6   7
HETATM    7  C7  UNL     1     -33.481  18.671   0.109  1.00 20.00     0.078 C 
HETATM    8  C1  UNL     1     -34.357  18.119   1.228  1.00 20.00     0.026 C 
HETATM    9 CL9  UNL     1     -31.816  18.883   0.729  1.00 20.00    -0.125 Cl
ENDBRANCH   6   7
ENDBRANCH   1   6
TORSDOF 5
ENDMDL
MODEL 9
REMARK VINA RESULT:      -3.5     10.853     11.991
REMARK  5 active torsions:
REMARK  status: ('A' for Active; 'I' for Inactive)
REMARK    1  A    between atoms: C3_3  and  C4_4 
REMARK    2  A    between atoms: C3_3  and  C5_5 
REMARK    3  A    between atoms: C4_4  and  C6_6 
REMARK    4  A    between atoms: C5_5  and  C7_7 
REMARK    5  A    between atoms: C6_6  and  O8_8 
ROOT
HETATM    1  C3  UNL     1     -33.938  13.980  -3.426  1.00 20.00     0.004 C 
ENDROOT
BRANCH   1   2
HETATM    2  C4  UNL     1     -34.693  13.453  -4.648  1.00 20.00     0.026 C 
BRANCH   2   3
HETATM    3  C6  UNL     1     -35.978  14.213  -4.948  1.00 20.00     0.167 C 
BRANCH   3   4
HETATM    4  O8  UNL     1     -36.902  13.982  -3.892  1.00 20.00    -0.396 OA
HETATM    5  C2  UNL     1     -37.694  15.133  -3.631  1.00 20.00     0.201 C 
ENDBRANCH   3   4
ENDBRANCH   2   3
ENDBRANCH   1   2
BRANCH   1   6
HETATM    6  C5  UNL     1     -33.106  15.233  -3.726  1.00 20.00     0.020 C 
BRANCH   6   7
HETATM    7  C7  UNL     1     -33.639  16.495  -3.031  1.00 20.00     0.078 C 
HETATM    8  C1  UNL     1     -34.409  17.375  -4.008  1.00 20.00     0.026 C 
HETATM    9 CL9  UNL     1     -34.714  16.070  -1.665  1.00 20.00    -0.125 Cl
ENDBRANCH   6   7
ENDBRANCH   1   6
TORSDOF 5
ENDMDL
