MODEL 1
REMARK VINA RESULT:      -5.5      0.000      0.000
REMARK  3 active torsions:
REMARK  status: ('A' for Active; 'I' for Inactive)
REMARK    1  A    between atoms: C2_2  and  C9_9 
REMARK    2  A    between atoms: C6_6  and  C9_9 
REMARK    3  A    between atoms: C7_7  and  O10_10 
ROOT
HETATM    1  C3  UNL     1     -34.817   5.424   6.335  1.00 20.00     0.003 C 
HETATM    2  C4  UNL     1     -33.623   6.312   5.981  1.00 20.00     0.007 C 
HETATM    3  C5  UNL     1     -35.238   4.733   5.038  1.00 20.00     0.032 C 
HETATM    4  C6  UNL     1     -33.684   6.456   4.463  1.00 20.00     0.018 C 
HETATM    5  C7  UNL     1     -34.151   5.071   4.024  1.00 20.00     0.122 C 
ENDROOT
BRANCH   4   6
HETATM    6  C9  UNL     1     -32.355   6.866   3.848  1.00 20.00     0.034 C 
BRANCH   6   7
HETATM    7  C2  UNL     1     -32.543   7.442   2.475  1.00 20.00    -0.031 C 
HETATM    8  C1  UNL     1     -31.955   8.571   2.054  1.00 20.00    -0.035 C 
HETATM    9  C8  UNL     1     -32.146   9.147   0.690  1.00 20.00     0.036 C 
ENDBRANCH   6   7
ENDBRANCH   4   6
BRANCH   5  10
HETATM   10  O10 UNL     1     -34.662   5.098   2.704  1.00 20.00    -0.395 OA
HETATM   11  H26 UNL     1     -35.336   4.399   2.644  1.00 20.00     0.210 HD
ENDBRANCH   5  10
TORSDOF 3
ENDMDL
MODEL 2
REMARK VINA RESULT:      -5.3      1.550      2.019
REMARK  3 active torsions:
REMARK  status: ('A' for Active; 'I' for Inactive)
REMARK    1  A    between atoms: C2_2  and  C9_9 
REMARK    2  A    between atoms: C6_6  and  C9_9 
REMARK    3  A    between atoms: C7_7  and  O10_10 
ROOT
HETATM    1  C3  UNL     1     -35.016   4.985   3.772  1.00 20.00     0.003 C 
HETATM    2  C4  UNL     1     -33.858   5.675   3.050  1.00 20.00     0.007 C 
HETATM    3  C5  UNL     1     -34.966   5.466   5.223  1.00 20.00     0.032 C 
HETATM    4  C6  UNL     1     -32.933   6.151   4.167  1.00 20.00     0.018 C 
HETATM    5  C7  UNL     1     -33.923   6.577   5.249  1.00 20.00     0.122 C 
ENDROOT
BRANCH   4   6
HETATM    6  C9  UNL     1     -31.997   7.269   3.734  1.00 20.00     0.034 C 
BRANCH   6   7
HETATM    7  C2  UNL     1     -32.189   7.610   2.286  1.00 20.00    -0.031 C 
HETATM    8  C1  UNL     1     -32.212   8.865   1.813  1.00 20.00    -0.035 C 
HETATM    9  C8  UNL     1     -32.408   9.206   0.373  1.00 20.00     0.036 C 
ENDBRANCH   6   7
ENDBRANCH   4   6
BRANCH   5  10
HETATM   10  O10 UNL     1     -33.293   6.668   6.512  1.00 20.00    -0.395 OA
HETATM   11  H26 UNL     1     -33.504   7.545   6.875  1.00 20.00     0.210 HD
ENDBRANCH   5  10
TORSDOF 3
ENDMDL
MODEL 3
REMARK VINA RESULT:      -5.1     10.746     11.540
REMARK  3 active torsions:
REMARK  status: ('A' for Active; 'I' for Inactive)
REMARK    1  A    between atoms: C2_2  and  C9_9 
REMARK    2  A    between atoms: C6_6  and  C9_9 
REMARK    3  A    between atoms: C7_7  and  O10_10 
ROOT
HETATM    1  C3  UNL     1     -36.428  14.273  -4.062  1.00 20.00     0.003 C 
HETATM    2  C4  UNL     1     -36.002  15.513  -3.276  1.00 20.00     0.007 C 
HETATM    3  C5  UNL     1     -35.169  13.424  -4.242  1.00 20.00     0.032 C 
HETATM    4  C6  UNL     1     -34.483  15.563  -3.423  1.00 20.00     0.018 C 
HETATM    5  C7  UNL     1     -34.104  14.085  -3.375  1.00 20.00     0.122 C 
ENDROOT
BRANCH   4   6
HETATM    6  C9  UNL     1     -33.805  16.394  -2.346  1.00 20.00     0.034 C 
BRANCH   6   7
HETATM    7  C2  UNL     1     -34.665  16.509  -1.122  1.00 20.00    -0.031 C 
HETATM    8  C1  UNL     1     -34.439  17.386  -0.132  1.00 20.00    -0.035 C 
HETATM    9  C8  UNL     1     -35.291  17.498   1.088  1.00 20.00     0.036 C 
ENDBRANCH   6   7
ENDBRANCH   4   6
BRANCH   5  10
HETATM   10  O10 UNL     1     -32.805  13.873  -3.896  1.00 20.00    -0.395 OA
HETATM   11  H26 UNL     1     -32.718  14.434  -4.685  1.00 20.00     0.210 HD
ENDBRANCH   5  10
TORSDOF 3
ENDMDL
MODEL 4
REMARK VINA RESULT:      -4.9     11.060     11.591
REMARK  3 active torsions:
REMARK  status: ('A' for Active; 'I' for Inactive)
REMARK    1  A    between atoms: C2_2  and  C9_9 
REMARK    2  A    between atoms: C6_6  and  C9_9 
REMARK    3  A    between atoms: C7_7  and  O10_10 
ROOT
HETATM    1  C3  UNL     1     -34.082  13.430  -4.451  1.00 20.00     0.003 C 
HETATM    2  C4  UNL     1     -33.444  14.567  -3.652  1.00 20.00     0.007 C 
HETATM    3  C5  UNL     1     -35.595  13.628  -4.348  1.00 20.00     0.032 C 
HETATM    4  C6  UNL     1     -34.568  15.095  -2.765  1.00 20.00     0.018 C 
HETATM    5  C7  UNL     1     -35.784  14.985  -3.681  1.00 20.00     0.122 C 
ENDROOT
BRANCH   4   6
HETATM    6  C9  UNL     1     -34.319  16.509  -2.263  1.00 20.00     0.034 C 
BRANCH   6   7
HETATM    7  C2  UNL     1     -34.708  16.653  -0.821  1.00 20.00    -0.031 C 
HETATM    8  C1  UNL     1     -34.342  17.688  -0.050  1.00 20.00    -0.035 C 
HETATM    9  C8  UNL     1     -34.724  17.829   1.386  1.00 20.00     0.036 C 
ENDBRANCH   6   7
ENDBRANCH   4   6
BRANCH   5  10
HETATM   10  O10 UNL     1     -36.989  15.036  -2.941  1.00 20.00    -0.395 OA
HETATM   11  H26 UNL     1     -36.925  14.363  -2.242  1.00 20.00     0.210 HD
ENDBRANCH   5  10
TORSDOF 3
ENDMDL
MODEL 5
REMARK VINA RESULT:      -4.9     11.052     12.148
REMARK  3 active torsions:
REMARK  status: ('A' for Active; 'I' for Inactive)
REMARK    1  A    between atoms: C2_2  and  C9_9 
REMARK    2  A    between atoms: C6_6  and  C9_9 
REMARK    3  A    between atoms: C7_7  and  O10_10 
ROOT
HETATM    1  C3  UNL     1     -34.288  15.452  -6.283  1.00 20.00     0.003 C 
HETATM    2  C4  UNL     1     -34.303  16.082  -4.890  1.00 20.00     0.007 C 
HETATM    3  C5  UNL     1     -34.803  14.022  -6.114  1.00 20.00     0.032 C 
HETATM    4  C6  UNL     1     -34.381  14.898  -3.930  1.00 20.00     0.018 C 
HETATM    5  C7  UNL     1     -35.301  13.935  -4.676  1.00 20.00     0.122 C 
ENDROOT
BRANCH   4   6
HETATM    6  C9  UNL     1     -34.898  15.279  -2.552  1.00 20.00     0.034 C 
BRANCH   6   7
HETATM    7  C2  UNL     1     -34.115  16.419  -1.970  1.00 20.00    -0.031 C 
HETATM    8  C1  UNL     1     -34.384  16.976  -0.780  1.00 20.00    -0.035 C 
HETATM    9  C8  UNL     1     -33.609  18.114  -0.203  1.00 20.00     0.036 C 
ENDBRANCH   6   7
ENDBRANCH   4   6
BRANCH   5  10
HETATM   10  O10 UNL     1     -35.188  12.620  -4.166  1.00 20.00    -0.395 OA
HETATM   11  H26 UNL     1     -34.436  12.201  -4.618  1.00 20.00     0.210 HD
ENDBRANCH   5  10
TORSDOF 3
ENDMDL
MODEL 6
REMARK VINA RESULT:      -4.8     10.994     12.091
REMARK  3 active torsions:
REMARK  status: ('A' for Active; 'I' for Inactive)
REMARK    1  A    between atoms: C2_2  and  C9_9 
REMARK    2  A    between atoms: C6_6  and  C9_9 
REMARK    3  A    between atoms: C7_7  and  O10_10 
ROOT
HETATM    1  C3  UNL     1     -34.874  16.151  -2.295  1.00 20.00     0.003 C 
HETATM    2  C4  UNL     1     -35.414  14.986  -3.125  1.00 20.00     0.007 C 
HETATM    3  C5  UNL     1     -33.382  16.251  -2.614  1.00 20.00     0.032 C 
HETATM    4  C6  UNL     1     -34.176  14.189  -3.525  1.00 20.00     0.018 C 
HETATM    5  C7  UNL     1     -33.147  15.289  -3.773  1.00 20.00     0.122 C 
ENDROOT
BRANCH   4   6
HETATM    6  C9  UNL     1     -34.405  13.296  -4.735  1.00 20.00     0.034 C 
BRANCH   6   7
HETATM    7  C2  UNL     1     -35.295  13.961  -5.744  1.00 20.00    -0.031 C 
HETATM    8  C1  UNL     1     -34.859  14.446  -6.916  1.00 20.00    -0.035 C 
HETATM    9  C8  UNL     1     -35.742  15.112  -7.918  1.00 20.00     0.036 C 
ENDBRANCH   6   7
ENDBRANCH   4   6
BRANCH   5  10
HETATM   10  O10 UNL     1     -31.830  14.771  -3.759  1.00 20.00    -0.395 OA
HETATM   11  H26 UNL     1     -31.788  14.114  -3.043  1.00 20.00     0.210 HD
ENDBRANCH   5  10
TORSDOF 3
ENDMDL
MODEL 7
REMARK VINA RESULT:      -4.5     11.485     13.405
REMARK  3 active torsions:
REMARK  status: ('A' for Active; 'I' for Inactive)
REMARK    1  A    between atoms: C2_2  and  C9_9 
REMARK    2  A    between atoms: C6_6  and  C9_9 
REMARK    3  A    between atoms: C7_7  and  O10_10 
ROOT
HETATM    1  C3  UNL     1     -33.879  18.153  -6.080  1.00 20.00     0.003 C 
HETATM    2  C4  UNL     1     -33.494  17.743  -4.658  1.00 20.00     0.007 C 
HETATM    3  C5  UNL     1     -34.330  16.875  -6.788  1.00 20.00     0.032 C 
HETATM    4  C6  UNL     1     -33.301  16.231  -4.729  1.00 20.00     0.018 C 
HETATM    5  C7  UNL     1     -34.399  15.809  -5.701  1.00 20.00     0.122 C 
ENDROOT
BRANCH   4   6
HETATM    6  C9  UNL     1     -33.404  15.551  -3.372  1.00 20.00     0.034 C 
BRANCH   6   7
HETATM    7  C2  UNL     1     -33.711  16.540  -2.287  1.00 20.00    -0.031 C 
HETATM    8  C1  UNL     1     -34.610  16.325  -1.315  1.00 20.00    -0.035 C 
HETATM    9  C8  UNL     1     -34.921  17.310  -0.238  1.00 20.00     0.036 C 
ENDBRANCH   6   7
ENDBRANCH   4   6
BRANCH   5  10
HETATM   10  O10 UNL     1     -34.151  14.517  -6.224  1.00 20.00    -0.395 OA
HETATM   11  H26 UNL     1     -34.750  13.904  -5.767  1.00 20.00     0.210 HD
ENDBRANCH   5  10
TORSDOF 3
ENDMDL
MODEL 8
REMARK VINA RESULT:      -4.5     10.541     12.275
REMARK  3 active torsions:
REMARK  status: ('A' for Active; 'I' for Inactive)
REMARK    1  A    between atoms: C2_2  and  C9_9 
REMARK    2  A    between atoms: C6_6  and  C9_9 
REMARK    3  A    between atoms: C7_7  and  O10_10 
ROOT
HETATM    1  C3  UNL     1     -32.815  15.114  -3.773  1.00 20.00     0.003 C 
HETATM    2  C4  UNL     1     -33.874  15.822  -4.619  1.00 20.00     0.007 C 
HETATM    3  C5  UNL     1     -33.261  13.656  -3.658  1.00 20.00     0.032 C 
HETATM    4  C6  UNL     1     -35.086  14.896  -4.578  1.00 20.00     0.018 C 
HETATM    5  C7  UNL     1     -34.441  13.513  -4.614  1.00 20.00     0.122 C 
ENDROOT
BRANCH   4   6
HETATM    6  C9  UNL     1     -36.061  15.135  -5.721  1.00 20.00     0.034 C 
BRANCH   6   7
HETATM    7  C2  UNL     1     -37.438  15.438  -5.210  1.00 20.00    -0.031 C 
HETATM    8  C1  UNL     1     -37.954  14.899  -4.095  1.00 20.00    -0.035 C 
HETATM    9  C8  UNL     1     -39.327  15.196  -3.589  1.00 20.00     0.036 C 
ENDBRANCH   6   7
ENDBRANCH   4   6
BRANCH   5  10
HETATM   10  O10 UNL     1     -35.344  12.515  -4.178  1.00 20.00    -0.395 OA
HETATM   11  H26 UNL     1     -35.052  11.674  -4.570  1.00 20.00     0.210 HD
ENDBRANCH   5  10
TORSDOF 3
ENDMDL
MODEL 9
REMARK VINA RESULT:      -4.4     11.667     12.988
REMARK  3 active torsions:
REMARK  status: ('A' for Active; 'I' for Inactive)
REMARK    1  A    between atoms: C2_2  and  C9_9 
REMARK    2  A    between atoms: C6_6  and  C9_9 
REMARK    3  A    between atoms: C7_7  and  O10_10 
ROOT
HETATM    1  C3  UNL     1     -34.935  14.631  -6.811  1.00 20.00     0.003 C 
HETATM    2  C4  UNL     1     -34.888  14.179  -5.352  1.00 20.00     0.007 C 
HETATM    3  C5  UNL     1     -34.215  15.979  -6.867  1.00 20.00     0.032 C 
HETATM    4  C6  UNL     1     -34.564  15.445  -4.563  1.00 20.00     0.018 C 
HETATM    5  C7  UNL     1     -33.587  16.163  -5.490  1.00 20.00     0.122 C 
ENDROOT
BRANCH   4   6
HETATM    6  C9  UNL     1     -33.987  15.160  -3.185  1.00 20.00     0.034 C 
BRANCH   6   7
HETATM    7  C2  UNL     1     -34.774  15.851  -2.111  1.00 20.00    -0.031 C 
HETATM    8  C1  UNL     1     -34.223  16.629  -1.167  1.00 20.00    -0.035 C 
HETATM    9  C8  UNL     1     -35.005  17.313  -0.095  1.00 20.00     0.036 C 
ENDBRANCH   6   7
ENDBRANCH   4   6
BRANCH   5  10
HETATM   10  O10 UNL     1     -33.472  17.532  -5.152  1.00 20.00    -0.395 OA
HETATM   11  H26 UNL     1     -32.760  17.606  -4.494  1.00 20.00     0.210 HD
ENDBRANCH   5  10
TORSDOF 3
ENDMDL
