MODEL 1
REMARK VINA RESULT:      -4.8      0.000      0.000
REMARK  3 active torsions:
REMARK  status: ('A' for Active; 'I' for Inactive)
REMARK    1  A    between atoms: C5_5  and  C9_9 
REMARK    2  A    between atoms: C6_6  and  C10_10 
REMARK    3  A    between atoms: C9_9  and  C11_11 
ROOT
HETATM    1  C1  UNL     1     -33.762  17.755  -3.185  1.00 20.00     0.131 C 
HETATM    2  C2  UNL     1     -33.963  17.109  -4.539  1.00 20.00     0.079 C 
HETATM    3  C3  UNL     1     -35.198  16.220  -4.533  1.00 20.00     0.012 C 
HETATM    4  C4  UNL     1     -35.030  15.932  -2.036  1.00 20.00     0.016 C 
HETATM    5  C5  UNL     1     -33.777  16.816  -1.983  1.00 20.00     0.055 C 
HETATM    6  C6  UNL     1     -35.210  15.207  -3.379  1.00 20.00    -0.014 C 
HETATM    7  O12 UNL     1     -33.511  18.955  -3.090  1.00 20.00    -0.298 OA
ENDROOT
BRANCH   5   8
HETATM    8  C9  UNL     1     -33.723  17.588  -0.668  1.00 20.00     0.012 C 
BRANCH   8   9
HETATM    9  C11 UNL     1     -34.936  17.282   0.204  1.00 20.00    -0.004 C 
HETATM   10  C8  UNL     1     -34.848  17.995   1.544  1.00 20.00     0.005 C 
ENDBRANCH   8   9
ENDBRANCH   5   8
BRANCH   6  11
HETATM   11  C10 UNL     1     -34.174  14.099  -3.578  1.00 20.00     0.000 C 
HETATM   12  C7  UNL     1     -34.522  13.224  -4.736  1.00 20.00     0.005 C 
ENDBRANCH   6  11
TORSDOF 3
ENDMDL
MODEL 2
REMARK VINA RESULT:      -4.7      2.553      4.049
REMARK  3 active torsions:
REMARK  status: ('A' for Active; 'I' for Inactive)
REMARK    1  A    between atoms: C5_5  and  C9_9 
REMARK    2  A    between atoms: C6_6  and  C10_10 
REMARK    3  A    between atoms: C9_9  and  C11_11 
ROOT
HETATM    1  C1  UNL     1     -34.944  13.951  -5.067  1.00 20.00     0.131 C 
HETATM    2  C2  UNL     1     -35.272  14.048  -6.541  1.00 20.00     0.079 C 
HETATM    3  C3  UNL     1     -34.326  15.013  -7.242  1.00 20.00     0.012 C 
HETATM    4  C4  UNL     1     -33.878  16.212  -5.071  1.00 20.00     0.016 C 
HETATM    5  C5  UNL     1     -34.826  15.273  -4.315  1.00 20.00     0.055 C 
HETATM    6  C6  UNL     1     -34.242  16.384  -6.555  1.00 20.00    -0.014 C 
HETATM    7  O12 UNL     1     -34.871  12.858  -4.508  1.00 20.00    -0.298 OA
ENDROOT
BRANCH   5   8
HETATM    8  C9  UNL     1     -34.341  15.063  -2.884  1.00 20.00     0.012 C 
BRANCH   8   9
HETATM    9  C11 UNL     1     -33.917  16.381  -2.244  1.00 20.00    -0.004 C 
HETATM   10  C8  UNL     1     -34.611  16.596  -0.909  1.00 20.00     0.005 C 
ENDBRANCH   8   9
ENDBRANCH   5   8
BRANCH   6  11
HETATM   11  C10 UNL     1     -35.523  17.198  -6.743  1.00 20.00     0.000 C 
HETATM   12  C7  UNL     1     -35.432  18.528  -6.072  1.00 20.00     0.005 C 
ENDBRANCH   6  11
TORSDOF 3
ENDMDL
MODEL 3
REMARK VINA RESULT:      -4.6      2.288      3.475
REMARK  3 active torsions:
REMARK  status: ('A' for Active; 'I' for Inactive)
REMARK    1  A    between atoms: C5_5  and  C9_9 
REMARK    2  A    between atoms: C6_6  and  C10_10 
REMARK    3  A    between atoms: C9_9  and  C11_11 
ROOT
HETATM    1  C1  UNL     1     -34.145  13.962  -4.224  1.00 20.00     0.131 C 
HETATM    2  C2  UNL     1     -34.857  13.370  -5.421  1.00 20.00     0.079 C 
HETATM    3  C3  UNL     1     -34.971  14.395  -6.540  1.00 20.00     0.012 C 
HETATM    4  C4  UNL     1     -34.791  16.285  -4.883  1.00 20.00     0.016 C 
HETATM    5  C5  UNL     1     -34.680  15.297  -3.715  1.00 20.00     0.055 C 
HETATM    6  C6  UNL     1     -35.578  15.728  -6.081  1.00 20.00    -0.014 C 
HETATM    7  O12 UNL     1     -33.250  13.341  -3.652  1.00 20.00    -0.298 OA
ENDROOT
BRANCH   5   8
HETATM    8  C9  UNL     1     -33.795  15.871  -2.612  1.00 20.00     0.012 C 
BRANCH   8   9
HETATM    9  C11 UNL     1     -34.625  16.320  -1.414  1.00 20.00    -0.004 C 
HETATM   10  C8  UNL     1     -33.963  17.478  -0.685  1.00 20.00     0.005 C 
ENDBRANCH   8   9
ENDBRANCH   5   8
BRANCH   6  11
HETATM   11  C10 UNL     1     -37.073  15.604  -5.779  1.00 20.00     0.000 C 
HETATM   12  C7  UNL     1     -37.854  15.267  -7.006  1.00 20.00     0.005 C 
ENDBRANCH   6  11
TORSDOF 3
ENDMDL
MODEL 4
REMARK VINA RESULT:      -4.6      1.581      4.531
REMARK  3 active torsions:
REMARK  status: ('A' for Active; 'I' for Inactive)
REMARK    1  A    between atoms: C5_5  and  C9_9 
REMARK    2  A    between atoms: C6_6  and  C10_10 
REMARK    3  A    between atoms: C9_9  and  C11_11 
ROOT
HETATM    1  C1  UNL     1     -35.887  17.057  -3.928  1.00 20.00     0.131 C 
HETATM    2  C2  UNL     1     -35.270  18.267  -3.260  1.00 20.00     0.079 C 
HETATM    3  C3  UNL     1     -33.918  17.917  -2.656  1.00 20.00     0.012 C 
HETATM    4  C4  UNL     1     -34.575  15.490  -2.489  1.00 20.00     0.016 C 
HETATM    5  C5  UNL     1     -35.956  15.786  -3.087  1.00 20.00     0.055 C 
HETATM    6  C6  UNL     1     -33.965  16.686  -1.740  1.00 20.00    -0.014 C 
HETATM    7  O12 UNL     1     -36.383  17.141  -5.051  1.00 20.00    -0.298 OA
ENDROOT
BRANCH   5   8
HETATM    8  C9  UNL     1     -36.449  14.597  -3.907  1.00 20.00     0.012 C 
BRANCH   8   9
HETATM    9  C11 UNL     1     -35.294  13.687  -4.311  1.00 20.00    -0.004 C 
HETATM   10  C8  UNL     1     -34.912  13.891  -5.768  1.00 20.00     0.005 C 
ENDBRANCH   8   9
ENDBRANCH   5   8
BRANCH   6  11
HETATM   11  C10 UNL     1     -34.694  16.976  -0.427  1.00 20.00     0.000 C 
HETATM   12  C7  UNL     1     -34.023  18.061   0.347  1.00 20.00     0.005 C 
ENDBRANCH   6  11
TORSDOF 3
ENDMDL
MODEL 5
REMARK VINA RESULT:      -4.5      1.869      2.988
REMARK  3 active torsions:
REMARK  status: ('A' for Active; 'I' for Inactive)
REMARK    1  A    between atoms: C5_5  and  C9_9 
REMARK    2  A    between atoms: C6_6  and  C10_10 
REMARK    3  A    between atoms: C9_9  and  C11_11 
ROOT
HETATM    1  C1  UNL     1     -33.476  14.741  -3.738  1.00 20.00     0.131 C 
HETATM    2  C2  UNL     1     -34.174  13.518  -4.292  1.00 20.00     0.079 C 
HETATM    3  C3  UNL     1     -35.127  13.904  -5.415  1.00 20.00     0.012 C 
HETATM    4  C4  UNL     1     -35.325  16.242  -4.496  1.00 20.00     0.016 C 
HETATM    5  C5  UNL     1     -34.375  15.907  -3.340  1.00 20.00     0.055 C 
HETATM    6  C6  UNL     1     -36.101  15.024  -5.022  1.00 20.00    -0.014 C 
HETATM    7  O12 UNL     1     -32.262  14.739  -3.542  1.00 20.00    -0.298 OA
ENDROOT
BRANCH   5   8
HETATM    8  C9  UNL     1     -33.559  17.134  -2.945  1.00 20.00     0.012 C 
BRANCH   8   9
HETATM    9  C11 UNL     1     -33.925  17.614  -1.544  1.00 20.00    -0.004 C 
HETATM   10  C8  UNL     1     -34.705  16.555  -0.783  1.00 20.00     0.005 C 
ENDBRANCH   8   9
ENDBRANCH   5   8
BRANCH   6  11
HETATM   11  C10 UNL     1     -37.159  14.542  -4.028  1.00 20.00     0.000 C 
HETATM   12  C7  UNL     1     -38.088  15.643  -3.637  1.00 20.00     0.005 C 
ENDBRANCH   6  11
TORSDOF 3
ENDMDL
MODEL 6
REMARK VINA RESULT:      -4.4      1.057      1.527
REMARK  3 active torsions:
REMARK  status: ('A' for Active; 'I' for Inactive)
REMARK    1  A    between atoms: C5_5  and  C9_9 
REMARK    2  A    between atoms: C6_6  and  C10_10 
REMARK    3  A    between atoms: C9_9  and  C11_11 
ROOT
HETATM    1  C1  UNL     1     -33.756  17.681  -4.632  1.00 20.00     0.131 C 
HETATM    2  C2  UNL     1     -34.006  17.197  -6.044  1.00 20.00     0.079 C 
HETATM    3  C3  UNL     1     -35.354  16.498  -6.142  1.00 20.00     0.012 C 
HETATM    4  C4  UNL     1     -35.300  15.962  -3.680  1.00 20.00     0.016 C 
HETATM    5  C5  UNL     1     -33.938  16.648  -3.524  1.00 20.00     0.055 C 
HETATM    6  C6  UNL     1     -35.542  15.396  -5.089  1.00 20.00    -0.014 C 
HETATM    7  O12 UNL     1     -33.340  18.819  -4.419  1.00 20.00    -0.298 OA
ENDROOT
BRANCH   5   8
HETATM    8  C9  UNL     1     -33.813  17.281  -2.141  1.00 20.00     0.012 C 
BRANCH   8   9
HETATM    9  C11 UNL     1     -34.595  16.489  -1.098  1.00 20.00    -0.004 C 
HETATM   10  C8  UNL     1     -34.792  17.296   0.175  1.00 20.00     0.005 C 
ENDBRANCH   8   9
ENDBRANCH   5   8
BRANCH   6  11
HETATM   11  C10 UNL     1     -34.668  14.174  -5.376  1.00 20.00     0.000 C 
HETATM   12  C7  UNL     1     -34.810  13.135  -4.313  1.00 20.00     0.005 C 
ENDBRANCH   6  11
TORSDOF 3
ENDMDL
MODEL 7
REMARK VINA RESULT:      -4.4      0.952      4.449
REMARK  3 active torsions:
REMARK  status: ('A' for Active; 'I' for Inactive)
REMARK    1  A    between atoms: C5_5  and  C9_9 
REMARK    2  A    between atoms: C6_6  and  C10_10 
REMARK    3  A    between atoms: C9_9  and  C11_11 
ROOT
HETATM    1  C1  UNL     1     -33.894  17.874  -3.253  1.00 20.00     0.131 C 
HETATM    2  C2  UNL     1     -33.564  18.880  -2.171  1.00 20.00     0.079 C 
HETATM    3  C3  UNL     1     -33.247  18.176  -0.860  1.00 20.00     0.012 C 
HETATM    4  C4  UNL     1     -34.594  16.167  -1.567  1.00 20.00     0.016 C 
HETATM    5  C5  UNL     1     -34.951  16.832  -2.902  1.00 20.00     0.055 C 
HETATM    6  C6  UNL     1     -34.329  17.173  -0.435  1.00 20.00    -0.014 C 
HETATM    7  O12 UNL     1     -33.397  17.967  -4.374  1.00 20.00    -0.298 OA
ENDROOT
BRANCH   5   8
HETATM    8  C9  UNL     1     -35.090  15.782  -4.001  1.00 20.00     0.012 C 
BRANCH   8   9
HETATM    9  C11 UNL     1     -34.720  14.394  -3.491  1.00 20.00    -0.004 C 
HETATM   10  C8  UNL     1     -34.806  13.357  -4.598  1.00 20.00     0.005 C 
ENDBRANCH   8   9
ENDBRANCH   5   8
BRANCH   6  11
HETATM   11  C10 UNL     1     -35.609  17.872   0.025  1.00 20.00     0.000 C 
HETATM   12  C7  UNL     1     -35.736  17.863   1.513  1.00 20.00     0.005 C 
ENDBRANCH   6  11
TORSDOF 3
ENDMDL
MODEL 8
REMARK VINA RESULT:      -4.4      2.334      4.377
REMARK  3 active torsions:
REMARK  status: ('A' for Active; 'I' for Inactive)
REMARK    1  A    between atoms: C5_5  and  C9_9 
REMARK    2  A    between atoms: C6_6  and  C10_10 
REMARK    3  A    between atoms: C9_9  and  C11_11 
ROOT
HETATM    1  C1  UNL     1     -34.682  16.002  -5.532  1.00 20.00     0.131 C 
HETATM    2  C2  UNL     1     -33.281  16.303  -5.048  1.00 20.00     0.079 C 
HETATM    3  C3  UNL     1     -32.918  15.417  -3.864  1.00 20.00     0.012 C 
HETATM    4  C4  UNL     1     -35.354  15.112  -3.295  1.00 20.00     0.016 C 
HETATM    5  C5  UNL     1     -35.777  16.003  -4.469  1.00 20.00     0.055 C 
HETATM    6  C6  UNL     1     -33.962  15.454  -2.739  1.00 20.00    -0.014 C 
HETATM    7  O12 UNL     1     -34.918  15.859  -6.731  1.00 20.00    -0.298 OA
ENDROOT
BRANCH   5   8
HETATM    8  C9  UNL     1     -37.113  15.537  -5.040  1.00 20.00     0.012 C 
BRANCH   8   9
HETATM    9  C11 UNL     1     -37.902  14.731  -4.014  1.00 20.00    -0.004 C 
HETATM   10  C8  UNL     1     -39.379  14.678  -4.370  1.00 20.00     0.005 C 
ENDBRANCH   8   9
ENDBRANCH   5   8
BRANCH   6  11
HETATM   11  C10 UNL     1     -33.953  16.789  -1.992  1.00 20.00     0.000 C 
HETATM   12  C7  UNL     1     -34.654  16.688  -0.678  1.00 20.00     0.005 C 
ENDBRANCH   6  11
TORSDOF 3
ENDMDL
MODEL 9
REMARK VINA RESULT:      -4.3      2.919      5.592
REMARK  3 active torsions:
REMARK  status: ('A' for Active; 'I' for Inactive)
REMARK    1  A    between atoms: C5_5  and  C9_9 
REMARK    2  A    between atoms: C6_6  and  C10_10 
REMARK    3  A    between atoms: C9_9  and  C11_11 
ROOT
HETATM    1  C1  UNL     1     -34.519  13.744  -4.684  1.00 20.00     0.131 C 
HETATM    2  C2  UNL     1     -33.857  14.211  -3.406  1.00 20.00     0.079 C 
HETATM    3  C3  UNL     1     -34.598  15.405  -2.822  1.00 20.00     0.012 C 
HETATM    4  C4  UNL     1     -35.511  16.001  -5.094  1.00 20.00     0.016 C 
HETATM    5  C5  UNL     1     -34.781  14.816  -5.737  1.00 20.00     0.055 C 
HETATM    6  C6  UNL     1     -34.812  16.539  -3.835  1.00 20.00    -0.014 C 
HETATM    7  O12 UNL     1     -34.738  12.549  -4.880  1.00 20.00    -0.298 OA
ENDROOT
BRANCH   5   8
HETATM    8  C9  UNL     1     -35.587  14.265  -6.910  1.00 20.00     0.012 C 
BRANCH   8   9
HETATM    9  C11 UNL     1     -36.288  15.383  -7.674  1.00 20.00    -0.004 C 
HETATM   10  C8  UNL     1     -37.751  15.052  -7.917  1.00 20.00     0.005 C 
ENDBRANCH   8   9
ENDBRANCH   5   8
BRANCH   6  11
HETATM   11  C10 UNL     1     -33.507  17.264  -4.167  1.00 20.00     0.000 C 
HETATM   12  C7  UNL     1     -33.739  18.421  -5.082  1.00 20.00     0.005 C 
ENDBRANCH   6  11
TORSDOF 3
ENDMDL
