MODEL 1
REMARK VINA RESULT:      -4.5      0.000      0.000
REMARK  4 active torsions:
REMARK  status: ('A' for Active; 'I' for Inactive)
REMARK    1  A    between atoms: C4_4  and  C5_5 
REMARK    2  A    between atoms: C4_4  and  C6_6 
REMARK    3  A    between atoms: C5_5  and  O8_8 
REMARK    4  A    between atoms: C6_6  and  C7_7 
ROOT
HETATM    1  C1  UNL     1     -34.427   5.394   2.766  1.00 20.00     0.011 C 
HETATM    2  C6  UNL     1     -33.682   5.601   4.092  1.00 20.00     0.001 C 
ENDROOT
BRANCH   2   3
HETATM    3  C4  UNL     1     -32.778   6.847   3.968  1.00 20.00     0.032 C 
BRANCH   3   4
HETATM    4  C5  UNL     1     -32.252   7.102   2.560  1.00 20.00     0.167 C 
BRANCH   4   5
HETATM    5  O8  UNL     1     -32.245   8.504   2.323  1.00 20.00    -0.396 OA
HETATM    6  C3  UNL     1     -31.952   8.801   0.965  1.00 20.00     0.201 C 
ENDBRANCH   4   5
ENDBRANCH   3   4
ENDBRANCH   2   3
BRANCH   2   7
HETATM    7  C7  UNL     1     -34.616   5.634   5.327  1.00 20.00     0.082 C 
HETATM    8  C2  UNL     1     -34.904   4.250   5.902  1.00 20.00     0.027 C 
HETATM    9 CL9  UNL     1     -33.981   6.681   6.636  1.00 20.00    -0.125 Cl
ENDBRANCH   2   7
TORSDOF 4
ENDMDL
MODEL 2
REMARK VINA RESULT:      -4.4      1.428      1.580
REMARK  4 active torsions:
REMARK  status: ('A' for Active; 'I' for Inactive)
REMARK    1  A    between atoms: C4_4  and  C5_5 
REMARK    2  A    between atoms: C4_4  and  C6_6 
REMARK    3  A    between atoms: C5_5  and  O8_8 
REMARK    4  A    between atoms: C6_6  and  C7_7 
ROOT
HETATM    1  C1  UNL     1     -35.805   5.473   3.742  1.00 20.00     0.011 C 
HETATM    2  C6  UNL     1     -34.317   5.445   4.119  1.00 20.00     0.001 C 
ENDROOT
BRANCH   2   3
HETATM    3  C4  UNL     1     -33.626   6.690   3.521  1.00 20.00     0.032 C 
BRANCH   3   4
HETATM    4  C5  UNL     1     -32.139   6.505   3.241  1.00 20.00     0.167 C 
BRANCH   4   5
HETATM    5  O8  UNL     1     -31.549   7.785   3.050  1.00 20.00    -0.396 OA
HETATM    6  C3  UNL     1     -32.031   8.409   1.868  1.00 20.00     0.201 C 
ENDBRANCH   4   5
ENDBRANCH   3   4
ENDBRANCH   2   3
BRANCH   2   7
HETATM    7  C7  UNL     1     -34.068   5.268   5.638  1.00 20.00     0.082 C 
HETATM    8  C2  UNL     1     -34.002   6.592   6.396  1.00 20.00     0.027 C 
HETATM    9 CL9  UNL     1     -35.298   4.221   6.415  1.00 20.00    -0.125 Cl
ENDBRANCH   2   7
TORSDOF 4
ENDMDL
MODEL 3
REMARK VINA RESULT:      -4.1      1.557      1.944
REMARK  4 active torsions:
REMARK  status: ('A' for Active; 'I' for Inactive)
REMARK    1  A    between atoms: C4_4  and  C5_5 
REMARK    2  A    between atoms: C4_4  and  C6_6 
REMARK    3  A    between atoms: C5_5  and  O8_8 
REMARK    4  A    between atoms: C6_6  and  C7_7 
ROOT
HETATM    1  C1  UNL     1     -33.735   6.611   6.381  1.00 20.00     0.011 C 
HETATM    2  C6  UNL     1     -33.908   6.469   4.862  1.00 20.00     0.001 C 
ENDROOT
BRANCH   2   3
HETATM    3  C4  UNL     1     -32.526   6.600   4.186  1.00 20.00     0.032 C 
BRANCH   3   4
HETATM    4  C5  UNL     1     -32.584   6.979   2.711  1.00 20.00     0.167 C 
BRANCH   4   5
HETATM    5  O8  UNL     1     -31.745   8.107   2.498  1.00 20.00    -0.396 OA
HETATM    6  C3  UNL     1     -32.029   8.741   1.258  1.00 20.00     0.201 C 
ENDBRANCH   4   5
ENDBRANCH   3   4
ENDBRANCH   2   3
BRANCH   2   7
HETATM    7  C7  UNL     1     -34.682   5.193   4.446  1.00 20.00     0.082 C 
HETATM    8  C2  UNL     1     -35.032   4.288   5.625  1.00 20.00     0.027 C 
HETATM    9 CL9  UNL     1     -36.184   5.569   3.544  1.00 20.00    -0.125 Cl
ENDBRANCH   2   7
TORSDOF 4
ENDMDL
MODEL 4
REMARK VINA RESULT:      -3.9      1.583      2.135
REMARK  4 active torsions:
REMARK  status: ('A' for Active; 'I' for Inactive)
REMARK    1  A    between atoms: C4_4  and  C5_5 
REMARK    2  A    between atoms: C4_4  and  C6_6 
REMARK    3  A    between atoms: C5_5  and  O8_8 
REMARK    4  A    between atoms: C6_6  and  C7_7 
ROOT
HETATM    1  C1  UNL     1     -33.711   6.492   5.899  1.00 20.00     0.011 C 
HETATM    2  C6  UNL     1     -33.842   6.562   4.372  1.00 20.00     0.001 C 
ENDROOT
BRANCH   2   3
HETATM    3  C4  UNL     1     -32.434   6.462   3.744  1.00 20.00     0.032 C 
BRANCH   3   4
HETATM    4  C5  UNL     1     -31.875   7.791   3.248  1.00 20.00     0.167 C 
BRANCH   4   5
HETATM    5  O8  UNL     1     -32.174   7.923   1.864  1.00 20.00    -0.396 OA
HETATM    6  C3  UNL     1     -32.297   9.287   1.485  1.00 20.00     0.201 C 
ENDBRANCH   4   5
ENDBRANCH   3   4
ENDBRANCH   2   3
BRANCH   2   7
HETATM    7  C7  UNL     1     -34.852   5.539   3.791  1.00 20.00     0.082 C 
HETATM    8  C2  UNL     1     -34.430   4.981   2.434  1.00 20.00     0.027 C 
HETATM    9 CL9  UNL     1     -35.156   4.171   4.907  1.00 20.00    -0.125 Cl
ENDBRANCH   2   7
TORSDOF 4
ENDMDL
MODEL 5
REMARK VINA RESULT:      -3.7     11.123     12.435
REMARK  4 active torsions:
REMARK  status: ('A' for Active; 'I' for Inactive)
REMARK    1  A    between atoms: C4_4  and  C5_5 
REMARK    2  A    between atoms: C4_4  and  C6_6 
REMARK    3  A    between atoms: C5_5  and  O8_8 
REMARK    4  A    between atoms: C6_6  and  C7_7 
ROOT
HETATM    1  C1  UNL     1     -34.241  16.634  -1.436  1.00 20.00     0.011 C 
HETATM    2  C6  UNL     1     -33.909  16.108  -2.839  1.00 20.00     0.001 C 
ENDROOT
BRANCH   2   3
HETATM    3  C4  UNL     1     -34.614  14.749  -3.044  1.00 20.00     0.032 C 
BRANCH   3   4
HETATM    4  C5  UNL     1     -33.739  13.682  -3.693  1.00 20.00     0.167 C 
BRANCH   4   5
HETATM    5  O8  UNL     1     -34.553  12.879  -4.539  1.00 20.00    -0.396 OA
HETATM    6  C3  UNL     1     -35.064  13.626  -5.634  1.00 20.00     0.201 C 
ENDBRANCH   4   5
ENDBRANCH   3   4
ENDBRANCH   2   3
BRANCH   2   7
HETATM    7  C7  UNL     1     -34.198  17.131  -3.967  1.00 20.00     0.082 C 
HETATM    8  C2  UNL     1     -33.325  16.928  -5.203  1.00 20.00     0.027 C 
HETATM    9 CL9  UNL     1     -35.918  17.126  -4.469  1.00 20.00    -0.125 Cl
ENDBRANCH   2   7
TORSDOF 4
ENDMDL
MODEL 6
REMARK VINA RESULT:      -3.6     10.803     11.997
REMARK  4 active torsions:
REMARK  status: ('A' for Active; 'I' for Inactive)
REMARK    1  A    between atoms: C4_4  and  C5_5 
REMARK    2  A    between atoms: C4_4  and  C6_6 
REMARK    3  A    between atoms: C5_5  and  O8_8 
REMARK    4  A    between atoms: C6_6  and  C7_7 
ROOT
HETATM    1  C1  UNL     1     -33.247  16.385  -4.504  1.00 20.00     0.011 C 
HETATM    2  C6  UNL     1     -34.212  16.264  -3.317  1.00 20.00     0.001 C 
ENDROOT
BRANCH   2   3
HETATM    3  C4  UNL     1     -34.553  14.774  -3.099  1.00 20.00     0.032 C 
BRANCH   3   4
HETATM    4  C5  UNL     1     -33.607  13.806  -3.800  1.00 20.00     0.167 C 
BRANCH   4   5
HETATM    5  O8  UNL     1     -34.379  12.831  -4.489  1.00 20.00    -0.396 OA
HETATM    6  C3  UNL     1     -35.116  13.410  -5.558  1.00 20.00     0.201 C 
ENDBRANCH   4   5
ENDBRANCH   3   4
ENDBRANCH   2   3
BRANCH   2   7
HETATM    7  C7  UNL     1     -33.707  16.977  -2.036  1.00 20.00     0.082 C 
HETATM    8  C2  UNL     1     -33.626  18.494  -2.184  1.00 20.00     0.027 C 
HETATM    9 CL9  UNL     1     -34.708  16.591  -0.601  1.00 20.00    -0.125 Cl
ENDBRANCH   2   7
TORSDOF 4
ENDMDL
MODEL 7
REMARK VINA RESULT:      -3.6     11.282     12.215
REMARK  4 active torsions:
REMARK  status: ('A' for Active; 'I' for Inactive)
REMARK    1  A    between atoms: C4_4  and  C5_5 
REMARK    2  A    between atoms: C4_4  and  C6_6 
REMARK    3  A    between atoms: C5_5  and  O8_8 
REMARK    4  A    between atoms: C6_6  and  C7_7 
ROOT
HETATM    1  C1  UNL     1     -34.764  16.511  -1.506  1.00 20.00     0.011 C 
HETATM    2  C6  UNL     1     -34.778  15.443  -2.609  1.00 20.00     0.001 C 
ENDROOT
BRANCH   2   3
HETATM    3  C4  UNL     1     -35.966  15.718  -3.557  1.00 20.00     0.032 C 
BRANCH   3   4
HETATM    4  C5  UNL     1     -36.641  14.461  -4.094  1.00 20.00     0.167 C 
BRANCH   4   5
HETATM    5  O8  UNL     1     -37.929  14.347  -3.502  1.00 20.00    -0.396 OA
HETATM    6  C3  UNL     1     -38.952  14.769  -4.393  1.00 20.00     0.201 C 
ENDBRANCH   4   5
ENDBRANCH   3   4
ENDBRANCH   2   3
BRANCH   2   7
HETATM    7  C7  UNL     1     -33.421  15.296  -3.344  1.00 20.00     0.082 C 
HETATM    8  C2  UNL     1     -33.063  13.847  -3.662  1.00 20.00     0.027 C 
HETATM    9 CL9  UNL     1     -33.358  16.251  -4.858  1.00 20.00    -0.125 Cl
ENDBRANCH   2   7
TORSDOF 4
ENDMDL
MODEL 8
REMARK VINA RESULT:      -3.6     11.691     12.897
REMARK  4 active torsions:
REMARK  status: ('A' for Active; 'I' for Inactive)
REMARK    1  A    between atoms: C4_4  and  C5_5 
REMARK    2  A    between atoms: C4_4  and  C6_6 
REMARK    3  A    between atoms: C5_5  and  O8_8 
REMARK    4  A    between atoms: C6_6  and  C7_7 
ROOT
HETATM    1  C1  UNL     1     -33.362  14.503  -3.474  1.00 20.00     0.011 C 
HETATM    2  C6  UNL     1     -34.260  14.238  -4.690  1.00 20.00     0.001 C 
ENDROOT
BRANCH   2   3
HETATM    3  C4  UNL     1     -35.621  13.696  -4.198  1.00 20.00     0.032 C 
BRANCH   3   4
HETATM    4  C5  UNL     1     -36.759  14.707  -4.269  1.00 20.00     0.167 C 
BRANCH   4   5
HETATM    5  O8  UNL     1     -37.922  14.125  -3.693  1.00 20.00    -0.396 OA
HETATM    6  C3  UNL     1     -39.108  14.724  -4.196  1.00 20.00     0.201 C 
ENDBRANCH   4   5
ENDBRANCH   3   4
ENDBRANCH   2   3
BRANCH   2   7
HETATM    7  C7  UNL     1     -34.387  15.455  -5.641  1.00 20.00     0.082 C 
HETATM    8  C2  UNL     1     -33.354  16.544  -5.366  1.00 20.00     0.027 C 
HETATM    9 CL9  UNL     1     -34.283  14.986  -7.367  1.00 20.00    -0.125 Cl
ENDBRANCH   2   7
TORSDOF 4
ENDMDL
MODEL 9
REMARK VINA RESULT:      -3.5     11.264     12.164
REMARK  4 active torsions:
REMARK  status: ('A' for Active; 'I' for Inactive)
REMARK    1  A    between atoms: C4_4  and  C5_5 
REMARK    2  A    between atoms: C4_4  and  C6_6 
REMARK    3  A    between atoms: C5_5  and  O8_8 
REMARK    4  A    between atoms: C6_6  and  C7_7 
ROOT
HETATM    1  C1  UNL     1     -35.982  15.093  -3.400  1.00 20.00     0.011 C 
HETATM    2  C6  UNL     1     -34.522  14.765  -3.056  1.00 20.00     0.001 C 
ENDROOT
BRANCH   2   3
HETATM    3  C4  UNL     1     -33.965  13.791  -4.117  1.00 20.00     0.032 C 
BRANCH   3   4
HETATM    4  C5  UNL     1     -34.878  13.588  -5.321  1.00 20.00     0.167 C 
BRANCH   4   5
HETATM    5  O8  UNL     1     -34.438  14.437  -6.374  1.00 20.00    -0.396 OA
HETATM    6  C3  UNL     1     -35.389  14.494  -7.429  1.00 20.00     0.201 C 
ENDBRANCH   4   5
ENDBRANCH   3   4
ENDBRANCH   2   3
BRANCH   2   7
HETATM    7  C7  UNL     1     -33.640  16.021  -2.845  1.00 20.00     0.082 C 
HETATM    8  C2  UNL     1     -33.734  17.023  -3.992  1.00 20.00     0.027 C 
HETATM    9 CL9  UNL     1     -34.012  16.867  -1.310  1.00 20.00    -0.125 Cl
ENDBRANCH   2   7
TORSDOF 4
ENDMDL
