MODEL 1
REMARK VINA RESULT:      -5.3      0.000      0.000
REMARK  4 active torsions:
REMARK  status: ('A' for Active; 'I' for Inactive)
REMARK    1  A    between atoms: C5_5  and  C6_6 
REMARK    2  A    between atoms: C6_6  and  C8_8 
REMARK    3  A    between atoms: C7_7  and  C8_8 
REMARK    4  A    between atoms: C8_8  and  O9_9 
ROOT
HETATM    1  C1  UNL     1     -31.966   8.931   1.261  1.00 20.00     0.012 C 
HETATM    2  C2  UNL     1     -32.104   8.042   2.055  1.00 20.00    -0.117 C 
HETATM    3  C5  UNL     1     -32.266   6.950   3.024  1.00 20.00     0.095 C 
ENDROOT
BRANCH   3   4
HETATM    4  C6  UNL     1     -33.666   6.920   3.638  1.00 20.00     0.044 C 
BRANCH   4   5
HETATM    5  C8  UNL     1     -34.196   5.528   4.025  1.00 20.00     0.122 C 
BRANCH   5   6
HETATM    6  C7  UNL     1     -34.079   5.164   5.523  1.00 20.00     0.006 C 
HETATM    7  C3  UNL     1     -34.073   6.433   6.386  1.00 20.00     0.012 C 
HETATM    8  C4  UNL     1     -35.198   4.234   6.003  1.00 20.00     0.012 C 
ENDBRANCH   5   6
BRANCH   5   9
HETATM    9  O9  UNL     1     -35.571   5.457   3.640  1.00 20.00    -0.395 OA
HETATM   10  H23 UNL     1     -35.578   5.321   2.681  1.00 20.00     0.210 HD
ENDBRANCH   5   9
ENDBRANCH   4   5
ENDBRANCH   3   4
TORSDOF 4
ENDMDL
MODEL 2
REMARK VINA RESULT:      -4.9      1.427      1.732
REMARK  4 active torsions:
REMARK  status: ('A' for Active; 'I' for Inactive)
REMARK    1  A    between atoms: C5_5  and  C6_6 
REMARK    2  A    between atoms: C6_6  and  C8_8 
REMARK    3  A    between atoms: C7_7  and  C8_8 
REMARK    4  A    between atoms: C8_8  and  O9_9 
ROOT
HETATM    1  C1  UNL     1     -32.200   8.944   1.073  1.00 20.00     0.012 C 
HETATM    2  C2  UNL     1     -31.964   8.297   2.056  1.00 20.00    -0.117 C 
HETATM    3  C5  UNL     1     -31.668   7.509   3.261  1.00 20.00     0.095 C 
ENDROOT
BRANCH   3   4
HETATM    4  C6  UNL     1     -32.571   6.282   3.389  1.00 20.00     0.044 C 
BRANCH   4   5
HETATM    5  C8  UNL     1     -33.752   6.421   4.366  1.00 20.00     0.122 C 
BRANCH   5   6
HETATM    6  C7  UNL     1     -34.683   5.191   4.462  1.00 20.00     0.006 C 
HETATM    7  C3  UNL     1     -34.942   4.824   5.929  1.00 20.00     0.012 C 
HETATM    8  C4  UNL     1     -36.024   5.397   3.751  1.00 20.00     0.012 C 
ENDBRANCH   5   6
BRANCH   5   9
HETATM    9  O9  UNL     1     -33.219   6.698   5.664  1.00 20.00    -0.395 OA
HETATM   10  H23 UNL     1     -33.320   7.651   5.801  1.00 20.00     0.210 HD
ENDBRANCH   5   9
ENDBRANCH   4   5
ENDBRANCH   3   4
TORSDOF 4
ENDMDL
MODEL 3
REMARK VINA RESULT:      -4.7      1.481      1.755
REMARK  4 active torsions:
REMARK  status: ('A' for Active; 'I' for Inactive)
REMARK    1  A    between atoms: C5_5  and  C6_6 
REMARK    2  A    between atoms: C6_6  and  C8_8 
REMARK    3  A    between atoms: C7_7  and  C8_8 
REMARK    4  A    between atoms: C8_8  and  O9_9 
ROOT
HETATM    1  C1  UNL     1     -32.164   8.793   1.359  1.00 20.00     0.012 C 
HETATM    2  C2  UNL     1     -32.070   7.992   2.247  1.00 20.00    -0.117 C 
HETATM    3  C5  UNL     1     -31.949   7.013   3.336  1.00 20.00     0.095 C 
ENDROOT
BRANCH   3   4
HETATM    4  C6  UNL     1     -33.219   6.182   3.516  1.00 20.00     0.044 C 
BRANCH   4   5
HETATM    5  C8  UNL     1     -34.055   6.503   4.768  1.00 20.00     0.122 C 
BRANCH   5   6
HETATM    6  C7  UNL     1     -34.970   5.361   5.267  1.00 20.00     0.006 C 
HETATM    7  C3  UNL     1     -35.157   4.303   4.173  1.00 20.00     0.012 C 
HETATM    8  C4  UNL     1     -34.445   4.685   6.537  1.00 20.00     0.012 C 
ENDBRANCH   5   6
BRANCH   5   9
HETATM    9  O9  UNL     1     -33.155   6.865   5.818  1.00 20.00    -0.395 OA
HETATM   10  H23 UNL     1     -33.488   6.437   6.621  1.00 20.00     0.210 HD
ENDBRANCH   5   9
ENDBRANCH   4   5
ENDBRANCH   3   4
TORSDOF 4
ENDMDL
MODEL 4
REMARK VINA RESULT:      -4.5      1.380      1.600
REMARK  4 active torsions:
REMARK  status: ('A' for Active; 'I' for Inactive)
REMARK    1  A    between atoms: C5_5  and  C6_6 
REMARK    2  A    between atoms: C6_6  and  C8_8 
REMARK    3  A    between atoms: C7_7  and  C8_8 
REMARK    4  A    between atoms: C8_8  and  O9_9 
ROOT
HETATM    1  C1  UNL     1     -31.660   7.533   3.336  1.00 20.00     0.012 C 
HETATM    2  C2  UNL     1     -32.529   6.761   3.038  1.00 20.00    -0.117 C 
HETATM    3  C5  UNL     1     -33.590   5.815   2.666  1.00 20.00     0.095 C 
ENDROOT
BRANCH   3   4
HETATM    4  C6  UNL     1     -34.647   5.668   3.761  1.00 20.00     0.044 C 
BRANCH   4   5
HETATM    5  C8  UNL     1     -34.396   4.548   4.785  1.00 20.00     0.122 C 
BRANCH   5   6
HETATM    6  C7  UNL     1     -34.289   5.005   6.258  1.00 20.00     0.006 C 
HETATM    7  C3  UNL     1     -34.051   6.519   6.336  1.00 20.00     0.012 C 
HETATM    8  C4  UNL     1     -35.525   4.647   7.089  1.00 20.00     0.012 C 
ENDBRANCH   5   6
BRANCH   5   9
HETATM    9  O9  UNL     1     -35.463   3.601   4.674  1.00 20.00    -0.395 OA
HETATM   10  H23 UNL     1     -35.048   2.726   4.646  1.00 20.00     0.210 HD
ENDBRANCH   5   9
ENDBRANCH   4   5
ENDBRANCH   3   4
TORSDOF 4
ENDMDL
MODEL 5
REMARK VINA RESULT:      -4.5     11.178     12.218
REMARK  4 active torsions:
REMARK  status: ('A' for Active; 'I' for Inactive)
REMARK    1  A    between atoms: C5_5  and  C6_6 
REMARK    2  A    between atoms: C6_6  and  C8_8 
REMARK    3  A    between atoms: C7_7  and  C8_8 
REMARK    4  A    between atoms: C8_8  and  O9_9 
ROOT
HETATM    1  C1  UNL     1     -34.748  16.385  -1.397  1.00 20.00     0.012 C 
HETATM    2  C2  UNL     1     -34.062  16.014  -2.309  1.00 20.00    -0.117 C 
HETATM    3  C5  UNL     1     -33.218  15.566  -3.425  1.00 20.00     0.095 C 
ENDROOT
BRANCH   3   4
HETATM    4  C6  UNL     1     -33.618  14.182  -3.938  1.00 20.00     0.044 C 
BRANCH   4   5
HETATM    5  C8  UNL     1     -35.123  13.967  -4.175  1.00 20.00     0.122 C 
BRANCH   5   6
HETATM    6  C7  UNL     1     -35.669  14.502  -5.519  1.00 20.00     0.006 C 
HETATM    7  C3  UNL     1     -36.425  15.819  -5.306  1.00 20.00     0.012 C 
HETATM    8  C4  UNL     1     -34.573  14.714  -6.568  1.00 20.00     0.012 C 
ENDBRANCH   5   6
BRANCH   5   9
HETATM    9  O9  UNL     1     -35.385  12.563  -4.098  1.00 20.00    -0.395 OA
HETATM   10  H23 UNL     1     -35.909  12.428  -3.295  1.00 20.00     0.210 HD
ENDBRANCH   5   9
ENDBRANCH   4   5
ENDBRANCH   3   4
TORSDOF 4
ENDMDL
MODEL 6
REMARK VINA RESULT:      -4.5     11.562     12.461
REMARK  4 active torsions:
REMARK  status: ('A' for Active; 'I' for Inactive)
REMARK    1  A    between atoms: C5_5  and  C6_6 
REMARK    2  A    between atoms: C6_6  and  C8_8 
REMARK    3  A    between atoms: C7_7  and  C8_8 
REMARK    4  A    between atoms: C8_8  and  O9_9 
ROOT
HETATM    1  C1  UNL     1     -34.716  17.413   0.243  1.00 20.00     0.012 C 
HETATM    2  C2  UNL     1     -34.725  16.743  -0.752  1.00 20.00    -0.117 C 
HETATM    3  C5  UNL     1     -34.741  15.918  -1.968  1.00 20.00     0.095 C 
ENDROOT
BRANCH   3   4
HETATM    4  C6  UNL     1     -33.635  16.307  -2.949  1.00 20.00     0.044 C 
BRANCH   4   5
HETATM    5  C8  UNL     1     -33.330  15.279  -4.053  1.00 20.00     0.122 C 
BRANCH   5   6
HETATM    6  C7  UNL     1     -34.558  14.752  -4.829  1.00 20.00     0.006 C 
HETATM    7  C3  UNL     1     -34.408  15.033  -6.330  1.00 20.00     0.012 C 
HETATM    8  C4  UNL     1     -34.802  13.254  -4.620  1.00 20.00     0.012 C 
ENDBRANCH   5   6
BRANCH   5   9
HETATM    9  O9  UNL     1     -32.424  15.884  -4.980  1.00 20.00    -0.395 OA
HETATM   10  H23 UNL     1     -31.535  15.750  -4.619  1.00 20.00     0.210 HD
ENDBRANCH   5   9
ENDBRANCH   4   5
ENDBRANCH   3   4
TORSDOF 4
ENDMDL
MODEL 7
REMARK VINA RESULT:      -4.4     11.003     12.273
REMARK  4 active torsions:
REMARK  status: ('A' for Active; 'I' for Inactive)
REMARK    1  A    between atoms: C5_5  and  C6_6 
REMARK    2  A    between atoms: C6_6  and  C8_8 
REMARK    3  A    between atoms: C7_7  and  C8_8 
REMARK    4  A    between atoms: C8_8  and  O9_9 
ROOT
HETATM    1  C1  UNL     1     -34.750  15.024  -6.875  1.00 20.00     0.012 C 
HETATM    2  C2  UNL     1     -34.804  14.250  -5.959  1.00 20.00    -0.117 C 
HETATM    3  C5  UNL     1     -34.874  13.299  -4.842  1.00 20.00     0.095 C 
ENDROOT
BRANCH   3   4
HETATM    4  C6  UNL     1     -34.094  13.780  -3.618  1.00 20.00     0.044 C 
BRANCH   4   5
HETATM    5  C8  UNL     1     -33.229  15.035  -3.828  1.00 20.00     0.122 C 
BRANCH   5   6
HETATM    6  C7  UNL     1     -33.560  16.232  -2.908  1.00 20.00     0.006 C 
HETATM    7  C3  UNL     1     -33.805  17.499  -3.738  1.00 20.00     0.012 C 
HETATM    8  C4  UNL     1     -34.773  15.979  -2.008  1.00 20.00     0.012 C 
ENDBRANCH   5   6
BRANCH   5   9
HETATM    9  O9  UNL     1     -31.861  14.667  -3.631  1.00 20.00    -0.395 OA
HETATM   10  H23 UNL     1     -31.691  14.754  -2.681  1.00 20.00     0.210 HD
ENDBRANCH   5   9
ENDBRANCH   4   5
ENDBRANCH   3   4
TORSDOF 4
ENDMDL
MODEL 8
REMARK VINA RESULT:      -4.4     11.032     12.464
REMARK  4 active torsions:
REMARK  status: ('A' for Active; 'I' for Inactive)
REMARK    1  A    between atoms: C5_5  and  C6_6 
REMARK    2  A    between atoms: C6_6  and  C8_8 
REMARK    3  A    between atoms: C7_7  and  C8_8 
REMARK    4  A    between atoms: C8_8  and  O9_9 
ROOT
HETATM    1  C1  UNL     1     -33.973  17.584  -6.397  1.00 20.00     0.012 C 
HETATM    2  C2  UNL     1     -34.217  16.423  -6.576  1.00 20.00    -0.117 C 
HETATM    3  C5  UNL     1     -34.515  15.002  -6.800  1.00 20.00     0.095 C 
ENDROOT
BRANCH   3   4
HETATM    4  C6  UNL     1     -35.335  14.392  -5.664  1.00 20.00     0.044 C 
BRANCH   4   5
HETATM    5  C8  UNL     1     -34.538  13.585  -4.624  1.00 20.00     0.122 C 
BRANCH   5   6
HETATM    6  C7  UNL     1     -34.042  14.386  -3.398  1.00 20.00     0.006 C 
HETATM    7  C3  UNL     1     -32.618  14.905  -3.635  1.00 20.00     0.012 C 
HETATM    8  C4  UNL     1     -34.954  15.564  -3.043  1.00 20.00     0.012 C 
ENDBRANCH   5   6
BRANCH   5   9
HETATM    9  O9  UNL     1     -35.369  12.513  -4.168  1.00 20.00    -0.395 OA
HETATM   10  H23 UNL     1     -35.644  12.027  -4.959  1.00 20.00     0.210 HD
ENDBRANCH   5   9
ENDBRANCH   4   5
ENDBRANCH   3   4
TORSDOF 4
ENDMDL
MODEL 9
REMARK VINA RESULT:      -4.3      1.553      4.748
REMARK  4 active torsions:
REMARK  status: ('A' for Active; 'I' for Inactive)
REMARK    1  A    between atoms: C5_5  and  C6_6 
REMARK    2  A    between atoms: C6_6  and  C8_8 
REMARK    3  A    between atoms: C7_7  and  C8_8 
REMARK    4  A    between atoms: C8_8  and  O9_9 
ROOT
HETATM    1  C1  UNL     1     -35.108   4.277   6.295  1.00 20.00     0.012 C 
HETATM    2  C2  UNL     1     -35.020   4.707   5.178  1.00 20.00    -0.117 C 
HETATM    3  C5  UNL     1     -34.915   5.227   3.808  1.00 20.00     0.095 C 
ENDROOT
BRANCH   3   4
HETATM    4  C6  UNL     1     -34.200   6.577   3.751  1.00 20.00     0.044 C 
BRANCH   4   5
HETATM    5  C8  UNL     1     -33.003   6.659   2.788  1.00 20.00     0.122 C 
BRANCH   5   6
HETATM    6  C7  UNL     1     -32.271   8.020   2.751  1.00 20.00     0.006 C 
HETATM    7  C3  UNL     1     -31.030   7.989   3.653  1.00 20.00     0.012 C 
HETATM    8  C4  UNL     1     -31.855   8.439   1.337  1.00 20.00     0.012 C 
ENDBRANCH   5   6
BRANCH   5   9
HETATM    9  O9  UNL     1     -32.067   5.643   3.161  1.00 20.00    -0.395 OA
HETATM   10  H23 UNL     1     -32.196   4.913   2.537  1.00 20.00     0.210 HD
ENDBRANCH   5   9
ENDBRANCH   4   5
ENDBRANCH   3   4
TORSDOF 4
ENDMDL
