MODEL 1
REMARK VINA RESULT:      -4.4      0.000      0.000
REMARK  5 active torsions:
REMARK  status: ('A' for Active; 'I' for Inactive)
REMARK    1  A    between atoms: C3_3  and  C7_7 
REMARK    2  A    between atoms: C4_4  and  C5_5 
REMARK    3  A    between atoms: C4_4  and  C6_6 
REMARK    4  A    between atoms: C5_5  and  C7_7 
REMARK    5  A    between atoms: C6_6  and  O8_8 
ROOT
HETATM    1  C5  UNL     1     -34.000   6.313   3.912  1.00 20.00     0.022 C 
ENDROOT
BRANCH   1   2
HETATM    2  C4  UNL     1     -32.685   6.258   3.124  1.00 20.00     0.028 C 
BRANCH   2   3
HETATM    3  C6  UNL     1     -31.998   7.619   3.059  1.00 20.00     0.167 C 
BRANCH   3   4
HETATM    4  O8  UNL     1     -31.931   8.065   1.711  1.00 20.00    -0.396 OA
HETATM    5  C2  UNL     1     -32.411   9.397   1.578  1.00 20.00     0.201 C 
ENDBRANCH   3   4
ENDBRANCH   2   3
ENDBRANCH   1   2
BRANCH   1   6
HETATM    6  C7  UNL     1     -34.054   5.319   5.083  1.00 20.00     0.082 C 
HETATM    7 CL9  UNL     1     -35.266   4.037   4.761  1.00 20.00    -0.125 Cl
BRANCH   6   8
HETATM    8  C3  UNL     1     -34.384   6.045   6.397  1.00 20.00     0.016 C 
HETATM    9  C1  UNL     1     -33.468   7.228   6.686  1.00 20.00     0.006 C 
ENDBRANCH   6   8
ENDBRANCH   1   6
TORSDOF 5
ENDMDL
MODEL 2
REMARK VINA RESULT:      -4.4      1.678      1.880
REMARK  5 active torsions:
REMARK  status: ('A' for Active; 'I' for Inactive)
REMARK    1  A    between atoms: C3_3  and  C7_7 
REMARK    2  A    between atoms: C4_4  and  C5_5 
REMARK    3  A    between atoms: C4_4  and  C6_6 
REMARK    4  A    between atoms: C5_5  and  C7_7 
REMARK    5  A    between atoms: C6_6  and  O8_8 
ROOT
HETATM    1  C5  UNL     1     -33.486   5.904   3.074  1.00 20.00     0.022 C 
ENDROOT
BRANCH   1   2
HETATM    2  C4  UNL     1     -32.113   6.554   3.293  1.00 20.00     0.028 C 
BRANCH   2   3
HETATM    3  C6  UNL     1     -32.107   8.029   2.902  1.00 20.00     0.167 C 
BRANCH   3   4
HETATM    4  O8  UNL     1     -31.828   8.163   1.515  1.00 20.00    -0.396 OA
HETATM    5  C2  UNL     1     -32.295   9.406   1.007  1.00 20.00     0.201 C 
ENDBRANCH   3   4
ENDBRANCH   2   3
ENDBRANCH   1   2
BRANCH   1   6
HETATM    6  C7  UNL     1     -34.451   6.101   4.254  1.00 20.00     0.082 C 
HETATM    7 CL9  UNL     1     -33.549   6.586   5.726  1.00 20.00    -0.125 Cl
BRANCH   6   8
HETATM    8  C3  UNL     1     -35.250   4.816   4.520  1.00 20.00     0.016 C 
HETATM    9  C1  UNL     1     -35.013   4.226   5.905  1.00 20.00     0.006 C 
ENDBRANCH   6   8
ENDBRANCH   1   6
TORSDOF 5
ENDMDL
MODEL 3
REMARK VINA RESULT:      -3.9      2.852      4.808
REMARK  5 active torsions:
REMARK  status: ('A' for Active; 'I' for Inactive)
REMARK    1  A    between atoms: C3_3  and  C7_7 
REMARK    2  A    between atoms: C4_4  and  C5_5 
REMARK    3  A    between atoms: C4_4  and  C6_6 
REMARK    4  A    between atoms: C5_5  and  C7_7 
REMARK    5  A    between atoms: C6_6  and  O8_8 
ROOT
HETATM    1  C5  UNL     1     -32.783   6.113   3.025  1.00 20.00     0.022 C 
ENDROOT
BRANCH   1   2
HETATM    2  C4  UNL     1     -33.913   6.404   4.022  1.00 20.00     0.028 C 
BRANCH   2   3
HETATM    3  C6  UNL     1     -35.005   5.339   3.979  1.00 20.00     0.167 C 
BRANCH   3   4
HETATM    4  O8  UNL     1     -35.308   4.901   5.296  1.00 20.00    -0.396 OA
HETATM    5  C2  UNL     1     -34.511   5.571   6.265  1.00 20.00     0.201 C 
ENDBRANCH   3   4
ENDBRANCH   2   3
ENDBRANCH   1   2
BRANCH   1   6
HETATM    6  C7  UNL     1     -31.835   7.304   2.811  1.00 20.00     0.082 C 
HETATM    7 CL9  UNL     1     -31.164   7.861   4.379  1.00 20.00    -0.125 Cl
BRANCH   6   8
HETATM    8  C3  UNL     1     -32.564   8.458   2.106  1.00 20.00     0.016 C 
HETATM    9  C1  UNL     1     -31.917   8.875   0.791  1.00 20.00     0.006 C 
ENDBRANCH   6   8
ENDBRANCH   1   6
TORSDOF 5
ENDMDL
MODEL 4
REMARK VINA RESULT:      -3.7     11.537     12.143
REMARK  5 active torsions:
REMARK  status: ('A' for Active; 'I' for Inactive)
REMARK    1  A    between atoms: C3_3  and  C7_7 
REMARK    2  A    between atoms: C4_4  and  C5_5 
REMARK    3  A    between atoms: C4_4  and  C6_6 
REMARK    4  A    between atoms: C5_5  and  C7_7 
REMARK    5  A    between atoms: C6_6  and  O8_8 
ROOT
HETATM    1  C5  UNL     1     -34.004  14.231  -3.646  1.00 20.00     0.022 C 
ENDROOT
BRANCH   1   2
HETATM    2  C4  UNL     1     -35.203  13.502  -4.267  1.00 20.00     0.028 C 
BRANCH   2   3
HETATM    3  C6  UNL     1     -36.379  14.441  -4.517  1.00 20.00     0.167 C 
BRANCH   3   4
HETATM    4  O8  UNL     1     -37.468  14.090  -3.673  1.00 20.00    -0.396 OA
HETATM    5  C2  UNL     1     -38.640  14.825  -4.001  1.00 20.00     0.201 C 
ENDBRANCH   3   4
ENDBRANCH   2   3
ENDBRANCH   1   2
BRANCH   1   6
HETATM    6  C7  UNL     1     -34.112  15.763  -3.725  1.00 20.00     0.082 C 
HETATM    7 CL9  UNL     1     -33.136  16.390  -5.093  1.00 20.00    -0.125 Cl
BRANCH   6   8
HETATM    8  C3  UNL     1     -33.655  16.407  -2.407  1.00 20.00     0.016 C 
HETATM    9  C1  UNL     1     -34.714  16.370  -1.311  1.00 20.00     0.006 C 
ENDBRANCH   6   8
ENDBRANCH   1   6
TORSDOF 5
ENDMDL
MODEL 5
REMARK VINA RESULT:      -3.7     10.891     11.588
REMARK  5 active torsions:
REMARK  status: ('A' for Active; 'I' for Inactive)
REMARK    1  A    between atoms: C3_3  and  C7_7 
REMARK    2  A    between atoms: C4_4  and  C5_5 
REMARK    3  A    between atoms: C4_4  and  C6_6 
REMARK    4  A    between atoms: C5_5  and  C7_7 
REMARK    5  A    between atoms: C6_6  and  O8_8 
ROOT
HETATM    1  C5  UNL     1     -33.582  15.984  -3.020  1.00 20.00     0.022 C 
ENDROOT
BRANCH   1   2
HETATM    2  C4  UNL     1     -33.294  14.715  -3.833  1.00 20.00     0.028 C 
BRANCH   2   3
HETATM    3  C6  UNL     1     -34.256  13.582  -3.487  1.00 20.00     0.167 C 
BRANCH   3   4
HETATM    4  O8  UNL     1     -34.600  12.861  -4.663  1.00 20.00    -0.396 OA
HETATM    5  C2  UNL     1     -34.993  13.734  -5.714  1.00 20.00     0.201 C 
ENDBRANCH   3   4
ENDBRANCH   2   3
ENDBRANCH   1   2
BRANCH   1   6
HETATM    6  C7  UNL     1     -34.850  15.884  -2.157  1.00 20.00     0.082 C 
HETATM    7 CL9  UNL     1     -36.262  16.551  -3.039  1.00 20.00    -0.125 Cl
BRANCH   6   8
HETATM    8  C3  UNL     1     -34.659  16.623  -0.824  1.00 20.00     0.016 C 
HETATM    9  C1  UNL     1     -33.564  17.681  -0.866  1.00 20.00     0.006 C 
ENDBRANCH   6   8
ENDBRANCH   1   6
TORSDOF 5
ENDMDL
MODEL 6
REMARK VINA RESULT:      -3.6     11.220     11.862
REMARK  5 active torsions:
REMARK  status: ('A' for Active; 'I' for Inactive)
REMARK    1  A    between atoms: C3_3  and  C7_7 
REMARK    2  A    between atoms: C4_4  and  C5_5 
REMARK    3  A    between atoms: C4_4  and  C6_6 
REMARK    4  A    between atoms: C5_5  and  C7_7 
REMARK    5  A    between atoms: C6_6  and  O8_8 
ROOT
HETATM    1  C5  UNL     1     -33.473  15.165  -3.513  1.00 20.00     0.022 C 
ENDROOT
BRANCH   1   2
HETATM    2  C4  UNL     1     -33.610  13.660  -3.776  1.00 20.00     0.028 C 
BRANCH   2   3
HETATM    3  C6  UNL     1     -34.516  13.365  -4.968  1.00 20.00     0.167 C 
BRANCH   3   4
HETATM    4  O8  UNL     1     -34.371  14.381  -5.951  1.00 20.00    -0.396 OA
HETATM    5  C2  UNL     1     -35.459  14.379  -6.867  1.00 20.00     0.201 C 
ENDBRANCH   3   4
ENDBRANCH   2   3
ENDBRANCH   1   2
BRANCH   1   6
HETATM    6  C7  UNL     1     -34.567  15.727  -2.591  1.00 20.00     0.082 C 
HETATM    7 CL9  UNL     1     -35.909  16.418  -3.559  1.00 20.00    -0.125 Cl
BRANCH   6   8
HETATM    8  C3  UNL     1     -33.987  16.793  -1.649  1.00 20.00     0.016 C 
HETATM    9  C1  UNL     1     -34.739  16.915  -0.329  1.00 20.00     0.006 C 
ENDBRANCH   6   8
ENDBRANCH   1   6
TORSDOF 5
ENDMDL
MODEL 7
REMARK VINA RESULT:      -3.5     11.454     12.087
REMARK  5 active torsions:
REMARK  status: ('A' for Active; 'I' for Inactive)
REMARK    1  A    between atoms: C3_3  and  C7_7 
REMARK    2  A    between atoms: C4_4  and  C5_5 
REMARK    3  A    between atoms: C4_4  and  C6_6 
REMARK    4  A    between atoms: C5_5  and  C7_7 
REMARK    5  A    between atoms: C6_6  and  O8_8 
ROOT
HETATM    1  C5  UNL     1     -34.343  15.766  -2.566  1.00 20.00     0.022 C 
ENDROOT
BRANCH   1   2
HETATM    2  C4  UNL     1     -33.868  16.877  -1.619  1.00 20.00     0.028 C 
BRANCH   2   3
HETATM    3  C6  UNL     1     -34.715  16.953  -0.353  1.00 20.00     0.167 C 
BRANCH   3   4
HETATM    4  O8  UNL     1     -34.337  18.087   0.416  1.00 20.00    -0.396 OA
HETATM    5  C2  UNL     1     -33.021  18.519   0.097  1.00 20.00     0.201 C 
ENDBRANCH   3   4
ENDBRANCH   2   3
ENDBRANCH   1   2
BRANCH   1   6
HETATM    6  C7  UNL     1     -33.246  15.261  -3.516  1.00 20.00     0.082 C 
HETATM    7 CL9  UNL     1     -33.186  16.272  -4.996  1.00 20.00    -0.125 Cl
BRANCH   6   8
HETATM    8  C3  UNL     1     -33.484  13.789  -3.887  1.00 20.00     0.016 C 
HETATM    9  C1  UNL     1     -34.951  13.450  -4.121  1.00 20.00     0.006 C 
ENDBRANCH   6   8
ENDBRANCH   1   6
TORSDOF 5
ENDMDL
MODEL 8
REMARK VINA RESULT:      -3.5     11.079     12.310
REMARK  5 active torsions:
REMARK  status: ('A' for Active; 'I' for Inactive)
REMARK    1  A    between atoms: C3_3  and  C7_7 
REMARK    2  A    between atoms: C4_4  and  C5_5 
REMARK    3  A    between atoms: C4_4  and  C6_6 
REMARK    4  A    between atoms: C5_5  and  C7_7 
REMARK    5  A    between atoms: C6_6  and  O8_8 
ROOT
HETATM    1  C5  UNL     1     -34.924  15.028  -3.163  1.00 20.00     0.022 C 
ENDROOT
BRANCH   1   2
HETATM    2  C4  UNL     1     -34.180  13.771  -3.635  1.00 20.00     0.028 C 
BRANCH   2   3
HETATM    3  C6  UNL     1     -34.727  13.244  -4.958  1.00 20.00     0.167 C 
BRANCH   3   4
HETATM    4  O8  UNL     1     -35.510  14.245  -5.594  1.00 20.00    -0.396 OA
HETATM    5  C2  UNL     1     -35.115  14.436  -6.946  1.00 20.00     0.201 C 
ENDBRANCH   3   4
ENDBRANCH   2   3
ENDBRANCH   1   2
BRANCH   1   6
HETATM    6  C7  UNL     1     -33.996  16.101  -2.570  1.00 20.00     0.082 C 
HETATM    7 CL9  UNL     1     -34.520  16.533  -0.910  1.00 20.00    -0.125 Cl
BRANCH   6   8
HETATM    8  C3  UNL     1     -33.972  17.351  -3.463  1.00 20.00     0.016 C 
HETATM    9  C1  UNL     1     -33.415  17.093  -4.857  1.00 20.00     0.006 C 
ENDBRANCH   6   8
ENDBRANCH   1   6
TORSDOF 5
ENDMDL
MODEL 9
REMARK VINA RESULT:      -3.4     11.563     12.658
REMARK  5 active torsions:
REMARK  status: ('A' for Active; 'I' for Inactive)
REMARK    1  A    between atoms: C3_3  and  C7_7 
REMARK    2  A    between atoms: C4_4  and  C5_5 
REMARK    3  A    between atoms: C4_4  and  C6_6 
REMARK    4  A    between atoms: C5_5  and  C7_7 
REMARK    5  A    between atoms: C6_6  and  O8_8 
ROOT
HETATM    1  C5  UNL     1     -33.214  16.308  -4.532  1.00 20.00     0.022 C 
ENDROOT
BRANCH   1   2
HETATM    2  C4  UNL     1     -34.516  16.640  -5.273  1.00 20.00     0.028 C 
BRANCH   2   3
HETATM    3  C6  UNL     1     -34.391  16.429  -6.778  1.00 20.00     0.167 C 
BRANCH   3   4
HETATM    4  O8  UNL     1     -34.177  15.052  -7.059  1.00 20.00    -0.396 OA
HETATM    5  C2  UNL     1     -35.406  14.353  -7.205  1.00 20.00     0.201 C 
ENDBRANCH   3   4
ENDBRANCH   2   3
ENDBRANCH   1   2
BRANCH   1   6
HETATM    6  C7  UNL     1     -33.416  15.374  -3.328  1.00 20.00     0.082 C 
HETATM    7 CL9  UNL     1     -33.401  13.660  -3.855  1.00 20.00    -0.125 Cl
BRANCH   6   8
HETATM    8  C3  UNL     1     -34.734  15.697  -2.607  1.00 20.00     0.016 C 
HETATM    9  C1  UNL     1     -34.544  16.457  -1.300  1.00 20.00     0.006 C 
ENDBRANCH   6   8
ENDBRANCH   1   6
TORSDOF 5
ENDMDL
