MODEL 1
REMARK VINA RESULT:      -4.8      0.000      0.000
REMARK  3 active torsions:
REMARK  status: ('A' for Active; 'I' for Inactive)
REMARK    1  A    between atoms: C5_5  and  C9_9 
REMARK    2  A    between atoms: C6_6  and  C10_10 
REMARK    3  A    between atoms: C9_9  and  C11_11 
ROOT
HETATM    1  C1  UNL     1     -34.076  17.946  -3.863  1.00 20.00     0.131 C 
HETATM    2  C2  UNL     1     -33.509  17.300  -5.108  1.00 20.00     0.079 C 
HETATM    3  C3  UNL     1     -33.761  15.799  -5.094  1.00 20.00     0.012 C 
HETATM    4  C4  UNL     1     -33.919  15.810  -2.579  1.00 20.00     0.016 C 
HETATM    5  C5  UNL     1     -33.659  17.320  -2.537  1.00 20.00     0.055 C 
HETATM    6  C6  UNL     1     -33.257  15.149  -3.799  1.00 20.00    -0.014 C 
HETATM    7  O12 UNL     1     -34.757  18.968  -3.934  1.00 20.00    -0.298 OA
ENDROOT
BRANCH   5   8
HETATM    8  C9  UNL     1     -34.385  17.960  -1.358  1.00 20.00     0.012 C 
BRANCH   8   9
HETATM    9  C11 UNL     1     -34.777  16.918  -0.316  1.00 20.00    -0.004 C 
HETATM   10  C8  UNL     1     -35.218  17.574   0.984  1.00 20.00     0.005 C 
ENDBRANCH   8   9
ENDBRANCH   5   8
BRANCH   6  11
HETATM   11  C10 UNL     1     -33.532  13.646  -3.809  1.00 20.00     0.000 C 
HETATM   12  C7  UNL     1     -34.719  13.308  -4.648  1.00 20.00     0.005 C 
ENDBRANCH   6  11
TORSDOF 3
ENDMDL
MODEL 2
REMARK VINA RESULT:      -4.8      2.424      3.178
REMARK  3 active torsions:
REMARK  status: ('A' for Active; 'I' for Inactive)
REMARK    1  A    between atoms: C5_5  and  C9_9 
REMARK    2  A    between atoms: C6_6  and  C10_10 
REMARK    3  A    between atoms: C9_9  and  C11_11 
ROOT
HETATM    1  C1  UNL     1     -33.666  14.680  -3.553  1.00 20.00     0.131 C 
HETATM    2  C2  UNL     1     -34.242  13.548  -4.377  1.00 20.00     0.079 C 
HETATM    3  C3  UNL     1     -35.510  13.995  -5.089  1.00 20.00     0.012 C 
HETATM    4  C4  UNL     1     -35.897  15.784  -3.357  1.00 20.00     0.016 C 
HETATM    5  C5  UNL     1     -34.634  15.367  -2.596  1.00 20.00     0.055 C 
HETATM    6  C6  UNL     1     -36.526  14.603  -4.113  1.00 20.00    -0.014 C 
HETATM    7  O12 UNL     1     -32.468  14.953  -3.602  1.00 20.00    -0.298 OA
ENDROOT
BRANCH   5   8
HETATM    8  C9  UNL     1     -33.992  16.571  -1.914  1.00 20.00     0.012 C 
BRANCH   8   9
HETATM    9  C11 UNL     1     -34.637  16.852  -0.561  1.00 20.00    -0.004 C 
HETATM   10  C8  UNL     1     -33.948  18.005   0.151  1.00 20.00     0.005 C 
ENDBRANCH   8   9
ENDBRANCH   5   8
BRANCH   6  11
HETATM   11  C10 UNL     1     -37.784  15.051  -4.856  1.00 20.00     0.000 C 
HETATM   12  C7  UNL     1     -39.023  14.721  -4.092  1.00 20.00     0.005 C 
ENDBRANCH   6  11
TORSDOF 3
ENDMDL
MODEL 3
REMARK VINA RESULT:      -4.8      1.395      4.495
REMARK  3 active torsions:
REMARK  status: ('A' for Active; 'I' for Inactive)
REMARK    1  A    between atoms: C5_5  and  C9_9 
REMARK    2  A    between atoms: C6_6  and  C10_10 
REMARK    3  A    between atoms: C9_9  and  C11_11 
ROOT
HETATM    1  C1  UNL     1     -33.563  16.612  -4.024  1.00 20.00     0.131 C 
HETATM    2  C2  UNL     1     -33.863  18.052  -3.670  1.00 20.00     0.079 C 
HETATM    3  C3  UNL     1     -33.925  18.232  -2.160  1.00 20.00     0.012 C 
HETATM    4  C4  UNL     1     -34.498  15.797  -1.856  1.00 20.00     0.016 C 
HETATM    5  C5  UNL     1     -34.458  15.564  -3.370  1.00 20.00     0.055 C 
HETATM    6  C6  UNL     1     -34.897  17.239  -1.509  1.00 20.00    -0.014 C 
HETATM    7  O12 UNL     1     -32.705  16.330  -4.858  1.00 20.00    -0.298 OA
ENDROOT
BRANCH   5   8
HETATM    8  C9  UNL     1     -33.991  14.147  -3.688  1.00 20.00     0.012 C 
BRANCH   8   9
HETATM    9  C11 UNL     1     -35.030  13.392  -4.510  1.00 20.00    -0.004 C 
HETATM   10  C8  UNL     1     -35.135  13.955  -5.919  1.00 20.00     0.005 C 
ENDBRANCH   8   9
ENDBRANCH   5   8
BRANCH   6  11
HETATM   11  C10 UNL     1     -34.931  17.437   0.006  1.00 20.00     0.000 C 
HETATM   12  C7  UNL     1     -33.771  18.247   0.483  1.00 20.00     0.005 C 
ENDBRANCH   6  11
TORSDOF 3
ENDMDL
MODEL 4
REMARK VINA RESULT:      -4.8      2.308      3.899
REMARK  3 active torsions:
REMARK  status: ('A' for Active; 'I' for Inactive)
REMARK    1  A    between atoms: C5_5  and  C9_9 
REMARK    2  A    between atoms: C6_6  and  C10_10 
REMARK    3  A    between atoms: C9_9  and  C11_11 
ROOT
HETATM    1  C1  UNL     1     -34.888  13.918  -5.063  1.00 20.00     0.131 C 
HETATM    2  C2  UNL     1     -35.138  14.017  -6.552  1.00 20.00     0.079 C 
HETATM    3  C3  UNL     1     -34.473  15.260  -7.125  1.00 20.00     0.012 C 
HETATM    4  C4  UNL     1     -34.543  16.384  -4.871  1.00 20.00     0.016 C 
HETATM    5  C5  UNL     1     -35.223  15.161  -4.246  1.00 20.00     0.055 C 
HETATM    6  C6  UNL     1     -34.882  16.527  -6.363  1.00 20.00    -0.014 C 
HETATM    7  O12 UNL     1     -34.521  12.862  -4.551  1.00 20.00    -0.298 OA
ENDROOT
BRANCH   5   8
HETATM    8  C9  UNL     1     -34.814  15.003  -2.785  1.00 20.00     0.012 C 
BRANCH   8   9
HETATM    9  C11 UNL     1     -34.097  16.247  -2.272  1.00 20.00    -0.004 C 
HETATM   10  C8  UNL     1     -34.588  16.637  -0.886  1.00 20.00     0.005 C 
ENDBRANCH   8   9
ENDBRANCH   5   8
BRANCH   6  11
HETATM   11  C10 UNL     1     -34.193  17.757  -6.954  1.00 20.00     0.000 C 
HETATM   12  C7  UNL     1     -33.628  18.638  -5.889  1.00 20.00     0.005 C 
ENDBRANCH   6  11
TORSDOF 3
ENDMDL
MODEL 5
REMARK VINA RESULT:      -4.7      2.296      2.829
REMARK  3 active torsions:
REMARK  status: ('A' for Active; 'I' for Inactive)
REMARK    1  A    between atoms: C5_5  and  C9_9 
REMARK    2  A    between atoms: C6_6  and  C10_10 
REMARK    3  A    between atoms: C9_9  and  C11_11 
ROOT
HETATM    1  C1  UNL     1     -33.792  15.699  -4.463  1.00 20.00     0.131 C 
HETATM    2  C2  UNL     1     -34.395  14.805  -5.524  1.00 20.00     0.079 C 
HETATM    3  C3  UNL     1     -35.915  14.870  -5.478  1.00 20.00     0.012 C 
HETATM    4  C4  UNL     1     -35.850  15.559  -3.055  1.00 20.00     0.016 C 
HETATM    5  C5  UNL     1     -34.319  15.500  -3.045  1.00 20.00     0.055 C 
HETATM    6  C6  UNL     1     -36.454  14.577  -4.072  1.00 20.00    -0.014 C 
HETATM    7  O12 UNL     1     -32.871  16.468  -4.731  1.00 20.00    -0.298 OA
ENDROOT
BRANCH   5   8
HETATM    8  C9  UNL     1     -33.744  16.532  -2.081  1.00 20.00     0.012 C 
BRANCH   8   9
HETATM    9  C11 UNL     1     -34.609  16.666  -0.832  1.00 20.00    -0.004 C 
HETATM   10  C8  UNL     1     -34.148  17.825   0.038  1.00 20.00     0.005 C 
ENDBRANCH   8   9
ENDBRANCH   5   8
BRANCH   6  11
HETATM   11  C10 UNL     1     -37.980  14.658  -4.054  1.00 20.00     0.000 C 
HETATM   12  C7  UNL     1     -38.457  15.971  -3.527  1.00 20.00     0.005 C 
ENDBRANCH   6  11
TORSDOF 3
ENDMDL
MODEL 6
REMARK VINA RESULT:      -4.7      2.708      5.306
REMARK  3 active torsions:
REMARK  status: ('A' for Active; 'I' for Inactive)
REMARK    1  A    between atoms: C5_5  and  C9_9 
REMARK    2  A    between atoms: C6_6  and  C10_10 
REMARK    3  A    between atoms: C9_9  and  C11_11 
ROOT
HETATM    1  C1  UNL     1     -34.289  13.677  -4.838  1.00 20.00     0.131 C 
HETATM    2  C2  UNL     1     -33.335  13.998  -3.708  1.00 20.00     0.079 C 
HETATM    3  C3  UNL     1     -33.573  15.409  -3.190  1.00 20.00     0.012 C 
HETATM    4  C4  UNL     1     -34.566  16.093  -5.403  1.00 20.00     0.016 C 
HETATM    5  C5  UNL     1     -34.339  14.690  -5.976  1.00 20.00     0.055 C 
HETATM    6  C6  UNL     1     -33.532  16.444  -4.322  1.00 20.00    -0.014 C 
HETATM    7  O12 UNL     1     -34.908  12.615  -4.861  1.00 20.00    -0.298 OA
ENDROOT
BRANCH   5   8
HETATM    8  C9  UNL     1     -35.421  14.340  -6.993  1.00 20.00     0.012 C 
BRANCH   8   9
HETATM    9  C11 UNL     1     -36.689  15.152  -6.755  1.00 20.00    -0.004 C 
HETATM   10  C8  UNL     1     -37.669  14.997  -7.908  1.00 20.00     0.005 C 
ENDBRANCH   8   9
ENDBRANCH   5   8
BRANCH   6  11
HETATM   11  C10 UNL     1     -33.783  17.849  -3.775  1.00 20.00     0.000 C 
HETATM   12  C7  UNL     1     -33.765  17.871  -2.283  1.00 20.00     0.005 C 
ENDBRANCH   6  11
TORSDOF 3
ENDMDL
MODEL 7
REMARK VINA RESULT:      -4.7      0.858      1.030
REMARK  3 active torsions:
REMARK  status: ('A' for Active; 'I' for Inactive)
REMARK    1  A    between atoms: C5_5  and  C9_9 
REMARK    2  A    between atoms: C6_6  and  C10_10 
REMARK    3  A    between atoms: C9_9  and  C11_11 
ROOT
HETATM    1  C1  UNL     1     -34.338  17.919  -3.351  1.00 20.00     0.131 C 
HETATM    2  C2  UNL     1     -33.589  17.500  -4.597  1.00 20.00     0.079 C 
HETATM    3  C3  UNL     1     -33.755  16.007  -4.845  1.00 20.00     0.012 C 
HETATM    4  C4  UNL     1     -34.212  15.613  -2.398  1.00 20.00     0.016 C 
HETATM    5  C5  UNL     1     -34.046  17.106  -2.093  1.00 20.00     0.055 C 
HETATM    6  C6  UNL     1     -33.373  15.180  -3.610  1.00 20.00    -0.014 C 
HETATM    7  O12 UNL     1     -35.062  18.912  -3.351  1.00 20.00    -0.298 OA
ENDROOT
BRANCH   5   8
HETATM    8  C9  UNL     1     -34.944  17.524  -0.933  1.00 20.00     0.012 C 
BRANCH   8   9
HETATM    9  C11 UNL     1     -34.121  17.977   0.268  1.00 20.00    -0.004 C 
HETATM   10  C8  UNL     1     -32.799  18.590  -0.166  1.00 20.00     0.005 C 
ENDBRANCH   8   9
ENDBRANCH   5   8
BRANCH   6  11
HETATM   11  C10 UNL     1     -33.557  13.688  -3.885  1.00 20.00     0.000 C 
HETATM   12  C7  UNL     1     -34.945  13.378  -4.337  1.00 20.00     0.005 C 
ENDBRANCH   6  11
TORSDOF 3
ENDMDL
MODEL 8
REMARK VINA RESULT:      -4.6      1.499      4.556
REMARK  3 active torsions:
REMARK  status: ('A' for Active; 'I' for Inactive)
REMARK    1  A    between atoms: C5_5  and  C9_9 
REMARK    2  A    between atoms: C6_6  and  C10_10 
REMARK    3  A    between atoms: C9_9  and  C11_11 
ROOT
HETATM    1  C1  UNL     1     -35.531  16.658  -3.470  1.00 20.00     0.131 C 
HETATM    2  C2  UNL     1     -36.547  17.337  -2.579  1.00 20.00     0.079 C 
HETATM    3  C3  UNL     1     -35.853  18.104  -1.463  1.00 20.00     0.012 C 
HETATM    4  C4  UNL     1     -33.833  16.608  -1.639  1.00 20.00     0.016 C 
HETATM    5  C5  UNL     1     -34.491  15.797  -2.761  1.00 20.00     0.055 C 
HETATM    6  C6  UNL     1     -34.873  17.215  -0.685  1.00 20.00    -0.014 C 
HETATM    7  O12 UNL     1     -35.610  16.735  -4.695  1.00 20.00    -0.298 OA
ENDROOT
BRANCH   5   8
HETATM    8  C9  UNL     1     -33.442  15.266  -3.732  1.00 20.00     0.012 C 
BRANCH   8   9
HETATM    9  C11 UNL     1     -33.465  13.742  -3.796  1.00 20.00    -0.004 C 
HETATM   10  C8  UNL     1     -34.570  13.245  -4.715  1.00 20.00     0.005 C 
ENDBRANCH   8   9
ENDBRANCH   5   8
BRANCH   6  11
HETATM   11  C10 UNL     1     -34.185  18.013   0.421  1.00 20.00     0.000 C 
HETATM   12  C7  UNL     1     -32.889  18.591  -0.040  1.00 20.00     0.005 C 
ENDBRANCH   6  11
TORSDOF 3
ENDMDL
MODEL 9
REMARK VINA RESULT:      -4.5     12.055     14.303
REMARK  3 active torsions:
REMARK  status: ('A' for Active; 'I' for Inactive)
REMARK    1  A    between atoms: C5_5  and  C9_9 
REMARK    2  A    between atoms: C6_6  and  C10_10 
REMARK    3  A    between atoms: C9_9  and  C11_11 
ROOT
HETATM    1  C1  UNL     1     -41.470   5.039  -0.598  1.00 20.00     0.131 C 
HETATM    2  C2  UNL     1     -40.819   6.398  -0.458  1.00 20.00     0.079 C 
HETATM    3  C3  UNL     1     -41.646   7.462  -1.165  1.00 20.00     0.012 C 
HETATM    4  C4  UNL     1     -42.650   5.725  -2.689  1.00 20.00     0.016 C 
HETATM    5  C5  UNL     1     -41.833   4.616  -2.017  1.00 20.00     0.055 C 
HETATM    6  C6  UNL     1     -41.934   7.083  -2.623  1.00 20.00    -0.014 C 
HETATM    7  O12 UNL     1     -41.605   4.299   0.375  1.00 20.00    -0.298 OA
ENDROOT
BRANCH   5   8
HETATM    8  C9  UNL     1     -42.597   3.296  -2.033  1.00 20.00     0.012 C 
BRANCH   8   9
HETATM    9  C11 UNL     1     -42.610   2.680  -3.428  1.00 20.00    -0.004 C 
HETATM   10  C8  UNL     1     -41.291   1.992  -3.741  1.00 20.00     0.005 C 
ENDBRANCH   8   9
ENDBRANCH   5   8
BRANCH   6  11
HETATM   11  C10 UNL     1     -42.773   8.165  -3.304  1.00 20.00     0.000 C 
HETATM   12  C7  UNL     1     -42.208   8.545  -4.633  1.00 20.00     0.005 C 
ENDBRANCH   6  11
TORSDOF 3
ENDMDL
