MODEL 1
REMARK VINA RESULT:      -4.9      0.000      0.000
REMARK  2 active torsions:
REMARK  status: ('A' for Active; 'I' for Inactive)
REMARK    1  A    between atoms: C4_4  and  C10_10 
REMARK    2  A    between atoms: C8_8  and  C10_10 
ROOT
HETATM    1  C5  UNL     1     -34.755  13.287  -4.332  1.00 20.00     0.002 C 
HETATM    2  C6  UNL     1     -33.659  14.125  -3.669  1.00 20.00     0.006 C 
HETATM    3  C7  UNL     1     -36.055  14.086  -4.202  1.00 20.00     0.016 C 
HETATM    4  C8  UNL     1     -34.392  15.279  -2.981  1.00 20.00     0.004 C 
HETATM    5  C9  UNL     1     -35.627  15.506  -3.852  1.00 20.00     0.062 C 
HETATM    6 BR12 UNL     1     -35.254  16.494  -5.496  1.00 20.00    -0.091 Br
ENDROOT
BRANCH   4   7
HETATM    7  C10 UNL     1     -33.508  16.485  -2.706  1.00 20.00     0.045 C 
BRANCH   7   8
HETATM    8  C4  UNL     1     -33.855  17.146  -1.397  1.00 20.00    -0.051 A 
HETATM    9  C1  UNL     1     -34.864  16.673  -0.510  1.00 20.00     0.014 A 
HETATM   10  C2  UNL     1     -34.977  17.461   0.614  1.00 20.00     0.050 A 
HETATM   11  S11 UNL     1     -33.870  18.766   0.597  1.00 20.00    -0.113 SA
HETATM   12  C3  UNL     1     -33.235  18.279  -0.917  1.00 20.00     0.056 A 
ENDBRANCH   7   8
ENDBRANCH   4   7
TORSDOF 2
ENDMDL
MODEL 2
REMARK VINA RESULT:      -4.7      1.778      2.531
REMARK  2 active torsions:
REMARK  status: ('A' for Active; 'I' for Inactive)
REMARK    1  A    between atoms: C4_4  and  C10_10 
REMARK    2  A    between atoms: C8_8  and  C10_10 
ROOT
HETATM    1  C5  UNL     1     -34.830  16.697  -5.466  1.00 20.00     0.002 C 
HETATM    2  C6  UNL     1     -35.475  16.773  -4.079  1.00 20.00     0.006 C 
HETATM    3  C7  UNL     1     -33.366  16.303  -5.245  1.00 20.00     0.016 C 
HETATM    4  C8  UNL     1     -34.318  16.641  -3.087  1.00 20.00     0.004 C 
HETATM    5  C9  UNL     1     -33.298  15.770  -3.819  1.00 20.00     0.062 C 
HETATM    6 BR12 UNL     1     -33.746  13.869  -3.816  1.00 20.00    -0.091 Br
ENDROOT
BRANCH   4   7
HETATM    7  C10 UNL     1     -34.751  16.184  -1.703  1.00 20.00     0.045 C 
BRANCH   7   8
HETATM    8  C4  UNL     1     -34.353  17.171  -0.637  1.00 20.00    -0.051 A 
HETATM    9  C1  UNL     1     -33.199  18.002  -0.714  1.00 20.00     0.014 A 
HETATM   10  C2  UNL     1     -33.068  18.811   0.394  1.00 20.00     0.050 A 
HETATM   11  S11 UNL     1     -34.333  18.566   1.520  1.00 20.00    -0.113 SA
HETATM   12  C3  UNL     1     -35.060  17.376   0.528  1.00 20.00     0.056 A 
ENDBRANCH   7   8
ENDBRANCH   4   7
TORSDOF 2
ENDMDL
MODEL 3
REMARK VINA RESULT:      -4.7      0.706      1.184
REMARK  2 active torsions:
REMARK  status: ('A' for Active; 'I' for Inactive)
REMARK    1  A    between atoms: C4_4  and  C10_10 
REMARK    2  A    between atoms: C8_8  and  C10_10 
ROOT
HETATM    1  C5  UNL     1     -34.735  13.378  -4.131  1.00 20.00     0.002 C 
HETATM    2  C6  UNL     1     -33.703  14.263  -3.425  1.00 20.00     0.006 C 
HETATM    3  C7  UNL     1     -36.047  14.168  -4.151  1.00 20.00     0.016 C 
HETATM    4  C8  UNL     1     -34.499  15.442  -2.862  1.00 20.00     0.004 C 
HETATM    5  C9  UNL     1     -35.659  15.609  -3.843  1.00 20.00     0.062 C 
HETATM    6 BR12 UNL     1     -35.158  16.514  -5.500  1.00 20.00    -0.091 Br
ENDROOT
BRANCH   4   7
HETATM    7  C10 UNL     1     -33.651  16.671  -2.578  1.00 20.00     0.045 C 
BRANCH   7   8
HETATM    8  C4  UNL     1     -33.920  17.234  -1.207  1.00 20.00    -0.051 A 
HETATM    9  C1  UNL     1     -33.056  18.149  -0.540  1.00 20.00     0.014 A 
HETATM   10  C2  UNL     1     -33.537  18.504   0.701  1.00 20.00     0.050 A 
HETATM   11  S11 UNL     1     -35.024  17.735   1.057  1.00 20.00    -0.113 SA
HETATM   12  C3  UNL     1     -35.028  16.923  -0.450  1.00 20.00     0.056 A 
ENDBRANCH   7   8
ENDBRANCH   4   7
TORSDOF 2
ENDMDL
MODEL 4
REMARK VINA RESULT:      -4.5      2.690      5.012
REMARK  2 active torsions:
REMARK  status: ('A' for Active; 'I' for Inactive)
REMARK    1  A    between atoms: C4_4  and  C10_10 
REMARK    2  A    between atoms: C8_8  and  C10_10 
ROOT
HETATM    1  C5  UNL     1     -33.772  18.132   0.200  1.00 20.00     0.002 C 
HETATM    2  C6  UNL     1     -34.812  17.071  -0.172  1.00 20.00     0.006 C 
HETATM    3  C7  UNL     1     -33.011  18.467  -1.087  1.00 20.00     0.016 C 
HETATM    4  C8  UNL     1     -34.476  16.662  -1.608  1.00 20.00     0.004 C 
HETATM    5  C9  UNL     1     -33.870  17.923  -2.222  1.00 20.00     0.062 C 
HETATM    6 BR12 UNL     1     -35.197  19.263  -2.729  1.00 20.00    -0.091 Br
ENDROOT
BRANCH   4   7
HETATM    7  C10 UNL     1     -35.641  16.024  -2.349  1.00 20.00     0.045 C 
BRANCH   7   8
HETATM    8  C4  UNL     1     -35.177  15.216  -3.532  1.00 20.00    -0.051 A 
HETATM    9  C1  UNL     1     -34.401  14.026  -3.427  1.00 20.00     0.014 A 
HETATM   10  C2  UNL     1     -34.111  13.486  -4.661  1.00 20.00     0.050 A 
HETATM   11  S11 UNL     1     -34.774  14.412  -5.938  1.00 20.00    -0.113 SA
HETATM   12  C3  UNL     1     -35.451  15.540  -4.843  1.00 20.00     0.056 A 
ENDBRANCH   7   8
ENDBRANCH   4   7
TORSDOF 2
ENDMDL
MODEL 5
REMARK VINA RESULT:      -4.5      3.073      5.018
REMARK  2 active torsions:
REMARK  status: ('A' for Active; 'I' for Inactive)
REMARK    1  A    between atoms: C4_4  and  C10_10 
REMARK    2  A    between atoms: C8_8  and  C10_10 
ROOT
HETATM    1  C5  UNL     1     -36.380  18.118  -0.929  1.00 20.00     0.002 C 
HETATM    2  C6  UNL     1     -35.737  17.470  -2.159  1.00 20.00     0.006 C 
HETATM    3  C7  UNL     1     -35.513  17.729   0.273  1.00 20.00     0.016 C 
HETATM    4  C8  UNL     1     -34.650  16.546  -1.608  1.00 20.00     0.004 C 
HETATM    5  C9  UNL     1     -34.200  17.230  -0.317  1.00 20.00     0.062 C 
HETATM    6 BR12 UNL     1     -33.005  18.747  -0.611  1.00 20.00    -0.091 Br
ENDROOT
BRANCH   4   7
HETATM    7  C10 UNL     1     -33.569  16.202  -2.621  1.00 20.00     0.045 C 
BRANCH   7   8
HETATM    8  C4  UNL     1     -34.087  15.294  -3.706  1.00 20.00    -0.051 A 
HETATM    9  C1  UNL     1     -34.483  13.944  -3.489  1.00 20.00     0.014 A 
HETATM   10  C2  UNL     1     -34.915  13.338  -4.649  1.00 20.00     0.050 A 
HETATM   11  S11 UNL     1     -34.842  14.398  -5.991  1.00 20.00    -0.113 SA
HETATM   12  C3  UNL     1     -34.230  15.670  -5.023  1.00 20.00     0.056 A 
ENDBRANCH   7   8
ENDBRANCH   4   7
TORSDOF 2
ENDMDL
MODEL 6
REMARK VINA RESULT:      -4.3     13.513     15.620
REMARK  2 active torsions:
REMARK  status: ('A' for Active; 'I' for Inactive)
REMARK    1  A    between atoms: C4_4  and  C10_10 
REMARK    2  A    between atoms: C8_8  and  C10_10 
ROOT
HETATM    1  C5  UNL     1     -42.246   5.166   0.673  1.00 20.00     0.002 C 
HETATM    2  C6  UNL     1     -42.901   4.284  -0.393  1.00 20.00     0.006 C 
HETATM    3  C7  UNL     1     -40.998   5.776   0.028  1.00 20.00     0.016 C 
HETATM    4  C8  UNL     1     -41.899   4.231  -1.547  1.00 20.00     0.004 C 
HETATM    5  C9  UNL     1     -41.175   5.575  -1.472  1.00 20.00     0.062 C 
HETATM    6 BR12 UNL     1     -42.207   7.062  -2.207  1.00 20.00    -0.091 Br
ENDROOT
BRANCH   4   7
HETATM    7  C10 UNL     1     -42.523   3.856  -2.882  1.00 20.00     0.045 C 
BRANCH   7   8
HETATM    8  C4  UNL     1     -42.449   2.373  -3.138  1.00 20.00    -0.051 A 
HETATM    9  C1  UNL     1     -41.408   1.747  -3.882  1.00 20.00     0.014 A 
HETATM   10  C2  UNL     1     -41.582   0.382  -3.967  1.00 20.00     0.050 A 
HETATM   11  S11 UNL     1     -42.996  -0.136  -3.154  1.00 20.00    -0.113 SA
HETATM   12  C3  UNL     1     -43.380   1.464  -2.685  1.00 20.00     0.056 A 
ENDBRANCH   7   8
ENDBRANCH   4   7
TORSDOF 2
ENDMDL
MODEL 7
REMARK VINA RESULT:      -4.3      1.641      2.125
REMARK  2 active torsions:
REMARK  status: ('A' for Active; 'I' for Inactive)
REMARK    1  A    between atoms: C4_4  and  C10_10 
REMARK    2  A    between atoms: C8_8  and  C10_10 
ROOT
HETATM    1  C5  UNL     1     -37.276  15.251  -5.213  1.00 20.00     0.002 C 
HETATM    2  C6  UNL     1     -36.993  15.371  -3.713  1.00 20.00     0.006 C 
HETATM    3  C7  UNL     1     -35.931  15.428  -5.926  1.00 20.00     0.016 C 
HETATM    4  C8  UNL     1     -35.538  15.833  -3.611  1.00 20.00     0.004 C 
HETATM    5  C9  UNL     1     -34.871  15.236  -4.849  1.00 20.00     0.062 C 
HETATM    6 BR12 UNL     1     -34.460  13.334  -4.676  1.00 20.00    -0.091 Br
ENDROOT
BRANCH   4   7
HETATM    7  C10 UNL     1     -34.895  15.533  -2.266  1.00 20.00     0.045 C 
BRANCH   7   8
HETATM    8  C4  UNL     1     -34.434  16.788  -1.572  1.00 20.00    -0.051 A 
HETATM    9  C1  UNL     1     -34.661  17.062  -0.193  1.00 20.00     0.014 A 
HETATM   10  C2  UNL     1     -34.137  18.279   0.185  1.00 20.00     0.050 A 
HETATM   11  S11 UNL     1     -33.376  19.084  -1.120  1.00 20.00    -0.113 SA
HETATM   12  C3  UNL     1     -33.746  17.806  -2.196  1.00 20.00     0.056 A 
ENDBRANCH   7   8
ENDBRANCH   4   7
TORSDOF 2
ENDMDL
MODEL 8
REMARK VINA RESULT:      -4.2      2.231      2.846
REMARK  2 active torsions:
REMARK  status: ('A' for Active; 'I' for Inactive)
REMARK    1  A    between atoms: C4_4  and  C10_10 
REMARK    2  A    between atoms: C8_8  and  C10_10 
ROOT
HETATM    1  C5  UNL     1     -35.885  14.763  -7.374  1.00 20.00     0.002 C 
HETATM    2  C6  UNL     1     -36.725  15.272  -6.199  1.00 20.00     0.006 C 
HETATM    3  C7  UNL     1     -34.418  14.904  -6.957  1.00 20.00     0.016 C 
HETATM    4  C8  UNL     1     -35.722  15.897  -5.227  1.00 20.00     0.004 C 
HETATM    5  C9  UNL     1     -34.442  15.092  -5.445  1.00 20.00     0.062 C 
HETATM    6 BR12 UNL     1     -34.459  13.344  -4.574  1.00 20.00    -0.091 Br
ENDROOT
BRANCH   4   7
HETATM    7  C10 UNL     1     -36.239  16.002  -3.801  1.00 20.00     0.045 C 
BRANCH   7   8
HETATM    8  C4  UNL     1     -35.295  16.777  -2.918  1.00 20.00    -0.051 A 
HETATM    9  C1  UNL     1     -34.718  16.259  -1.724  1.00 20.00     0.014 A 
HETATM   10  C2  UNL     1     -33.894  17.175  -1.107  1.00 20.00     0.050 A 
HETATM   11  S11 UNL     1     -33.819  18.652  -1.968  1.00 20.00    -0.113 SA
HETATM   12  C3  UNL     1     -34.891  18.070  -3.169  1.00 20.00     0.056 A 
ENDBRANCH   7   8
ENDBRANCH   4   7
TORSDOF 2
ENDMDL
MODEL 9
REMARK VINA RESULT:      -4.1      3.715      5.378
REMARK  2 active torsions:
REMARK  status: ('A' for Active; 'I' for Inactive)
REMARK    1  A    between atoms: C4_4  and  C10_10 
REMARK    2  A    between atoms: C8_8  and  C10_10 
ROOT
HETATM    1  C5  UNL     1     -33.050  14.032  -3.714  1.00 20.00     0.002 C 
HETATM    2  C6  UNL     1     -34.522  13.612  -3.676  1.00 20.00     0.006 C 
HETATM    3  C7  UNL     1     -33.034  15.549  -3.923  1.00 20.00     0.016 C 
HETATM    4  C8  UNL     1     -35.309  14.858  -4.084  1.00 20.00     0.004 C 
HETATM    5  C9  UNL     1     -34.446  16.020  -3.595  1.00 20.00     0.062 C 
HETATM    6 BR12 UNL     1     -34.590  16.347  -1.675  1.00 20.00    -0.091 Br
ENDROOT
BRANCH   4   7
HETATM    7  C10 UNL     1     -36.761  14.838  -3.634  1.00 20.00     0.045 C 
BRANCH   7   8
HETATM    8  C4  UNL     1     -37.709  15.020  -4.791  1.00 20.00    -0.051 A 
HETATM    9  C1  UNL     1     -37.292  15.297  -6.124  1.00 20.00     0.014 A 
HETATM   10  C2  UNL     1     -38.360  15.418  -6.986  1.00 20.00     0.050 A 
HETATM   11  S11 UNL     1     -39.857  15.198  -6.187  1.00 20.00    -0.113 SA
HETATM   12  C3  UNL     1     -39.081  14.940  -4.684  1.00 20.00     0.056 A 
ENDBRANCH   7   8
ENDBRANCH   4   7
TORSDOF 2
ENDMDL
