MODEL 1
REMARK VINA RESULT:      -5.1      0.000      0.000
REMARK  3 active torsions:
REMARK  status: ('A' for Active; 'I' for Inactive)
REMARK    1  A    between atoms: C2_2  and  C9_9 
REMARK    2  A    between atoms: C6_6  and  C9_9 
REMARK    3  A    between atoms: C7_7  and  O10_10 
ROOT
HETATM    1  C3  UNL     1     -34.433   5.012   6.039  1.00 20.00     0.003 C 
HETATM    2  C4  UNL     1     -34.232   6.454   5.580  1.00 20.00     0.007 C 
HETATM    3  C5  UNL     1     -34.864   4.216   4.803  1.00 20.00     0.032 C 
HETATM    4  C6  UNL     1     -34.089   6.385   4.058  1.00 20.00     0.018 C 
HETATM    5  C7  UNL     1     -35.039   5.243   3.687  1.00 20.00     0.122 C 
ENDROOT
BRANCH   4   6
HETATM    6  C9  UNL     1     -32.649   6.100   3.636  1.00 20.00     0.040 C 
BRANCH   6   7
HETATM    7  C2  UNL     1     -31.865   7.358   3.347  1.00 20.00    -0.093 C 
HETATM    8  C1  UNL     1     -31.000   7.865   4.239  1.00 20.00     0.014 C 
HETATM    9  C8  UNL     1     -32.123   8.038   2.034  1.00 20.00     0.042 C 
ENDBRANCH   6   7
ENDBRANCH   4   6
BRANCH   5  10
HETATM   10  O10 UNL     1     -36.386   5.708   3.708  1.00 20.00    -0.395 OA
HETATM   11  H26 UNL     1     -36.926   5.041   3.253  1.00 20.00     0.210 HD
ENDBRANCH   5  10
TORSDOF 3
ENDMDL
MODEL 2
REMARK VINA RESULT:      -4.7     11.387     12.292
REMARK  3 active torsions:
REMARK  status: ('A' for Active; 'I' for Inactive)
REMARK    1  A    between atoms: C2_2  and  C9_9 
REMARK    2  A    between atoms: C6_6  and  C9_9 
REMARK    3  A    between atoms: C7_7  and  O10_10 
ROOT
HETATM    1  C3  UNL     1     -34.839  13.837  -4.206  1.00 20.00     0.003 C 
HETATM    2  C4  UNL     1     -35.271  15.302  -4.187  1.00 20.00     0.007 C 
HETATM    3  C5  UNL     1     -33.388  13.803  -3.720  1.00 20.00     0.032 C 
HETATM    4  C6  UNL     1     -34.268  16.014  -3.276  1.00 20.00     0.018 C 
HETATM    5  C7  UNL     1     -32.966  15.262  -3.565  1.00 20.00     0.122 C 
ENDROOT
BRANCH   4   6
HETATM    6  C9  UNL     1     -34.674  15.925  -1.806  1.00 20.00     0.040 C 
BRANCH   6   7
HETATM    7  C2  UNL     1     -34.354  17.183  -1.035  1.00 20.00    -0.093 C 
HETATM    8  C1  UNL     1     -33.575  18.145  -1.554  1.00 20.00     0.014 C 
HETATM    9  C8  UNL     1     -34.916  17.296   0.353  1.00 20.00     0.042 C 
ENDBRANCH   6   7
ENDBRANCH   4   6
BRANCH   5  10
HETATM   10  O10 UNL     1     -32.415  15.706  -4.801  1.00 20.00    -0.395 OA
HETATM   11  H26 UNL     1     -32.772  15.130  -5.498  1.00 20.00     0.210 HD
ENDBRANCH   5  10
TORSDOF 3
ENDMDL
MODEL 3
REMARK VINA RESULT:      -4.7     11.383     12.270
REMARK  3 active torsions:
REMARK  status: ('A' for Active; 'I' for Inactive)
REMARK    1  A    between atoms: C2_2  and  C9_9 
REMARK    2  A    between atoms: C6_6  and  C9_9 
REMARK    3  A    between atoms: C7_7  and  O10_10 
ROOT
HETATM    1  C3  UNL     1     -34.761  13.731  -4.247  1.00 20.00     0.003 C 
HETATM    2  C4  UNL     1     -35.265  15.173  -4.251  1.00 20.00     0.007 C 
HETATM    3  C5  UNL     1     -33.318  13.775  -3.736  1.00 20.00     0.032 C 
HETATM    4  C6  UNL     1     -34.315  15.943  -3.330  1.00 20.00     0.018 C 
HETATM    5  C7  UNL     1     -32.973  15.254  -3.589  1.00 20.00     0.122 C 
ENDROOT
BRANCH   4   6
HETATM    6  C9  UNL     1     -34.741  15.847  -1.867  1.00 20.00     0.040 C 
BRANCH   6   7
HETATM    7  C2  UNL     1     -34.443  17.107  -1.088  1.00 20.00    -0.093 C 
HETATM    8  C1  UNL     1     -34.857  17.262   0.179  1.00 20.00     0.014 C 
HETATM    9  C8  UNL     1     -33.697  18.194  -1.806  1.00 20.00     0.042 C 
ENDBRANCH   6   7
ENDBRANCH   4   6
BRANCH   5  10
HETATM   10  O10 UNL     1     -32.423  15.714  -4.821  1.00 20.00    -0.395 OA
HETATM   11  H26 UNL     1     -32.930  16.501  -5.085  1.00 20.00     0.210 HD
ENDBRANCH   5  10
TORSDOF 3
ENDMDL
MODEL 4
REMARK VINA RESULT:      -4.5     11.444     12.312
REMARK  3 active torsions:
REMARK  status: ('A' for Active; 'I' for Inactive)
REMARK    1  A    between atoms: C2_2  and  C9_9 
REMARK    2  A    between atoms: C6_6  and  C9_9 
REMARK    3  A    between atoms: C7_7  and  O10_10 
ROOT
HETATM    1  C3  UNL     1     -34.079  15.056  -5.569  1.00 20.00     0.003 C 
HETATM    2  C4  UNL     1     -33.620  14.969  -4.115  1.00 20.00     0.007 C 
HETATM    3  C5  UNL     1     -35.496  14.476  -5.615  1.00 20.00     0.032 C 
HETATM    4  C6  UNL     1     -34.897  14.791  -3.291  1.00 20.00     0.018 C 
HETATM    5  C7  UNL     1     -35.771  13.938  -4.214  1.00 20.00     0.122 C 
ENDROOT
BRANCH   4   6
HETATM    6  C9  UNL     1     -35.547  16.132  -2.956  1.00 20.00     0.040 C 
BRANCH   6   7
HETATM    7  C2  UNL     1     -34.705  16.972  -2.025  1.00 20.00    -0.093 C 
HETATM    8  C1  UNL     1     -34.571  16.659  -0.727  1.00 20.00     0.014 C 
HETATM    9  C8  UNL     1     -34.055  18.194  -2.606  1.00 20.00     0.042 C 
ENDBRANCH   6   7
ENDBRANCH   4   6
BRANCH   5  10
HETATM   10  O10 UNL     1     -35.347  12.578  -4.161  1.00 20.00    -0.395 OA
HETATM   11  H26 UNL     1     -34.712  12.505  -3.428  1.00 20.00     0.210 HD
ENDBRANCH   5  10
TORSDOF 3
ENDMDL
MODEL 5
REMARK VINA RESULT:      -4.4     11.108     13.226
REMARK  3 active torsions:
REMARK  status: ('A' for Active; 'I' for Inactive)
REMARK    1  A    between atoms: C2_2  and  C9_9 
REMARK    2  A    between atoms: C6_6  and  C9_9 
REMARK    3  A    between atoms: C7_7  and  O10_10 
ROOT
HETATM    1  C3  UNL     1     -34.018  15.206  -3.351  1.00 20.00     0.003 C 
HETATM    2  C4  UNL     1     -35.252  15.446  -4.218  1.00 20.00     0.007 C 
HETATM    3  C5  UNL     1     -33.433  13.860  -3.787  1.00 20.00     0.032 C 
HETATM    4  C6  UNL     1     -35.099  14.509  -5.419  1.00 20.00     0.018 C 
HETATM    5  C7  UNL     1     -34.420  13.285  -4.798  1.00 20.00     0.122 C 
ENDROOT
BRANCH   4   6
HETATM    6  C9  UNL     1     -34.256  15.138  -6.526  1.00 20.00     0.040 C 
BRANCH   6   7
HETATM    7  C2  UNL     1     -35.066  16.021  -7.446  1.00 20.00    -0.093 C 
HETATM    8  C1  UNL     1     -34.640  17.243  -7.799  1.00 20.00     0.014 C 
HETATM    9  C8  UNL     1     -36.388  15.486  -7.918  1.00 20.00     0.042 C 
ENDBRANCH   6   7
ENDBRANCH   4   6
BRANCH   5  10
HETATM   10  O10 UNL     1     -35.382  12.503  -4.096  1.00 20.00    -0.395 OA
HETATM   11  H26 UNL     1     -34.917  12.068  -3.361  1.00 20.00     0.210 HD
ENDBRANCH   5  10
TORSDOF 3
ENDMDL
MODEL 6
REMARK VINA RESULT:      -4.2      8.749     10.668
REMARK  3 active torsions:
REMARK  status: ('A' for Active; 'I' for Inactive)
REMARK    1  A    between atoms: C2_2  and  C9_9 
REMARK    2  A    between atoms: C6_6  and  C9_9 
REMARK    3  A    between atoms: C7_7  and  O10_10 
ROOT
HETATM    1  C3  UNL     1     -41.176   6.924  -1.219  1.00 20.00     0.003 C 
HETATM    2  C4  UNL     1     -42.375   6.139  -1.746  1.00 20.00     0.007 C 
HETATM    3  C5  UNL     1     -40.599   6.112  -0.056  1.00 20.00     0.032 C 
HETATM    4  C6  UNL     1     -42.196   4.713  -1.219  1.00 20.00     0.018 C 
HETATM    5  C7  UNL     1     -41.560   4.945   0.154  1.00 20.00     0.122 C 
ENDROOT
BRANCH   4   6
HETATM    6  C9  UNL     1     -41.306   3.877  -2.135  1.00 20.00     0.040 C 
BRANCH   6   7
HETATM    7  C2  UNL     1     -42.062   2.776  -2.839  1.00 20.00    -0.093 C 
HETATM    8  C1  UNL     1     -43.354   2.531  -2.571  1.00 20.00     0.014 C 
HETATM    9  C8  UNL     1     -41.297   1.942  -3.825  1.00 20.00     0.042 C 
ENDBRANCH   6   7
ENDBRANCH   4   6
BRANCH   5  10
HETATM   10  O10 UNL     1     -42.559   5.346   1.088  1.00 20.00    -0.395 OA
HETATM   11  H26 UNL     1     -42.193   5.202   1.978  1.00 20.00     0.210 HD
ENDBRANCH   5  10
TORSDOF 3
ENDMDL
MODEL 7
REMARK VINA RESULT:      -4.1     11.635     13.191
REMARK  3 active torsions:
REMARK  status: ('A' for Active; 'I' for Inactive)
REMARK    1  A    between atoms: C2_2  and  C9_9 
REMARK    2  A    between atoms: C6_6  and  C9_9 
REMARK    3  A    between atoms: C7_7  and  O10_10 
ROOT
HETATM    1  C3  UNL     1     -34.874  15.343  -2.600  1.00 20.00     0.003 C 
HETATM    2  C4  UNL     1     -34.962  14.329  -3.739  1.00 20.00     0.007 C 
HETATM    3  C5  UNL     1     -33.663  16.231  -2.899  1.00 20.00     0.032 C 
HETATM    4  C6  UNL     1     -34.126  14.917  -4.878  1.00 20.00     0.018 C 
HETATM    5  C7  UNL     1     -32.994  15.623  -4.129  1.00 20.00     0.122 C 
ENDROOT
BRANCH   4   6
HETATM    6  C9  UNL     1     -34.940  15.882  -5.739  1.00 20.00     0.040 C 
BRANCH   6   7
HETATM    7  C2  UNL     1     -35.897  15.172  -6.666  1.00 20.00    -0.093 C 
HETATM    8  C1  UNL     1     -35.457  14.433  -7.696  1.00 20.00     0.014 C 
HETATM    9  C8  UNL     1     -37.364  15.359  -6.409  1.00 20.00     0.042 C 
ENDBRANCH   6   7
ENDBRANCH   4   6
BRANCH   5  10
HETATM   10  O10 UNL     1     -32.033  14.665  -3.692  1.00 20.00    -0.395 OA
HETATM   11  H26 UNL     1     -31.491  15.094  -3.007  1.00 20.00     0.210 HD
ENDBRANCH   5  10
TORSDOF 3
ENDMDL
MODEL 8
REMARK VINA RESULT:      -4.0     11.188     12.531
REMARK  3 active torsions:
REMARK  status: ('A' for Active; 'I' for Inactive)
REMARK    1  A    between atoms: C2_2  and  C9_9 
REMARK    2  A    between atoms: C6_6  and  C9_9 
REMARK    3  A    between atoms: C7_7  and  O10_10 
ROOT
HETATM    1  C3  UNL     1     -33.669  17.734  -1.059  1.00 20.00     0.003 C 
HETATM    2  C4  UNL     1     -33.769  18.132  -2.530  1.00 20.00     0.007 C 
HETATM    3  C5  UNL     1     -34.592  16.527  -0.870  1.00 20.00     0.032 C 
HETATM    4  C6  UNL     1     -34.351  16.912  -3.248  1.00 20.00     0.018 C 
HETATM    5  C7  UNL     1     -35.312  16.341  -2.203  1.00 20.00     0.122 C 
ENDROOT
BRANCH   4   6
HETATM    6  C9  UNL     1     -33.264  15.913  -3.641  1.00 20.00     0.040 C 
BRANCH   6   7
HETATM    7  C2  UNL     1     -33.813  14.709  -4.368  1.00 20.00    -0.093 C 
HETATM    8  C1  UNL     1     -33.679  13.469  -3.871  1.00 20.00     0.014 C 
HETATM    9  C8  UNL     1     -34.481  14.954  -5.689  1.00 20.00     0.042 C 
ENDBRANCH   6   7
ENDBRANCH   4   6
BRANCH   5  10
HETATM   10  O10 UNL     1     -36.512  17.109  -2.178  1.00 20.00    -0.395 OA
HETATM   11  H26 UNL     1     -36.297  17.964  -1.768  1.00 20.00     0.210 HD
ENDBRANCH   5  10
TORSDOF 3
ENDMDL
MODEL 9
REMARK VINA RESULT:      -4.0     11.328     12.855
REMARK  3 active torsions:
REMARK  status: ('A' for Active; 'I' for Inactive)
REMARK    1  A    between atoms: C2_2  and  C9_9 
REMARK    2  A    between atoms: C6_6  and  C9_9 
REMARK    3  A    between atoms: C7_7  and  O10_10 
ROOT
HETATM    1  C3  UNL     1     -34.428  13.294  -4.898  1.00 20.00     0.003 C 
HETATM    2  C4  UNL     1     -35.039  14.605  -5.390  1.00 20.00     0.007 C 
HETATM    3  C5  UNL     1     -33.442  13.662  -3.786  1.00 20.00     0.032 C 
HETATM    4  C6  UNL     1     -34.768  15.626  -4.281  1.00 20.00     0.018 C 
HETATM    5  C7  UNL     1     -33.399  15.187  -3.755  1.00 20.00     0.122 C 
ENDROOT
BRANCH   4   6
HETATM    6  C9  UNL     1     -35.844  15.585  -3.198  1.00 20.00     0.040 C 
BRANCH   6   7
HETATM    7  C2  UNL     1     -37.229  15.840  -3.742  1.00 20.00    -0.093 C 
HETATM    8  C1  UNL     1     -38.174  14.887  -3.728  1.00 20.00     0.014 C 
HETATM    9  C8  UNL     1     -37.493  17.194  -4.334  1.00 20.00     0.042 C 
ENDBRANCH   6   7
ENDBRANCH   4   6
BRANCH   5  10
HETATM   10  O10 UNL     1     -32.375  15.628  -4.643  1.00 20.00    -0.395 OA
HETATM   11  H26 UNL     1     -32.521  15.180  -5.493  1.00 20.00     0.210 HD
ENDBRANCH   5  10
TORSDOF 3
ENDMDL
