MODEL 1
REMARK VINA RESULT:      -5.1      0.000      0.000
REMARK  1 active torsions:
REMARK  status: ('A' for Active; 'I' for Inactive)
REMARK    1  A    between atoms: C8_8  and  O10_10 
ROOT
HETATM    1  C1  UNL     1     -34.240  15.227  -3.261  1.00 20.00    -0.023 C 
HETATM    2  C2  UNL     1     -33.671  14.132  -3.794  1.00 20.00     0.001 C 
HETATM    3  C3  UNL     1     -34.172  15.325  -6.441  1.00 20.00     0.003 C 
HETATM    4  C4  UNL     1     -35.054  14.166  -5.902  1.00 20.00     0.036 C 
HETATM    5  C5  UNL     1     -34.461  16.710  -5.818  1.00 20.00     0.005 C 
HETATM    6  C6  UNL     1     -34.198  17.819  -3.498  1.00 20.00     0.014 A 
HETATM    7  C7  UNL     1     -33.522  16.500  -3.291  1.00 20.00     0.012 A 
HETATM    8  C8  UNL     1     -34.432  13.300  -4.779  1.00 20.00     0.140 C 
HETATM    9  C9  UNL     1     -33.551  17.143  -4.681  1.00 20.00    -0.006 A 
ENDROOT
BRANCH   8  10
HETATM   10  O10 UNL     1     -35.426  12.516  -4.134  1.00 20.00    -0.392 OA
HETATM   11  H24 UNL     1     -36.022  12.192  -4.828  1.00 20.00     0.210 HD
ENDBRANCH   8  10
TORSDOF 1
ENDMDL
MODEL 2
REMARK VINA RESULT:      -4.7     12.007     13.348
REMARK  1 active torsions:
REMARK  status: ('A' for Active; 'I' for Inactive)
REMARK    1  A    between atoms: C8_8  and  O10_10 
ROOT
HETATM    1  C1  UNL     1     -33.777   5.394   3.366  1.00 20.00    -0.023 C 
HETATM    2  C2  UNL     1     -35.048   5.397   3.803  1.00 20.00     0.001 C 
HETATM    3  C3  UNL     1     -34.062   6.713   6.248  1.00 20.00     0.003 C 
HETATM    4  C4  UNL     1     -34.444   5.208   6.244  1.00 20.00     0.036 C 
HETATM    5  C5  UNL     1     -32.706   7.044   5.583  1.00 20.00     0.005 C 
HETATM    6  C6  UNL     1     -31.716   6.976   3.195  1.00 20.00     0.014 A 
HETATM    7  C7  UNL     1     -33.156   6.649   2.946  1.00 20.00     0.012 A 
HETATM    8  C8  UNL     1     -35.390   4.747   5.108  1.00 20.00     0.140 C 
HETATM    9  C9  UNL     1     -32.758   7.521   4.141  1.00 20.00    -0.006 A 
ENDROOT
BRANCH   8  10
HETATM   10  O10 UNL     1     -35.393   3.331   4.994  1.00 20.00    -0.392 OA
HETATM   11  H24 UNL     1     -35.408   2.976   5.898  1.00 20.00     0.210 HD
ENDBRANCH   8  10
TORSDOF 1
ENDMDL
MODEL 3
REMARK VINA RESULT:      -4.6      1.732      2.166
REMARK  1 active torsions:
REMARK  status: ('A' for Active; 'I' for Inactive)
REMARK    1  A    between atoms: C8_8  and  O10_10 
ROOT
HETATM    1  C1  UNL     1     -34.055  14.961  -2.835  1.00 20.00    -0.023 C 
HETATM    2  C2  UNL     1     -34.195  14.625  -4.129  1.00 20.00     0.001 C 
HETATM    3  C3  UNL     1     -36.741  16.110  -4.097  1.00 20.00     0.003 C 
HETATM    4  C4  UNL     1     -36.716  14.558  -4.068  1.00 20.00     0.036 C 
HETATM    5  C5  UNL     1     -36.383  16.794  -2.759  1.00 20.00     0.005 C 
HETATM    6  C6  UNL     1     -34.283  17.028  -1.269  1.00 20.00     0.014 A 
HETATM    7  C7  UNL     1     -33.731  16.342  -2.480  1.00 20.00     0.012 A 
HETATM    8  C8  UNL     1     -35.417  13.886  -4.579  1.00 20.00     0.140 C 
HETATM    9  C9  UNL     1     -34.947  17.266  -2.603  1.00 20.00    -0.006 A 
ENDROOT
BRANCH   8  10
HETATM   10  O10 UNL     1     -35.367  12.520  -4.191  1.00 20.00    -0.392 OA
HETATM   11  H24 UNL     1     -34.598  12.130  -4.636  1.00 20.00     0.210 HD
ENDBRANCH   8  10
TORSDOF 1
ENDMDL
MODEL 4
REMARK VINA RESULT:      -4.6      1.098      2.573
REMARK  1 active torsions:
REMARK  status: ('A' for Active; 'I' for Inactive)
REMARK    1  A    between atoms: C8_8  and  O10_10 
ROOT
HETATM    1  C1  UNL     1     -35.570  14.986  -5.994  1.00 20.00    -0.023 C 
HETATM    2  C2  UNL     1     -35.967  14.706  -4.740  1.00 20.00     0.001 C 
HETATM    3  C3  UNL     1     -33.460  15.947  -3.814  1.00 20.00     0.003 C 
HETATM    4  C4  UNL     1     -33.634  14.404  -3.832  1.00 20.00     0.036 C 
HETATM    5  C5  UNL     1     -33.209  16.592  -5.196  1.00 20.00     0.005 C 
HETATM    6  C6  UNL     1     -34.550  16.941  -7.379  1.00 20.00     0.014 A 
HETATM    7  C7  UNL     1     -35.588  16.371  -6.463  1.00 20.00     0.012 A 
HETATM    8  C8  UNL     1     -35.092  13.882  -3.847  1.00 20.00     0.140 C 
HETATM    9  C9  UNL     1     -34.421  17.185  -5.896  1.00 20.00    -0.006 A 
ENDROOT
BRANCH   8  10
HETATM   10  O10 UNL     1     -35.134  12.508  -4.209  1.00 20.00    -0.392 OA
HETATM   11  H24 UNL     1     -34.928  12.461  -5.156  1.00 20.00     0.210 HD
ENDBRANCH   8  10
TORSDOF 1
ENDMDL
MODEL 5
REMARK VINA RESULT:      -4.4      1.914      3.790
REMARK  1 active torsions:
REMARK  status: ('A' for Active; 'I' for Inactive)
REMARK    1  A    between atoms: C8_8  and  O10_10 
ROOT
HETATM    1  C1  UNL     1     -34.309  16.270  -5.712  1.00 20.00    -0.023 C 
HETATM    2  C2  UNL     1     -33.251  16.322  -4.884  1.00 20.00     0.001 C 
HETATM    3  C3  UNL     1     -34.373  13.962  -3.521  1.00 20.00     0.003 C 
HETATM    4  C4  UNL     1     -34.480  15.378  -2.894  1.00 20.00     0.036 C 
HETATM    5  C5  UNL     1     -35.348  13.689  -4.688  1.00 20.00     0.005 C 
HETATM    6  C6  UNL     1     -35.675  14.547  -7.106  1.00 20.00     0.014 A 
HETATM    7  C7  UNL     1     -34.390  15.207  -6.712  1.00 20.00     0.012 A 
HETATM    8  C8  UNL     1     -33.465  16.430  -3.405  1.00 20.00     0.140 C 
HETATM    9  C9  UNL     1     -34.791  13.864  -6.091  1.00 20.00    -0.006 A 
ENDROOT
BRANCH   8  10
HETATM   10  O10 UNL     1     -33.866  17.743  -3.037  1.00 20.00    -0.392 OA
HETATM   11  H24 UNL     1     -34.637  17.964  -3.584  1.00 20.00     0.210 HD
ENDBRANCH   8  10
TORSDOF 1
ENDMDL
MODEL 6
REMARK VINA RESULT:      -4.4      1.750      3.258
REMARK  1 active torsions:
REMARK  status: ('A' for Active; 'I' for Inactive)
REMARK    1  A    between atoms: C8_8  and  O10_10 
ROOT
HETATM    1  C1  UNL     1     -34.109  16.584  -5.327  1.00 20.00    -0.023 C 
HETATM    2  C2  UNL     1     -33.088  16.145  -4.570  1.00 20.00     0.001 C 
HETATM    3  C3  UNL     1     -34.276  13.455  -4.767  1.00 20.00     0.003 C 
HETATM    4  C4  UNL     1     -34.406  14.298  -3.469  1.00 20.00     0.036 C 
HETATM    5  C5  UNL     1     -35.200  13.893  -5.925  1.00 20.00     0.005 C 
HETATM    6  C6  UNL     1     -35.418  15.944  -7.485  1.00 20.00     0.014 A 
HETATM    7  C7  UNL     1     -34.149  16.245  -6.749  1.00 20.00     0.012 A 
HETATM    8  C8  UNL     1     -33.366  15.430  -3.283  1.00 20.00     0.140 C 
HETATM    9  C9  UNL     1     -34.581  14.794  -6.981  1.00 20.00    -0.006 A 
ENDROOT
BRANCH   8  10
HETATM   10  O10 UNL     1     -33.779  16.336  -2.269  1.00 20.00    -0.392 OA
HETATM   11  H24 UNL     1     -33.071  16.993  -2.174  1.00 20.00     0.210 HD
ENDBRANCH   8  10
TORSDOF 1
ENDMDL
MODEL 7
REMARK VINA RESULT:      -4.3      1.482      2.237
REMARK  1 active torsions:
REMARK  status: ('A' for Active; 'I' for Inactive)
REMARK    1  A    between atoms: C8_8  and  O10_10 
ROOT
HETATM    1  C1  UNL     1     -35.187  14.505  -4.236  1.00 20.00    -0.023 C 
HETATM    2  C2  UNL     1     -34.494  14.030  -5.286  1.00 20.00     0.001 C 
HETATM    3  C3  UNL     1     -33.294  16.710  -5.534  1.00 20.00     0.003 C 
HETATM    4  C4  UNL     1     -34.405  16.233  -6.509  1.00 20.00     0.036 C 
HETATM    5  C5  UNL     1     -33.790  17.118  -4.128  1.00 20.00     0.005 C 
HETATM    6  C6  UNL     1     -34.834  15.926  -2.084  1.00 20.00     0.014 A 
HETATM    7  C7  UNL     1     -34.495  14.773  -2.977  1.00 20.00     0.012 A 
HETATM    8  C8  UNL     1     -34.605  14.702  -6.620  1.00 20.00     0.140 C 
HETATM    9  C9  UNL     1     -33.673  16.066  -3.038  1.00 20.00    -0.006 A 
ENDROOT
BRANCH   8  10
HETATM   10  O10 UNL     1     -35.841  14.397  -7.250  1.00 20.00    -0.392 OA
HETATM   11  H24 UNL     1     -35.632  13.880  -8.044  1.00 20.00     0.210 HD
ENDBRANCH   8  10
TORSDOF 1
ENDMDL
MODEL 8
REMARK VINA RESULT:      -4.3     11.445     12.845
REMARK  1 active torsions:
REMARK  status: ('A' for Active; 'I' for Inactive)
REMARK    1  A    between atoms: C8_8  and  O10_10 
ROOT
HETATM    1  C1  UNL     1     -42.824   5.516  -3.092  1.00 20.00    -0.023 C 
HETATM    2  C2  UNL     1     -43.100   4.589  -2.158  1.00 20.00     0.001 C 
HETATM    3  C3  UNL     1     -41.178   5.978  -0.407  1.00 20.00     0.003 C 
HETATM    4  C4  UNL     1     -40.808   4.643  -1.108  1.00 20.00     0.036 C 
HETATM    5  C5  UNL     1     -41.165   7.222  -1.324  1.00 20.00     0.005 C 
HETATM    6  C6  UNL     1     -42.541   8.093  -3.333  1.00 20.00     0.014 A 
HETATM    7  C7  UNL     1     -43.319   6.880  -2.923  1.00 20.00     0.012 A 
HETATM    8  C8  UNL     1     -41.995   3.764  -1.575  1.00 20.00     0.140 C 
HETATM    9  C9  UNL     1     -42.506   7.663  -1.887  1.00 20.00    -0.006 A 
ENDROOT
BRANCH   8  10
HETATM   10  O10 UNL     1     -41.558   2.767  -2.489  1.00 20.00    -0.392 OA
HETATM   11  H24 UNL     1     -41.205   2.035  -1.958  1.00 20.00     0.210 HD
ENDBRANCH   8  10
TORSDOF 1
ENDMDL
MODEL 9
REMARK VINA RESULT:      -4.3      2.158      3.578
REMARK  1 active torsions:
REMARK  status: ('A' for Active; 'I' for Inactive)
REMARK    1  A    between atoms: C8_8  and  O10_10 
ROOT
HETATM    1  C1  UNL     1     -34.740  14.385  -4.795  1.00 20.00    -0.023 C 
HETATM    2  C2  UNL     1     -33.857  13.946  -3.881  1.00 20.00     0.001 C 
HETATM    3  C3  UNL     1     -34.900  16.025  -2.072  1.00 20.00     0.003 C 
HETATM    4  C4  UNL     1     -33.533  16.195  -2.788  1.00 20.00     0.036 C 
HETATM    5  C5  UNL     1     -36.139  16.253  -2.967  1.00 20.00     0.005 C 
HETATM    6  C6  UNL     1     -37.243  15.074  -4.986  1.00 20.00     0.014 A 
HETATM    7  C7  UNL     1     -36.164  14.106  -4.612  1.00 20.00     0.012 A 
HETATM    8  C8  UNL     1     -32.860  14.895  -3.292  1.00 20.00     0.140 C 
HETATM    9  C9  UNL     1     -36.794  15.011  -3.548  1.00 20.00    -0.006 A 
ENDROOT
BRANCH   8  10
HETATM   10  O10 UNL     1     -31.819  15.188  -4.214  1.00 20.00    -0.392 OA
HETATM   11  H24 UNL     1     -31.463  14.337  -4.516  1.00 20.00     0.210 HD
ENDBRANCH   8  10
TORSDOF 1
ENDMDL
