MODEL 1
REMARK VINA RESULT:      -4.9      0.000      0.000
REMARK  1 active torsions:
REMARK  status: ('A' for Active; 'I' for Inactive)
REMARK    1  A    between atoms: C6_6  and  O10_10 
ROOT
HETATM    1  C1  UNL     1     -34.904   5.040   2.990  1.00 20.00     0.003 C 
HETATM    2  C2  UNL     1     -33.585   5.787   2.735  1.00 20.00     0.032 C 
HETATM    3  C3  UNL     1     -35.543   5.326   4.352  1.00 20.00     0.010 C 
HETATM    4  C4  UNL     1     -34.230   6.559   6.235  1.00 20.00     0.017 A 
HETATM    5  C5  UNL     1     -33.263   6.112   5.173  1.00 20.00     0.023 A 
HETATM    6  C6  UNL     1     -33.214   6.788   3.834  1.00 20.00     0.125 C 
HETATM    7  C7  UNL     1     -34.505   5.294   5.453  1.00 20.00    -0.038 A 
HETATM    8  C8  UNL     1     -34.338   3.971   6.148  1.00 20.00     0.015 C 
ENDROOT
BRANCH   6   9
HETATM    9  O10 UNL     1     -31.900   7.287   3.606  1.00 20.00    -0.390 OA
HETATM   10  C9  UNL     1     -31.830   8.008   2.386  1.00 20.00     0.202 C 
ENDBRANCH   6   9
TORSDOF 1
ENDMDL
MODEL 2
REMARK VINA RESULT:      -4.4      9.373     10.764
REMARK  1 active torsions:
REMARK  status: ('A' for Active; 'I' for Inactive)
REMARK    1  A    between atoms: C6_6  and  O10_10 
ROOT
HETATM    1  C1  UNL     1     -41.180   7.262  -0.708  1.00 20.00     0.003 C 
HETATM    2  C2  UNL     1     -42.105   7.544  -1.903  1.00 20.00     0.032 C 
HETATM    3  C3  UNL     1     -40.675   5.818  -0.623  1.00 20.00     0.010 C 
HETATM    4  C4  UNL     1     -41.716   3.928  -2.084  1.00 20.00     0.017 A 
HETATM    5  C5  UNL     1     -42.622   5.128  -2.113  1.00 20.00     0.023 A 
HETATM    6  C6  UNL     1     -42.247   6.367  -2.872  1.00 20.00     0.125 C 
HETATM    7  C7  UNL     1     -41.798   4.837  -0.877  1.00 20.00    -0.038 A 
HETATM    8  C8  UNL     1     -42.513   4.339   0.347  1.00 20.00     0.015 C 
ENDROOT
BRANCH   6   9
HETATM    9  O10 UNL     1     -43.257   6.655  -3.833  1.00 20.00    -0.390 OA
HETATM   10  C9  UNL     1     -43.119   7.971  -4.344  1.00 20.00     0.202 C 
ENDBRANCH   6   9
TORSDOF 1
ENDMDL
MODEL 3
REMARK VINA RESULT:      -4.3      0.813      2.466
REMARK  1 active torsions:
REMARK  status: ('A' for Active; 'I' for Inactive)
REMARK    1  A    between atoms: C6_6  and  O10_10 
ROOT
HETATM    1  C1  UNL     1     -34.488   5.791   6.206  1.00 20.00     0.003 C 
HETATM    2  C2  UNL     1     -33.360   6.719   5.729  1.00 20.00     0.032 C 
HETATM    3  C3  UNL     1     -34.947   4.764   5.165  1.00 20.00     0.010 C 
HETATM    4  C4  UNL     1     -34.223   4.944   2.669  1.00 20.00     0.017 A 
HETATM    5  C5  UNL     1     -33.927   6.246   3.362  1.00 20.00     0.023 A 
HETATM    6  C6  UNL     1     -32.803   6.364   4.348  1.00 20.00     0.125 C 
HETATM    7  C7  UNL     1     -35.107   5.408   3.806  1.00 20.00    -0.038 A 
HETATM    8  C8  UNL     1     -36.488   5.904   3.482  1.00 20.00     0.015 C 
ENDROOT
BRANCH   6   9
HETATM    9  O10 UNL     1     -31.902   7.380   3.917  1.00 20.00    -0.390 OA
HETATM   10  C9  UNL     1     -32.153   7.751   2.571  1.00 20.00     0.202 C 
ENDBRANCH   6   9
TORSDOF 1
ENDMDL
MODEL 4
REMARK VINA RESULT:      -4.3     11.585     13.397
REMARK  1 active torsions:
REMARK  status: ('A' for Active; 'I' for Inactive)
REMARK    1  A    between atoms: C6_6  and  O10_10 
ROOT
HETATM    1  C1  UNL     1     -33.304  16.625  -5.242  1.00 20.00     0.003 C 
HETATM    2  C2  UNL     1     -34.168  16.054  -6.378  1.00 20.00     0.032 C 
HETATM    3  C3  UNL     1     -33.097  15.673  -4.060  1.00 20.00     0.010 C 
HETATM    4  C4  UNL     1     -34.515  13.501  -3.803  1.00 20.00     0.017 A 
HETATM    5  C5  UNL     1     -35.162  14.393  -4.827  1.00 20.00     0.023 A 
HETATM    6  C6  UNL     1     -34.555  14.584  -6.186  1.00 20.00     0.125 C 
HETATM    7  C7  UNL     1     -34.398  15.004  -3.672  1.00 20.00    -0.038 A 
HETATM    8  C8  UNL     1     -35.182  15.691  -2.590  1.00 20.00     0.015 C 
ENDROOT
BRANCH   6   9
HETATM    9  O10 UNL     1     -35.499  14.202  -7.181  1.00 20.00    -0.390 OA
HETATM   10  C9  UNL     1     -36.622  15.070  -7.184  1.00 20.00     0.202 C 
ENDBRANCH   6   9
TORSDOF 1
ENDMDL
MODEL 5
REMARK VINA RESULT:      -4.2     11.745     13.149
REMARK  1 active torsions:
REMARK  status: ('A' for Active; 'I' for Inactive)
REMARK    1  A    between atoms: C6_6  and  O10_10 
ROOT
HETATM    1  C1  UNL     1     -35.456  16.535  -5.604  1.00 20.00     0.003 C 
HETATM    2  C2  UNL     1     -36.687  16.040  -4.829  1.00 20.00     0.032 C 
HETATM    3  C3  UNL     1     -34.386  15.466  -5.847  1.00 20.00     0.010 C 
HETATM    4  C4  UNL     1     -34.448  13.177  -4.604  1.00 20.00     0.017 A 
HETATM    5  C5  UNL     1     -35.387  14.133  -3.921  1.00 20.00     0.023 A 
HETATM    6  C6  UNL     1     -36.686  14.533  -4.556  1.00 20.00     0.125 C 
HETATM    7  C7  UNL     1     -34.136  14.657  -4.593  1.00 20.00    -0.038 A 
HETATM    8  C8  UNL     1     -33.016  15.147  -3.718  1.00 20.00     0.015 C 
ENDROOT
BRANCH   6   9
HETATM    9  O10 UNL     1     -37.760  14.202  -3.681  1.00 20.00    -0.390 OA
HETATM   10  C9  UNL     1     -38.975  14.795  -4.113  1.00 20.00     0.202 C 
ENDBRANCH   6   9
TORSDOF 1
ENDMDL
MODEL 6
REMARK VINA RESULT:      -4.2     11.538     13.036
REMARK  1 active torsions:
REMARK  status: ('A' for Active; 'I' for Inactive)
REMARK    1  A    between atoms: C6_6  and  O10_10 
ROOT
HETATM    1  C1  UNL     1     -33.612  13.741  -3.967  1.00 20.00     0.003 C 
HETATM    2  C2  UNL     1     -35.098  13.374  -4.106  1.00 20.00     0.032 C 
HETATM    3  C3  UNL     1     -33.353  15.200  -3.578  1.00 20.00     0.010 C 
HETATM    4  C4  UNL     1     -35.249  16.985  -3.661  1.00 20.00     0.017 A 
HETATM    5  C5  UNL     1     -35.692  15.761  -4.416  1.00 20.00     0.023 A 
HETATM    6  C6  UNL     1     -36.058  14.496  -3.698  1.00 20.00     0.125 C 
HETATM    7  C7  UNL     1     -34.226  16.137  -4.384  1.00 20.00    -0.038 A 
HETATM    8  C8  UNL     1     -33.607  16.679  -5.642  1.00 20.00     0.015 C 
ENDROOT
BRANCH   6   9
HETATM    9  O10 UNL     1     -37.393  14.132  -4.035  1.00 20.00    -0.390 OA
HETATM   10  C9  UNL     1     -38.320  15.104  -3.579  1.00 20.00     0.202 C 
ENDBRANCH   6   9
TORSDOF 1
ENDMDL
MODEL 7
REMARK VINA RESULT:      -4.2     11.513     12.437
REMARK  1 active torsions:
REMARK  status: ('A' for Active; 'I' for Inactive)
REMARK    1  A    between atoms: C6_6  and  O10_10 
ROOT
HETATM    1  C1  UNL     1     -36.790  15.316  -3.744  1.00 20.00     0.003 C 
HETATM    2  C2  UNL     1     -35.969  16.224  -2.815  1.00 20.00     0.032 C 
HETATM    3  C3  UNL     1     -36.059  14.051  -4.205  1.00 20.00     0.010 C 
HETATM    4  C4  UNL     1     -33.494  13.760  -3.848  1.00 20.00     0.017 A 
HETATM    5  C5  UNL     1     -33.861  15.202  -3.629  1.00 20.00     0.023 A 
HETATM    6  C6  UNL     1     -34.615  15.635  -2.406  1.00 20.00     0.125 C 
HETATM    7  C7  UNL     1     -34.640  14.370  -4.624  1.00 20.00    -0.038 A 
HETATM    8  C8  UNL     1     -34.445  14.651  -6.088  1.00 20.00     0.015 C 
ENDROOT
BRANCH   6   9
HETATM    9  O10 UNL     1     -33.856  16.616  -1.707  1.00 20.00    -0.390 OA
HETATM   10  C9  UNL     1     -34.514  17.022  -0.517  1.00 20.00     0.202 C 
ENDBRANCH   6   9
TORSDOF 1
ENDMDL
MODEL 8
REMARK VINA RESULT:      -4.2     11.688     13.033
REMARK  1 active torsions:
REMARK  status: ('A' for Active; 'I' for Inactive)
REMARK    1  A    between atoms: C6_6  and  O10_10 
ROOT
HETATM    1  C1  UNL     1     -33.564  17.569  -4.751  1.00 20.00     0.003 C 
HETATM    2  C2  UNL     1     -33.267  16.065  -4.866  1.00 20.00     0.032 C 
HETATM    3  C3  UNL     1     -33.933  18.038  -3.340  1.00 20.00     0.010 C 
HETATM    4  C4  UNL     1     -34.498  16.336  -1.449  1.00 20.00     0.017 A 
HETATM    5  C5  UNL     1     -34.526  15.626  -2.775  1.00 20.00     0.023 A 
HETATM    6  C6  UNL     1     -33.260  15.328  -3.523  1.00 20.00     0.125 C 
HETATM    7  C7  UNL     1     -34.916  17.086  -2.695  1.00 20.00    -0.038 A 
HETATM    8  C8  UNL     1     -36.367  17.440  -2.864  1.00 20.00     0.015 C 
ENDROOT
BRANCH   6   9
HETATM    9  O10 UNL     1     -33.163  13.925  -3.746  1.00 20.00    -0.390 OA
HETATM   10  C9  UNL     1     -34.217  13.463  -4.575  1.00 20.00     0.202 C 
ENDBRANCH   6   9
TORSDOF 1
ENDMDL
MODEL 9
REMARK VINA RESULT:      -4.2     11.318     12.699
REMARK  1 active torsions:
REMARK  status: ('A' for Active; 'I' for Inactive)
REMARK    1  A    between atoms: C6_6  and  O10_10 
ROOT
HETATM    1  C1  UNL     1     -34.733  16.402  -3.126  1.00 20.00     0.003 C 
HETATM    2  C2  UNL     1     -36.145  15.836  -2.907  1.00 20.00     0.032 C 
HETATM    3  C3  UNL     1     -33.980  15.789  -4.311  1.00 20.00     0.010 C 
HETATM    4  C4  UNL     1     -34.840  13.635  -5.498  1.00 20.00     0.017 A 
HETATM    5  C5  UNL     1     -35.559  13.794  -4.187  1.00 20.00     0.023 A 
HETATM    6  C6  UNL     1     -36.599  14.858  -3.995  1.00 20.00     0.125 C 
HETATM    7  C7  UNL     1     -34.134  14.284  -4.328  1.00 20.00    -0.038 A 
HETATM    8  C8  UNL     1     -33.049  13.513  -3.630  1.00 20.00     0.015 C 
ENDROOT
BRANCH   6   9
HETATM    9  O10 UNL     1     -37.830  14.251  -3.612  1.00 20.00    -0.390 OA
HETATM   10  C9  UNL     1     -38.905  14.723  -4.408  1.00 20.00     0.202 C 
ENDBRANCH   6   9
TORSDOF 1
ENDMDL
