MODEL 1
REMARK VINA RESULT:      -5.2      0.000      0.000
REMARK  0 active torsions:
REMARK  status: ('A' for Active; 'I' for Inactive)
ROOT
HETATM    1  C1  UNL     1     -34.061  16.706  -5.197  1.00 20.00    -0.082 C 
HETATM    2  C2  UNL     1     -33.666  17.890  -5.690  1.00 20.00     0.015 C 
HETATM    3  C3  UNL     1     -33.196  15.913  -4.245  1.00 20.00     0.038 C 
HETATM    4  C4  UNL     1     -36.166  15.881  -4.214  1.00 20.00     0.018 C 
HETATM    5  C5  UNL     1     -35.320  13.548  -4.230  1.00 20.00     0.173 C 
HETATM    6  C6  UNL     1     -35.421  16.112  -5.531  1.00 20.00     0.043 C 
HETATM    7  C7  UNL     1     -35.393  14.841  -3.398  1.00 20.00     0.014 C 
HETATM    8  C8  UNL     1     -33.980  15.378  -3.026  1.00 20.00    -0.009 C 
HETATM    9  C9  UNL     1     -35.345  14.766  -6.291  1.00 20.00     0.125 C 
HETATM   10  C10 UNL     1     -34.072  16.457  -1.937  1.00 20.00     0.011 C 
HETATM   11  C11 UNL     1     -34.594  14.871  -7.614  1.00 20.00     0.040 C 
HETATM   12  O12 UNL     1     -34.713  13.747  -5.507  1.00 20.00    -0.385 OA
ENDROOT
TORSDOF 0
ENDMDL
MODEL 2
REMARK VINA RESULT:      -5.1      1.345      2.653
REMARK  0 active torsions:
REMARK  status: ('A' for Active; 'I' for Inactive)
ROOT
HETATM    1  C1  UNL     1     -36.298  15.127  -3.930  1.00 20.00    -0.082 C 
HETATM    2  C2  UNL     1     -37.566  14.733  -3.729  1.00 20.00     0.015 C 
HETATM    3  C3  UNL     1     -35.840  16.529  -3.603  1.00 20.00     0.038 C 
HETATM    4  C4  UNL     1     -34.099  14.128  -3.432  1.00 20.00     0.018 C 
HETATM    5  C5  UNL     1     -32.944  15.887  -4.746  1.00 20.00     0.173 C 
HETATM    6  C6  UNL     1     -35.236  14.173  -4.456  1.00 20.00     0.043 C 
HETATM    7  C7  UNL     1     -33.470  15.522  -3.347  1.00 20.00     0.014 C 
HETATM    8  C8  UNL     1     -34.506  16.558  -2.823  1.00 20.00    -0.009 C 
HETATM    9  C9  UNL     1     -34.643  14.590  -5.824  1.00 20.00     0.125 C 
HETATM   10  C10 UNL     1     -34.765  16.366  -1.321  1.00 20.00     0.011 C 
HETATM   11  C11 UNL     1     -35.697  14.696  -6.921  1.00 20.00     0.040 C 
HETATM   12  O12 UNL     1     -33.962  15.848  -5.747  1.00 20.00    -0.385 OA
ENDROOT
TORSDOF 0
ENDMDL
MODEL 3
REMARK VINA RESULT:      -5.0      1.576      3.703
REMARK  0 active torsions:
REMARK  status: ('A' for Active; 'I' for Inactive)
ROOT
HETATM    1  C1  UNL     1     -33.482  15.186  -3.870  1.00 20.00    -0.082 C 
HETATM    2  C2  UNL     1     -32.381  14.493  -3.538  1.00 20.00     0.015 C 
HETATM    3  C3  UNL     1     -33.462  16.240  -4.953  1.00 20.00     0.038 C 
HETATM    4  C4  UNL     1     -35.827  14.562  -4.309  1.00 20.00     0.018 C 
HETATM    5  C5  UNL     1     -36.505  16.948  -4.369  1.00 20.00     0.173 C 
HETATM    6  C6  UNL     1     -34.826  14.921  -3.208  1.00 20.00     0.043 C 
HETATM    7  C7  UNL     1     -35.992  15.777  -5.227  1.00 20.00     0.014 C 
HETATM    8  C8  UNL     1     -34.648  16.115  -5.934  1.00 20.00    -0.009 C 
HETATM    9  C9  UNL     1     -35.383  16.131  -2.419  1.00 20.00     0.125 C 
HETATM   10  C10 UNL     1     -34.328  15.084  -7.026  1.00 20.00     0.011 C 
HETATM   11  C11 UNL     1     -34.449  16.597  -1.307  1.00 20.00     0.040 C 
HETATM   12  O12 UNL     1     -35.640  17.251  -3.274  1.00 20.00    -0.385 OA
ENDROOT
TORSDOF 0
ENDMDL
MODEL 4
REMARK VINA RESULT:      -4.9      1.530      2.691
REMARK  0 active torsions:
REMARK  status: ('A' for Active; 'I' for Inactive)
ROOT
HETATM    1  C1  UNL     1     -33.877  14.816  -3.859  1.00 20.00    -0.082 C 
HETATM    2  C2  UNL     1     -33.071  13.759  -3.671  1.00 20.00     0.015 C 
HETATM    3  C3  UNL     1     -35.190  14.955  -3.123  1.00 20.00     0.038 C 
HETATM    4  C4  UNL     1     -33.506  17.251  -3.970  1.00 20.00     0.018 C 
HETATM    5  C5  UNL     1     -35.842  17.625  -4.720  1.00 20.00     0.173 C 
HETATM    6  C6  UNL     1     -33.498  15.958  -4.789  1.00 20.00     0.043 C 
HETATM    7  C7  UNL     1     -34.936  17.504  -3.482  1.00 20.00     0.014 C 
HETATM    8  C8  UNL     1     -35.398  16.365  -2.528  1.00 20.00    -0.009 C 
HETATM    9  C9  UNL     1     -34.463  16.134  -5.988  1.00 20.00     0.125 C 
HETATM   10  C10 UNL     1     -34.700  16.474  -1.164  1.00 20.00     0.011 C 
HETATM   11  C11 UNL     1     -34.557  14.889  -6.863  1.00 20.00     0.040 C 
HETATM   12  O12 UNL     1     -35.788  16.470  -5.559  1.00 20.00    -0.385 OA
ENDROOT
TORSDOF 0
ENDMDL
MODEL 5
REMARK VINA RESULT:      -4.8      1.565      3.240
REMARK  0 active torsions:
REMARK  status: ('A' for Active; 'I' for Inactive)
ROOT
HETATM    1  C1  UNL     1     -34.444  16.008  -5.767  1.00 20.00    -0.082 C 
HETATM    2  C2  UNL     1     -34.324  15.942  -7.103  1.00 20.00     0.015 C 
HETATM    3  C3  UNL     1     -35.694  15.541  -5.058  1.00 20.00     0.038 C 
HETATM    4  C4  UNL     1     -32.967  15.405  -3.887  1.00 20.00     0.018 C 
HETATM    5  C5  UNL     1     -34.504  16.486  -2.266  1.00 20.00     0.173 C 
HETATM    6  C6  UNL     1     -33.313  16.513  -4.885  1.00 20.00     0.043 C 
HETATM    7  C7  UNL     1     -34.185  15.165  -2.990  1.00 20.00     0.014 C 
HETATM    8  C8  UNL     1     -35.391  14.653  -3.830  1.00 20.00    -0.009 C 
HETATM    9  C9  UNL     1     -33.666  17.793  -4.088  1.00 20.00     0.125 C 
HETATM   10  C10 UNL     1     -35.177  13.197  -4.267  1.00 20.00     0.011 C 
HETATM   11  C11 UNL     1     -34.057  18.962  -4.986  1.00 20.00     0.040 C 
HETATM   12  O12 UNL     1     -34.741  17.567  -3.168  1.00 20.00    -0.385 OA
ENDROOT
TORSDOF 0
ENDMDL
MODEL 6
REMARK VINA RESULT:      -4.8      1.716      3.457
REMARK  0 active torsions:
REMARK  status: ('A' for Active; 'I' for Inactive)
ROOT
HETATM    1  C1  UNL     1     -34.357  16.399  -2.595  1.00 20.00    -0.082 C 
HETATM    2  C2  UNL     1     -34.552  16.442  -1.268  1.00 20.00     0.015 C 
HETATM    3  C3  UNL     1     -33.345  15.467  -3.220  1.00 20.00     0.038 C 
HETATM    4  C4  UNL     1     -35.867  16.312  -4.542  1.00 20.00     0.018 C 
HETATM    5  C5  UNL     1     -33.966  16.665  -6.098  1.00 20.00     0.173 C 
HETATM    6  C6  UNL     1     -35.174  17.252  -3.553  1.00 20.00     0.043 C 
HETATM    7  C7  UNL     1     -34.790  15.594  -5.362  1.00 20.00     0.014 C 
HETATM    8  C8  UNL     1     -33.905  14.704  -4.441  1.00 20.00    -0.009 C 
HETATM    9  C9  UNL     1     -34.329  18.270  -4.359  1.00 20.00     0.125 C 
HETATM   10  C10 UNL     1     -34.671  13.455  -3.982  1.00 20.00     0.011 C 
HETATM   11  C11 UNL     1     -33.566  19.245  -3.469  1.00 20.00     0.040 C 
HETATM   12  O12 UNL     1     -33.379  17.617  -5.210  1.00 20.00    -0.385 OA
ENDROOT
TORSDOF 0
ENDMDL
MODEL 7
REMARK VINA RESULT:      -4.8      1.381      3.876
REMARK  0 active torsions:
REMARK  status: ('A' for Active; 'I' for Inactive)
ROOT
HETATM    1  C1  UNL     1     -36.255  15.050  -4.274  1.00 20.00    -0.082 C 
HETATM    2  C2  UNL     1     -37.482  14.677  -3.876  1.00 20.00     0.015 C 
HETATM    3  C3  UNL     1     -35.295  14.073  -4.913  1.00 20.00     0.038 C 
HETATM    4  C4  UNL     1     -35.382  16.974  -5.544  1.00 20.00     0.018 C 
HETATM    5  C5  UNL     1     -33.044  16.314  -5.038  1.00 20.00     0.173 C 
HETATM    6  C6  UNL     1     -35.774  16.487  -4.147  1.00 20.00     0.043 C 
HETATM    7  C7  UNL     1     -34.201  16.131  -6.036  1.00 20.00     0.014 C 
HETATM    8  C8  UNL     1     -34.619  14.639  -6.181  1.00 20.00    -0.009 C 
HETATM    9  C9  UNL     1     -34.552  16.657  -3.211  1.00 20.00     0.125 C 
HETATM   10  C10 UNL     1     -35.528  14.439  -7.402  1.00 20.00     0.011 C 
HETATM   11  C11 UNL     1     -34.820  16.174  -1.790  1.00 20.00     0.040 C 
HETATM   12  O12 UNL     1     -33.404  15.956  -3.704  1.00 20.00    -0.385 OA
ENDROOT
TORSDOF 0
ENDMDL
MODEL 8
REMARK VINA RESULT:      -4.7      1.678      2.386
REMARK  0 active torsions:
REMARK  status: ('A' for Active; 'I' for Inactive)
ROOT
HETATM    1  C1  UNL     1     -35.251  17.915  -3.650  1.00 20.00    -0.082 C 
HETATM    2  C2  UNL     1     -36.192  18.869  -3.737  1.00 20.00     0.015 C 
HETATM    3  C3  UNL     1     -34.065  18.050  -2.723  1.00 20.00     0.038 C 
HETATM    4  C4  UNL     1     -35.321  15.459  -3.451  1.00 20.00     0.018 C 
HETATM    5  C5  UNL     1     -32.869  15.309  -3.798  1.00 20.00     0.173 C 
HETATM    6  C6  UNL     1     -35.345  16.622  -4.446  1.00 20.00     0.043 C 
HETATM    7  C7  UNL     1     -33.968  15.465  -2.733  1.00 20.00     0.014 C 
HETATM    8  C8  UNL     1     -33.797  16.770  -1.902  1.00 20.00    -0.009 C 
HETATM    9  C9  UNL     1     -34.188  16.424  -5.455  1.00 20.00     0.125 C 
HETATM   10  C10 UNL     1     -34.686  16.745  -0.650  1.00 20.00     0.011 C 
HETATM   11  C11 UNL     1     -34.097  17.547  -6.483  1.00 20.00     0.040 C 
HETATM   12  O12 UNL     1     -32.919  16.328  -4.798  1.00 20.00    -0.385 OA
ENDROOT
TORSDOF 0
ENDMDL
MODEL 9
REMARK VINA RESULT:      -4.7      1.758      3.217
REMARK  0 active torsions:
REMARK  status: ('A' for Active; 'I' for Inactive)
ROOT
HETATM    1  C1  UNL     1     -34.803  16.219  -2.445  1.00 20.00    -0.082 C 
HETATM    2  C2  UNL     1     -34.636  16.428  -1.130  1.00 20.00     0.015 C 
HETATM    3  C3  UNL     1     -33.628  16.087  -3.385  1.00 20.00     0.038 C 
HETATM    4  C4  UNL     1     -36.226  14.699  -3.766  1.00 20.00     0.018 C 
HETATM    5  C5  UNL     1     -35.597  15.854  -5.870  1.00 20.00     0.173 C 
HETATM    6  C6  UNL     1     -36.185  16.057  -3.061  1.00 20.00     0.043 C 
HETATM    7  C7  UNL     1     -35.207  14.717  -4.909  1.00 20.00     0.014 C 
HETATM    8  C8  UNL     1     -33.764  14.890  -4.352  1.00 20.00    -0.009 C 
HETATM    9  C9  UNL     1     -36.540  17.154  -4.095  1.00 20.00     0.125 C 
HETATM   10  C10 UNL     1     -33.279  13.601  -3.674  1.00 20.00     0.011 C 
HETATM   11  C11 UNL     1     -36.502  18.560  -3.506  1.00 20.00     0.040 C 
HETATM   12  O12 UNL     1     -35.659  17.126  -5.224  1.00 20.00    -0.385 OA
ENDROOT
TORSDOF 0
ENDMDL
