MODEL 1
REMARK VINA RESULT:      -5.0      0.000      0.000
REMARK  0 active torsions:
REMARK  status: ('A' for Active; 'I' for Inactive)
ROOT
HETATM    1  C1  UNL     1     -33.967  16.033  -6.140  1.00 20.00    -0.029 C 
HETATM    2  C2  UNL     1     -33.552  15.839  -4.878  1.00 20.00    -0.014 C 
HETATM    3  C3  UNL     1     -35.161  13.943  -4.300  1.00 20.00     0.143 C 
HETATM    4  C4  UNL     1     -35.097  15.376  -6.880  1.00 20.00     0.032 C 
HETATM    5  C5  UNL     1     -36.806  15.962  -4.985  1.00 20.00     0.018 A 
HETATM    6  C6  UNL     1     -36.441  14.514  -4.799  1.00 20.00     0.061 A 
HETATM    7  C7  UNL     1     -36.401  15.139  -6.173  1.00 20.00     0.001 A 
HETATM    8  C8  UNL     1     -34.029  14.863  -3.822  1.00 20.00     0.031 C 
HETATM    9  C9  UNL     1     -32.812  13.980  -3.458  1.00 20.00     0.027 C 
HETATM   10  C10 UNL     1     -34.465  15.591  -2.541  1.00 20.00     0.027 C 
HETATM   11  O11 UNL     1     -35.054  12.718  -4.303  1.00 20.00    -0.296 OA
ENDROOT
TORSDOF 0
ENDMDL
MODEL 2
REMARK VINA RESULT:      -4.9      1.601      2.563
REMARK  0 active torsions:
REMARK  status: ('A' for Active; 'I' for Inactive)
ROOT
HETATM    1  C1  UNL     1     -33.382  13.766  -3.859  1.00 20.00    -0.029 C 
HETATM    2  C2  UNL     1     -33.331  14.955  -3.238  1.00 20.00    -0.014 C 
HETATM    3  C3  UNL     1     -35.648  15.777  -3.926  1.00 20.00     0.143 C 
HETATM    4  C4  UNL     1     -34.455  13.204  -4.747  1.00 20.00     0.032 C 
HETATM    5  C5  UNL     1     -34.427  15.324  -6.283  1.00 20.00     0.018 A 
HETATM    6  C6  UNL     1     -35.623  15.465  -5.381  1.00 20.00     0.061 A 
HETATM    7  C7  UNL     1     -35.113  14.096  -5.760  1.00 20.00     0.001 A 
HETATM    8  C8  UNL     1     -34.346  16.077  -3.169  1.00 20.00     0.031 C 
HETATM    9  C9  UNL     1     -34.692  16.265  -1.673  1.00 20.00     0.027 C 
HETATM   10  C10 UNL     1     -33.754  17.403  -3.673  1.00 20.00     0.027 C 
HETATM   11  O11 UNL     1     -36.743  15.767  -3.368  1.00 20.00    -0.296 OA
ENDROOT
TORSDOF 0
ENDMDL
MODEL 3
REMARK VINA RESULT:      -4.7      1.697      3.542
REMARK  0 active torsions:
REMARK  status: ('A' for Active; 'I' for Inactive)
ROOT
HETATM    1  C1  UNL     1     -33.861  13.364  -4.224  1.00 20.00    -0.029 C 
HETATM    2  C2  UNL     1     -34.847  13.575  -5.111  1.00 20.00    -0.014 C 
HETATM    3  C3  UNL     1     -34.510  16.092  -5.373  1.00 20.00     0.143 C 
HETATM    4  C4  UNL     1     -32.953  14.359  -3.560  1.00 20.00     0.032 C 
HETATM    5  C5  UNL     1     -34.977  15.802  -2.737  1.00 20.00     0.018 A 
HETATM    6  C6  UNL     1     -34.416  16.501  -3.946  1.00 20.00     0.061 A 
HETATM    7  C7  UNL     1     -33.520  15.660  -3.069  1.00 20.00     0.001 A 
HETATM    8  C8  UNL     1     -35.317  14.851  -5.779  1.00 20.00     0.031 C 
HETATM    9  C9  UNL     1     -35.145  14.639  -7.301  1.00 20.00     0.027 C 
HETATM   10  C10 UNL     1     -36.811  15.102  -5.518  1.00 20.00     0.027 C 
HETATM   11  O11 UNL     1     -33.907  16.779  -6.195  1.00 20.00    -0.296 OA
ENDROOT
TORSDOF 0
ENDMDL
MODEL 4
REMARK VINA RESULT:      -4.7     11.366     12.683
REMARK  0 active torsions:
REMARK  status: ('A' for Active; 'I' for Inactive)
ROOT
HETATM    1  C1  UNL     1     -40.552   5.798  -0.392  1.00 20.00    -0.029 C 
HETATM    2  C2  UNL     1     -41.117   4.615  -0.682  1.00 20.00    -0.014 C 
HETATM    3  C3  UNL     1     -42.871   5.488  -2.319  1.00 20.00     0.143 C 
HETATM    4  C4  UNL     1     -40.947   7.174  -0.846  1.00 20.00     0.032 C 
HETATM    5  C5  UNL     1     -43.417   6.833  -0.050  1.00 20.00     0.018 A 
HETATM    6  C6  UNL     1     -43.417   6.635  -1.542  1.00 20.00     0.061 A 
HETATM    7  C7  UNL     1     -42.401   7.545  -0.895  1.00 20.00     0.001 A 
HETATM    8  C8  UNL     1     -42.273   4.271  -1.599  1.00 20.00     0.031 C 
HETATM    9  C9  UNL     1     -41.712   3.306  -2.669  1.00 20.00     0.027 C 
HETATM   10  C10 UNL     1     -43.384   3.524  -0.845  1.00 20.00     0.027 C 
HETATM   11  O11 UNL     1     -42.910   5.571  -3.544  1.00 20.00    -0.296 OA
ENDROOT
TORSDOF 0
ENDMDL
MODEL 5
REMARK VINA RESULT:      -4.7      1.432      3.373
REMARK  0 active torsions:
REMARK  status: ('A' for Active; 'I' for Inactive)
ROOT
HETATM    1  C1  UNL     1     -33.170  16.148  -4.414  1.00 20.00    -0.029 C 
HETATM    2  C2  UNL     1     -33.627  16.264  -5.671  1.00 20.00    -0.014 C 
HETATM    3  C3  UNL     1     -35.896  15.157  -5.291  1.00 20.00     0.143 C 
HETATM    4  C4  UNL     1     -33.805  15.475  -3.232  1.00 20.00     0.032 C 
HETATM    5  C5  UNL     1     -34.144  13.245  -4.561  1.00 20.00     0.018 A 
HETATM    6  C6  UNL     1     -35.479  13.940  -4.542  1.00 20.00     0.061 A 
HETATM    7  C7  UNL     1     -34.494  14.154  -3.419  1.00 20.00     0.001 A 
HETATM    8  C8  UNL     1     -34.939  15.826  -6.288  1.00 20.00     0.031 C 
HETATM    9  C9  UNL     1     -35.621  17.106  -6.826  1.00 20.00     0.027 C 
HETATM   10  C10 UNL     1     -34.711  14.891  -7.487  1.00 20.00     0.027 C 
HETATM   11  O11 UNL     1     -37.020  15.599  -5.064  1.00 20.00    -0.296 OA
ENDROOT
TORSDOF 0
ENDMDL
MODEL 6
REMARK VINA RESULT:      -4.7      2.243      3.908
REMARK  0 active torsions:
REMARK  status: ('A' for Active; 'I' for Inactive)
ROOT
HETATM    1  C1  UNL     1     -34.545  16.567  -1.228  1.00 20.00    -0.029 C 
HETATM    2  C2  UNL     1     -35.007  15.661  -2.104  1.00 20.00    -0.014 C 
HETATM    3  C3  UNL     1     -33.638  16.430  -4.116  1.00 20.00     0.143 C 
HETATM    4  C4  UNL     1     -33.598  17.710  -1.456  1.00 20.00     0.032 C 
HETATM    5  C5  UNL     1     -35.036  18.631  -3.441  1.00 20.00     0.018 A 
HETATM    6  C6  UNL     1     -33.874  17.898  -4.057  1.00 20.00     0.061 A 
HETATM    7  C7  UNL     1     -33.734  18.542  -2.699  1.00 20.00     0.001 A 
HETATM    8  C8  UNL     1     -34.682  15.448  -3.568  1.00 20.00     0.031 C 
HETATM    9  C9  UNL     1     -34.107  14.017  -3.687  1.00 20.00     0.027 C 
HETATM   10  C10 UNL     1     -35.948  15.507  -4.438  1.00 20.00     0.027 C 
HETATM   11  O11 UNL     1     -32.575  16.052  -4.604  1.00 20.00    -0.296 OA
ENDROOT
TORSDOF 0
ENDMDL
MODEL 7
REMARK VINA RESULT:      -4.6      1.598      2.920
REMARK  0 active torsions:
REMARK  status: ('A' for Active; 'I' for Inactive)
ROOT
HETATM    1  C1  UNL     1     -33.732  17.253  -4.855  1.00 20.00    -0.029 C 
HETATM    2  C2  UNL     1     -33.532  15.934  -5.010  1.00 20.00    -0.014 C 
HETATM    3  C3  UNL     1     -35.358  15.141  -3.412  1.00 20.00     0.143 C 
HETATM    4  C4  UNL     1     -34.682  17.966  -3.936  1.00 20.00     0.032 C 
HETATM    5  C5  UNL     1     -33.786  16.667  -1.846  1.00 20.00     0.018 A 
HETATM    6  C6  UNL     1     -35.083  16.010  -2.236  1.00 20.00     0.061 A 
HETATM    7  C7  UNL     1     -34.854  17.473  -2.528  1.00 20.00     0.001 A 
HETATM    8  C8  UNL     1     -34.228  14.748  -4.375  1.00 20.00     0.031 C 
HETATM    9  C9  UNL     1     -34.845  13.929  -5.533  1.00 20.00     0.027 C 
HETATM   10  C10 UNL     1     -33.229  13.834  -3.649  1.00 20.00     0.027 C 
HETATM   11  O11 UNL     1     -36.518  14.772  -3.579  1.00 20.00    -0.296 OA
ENDROOT
TORSDOF 0
ENDMDL
MODEL 8
REMARK VINA RESULT:      -4.6      1.656      2.705
REMARK  0 active torsions:
REMARK  status: ('A' for Active; 'I' for Inactive)
ROOT
HETATM    1  C1  UNL     1     -36.716  15.587  -4.528  1.00 20.00    -0.029 C 
HETATM    2  C2  UNL     1     -35.743  15.122  -3.729  1.00 20.00    -0.014 C 
HETATM    3  C3  UNL     1     -33.766  15.935  -5.125  1.00 20.00     0.143 C 
HETATM    4  C4  UNL     1     -36.605  16.271  -5.860  1.00 20.00     0.032 C 
HETATM    5  C5  UNL     1     -35.116  14.349  -6.831  1.00 20.00     0.018 A 
HETATM    6  C6  UNL     1     -34.183  15.476  -6.477  1.00 20.00     0.061 A 
HETATM    7  C7  UNL     1     -35.613  15.765  -6.867  1.00 20.00     0.001 A 
HETATM    8  C8  UNL     1     -34.236  15.191  -3.867  1.00 20.00     0.031 C 
HETATM    9  C9  UNL     1     -33.717  15.961  -2.629  1.00 20.00     0.027 C 
HETATM   10  C10 UNL     1     -33.604  13.790  -3.833  1.00 20.00     0.027 C 
HETATM   11  O11 UNL     1     -33.050  16.933  -5.067  1.00 20.00    -0.296 OA
ENDROOT
TORSDOF 0
ENDMDL
MODEL 9
REMARK VINA RESULT:      -4.6      1.604      2.802
REMARK  0 active torsions:
REMARK  status: ('A' for Active; 'I' for Inactive)
ROOT
HETATM    1  C1  UNL     1     -33.042  15.005  -3.498  1.00 20.00    -0.029 C 
HETATM    2  C2  UNL     1     -33.720  16.160  -3.417  1.00 20.00    -0.014 C 
HETATM    3  C3  UNL     1     -36.038  15.208  -3.909  1.00 20.00     0.143 C 
HETATM    4  C4  UNL     1     -33.539  13.636  -3.868  1.00 20.00     0.032 C 
HETATM    5  C5  UNL     1     -34.611  14.520  -6.087  1.00 20.00     0.018 A 
HETATM    6  C6  UNL     1     -35.736  14.367  -5.099  1.00 20.00     0.061 A 
HETATM    7  C7  UNL     1     -34.513  13.488  -5.001  1.00 20.00     0.001 A 
HETATM    8  C8  UNL     1     -35.195  16.454  -3.599  1.00 20.00     0.031 C 
HETATM    9  C9  UNL     1     -35.693  17.051  -2.262  1.00 20.00     0.027 C 
HETATM   10  C10 UNL     1     -35.427  17.514  -4.688  1.00 20.00     0.027 C 
HETATM   11  O11 UNL     1     -36.970  14.852  -3.192  1.00 20.00    -0.296 OA
ENDROOT
TORSDOF 0
ENDMDL
