MODEL 1
REMARK VINA RESULT:      -5.7      0.000      0.000
REMARK  1 active torsions:
REMARK  status: ('A' for Active; 'I' for Inactive)
REMARK    1  A    between atoms: C6_6  and  O8_8 
ROOT
HETATM    1  C1  UNL     1     -33.783   6.420   6.149  1.00 20.00    -0.023 C 
HETATM    2  C2  UNL     1     -34.724   5.479   6.347  1.00 20.00     0.001 C 
HETATM    3  C3  UNL     1     -32.588   6.690   3.716  1.00 20.00     0.009 C 
HETATM    4  C4  UNL     1     -33.565   5.845   2.797  1.00 20.00     0.009 C 
HETATM    5  C5  UNL     1     -33.745   6.651   4.705  1.00 20.00     0.015 C 
HETATM    6  C6  UNL     1     -35.215   4.904   5.024  1.00 20.00     0.145 C 
HETATM    7  C7  UNL     1     -34.003   5.195   4.142  1.00 20.00     0.026 C 
ENDROOT
BRANCH   6   8
HETATM    8  O8  UNL     1     -35.406   3.505   5.138  1.00 20.00    -0.391 OA
HETATM    9  H18 UNL     1     -34.716   3.079   4.601  1.00 20.00     0.210 HD
ENDBRANCH   6   8
TORSDOF 1
ENDMDL
MODEL 2
REMARK VINA RESULT:      -5.1      1.915      3.341
REMARK  1 active torsions:
REMARK  status: ('A' for Active; 'I' for Inactive)
REMARK    1  A    between atoms: C6_6  and  O8_8 
ROOT
HETATM    1  C1  UNL     1     -34.839   4.770   3.750  1.00 20.00    -0.023 C 
HETATM    2  C2  UNL     1     -34.060   5.465   2.902  1.00 20.00     0.001 C 
HETATM    3  C3  UNL     1     -34.734   5.249   6.431  1.00 20.00     0.009 C 
HETATM    4  C4  UNL     1     -33.964   6.633   6.466  1.00 20.00     0.009 C 
HETATM    5  C5  UNL     1     -34.942   5.586   4.960  1.00 20.00     0.015 C 
HETATM    6  C6  UNL     1     -33.454   6.685   3.584  1.00 20.00     0.145 C 
HETATM    7  C7  UNL     1     -33.495   6.224   5.039  1.00 20.00     0.026 C 
ENDROOT
BRANCH   6   8
HETATM    8  O8  UNL     1     -32.110   6.861   3.171  1.00 20.00    -0.391 OA
HETATM    9  H18 UNL     1     -32.014   7.791   2.908  1.00 20.00     0.210 HD
ENDBRANCH   6   8
TORSDOF 1
ENDMDL
MODEL 3
REMARK VINA RESULT:      -5.1      1.629      2.298
REMARK  1 active torsions:
REMARK  status: ('A' for Active; 'I' for Inactive)
REMARK    1  A    between atoms: C6_6  and  O8_8 
ROOT
HETATM    1  C1  UNL     1     -35.230   4.596   5.164  1.00 20.00    -0.023 C 
HETATM    2  C2  UNL     1     -34.909   5.189   6.327  1.00 20.00     0.001 C 
HETATM    3  C3  UNL     1     -34.201   5.515   2.814  1.00 20.00     0.009 C 
HETATM    4  C4  UNL     1     -33.025   6.442   3.334  1.00 20.00     0.009 C 
HETATM    5  C5  UNL     1     -34.162   4.948   4.227  1.00 20.00     0.015 C 
HETATM    6  C6  UNL     1     -33.715   6.120   6.160  1.00 20.00     0.145 C 
HETATM    7  C7  UNL     1     -33.825   6.429   4.670  1.00 20.00     0.026 C 
ENDROOT
BRANCH   6   8
HETATM    8  O8  UNL     1     -33.907   7.304   6.915  1.00 20.00    -0.391 OA
HETATM    9  H18 UNL     1     -34.716   7.178   7.440  1.00 20.00     0.210 HD
ENDBRANCH   6   8
TORSDOF 1
ENDMDL
MODEL 4
REMARK VINA RESULT:      -4.7      1.882      3.255
REMARK  1 active torsions:
REMARK  status: ('A' for Active; 'I' for Inactive)
REMARK    1  A    between atoms: C6_6  and  O8_8 
ROOT
HETATM    1  C1  UNL     1     -33.773   5.851   3.802  1.00 20.00    -0.023 C 
HETATM    2  C2  UNL     1     -33.345   6.906   4.518  1.00 20.00     0.001 C 
HETATM    3  C3  UNL     1     -34.973   3.738   5.035  1.00 20.00     0.009 C 
HETATM    4  C4  UNL     1     -35.297   4.355   6.459  1.00 20.00     0.009 C 
HETATM    5  C5  UNL     1     -34.789   5.193   4.625  1.00 20.00     0.015 C 
HETATM    6  C6  UNL     1     -33.919   6.883   5.929  1.00 20.00     0.145 C 
HETATM    7  C7  UNL     1     -34.196   5.389   6.079  1.00 20.00     0.026 C 
ENDROOT
BRANCH   6   8
HETATM    8  O8  UNL     1     -32.935   7.288   6.865  1.00 20.00    -0.391 OA
HETATM    9  H18 UNL     1     -32.154   6.729   6.716  1.00 20.00     0.210 HD
ENDBRANCH   6   8
TORSDOF 1
ENDMDL
MODEL 5
REMARK VINA RESULT:      -4.4      1.766      2.870
REMARK  1 active torsions:
REMARK  status: ('A' for Active; 'I' for Inactive)
REMARK    1  A    between atoms: C6_6  and  O8_8 
ROOT
HETATM    1  C1  UNL     1     -33.930   6.637   6.486  1.00 20.00    -0.023 C 
HETATM    2  C2  UNL     1     -33.281   7.131   5.416  1.00 20.00     0.001 C 
HETATM    3  C3  UNL     1     -35.412   4.360   6.275  1.00 20.00     0.009 C 
HETATM    4  C4  UNL     1     -34.900   3.787   4.888  1.00 20.00     0.009 C 
HETATM    5  C5  UNL     1     -34.157   5.220   6.198  1.00 20.00     0.015 C 
HETATM    6  C6  UNL     1     -33.221   6.109   4.288  1.00 20.00     0.145 C 
HETATM    7  C7  UNL     1     -34.435   5.253   4.641  1.00 20.00     0.026 C 
ENDROOT
BRANCH   6   8
HETATM    8  O8  UNL     1     -33.424   6.745   3.039  1.00 20.00    -0.391 OA
HETATM    9  H18 UNL     1     -33.419   6.048   2.361  1.00 20.00     0.210 HD
ENDBRANCH   6   8
TORSDOF 1
ENDMDL
MODEL 6
REMARK VINA RESULT:      -4.2     12.312     13.390
REMARK  1 active torsions:
REMARK  status: ('A' for Active; 'I' for Inactive)
REMARK    1  A    between atoms: C6_6  and  O8_8 
ROOT
HETATM    1  C1  UNL     1     -33.620  15.452  -4.296  1.00 20.00    -0.023 C 
HETATM    2  C2  UNL     1     -34.206  14.518  -3.526  1.00 20.00     0.001 C 
HETATM    3  C3  UNL     1     -34.137  15.564  -6.969  1.00 20.00     0.009 C 
HETATM    4  C4  UNL     1     -35.426  14.648  -7.072  1.00 20.00     0.009 C 
HETATM    5  C5  UNL     1     -34.467  15.583  -5.482  1.00 20.00     0.015 C 
HETATM    6  C6  UNL     1     -35.363  13.848  -4.257  1.00 20.00     0.145 C 
HETATM    7  C7  UNL     1     -34.938  14.089  -5.703  1.00 20.00     0.026 C 
ENDROOT
BRANCH   6   8
HETATM    8  O8  UNL     1     -35.378  12.459  -3.981  1.00 20.00    -0.391 OA
HETATM    9  H18 UNL     1     -34.709  12.298  -3.294  1.00 20.00     0.210 HD
ENDBRANCH   6   8
TORSDOF 1
ENDMDL
MODEL 7
REMARK VINA RESULT:      -4.2     12.123     12.606
REMARK  1 active torsions:
REMARK  status: ('A' for Active; 'I' for Inactive)
REMARK    1  A    between atoms: C6_6  and  O8_8 
ROOT
HETATM    1  C1  UNL     1     -36.286  15.739  -3.191  1.00 20.00    -0.023 C 
HETATM    2  C2  UNL     1     -36.587  14.584  -3.810  1.00 20.00     0.001 C 
HETATM    3  C3  UNL     1     -33.701  16.345  -2.578  1.00 20.00     0.009 C 
HETATM    4  C4  UNL     1     -32.918  15.290  -3.465  1.00 20.00     0.009 C 
HETATM    5  C5  UNL     1     -34.875  15.993  -3.483  1.00 20.00     0.015 C 
HETATM    6  C6  UNL     1     -35.339  13.921  -4.379  1.00 20.00     0.145 C 
HETATM    7  C7  UNL     1     -34.277  14.528  -3.467  1.00 20.00     0.026 C 
ENDROOT
BRANCH   6   8
HETATM    8  O8  UNL     1     -35.398  12.519  -4.186  1.00 20.00    -0.391 OA
HETATM    9  H18 UNL     1     -35.755  12.369  -3.295  1.00 20.00     0.210 HD
ENDBRANCH   6   8
TORSDOF 1
ENDMDL
MODEL 8
REMARK VINA RESULT:      -4.1     11.997     12.462
REMARK  1 active torsions:
REMARK  status: ('A' for Active; 'I' for Inactive)
REMARK    1  A    between atoms: C6_6  and  O8_8 
ROOT
HETATM    1  C1  UNL     1     -34.176  15.884  -2.419  1.00 20.00    -0.023 C 
HETATM    2  C2  UNL     1     -35.490  16.173  -2.441  1.00 20.00     0.001 C 
HETATM    3  C3  UNL     1     -33.218  13.709  -3.752  1.00 20.00     0.009 C 
HETATM    4  C4  UNL     1     -34.447  13.355  -4.688  1.00 20.00     0.009 C 
HETATM    5  C5  UNL     1     -33.931  15.045  -3.593  1.00 20.00     0.015 C 
HETATM    6  C6  UNL     1     -36.211  15.379  -3.522  1.00 20.00     0.145 C 
HETATM    7  C7  UNL     1     -35.262  14.191  -3.658  1.00 20.00     0.026 C 
ENDROOT
BRANCH   6   8
HETATM    8  O8  UNL     1     -37.472  14.940  -3.050  1.00 20.00    -0.391 OA
HETATM    9  H18 UNL     1     -37.867  14.400  -3.755  1.00 20.00     0.210 HD
ENDBRANCH   6   8
TORSDOF 1
ENDMDL
MODEL 9
REMARK VINA RESULT:      -4.1     12.625     13.328
REMARK  1 active torsions:
REMARK  status: ('A' for Active; 'I' for Inactive)
REMARK    1  A    between atoms: C6_6  and  O8_8 
ROOT
HETATM    1  C1  UNL     1     -35.479  15.072  -3.135  1.00 20.00    -0.023 C 
HETATM    2  C2  UNL     1     -34.683  15.063  -4.219  1.00 20.00     0.001 C 
HETATM    3  C3  UNL     1     -34.769  16.478  -0.911  1.00 20.00     0.009 C 
HETATM    4  C4  UNL     1     -33.615  17.400  -1.485  1.00 20.00     0.009 C 
HETATM    5  C5  UNL     1     -35.114  16.272  -2.381  1.00 20.00     0.015 C 
HETATM    6  C6  UNL     1     -33.621  16.152  -4.133  1.00 20.00     0.145 C 
HETATM    7  C7  UNL     1     -33.551  16.335  -2.619  1.00 20.00     0.026 C 
ENDROOT
BRANCH   6   8
HETATM    8  O8  UNL     1     -32.381  15.668  -4.619  1.00 20.00    -0.391 OA
HETATM    9  H18 UNL     1     -32.114  16.253  -5.348  1.00 20.00     0.210 HD
ENDBRANCH   6   8
TORSDOF 1
ENDMDL
