MODEL 1
REMARK VINA RESULT:      -5.3      0.000      0.000
REMARK  0 active torsions:
REMARK  status: ('A' for Active; 'I' for Inactive)
ROOT
HETATM    1  C1  UNL     1     -33.833  16.273  -6.221  1.00 20.00    -0.030 C 
HETATM    2  C2  UNL     1     -33.720  17.327  -5.406  1.00 20.00    -0.030 C 
HETATM    3  C3  UNL     1     -36.750  14.649  -3.844  1.00 20.00     0.128 C 
HETATM    4  C4  UNL     1     -34.362  14.946  -5.778  1.00 20.00     0.037 C 
HETATM    5  C5  UNL     1     -34.088  17.297  -3.957  1.00 20.00     0.037 C 
HETATM    6  C6  UNL     1     -35.546  13.738  -3.912  1.00 20.00     0.088 C 
HETATM    7  C7  UNL     1     -36.366  16.111  -3.800  1.00 20.00     0.088 C 
HETATM    8  C8  UNL     1     -34.411  14.736  -4.230  1.00 20.00    -0.026 C 
HETATM    9  C9  UNL     1     -34.853  16.040  -3.479  1.00 20.00    -0.026 C 
HETATM   10  C10 UNL     1     -33.057  14.186  -3.755  1.00 20.00     0.016 C 
HETATM   11  C11 UNL     1     -34.691  15.960  -1.941  1.00 20.00     0.016 C 
HETATM   12  O12 UNL     1     -37.907  14.249  -3.827  1.00 20.00    -0.298 OA
ENDROOT
TORSDOF 0
ENDMDL
MODEL 2
REMARK VINA RESULT:      -5.3      1.516      2.266
REMARK  0 active torsions:
REMARK  status: ('A' for Active; 'I' for Inactive)
ROOT
HETATM    1  C1  UNL     1     -33.505  17.364  -5.022  1.00 20.00    -0.030 C 
HETATM    2  C2  UNL     1     -34.740  17.795  -5.299  1.00 20.00    -0.030 C 
HETATM    3  C3  UNL     1     -34.849  13.509  -4.661  1.00 20.00     0.128 C 
HETATM    4  C4  UNL     1     -33.226  16.105  -4.263  1.00 20.00     0.037 C 
HETATM    5  C5  UNL     1     -35.983  17.084  -4.868  1.00 20.00     0.037 C 
HETATM    6  C6  UNL     1     -34.260  13.995  -3.357  1.00 20.00     0.088 C 
HETATM    7  C7  UNL     1     -35.621  14.590  -5.384  1.00 20.00     0.088 C 
HETATM    8  C8  UNL     1     -34.445  15.524  -3.476  1.00 20.00    -0.026 C 
HETATM    9  C9  UNL     1     -35.781  15.666  -4.283  1.00 20.00    -0.026 C 
HETATM   10  C10 UNL     1     -34.499  16.173  -2.084  1.00 20.00     0.016 C 
HETATM   11  C11 UNL     1     -37.048  15.325  -3.459  1.00 20.00     0.016 C 
HETATM   12  O12 UNL     1     -34.716  12.368  -5.086  1.00 20.00    -0.298 OA
ENDROOT
TORSDOF 0
ENDMDL
MODEL 3
REMARK VINA RESULT:      -5.1      1.763      3.404
REMARK  0 active torsions:
REMARK  status: ('A' for Active; 'I' for Inactive)
ROOT
HETATM    1  C1  UNL     1     -34.180  17.474  -1.334  1.00 20.00    -0.030 C 
HETATM    2  C2  UNL     1     -33.669  18.276  -2.273  1.00 20.00    -0.030 C 
HETATM    3  C3  UNL     1     -33.626  14.192  -3.724  1.00 20.00     0.128 C 
HETATM    4  C4  UNL     1     -34.793  16.143  -1.634  1.00 20.00     0.037 C 
HETATM    5  C5  UNL     1     -33.668  17.948  -3.732  1.00 20.00     0.037 C 
HETATM    6  C6  UNL     1     -35.093  14.389  -3.417  1.00 20.00     0.088 C 
HETATM    7  C7  UNL     1     -32.899  15.501  -3.934  1.00 20.00     0.088 C 
HETATM    8  C8  UNL     1     -35.156  15.907  -3.136  1.00 20.00    -0.026 C 
HETATM    9  C9  UNL     1     -34.071  16.500  -4.099  1.00 20.00    -0.026 C 
HETATM   10  C10 UNL     1     -36.570  16.448  -3.401  1.00 20.00     0.016 C 
HETATM   11  C11 UNL     1     -34.492  16.504  -5.590  1.00 20.00     0.016 C 
HETATM   12  O12 UNL     1     -33.087  13.095  -3.793  1.00 20.00    -0.298 OA
ENDROOT
TORSDOF 0
ENDMDL
MODEL 4
REMARK VINA RESULT:      -5.0      1.574      2.838
REMARK  0 active torsions:
REMARK  status: ('A' for Active; 'I' for Inactive)
ROOT
HETATM    1  C1  UNL     1     -36.154  17.036  -3.301  1.00 20.00    -0.030 C 
HETATM    2  C2  UNL     1     -35.357  16.911  -2.235  1.00 20.00    -0.030 C 
HETATM    3  C3  UNL     1     -34.653  13.585  -4.924  1.00 20.00     0.128 C 
HETATM    4  C4  UNL     1     -35.854  16.414  -4.628  1.00 20.00     0.037 C 
HETATM    5  C5  UNL     1     -34.066  16.156  -2.249  1.00 20.00     0.037 C 
HETATM    6  C6  UNL     1     -34.370  14.767  -5.823  1.00 20.00     0.088 C 
HETATM    7  C7  UNL     1     -34.528  13.932  -3.458  1.00 20.00     0.088 C 
HETATM    8  C8  UNL     1     -34.377  15.939  -4.816  1.00 20.00    -0.026 C 
HETATM    9  C9  UNL     1     -33.799  15.297  -3.508  1.00 20.00    -0.026 C 
HETATM   10  C10 UNL     1     -33.536  17.112  -5.345  1.00 20.00     0.016 C 
HETATM   11  C11 UNL     1     -32.275  15.026  -3.565  1.00 20.00     0.016 C 
HETATM   12  O12 UNL     1     -34.951  12.472  -5.337  1.00 20.00    -0.298 OA
ENDROOT
TORSDOF 0
ENDMDL
MODEL 5
REMARK VINA RESULT:      -5.0      1.996      3.055
REMARK  0 active torsions:
REMARK  status: ('A' for Active; 'I' for Inactive)
ROOT
HETATM    1  C1  UNL     1     -35.315  15.280  -7.460  1.00 20.00    -0.030 C 
HETATM    2  C2  UNL     1     -36.554  15.065  -7.007  1.00 20.00    -0.030 C 
HETATM    3  C3  UNL     1     -33.707  13.821  -3.985  1.00 20.00     0.128 C 
HETATM    4  C4  UNL     1     -34.133  15.466  -6.563  1.00 20.00     0.037 C 
HETATM    5  C5  UNL     1     -36.907  15.006  -5.555  1.00 20.00     0.037 C 
HETATM    6  C6  UNL     1     -33.321  15.269  -4.187  1.00 20.00     0.088 C 
HETATM    7  C7  UNL     1     -35.125  13.534  -4.425  1.00 20.00     0.088 C 
HETATM    8  C8  UNL     1     -34.478  15.784  -5.072  1.00 20.00    -0.026 C 
HETATM    9  C9  UNL     1     -35.713  14.959  -4.571  1.00 20.00    -0.026 C 
HETATM   10  C10 UNL     1     -34.650  17.302  -4.910  1.00 20.00     0.016 C 
HETATM   11  C11 UNL     1     -36.243  15.405  -3.185  1.00 20.00     0.016 C 
HETATM   12  O12 UNL     1     -32.954  12.975  -3.519  1.00 20.00    -0.298 OA
ENDROOT
TORSDOF 0
ENDMDL
MODEL 6
REMARK VINA RESULT:      -5.0      1.504      2.659
REMARK  0 active torsions:
REMARK  status: ('A' for Active; 'I' for Inactive)
ROOT
HETATM    1  C1  UNL     1     -35.008  13.368  -5.112  1.00 20.00    -0.030 C 
HETATM    2  C2  UNL     1     -34.841  14.095  -6.222  1.00 20.00    -0.030 C 
HETATM    3  C3  UNL     1     -35.624  16.756  -2.891  1.00 20.00     0.128 C 
HETATM    4  C4  UNL     1     -34.784  13.907  -3.735  1.00 20.00     0.037 C 
HETATM    5  C5  UNL     1     -34.393  15.521  -6.218  1.00 20.00     0.037 C 
HETATM    6  C6  UNL     1     -34.403  16.010  -2.403  1.00 20.00     0.088 C 
HETATM    7  C7  UNL     1     -35.760  16.717  -4.396  1.00 20.00     0.088 C 
HETATM    8  C8  UNL     1     -33.973  15.242  -3.672  1.00 20.00    -0.026 C 
HETATM    9  C9  UNL     1     -34.363  16.216  -4.836  1.00 20.00    -0.026 C 
HETATM   10  C10 UNL     1     -32.472  14.915  -3.626  1.00 20.00     0.016 C 
HETATM   11  C11 UNL     1     -33.429  17.446  -4.961  1.00 20.00     0.016 C 
HETATM   12  O12 UNL     1     -36.414  17.326  -2.150  1.00 20.00    -0.298 OA
ENDROOT
TORSDOF 0
ENDMDL
MODEL 7
REMARK VINA RESULT:      -5.0      2.135      3.435
REMARK  0 active torsions:
REMARK  status: ('A' for Active; 'I' for Inactive)
ROOT
HETATM    1  C1  UNL     1     -35.126  13.805  -5.789  1.00 20.00    -0.030 C 
HETATM    2  C2  UNL     1     -34.461  13.255  -4.768  1.00 20.00    -0.030 C 
HETATM    3  C3  UNL     1     -33.908  17.552  -4.665  1.00 20.00     0.128 C 
HETATM    4  C4  UNL     1     -35.594  15.225  -5.794  1.00 20.00     0.037 C 
HETATM    5  C5  UNL     1     -34.126  13.986  -3.507  1.00 20.00     0.037 C 
HETATM    6  C6  UNL     1     -35.414  17.439  -4.607  1.00 20.00     0.088 C 
HETATM    7  C7  UNL     1     -33.216  16.287  -4.212  1.00 20.00     0.088 C 
HETATM    8  C8  UNL     1     -35.609  15.921  -4.395  1.00 20.00    -0.026 C 
HETATM    9  C9  UNL     1     -34.369  15.513  -3.527  1.00 20.00    -0.026 C 
HETATM   10  C10 UNL     1     -36.955  15.639  -3.709  1.00 20.00     0.016 C 
HETATM   11  C11 UNL     1     -34.455  15.984  -2.054  1.00 20.00     0.016 C 
HETATM   12  O12 UNL     1     -33.314  18.556  -5.039  1.00 20.00    -0.298 OA
ENDROOT
TORSDOF 0
ENDMDL
MODEL 8
REMARK VINA RESULT:      -4.9      1.211      2.153
REMARK  0 active torsions:
REMARK  status: ('A' for Active; 'I' for Inactive)
ROOT
HETATM    1  C1  UNL     1     -34.327  17.657  -5.014  1.00 20.00    -0.030 C 
HETATM    2  C2  UNL     1     -33.361  17.060  -4.308  1.00 20.00    -0.030 C 
HETATM    3  C3  UNL     1     -36.930  14.603  -4.180  1.00 20.00     0.128 C 
HETATM    4  C4  UNL     1     -35.479  16.918  -5.618  1.00 20.00     0.037 C 
HETATM    5  C5  UNL     1     -33.307  15.586  -4.059  1.00 20.00     0.037 C 
HETATM    6  C6  UNL     1     -36.689  14.710  -5.668  1.00 20.00     0.088 C 
HETATM    7  C7  UNL     1     -35.680  14.869  -3.372  1.00 20.00     0.088 C 
HETATM    8  C8  UNL     1     -35.292  15.369  -5.716  1.00 20.00    -0.026 C 
HETATM    9  C9  UNL     1     -34.573  14.788  -4.450  1.00 20.00    -0.026 C 
HETATM   10  C10 UNL     1     -34.578  15.032  -7.034  1.00 20.00     0.016 C 
HETATM   11  C11 UNL     1     -34.153  13.304  -4.597  1.00 20.00     0.016 C 
HETATM   12  O12 UNL     1     -38.017  14.334  -3.684  1.00 20.00    -0.298 OA
ENDROOT
TORSDOF 0
ENDMDL
MODEL 9
REMARK VINA RESULT:      -4.9      1.829      2.783
REMARK  0 active torsions:
REMARK  status: ('A' for Active; 'I' for Inactive)
ROOT
HETATM    1  C1  UNL     1     -35.554  16.082  -6.563  1.00 20.00    -0.030 C 
HETATM    2  C2  UNL     1     -36.613  16.125  -5.749  1.00 20.00    -0.030 C 
HETATM    3  C3  UNL     1     -33.422  13.935  -3.799  1.00 20.00     0.128 C 
HETATM    4  C4  UNL     1     -34.152  15.887  -6.077  1.00 20.00     0.037 C 
HETATM    5  C5  UNL     1     -36.521  16.005  -4.261  1.00 20.00     0.037 C 
HETATM    6  C6  UNL     1     -32.752  15.261  -4.079  1.00 20.00     0.088 C 
HETATM    7  C7  UNL     1     -34.930  14.042  -3.779  1.00 20.00     0.088 C 
HETATM    8  C8  UNL     1     -33.945  16.125  -4.546  1.00 20.00    -0.026 C 
HETATM    9  C9  UNL     1     -35.145  15.574  -3.702  1.00 20.00    -0.026 C 
HETATM   10  C10 UNL     1     -33.661  17.616  -4.304  1.00 20.00     0.016 C 
HETATM   11  C11 UNL     1     -35.104  15.990  -2.210  1.00 20.00     0.016 C 
HETATM   12  O12 UNL     1     -32.811  12.890  -3.611  1.00 20.00    -0.298 OA
ENDROOT
TORSDOF 0
ENDMDL
