MODEL 1
REMARK VINA RESULT:      -5.2      0.000      0.000
REMARK  0 active torsions:
REMARK  status: ('A' for Active; 'I' for Inactive)
ROOT
HETATM    1  C1  UNL     1     -33.904  16.786  -4.785  1.00 20.00    -0.082 C 
HETATM    2  C2  UNL     1     -33.448  18.013  -5.078  1.00 20.00     0.015 C 
HETATM    3  C3  UNL     1     -33.312  15.966  -3.661  1.00 20.00     0.038 C 
HETATM    4  C4  UNL     1     -36.152  15.810  -4.519  1.00 20.00     0.018 C 
HETATM    5  C5  UNL     1     -35.207  13.521  -4.406  1.00 20.00     0.173 C 
HETATM    6  C6  UNL     1     -35.069  16.158  -5.541  1.00 20.00     0.043 C 
HETATM    7  C7  UNL     1     -35.594  14.750  -3.566  1.00 20.00     0.014 C 
HETATM    8  C8  UNL     1     -34.387  15.315  -2.764  1.00 20.00    -0.009 C 
HETATM    9  C9  UNL     1     -34.617  14.895  -6.310  1.00 20.00     0.125 C 
HETATM   10  C10 UNL     1     -34.858  16.310  -1.692  1.00 20.00     0.011 C 
HETATM   11  C11 UNL     1     -35.651  14.415  -7.330  1.00 20.00     0.040 C 
HETATM   12  O12 UNL     1     -34.261  13.818  -5.431  1.00 20.00    -0.385 OA
ENDROOT
TORSDOF 0
ENDMDL
MODEL 2
REMARK VINA RESULT:      -5.0      1.649      2.117
REMARK  0 active torsions:
REMARK  status: ('A' for Active; 'I' for Inactive)
ROOT
HETATM    1  C1  UNL     1     -35.237  17.853  -3.734  1.00 20.00    -0.082 C 
HETATM    2  C2  UNL     1     -36.178  18.802  -3.841  1.00 20.00     0.015 C 
HETATM    3  C3  UNL     1     -34.068  17.996  -2.785  1.00 20.00     0.038 C 
HETATM    4  C4  UNL     1     -35.292  15.396  -3.539  1.00 20.00     0.018 C 
HETATM    5  C5  UNL     1     -32.835  15.259  -3.842  1.00 20.00     0.173 C 
HETATM    6  C6  UNL     1     -35.305  16.558  -4.534  1.00 20.00     0.043 C 
HETATM    7  C7  UNL     1     -33.954  15.411  -2.797  1.00 20.00     0.014 C 
HETATM    8  C8  UNL     1     -33.804  16.715  -1.963  1.00 20.00    -0.009 C 
HETATM    9  C9  UNL     1     -34.116  16.447  -5.518  1.00 20.00     0.125 C 
HETATM   10  C10 UNL     1     -34.712  16.683  -0.724  1.00 20.00     0.011 C 
HETATM   11  C11 UNL     1     -34.304  15.343  -6.559  1.00 20.00     0.040 C 
HETATM   12  O12 UNL     1     -32.863  16.275  -4.843  1.00 20.00    -0.385 OA
ENDROOT
TORSDOF 0
ENDMDL
MODEL 3
REMARK VINA RESULT:      -4.9      1.970      4.138
REMARK  0 active torsions:
REMARK  status: ('A' for Active; 'I' for Inactive)
ROOT
HETATM    1  C1  UNL     1     -33.718  15.078  -3.667  1.00 20.00    -0.082 C 
HETATM    2  C2  UNL     1     -33.329  13.795  -3.707  1.00 20.00     0.015 C 
HETATM    3  C3  UNL     1     -33.273  16.076  -4.713  1.00 20.00     0.038 C 
HETATM    4  C4  UNL     1     -35.877  16.205  -3.290  1.00 20.00     0.018 C 
HETATM    5  C5  UNL     1     -34.765  18.417  -3.158  1.00 20.00     0.173 C 
HETATM    6  C6  UNL     1     -34.659  15.601  -2.589  1.00 20.00     0.043 C 
HETATM    7  C7  UNL     1     -35.412  17.405  -4.119  1.00 20.00     0.014 C 
HETATM    8  C8  UNL     1     -34.432  16.950  -5.238  1.00 20.00    -0.009 C 
HETATM    9  C9  UNL     1     -33.959  16.658  -1.703  1.00 20.00     0.125 C 
HETATM   10  C10 UNL     1     -35.182  16.218  -6.361  1.00 20.00     0.011 C 
HETATM   11  C11 UNL     1     -34.737  16.975  -0.425  1.00 20.00     0.040 C 
HETATM   12  O12 UNL     1     -33.676  17.869  -2.417  1.00 20.00    -0.385 OA
ENDROOT
TORSDOF 0
ENDMDL
MODEL 4
REMARK VINA RESULT:      -4.9      1.263      3.168
REMARK  0 active torsions:
REMARK  status: ('A' for Active; 'I' for Inactive)
ROOT
HETATM    1  C1  UNL     1     -34.761  16.585  -2.126  1.00 20.00    -0.082 C 
HETATM    2  C2  UNL     1     -34.614  16.620  -0.794  1.00 20.00     0.015 C 
HETATM    3  C3  UNL     1     -35.435  17.708  -2.881  1.00 20.00     0.038 C 
HETATM    4  C4  UNL     1     -33.267  16.015  -4.003  1.00 20.00     0.018 C 
HETATM    5  C5  UNL     1     -35.158  16.087  -5.605  1.00 20.00     0.173 C 
HETATM    6  C6  UNL     1     -34.227  15.430  -2.965  1.00 20.00     0.043 C 
HETATM    7  C7  UNL     1     -34.063  16.933  -4.934  1.00 20.00     0.014 C 
HETATM    8  C8  UNL     1     -34.655  18.136  -4.143  1.00 20.00    -0.009 C 
HETATM    9  C9  UNL     1     -35.379  14.665  -3.657  1.00 20.00     0.125 C 
HETATM   10  C10 UNL     1     -33.556  19.143  -3.772  1.00 20.00     0.011 C 
HETATM   11  C11 UNL     1     -34.937  13.322  -4.242  1.00 20.00     0.040 C 
HETATM   12  O12 UNL     1     -36.026  15.449  -4.669  1.00 20.00    -0.385 OA
ENDROOT
TORSDOF 0
ENDMDL
MODEL 5
REMARK VINA RESULT:      -4.8      1.304      3.890
REMARK  0 active torsions:
REMARK  status: ('A' for Active; 'I' for Inactive)
ROOT
HETATM    1  C1  UNL     1     -36.440  14.852  -3.996  1.00 20.00    -0.082 C 
HETATM    2  C2  UNL     1     -37.765  14.702  -3.858  1.00 20.00     0.015 C 
HETATM    3  C3  UNL     1     -35.584  13.790  -4.648  1.00 20.00     0.038 C 
HETATM    4  C4  UNL     1     -34.992  16.699  -4.750  1.00 20.00     0.018 C 
HETATM    5  C5  UNL     1     -32.960  15.478  -4.026  1.00 20.00     0.173 C 
HETATM    6  C6  UNL     1     -35.720  16.115  -3.539  1.00 20.00     0.043 C 
HETATM    7  C7  UNL     1     -33.926  15.698  -5.202  1.00 20.00     0.014 C 
HETATM    8  C8  UNL     1     -34.586  14.371  -5.674  1.00 20.00    -0.009 C 
HETATM    9  C9  UNL     1     -34.722  15.805  -2.398  1.00 20.00     0.125 C 
HETATM   10  C10 UNL     1     -35.271  14.552  -7.037  1.00 20.00     0.011 C 
HETATM   11  C11 UNL     1     -34.217  17.063  -1.690  1.00 20.00     0.040 C 
HETATM   12  O12 UNL     1     -33.611  15.015  -2.844  1.00 20.00    -0.385 OA
ENDROOT
TORSDOF 0
ENDMDL
MODEL 6
REMARK VINA RESULT:      -4.7      1.400      2.734
REMARK  0 active torsions:
REMARK  status: ('A' for Active; 'I' for Inactive)
ROOT
HETATM    1  C1  UNL     1     -36.464  15.585  -3.902  1.00 20.00    -0.082 C 
HETATM    2  C2  UNL     1     -37.658  15.040  -3.625  1.00 20.00     0.015 C 
HETATM    3  C3  UNL     1     -36.044  16.915  -3.318  1.00 20.00     0.038 C 
HETATM    4  C4  UNL     1     -34.158  14.717  -3.980  1.00 20.00     0.018 C 
HETATM    5  C5  UNL     1     -33.337  16.828  -4.988  1.00 20.00     0.173 C 
HETATM    6  C6  UNL     1     -35.445  14.883  -4.790  1.00 20.00     0.043 C 
HETATM    7  C7  UNL     1     -33.608  16.108  -3.656  1.00 20.00     0.014 C 
HETATM    8  C8  UNL     1     -34.605  16.895  -2.757  1.00 20.00    -0.009 C 
HETATM    9  C9  UNL     1     -35.177  15.695  -6.080  1.00 20.00     0.125 C 
HETATM   10  C10 UNL     1     -34.601  16.347  -1.322  1.00 20.00     0.011 C 
HETATM   11  C11 UNL     1     -34.421  14.896  -7.142  1.00 20.00     0.040 C 
HETATM   12  O12 UNL     1     -34.494  16.928  -5.816  1.00 20.00    -0.385 OA
ENDROOT
TORSDOF 0
ENDMDL
MODEL 7
REMARK VINA RESULT:      -4.7      1.564      2.694
REMARK  0 active torsions:
REMARK  status: ('A' for Active; 'I' for Inactive)
ROOT
HETATM    1  C1  UNL     1     -34.086  14.725  -3.934  1.00 20.00    -0.082 C 
HETATM    2  C2  UNL     1     -33.320  13.634  -3.788  1.00 20.00     0.015 C 
HETATM    3  C3  UNL     1     -35.282  14.981  -3.044  1.00 20.00     0.038 C 
HETATM    4  C4  UNL     1     -33.613  17.124  -4.246  1.00 20.00     0.018 C 
HETATM    5  C5  UNL     1     -36.002  17.593  -4.711  1.00 20.00     0.173 C 
HETATM    6  C6  UNL     1     -33.779  15.791  -4.978  1.00 20.00     0.043 C 
HETATM    7  C7  UNL     1     -34.950  17.487  -3.595  1.00 20.00     0.014 C 
HETATM    8  C8  UNL     1     -35.340  16.432  -2.520  1.00 20.00    -0.009 C 
HETATM    9  C9  UNL     1     -34.909  15.883  -6.030  1.00 20.00     0.125 C 
HETATM   10  C10 UNL     1     -34.467  16.578  -1.264  1.00 20.00     0.011 C 
HETATM   11  C11 UNL     1     -34.512  16.695  -7.264  1.00 20.00     0.040 C 
HETATM   12  O12 UNL     1     -36.128  16.398  -5.478  1.00 20.00    -0.385 OA
ENDROOT
TORSDOF 0
ENDMDL
MODEL 8
REMARK VINA RESULT:      -4.7      1.698      3.040
REMARK  0 active torsions:
REMARK  status: ('A' for Active; 'I' for Inactive)
ROOT
HETATM    1  C1  UNL     1     -34.805  16.215  -2.443  1.00 20.00    -0.082 C 
HETATM    2  C2  UNL     1     -34.635  16.425  -1.129  1.00 20.00     0.015 C 
HETATM    3  C3  UNL     1     -33.629  16.081  -3.385  1.00 20.00     0.038 C 
HETATM    4  C4  UNL     1     -36.235  14.708  -3.769  1.00 20.00     0.018 C 
HETATM    5  C5  UNL     1     -35.604  15.864  -5.869  1.00 20.00     0.173 C 
HETATM    6  C6  UNL     1     -36.189  16.063  -3.061  1.00 20.00     0.043 C 
HETATM    7  C7  UNL     1     -35.217  14.724  -4.912  1.00 20.00     0.014 C 
HETATM    8  C8  UNL     1     -33.773  14.891  -4.357  1.00 20.00    -0.009 C 
HETATM    9  C9  UNL     1     -36.483  17.210  -4.058  1.00 20.00     0.125 C 
HETATM   10  C10 UNL     1     -33.290  13.596  -3.686  1.00 20.00     0.011 C 
HETATM   11  C11 UNL     1     -37.956  17.288  -4.459  1.00 20.00     0.040 C 
HETATM   12  O12 UNL     1     -35.660  17.138  -5.230  1.00 20.00    -0.385 OA
ENDROOT
TORSDOF 0
ENDMDL
MODEL 9
REMARK VINA RESULT:      -4.7      1.487      3.161
REMARK  0 active torsions:
REMARK  status: ('A' for Active; 'I' for Inactive)
ROOT
HETATM    1  C1  UNL     1     -34.396  16.211  -2.827  1.00 20.00    -0.082 C 
HETATM    2  C2  UNL     1     -34.576  16.278  -1.499  1.00 20.00     0.015 C 
HETATM    3  C3  UNL     1     -33.500  15.167  -3.455  1.00 20.00     0.038 C 
HETATM    4  C4  UNL     1     -35.911  16.301  -4.770  1.00 20.00     0.018 C 
HETATM    5  C5  UNL     1     -33.991  16.433  -6.333  1.00 20.00     0.173 C 
HETATM    6  C6  UNL     1     -35.111  17.155  -3.785  1.00 20.00     0.043 C 
HETATM    7  C7  UNL     1     -34.928  15.464  -5.593  1.00 20.00     0.014 C 
HETATM    8  C8  UNL     1     -34.147  14.479  -4.676  1.00 20.00    -0.009 C 
HETATM    9  C9  UNL     1     -34.101  18.055  -4.537  1.00 20.00     0.125 C 
HETATM   10  C10 UNL     1     -35.049  13.322  -4.218  1.00 20.00     0.011 C 
HETATM   11  C11 UNL     1     -34.768  19.225  -5.261  1.00 20.00     0.040 C 
HETATM   12  O12 UNL     1     -33.287  17.312  -5.456  1.00 20.00    -0.385 OA
ENDROOT
TORSDOF 0
ENDMDL
