MODEL 1
REMARK VINA RESULT:      -4.4      0.000      0.000
REMARK  1 active torsions:
REMARK  status: ('A' for Active; 'I' for Inactive)
REMARK    1  A    between atoms: C6_6  and  O10_10 
ROOT
HETATM    1  C1  UNL     1     -33.263   6.783   6.318  1.00 20.00     0.003 C 
HETATM    2  C2  UNL     1     -33.065   7.433   4.955  1.00 20.00     0.032 C 
HETATM    3  C3  UNL     1     -34.574   6.002   6.368  1.00 20.00     0.010 C 
HETATM    4  C4  UNL     1     -35.415   5.592   3.961  1.00 20.00     0.017 A 
HETATM    5  C5  UNL     1     -33.945   5.291   3.925  1.00 20.00     0.023 A 
HETATM    6  C6  UNL     1     -32.911   6.374   3.865  1.00 20.00     0.125 C 
HETATM    7  C7  UNL     1     -34.732   5.046   5.202  1.00 20.00    -0.038 A 
HETATM    8  C8  UNL     1     -35.011   3.620   5.588  1.00 20.00     0.015 C 
ENDROOT
BRANCH   6   9
HETATM    9  O10 UNL     1     -32.965   6.995   2.584  1.00 20.00    -0.390 OA
HETATM   10  C9  UNL     1     -31.924   7.949   2.428  1.00 20.00     0.202 C 
ENDBRANCH   6   9
TORSDOF 1
ENDMDL
MODEL 2
REMARK VINA RESULT:      -4.2     11.679     12.720
REMARK  1 active torsions:
REMARK  status: ('A' for Active; 'I' for Inactive)
REMARK    1  A    between atoms: C6_6  and  O10_10 
ROOT
HETATM    1  C1  UNL     1     -33.812  13.772  -3.784  1.00 20.00     0.003 C 
HETATM    2  C2  UNL     1     -35.079  13.818  -4.628  1.00 20.00     0.032 C 
HETATM    3  C3  UNL     1     -33.349  15.179  -3.414  1.00 20.00     0.010 C 
HETATM    4  C4  UNL     1     -35.290  16.842  -3.782  1.00 20.00     0.017 A 
HETATM    5  C5  UNL     1     -35.905  15.658  -3.093  1.00 20.00     0.023 A 
HETATM    6  C6  UNL     1     -36.244  14.396  -3.827  1.00 20.00     0.125 C 
HETATM    7  C7  UNL     1     -34.457  16.022  -2.814  1.00 20.00    -0.038 A 
HETATM    8  C8  UNL     1     -34.135  16.630  -1.476  1.00 20.00     0.015 C 
ENDROOT
BRANCH   6   9
HETATM    9  O10 UNL     1     -37.344  14.647  -4.697  1.00 20.00    -0.390 OA
HETATM   10  C9  UNL     1     -38.559  14.772  -3.972  1.00 20.00     0.202 C 
ENDBRANCH   6   9
TORSDOF 1
ENDMDL
MODEL 3
REMARK VINA RESULT:      -4.2     11.755     13.070
REMARK  1 active torsions:
REMARK  status: ('A' for Active; 'I' for Inactive)
REMARK    1  A    between atoms: C6_6  and  O10_10 
ROOT
HETATM    1  C1  UNL     1     -34.758  15.396  -6.214  1.00 20.00     0.003 C 
HETATM    2  C2  UNL     1     -36.114  15.155  -5.562  1.00 20.00     0.032 C 
HETATM    3  C3  UNL     1     -33.759  15.962  -5.207  1.00 20.00     0.010 C 
HETATM    4  C4  UNL     1     -34.637  15.554  -2.812  1.00 20.00     0.017 A 
HETATM    5  C5  UNL     1     -34.865  14.264  -3.545  1.00 20.00     0.023 A 
HETATM    6  C6  UNL     1     -36.015  14.074  -4.487  1.00 20.00     0.125 C 
HETATM    7  C7  UNL     1     -33.691  15.149  -3.929  1.00 20.00    -0.038 A 
HETATM    8  C8  UNL     1     -32.312  14.685  -3.547  1.00 20.00     0.015 C 
ENDROOT
BRANCH   6   9
HETATM    9  O10 UNL     1     -37.226  14.034  -3.738  1.00 20.00    -0.390 OA
HETATM   10  C9  UNL     1     -38.145  15.019  -4.186  1.00 20.00     0.202 C 
ENDBRANCH   6   9
TORSDOF 1
ENDMDL
MODEL 4
REMARK VINA RESULT:      -4.2     11.846     13.402
REMARK  1 active torsions:
REMARK  status: ('A' for Active; 'I' for Inactive)
REMARK    1  A    between atoms: C6_6  and  O10_10 
ROOT
HETATM    1  C1  UNL     1     -34.875  13.352  -4.239  1.00 20.00     0.003 C 
HETATM    2  C2  UNL     1     -35.008  13.891  -5.658  1.00 20.00     0.032 C 
HETATM    3  C3  UNL     1     -33.780  14.089  -3.472  1.00 20.00     0.010 C 
HETATM    4  C4  UNL     1     -33.221  16.295  -4.692  1.00 20.00     0.017 A 
HETATM    5  C5  UNL     1     -34.720  16.214  -4.685  1.00 20.00     0.023 A 
HETATM    6  C6  UNL     1     -35.477  15.345  -5.643  1.00 20.00     0.125 C 
HETATM    7  C7  UNL     1     -33.927  15.596  -3.545  1.00 20.00    -0.038 A 
HETATM    8  C8  UNL     1     -33.961  16.293  -2.212  1.00 20.00     0.015 C 
ENDROOT
BRANCH   6   9
HETATM    9  O10 UNL     1     -35.366  15.896  -6.953  1.00 20.00    -0.390 OA
HETATM   10  C9  UNL     1     -35.107  14.887  -7.918  1.00 20.00     0.202 C 
ENDBRANCH   6   9
TORSDOF 1
ENDMDL
MODEL 5
REMARK VINA RESULT:      -4.2     11.878     13.477
REMARK  1 active torsions:
REMARK  status: ('A' for Active; 'I' for Inactive)
REMARK    1  A    between atoms: C6_6  and  O10_10 
ROOT
HETATM    1  C1  UNL     1     -33.903  13.576  -4.198  1.00 20.00     0.003 C 
HETATM    2  C2  UNL     1     -33.862  14.818  -3.317  1.00 20.00     0.032 C 
HETATM    3  C3  UNL     1     -34.919  13.738  -5.326  1.00 20.00     0.010 C 
HETATM    4  C4  UNL     1     -35.509  16.238  -5.592  1.00 20.00     0.017 A 
HETATM    5  C5  UNL     1     -34.016  16.195  -5.438  1.00 20.00     0.023 A 
HETATM    6  C6  UNL     1     -33.356  16.025  -4.104  1.00 20.00     0.125 C 
HETATM    7  C7  UNL     1     -34.738  15.031  -6.096  1.00 20.00    -0.038 A 
HETATM    8  C8  UNL     1     -34.587  14.866  -7.583  1.00 20.00     0.015 C 
ENDROOT
BRANCH   6   9
HETATM    9  O10 UNL     1     -33.548  17.210  -3.337  1.00 20.00    -0.390 OA
HETATM   10  C9  UNL     1     -33.882  16.907  -1.991  1.00 20.00     0.202 C 
ENDBRANCH   6   9
TORSDOF 1
ENDMDL
MODEL 6
REMARK VINA RESULT:      -4.2      9.167     10.821
REMARK  1 active torsions:
REMARK  status: ('A' for Active; 'I' for Inactive)
REMARK    1  A    between atoms: C6_6  and  O10_10 
ROOT
HETATM    1  C1  UNL     1     -40.726   5.674  -0.283  1.00 20.00     0.003 C 
HETATM    2  C2  UNL     1     -40.959   4.629  -1.367  1.00 20.00     0.032 C 
HETATM    3  C3  UNL     1     -41.053   7.075  -0.794  1.00 20.00     0.010 C 
HETATM    4  C4  UNL     1     -42.481   6.892  -2.937  1.00 20.00     0.017 A 
HETATM    5  C5  UNL     1     -43.068   5.893  -1.982  1.00 20.00     0.023 A 
HETATM    6  C6  UNL     1     -42.438   4.555  -1.741  1.00 20.00     0.125 C 
HETATM    7  C7  UNL     1     -42.420   7.158  -1.444  1.00 20.00    -0.038 A 
HETATM    8  C8  UNL     1     -43.324   8.221  -0.883  1.00 20.00     0.015 C 
ENDROOT
BRANCH   6   9
HETATM    9  O10 UNL     1     -42.596   3.752  -2.907  1.00 20.00    -0.390 OA
HETATM   10  C9  UNL     1     -41.571   2.774  -3.005  1.00 20.00     0.202 C 
ENDBRANCH   6   9
TORSDOF 1
ENDMDL
MODEL 7
REMARK VINA RESULT:      -4.2     11.774     13.030
REMARK  1 active torsions:
REMARK  status: ('A' for Active; 'I' for Inactive)
REMARK    1  A    between atoms: C6_6  and  O10_10 
ROOT
HETATM    1  C1  UNL     1     -33.386  16.903  -5.079  1.00 20.00     0.003 C 
HETATM    2  C2  UNL     1     -33.769  15.429  -5.089  1.00 20.00     0.032 C 
HETATM    3  C3  UNL     1     -34.173  17.667  -4.016  1.00 20.00     0.010 C 
HETATM    4  C4  UNL     1     -35.190  15.989  -2.337  1.00 20.00     0.017 A 
HETATM    5  C5  UNL     1     -33.779  15.527  -2.556  1.00 20.00     0.023 A 
HETATM    6  C6  UNL     1     -33.371  14.757  -3.776  1.00 20.00     0.125 C 
HETATM    7  C7  UNL     1     -34.109  17.007  -2.653  1.00 20.00    -0.038 A 
HETATM    8  C8  UNL     1     -33.641  17.901  -1.539  1.00 20.00     0.015 C 
ENDROOT
BRANCH   6   9
HETATM    9  O10 UNL     1     -33.944  13.454  -3.714  1.00 20.00    -0.390 OA
HETATM   10  C9  UNL     1     -34.769  13.197  -4.841  1.00 20.00     0.202 C 
ENDBRANCH   6   9
TORSDOF 1
ENDMDL
MODEL 8
REMARK VINA RESULT:      -4.1     11.866     13.026
REMARK  1 active torsions:
REMARK  status: ('A' for Active; 'I' for Inactive)
REMARK    1  A    between atoms: C6_6  and  O10_10 
ROOT
HETATM    1  C1  UNL     1     -34.635  16.904  -5.337  1.00 20.00     0.003 C 
HETATM    2  C2  UNL     1     -34.070  17.410  -4.016  1.00 20.00     0.032 C 
HETATM    3  C3  UNL     1     -34.037  15.548  -5.705  1.00 20.00     0.010 C 
HETATM    4  C4  UNL     1     -32.952  14.497  -3.610  1.00 20.00     0.017 A 
HETATM    5  C5  UNL     1     -34.272  15.039  -3.145  1.00 20.00     0.023 A 
HETATM    6  C6  UNL     1     -34.482  16.496  -2.864  1.00 20.00     0.125 C 
HETATM    7  C7  UNL     1     -34.124  14.542  -4.573  1.00 20.00    -0.038 A 
HETATM    8  C8  UNL     1     -34.788  13.242  -4.933  1.00 20.00     0.015 C 
ENDROOT
BRANCH   6   9
HETATM    9  O10 UNL     1     -33.756  16.850  -1.690  1.00 20.00    -0.390 OA
HETATM   10  C9  UNL     1     -34.593  16.841  -0.542  1.00 20.00     0.202 C 
ENDBRANCH   6   9
TORSDOF 1
ENDMDL
MODEL 9
REMARK VINA RESULT:      -4.0     11.386     13.285
REMARK  1 active torsions:
REMARK  status: ('A' for Active; 'I' for Inactive)
REMARK    1  A    between atoms: C6_6  and  O10_10 
ROOT
HETATM    1  C1  UNL     1     -36.582  15.394  -3.947  1.00 20.00     0.003 C 
HETATM    2  C2  UNL     1     -35.280  14.685  -3.595  1.00 20.00     0.032 C 
HETATM    3  C3  UNL     1     -36.493  16.051  -5.322  1.00 20.00     0.010 C 
HETATM    4  C4  UNL     1     -34.502  15.046  -6.623  1.00 20.00     0.017 A 
HETATM    5  C5  UNL     1     -35.200  13.874  -5.995  1.00 20.00     0.023 A 
HETATM    6  C6  UNL     1     -35.022  13.521  -4.550  1.00 20.00     0.125 C 
HETATM    7  C7  UNL     1     -36.002  15.101  -6.396  1.00 20.00    -0.038 A 
HETATM    8  C8  UNL     1     -36.899  14.987  -7.598  1.00 20.00     0.015 C 
ENDROOT
BRANCH   6   9
HETATM    9  O10 UNL     1     -33.700  13.027  -4.354  1.00 20.00    -0.390 OA
HETATM   10  C9  UNL     1     -32.953  13.874  -3.492  1.00 20.00     0.202 C 
ENDBRANCH   6   9
TORSDOF 1
ENDMDL
