MODEL 1
REMARK VINA RESULT:      -4.1      0.000      0.000
REMARK  4 active torsions:
REMARK  status: ('A' for Active; 'I' for Inactive)
REMARK    1  A    between atoms: C1_1  and  C3_3 
REMARK    2  A    between atoms: C3_3  and  N6_6 
REMARK    3  A    between atoms: C4_4  and  C5_5 
REMARK    4  A    between atoms: C4_4  and  N6_6 
ROOT
HETATM    1  C4  UNL     1     -34.666  15.798  -2.581  1.00 20.00     0.389 C 
ENDROOT
BRANCH   1   2
HETATM    2  C5  UNL     1     -34.436  16.779  -1.459  1.00 20.00     0.413 C 
HETATM    3  F8  UNL     1     -34.819  16.245  -0.278  1.00 20.00    -0.169 F 
HETATM    4  F9  UNL     1     -33.131  17.111  -1.355  1.00 20.00    -0.169 F 
HETATM    5  F10 UNL     1     -35.145  17.913  -1.644  1.00 20.00    -0.169 F 
ENDBRANCH   1   2
BRANCH   1   6
HETATM    6  N6  UNL     1     -33.432  15.517  -3.314  1.00 20.00     0.099 N 
HETATM    7  C2  UNL     1     -33.346  16.356  -4.509  1.00 20.00     0.310 C 
BRANCH   6   8
HETATM    8  C3  UNL     1     -33.363  14.102  -3.677  1.00 20.00     0.341 C 
BRANCH   8   9
HETATM    9  C1  UNL     1     -34.754  13.620  -3.976  1.00 20.00     0.261 C 
HETATM   10  O7  UNL     1     -34.975  12.579  -4.590  1.00 20.00    -0.305 OA
ENDBRANCH   8   9
ENDBRANCH   6   8
ENDBRANCH   1   6
TORSDOF 4
ENDMDL
MODEL 2
REMARK VINA RESULT:      -4.1      0.055      1.191
REMARK  4 active torsions:
REMARK  status: ('A' for Active; 'I' for Inactive)
REMARK    1  A    between atoms: C1_1  and  C3_3 
REMARK    2  A    between atoms: C3_3  and  N6_6 
REMARK    3  A    between atoms: C4_4  and  C5_5 
REMARK    4  A    between atoms: C4_4  and  N6_6 
ROOT
HETATM    1  C4  UNL     1     -34.672  15.838  -2.611  1.00 20.00     0.389 C 
ENDROOT
BRANCH   1   2
HETATM    2  C5  UNL     1     -34.450  16.783  -1.458  1.00 20.00     0.413 C 
HETATM    3  F8  UNL     1     -33.139  17.090  -1.345  1.00 20.00    -0.169 F 
HETATM    4  F9  UNL     1     -35.127  17.938  -1.630  1.00 20.00    -0.169 F 
HETATM    5  F10 UNL     1     -34.843  16.235  -0.289  1.00 20.00    -0.169 F 
ENDBRANCH   1   2
BRANCH   1   6
HETATM    6  N6  UNL     1     -33.432  15.572  -3.339  1.00 20.00     0.099 N 
HETATM    7  C2  UNL     1     -33.347  16.419  -4.529  1.00 20.00     0.310 C 
BRANCH   6   8
HETATM    8  C3  UNL     1     -33.349  14.160  -3.710  1.00 20.00     0.341 C 
BRANCH   8   9
HETATM    9  C1  UNL     1     -34.742  13.639  -3.913  1.00 20.00     0.261 C 
HETATM   10  O7  UNL     1     -34.976  12.588  -4.505  1.00 20.00    -0.305 OA
ENDBRANCH   8   9
ENDBRANCH   6   8
ENDBRANCH   1   6
TORSDOF 4
ENDMDL
MODEL 3
REMARK VINA RESULT:      -4.0     10.893     11.581
REMARK  4 active torsions:
REMARK  status: ('A' for Active; 'I' for Inactive)
REMARK    1  A    between atoms: C1_1  and  C3_3 
REMARK    2  A    between atoms: C3_3  and  N6_6 
REMARK    3  A    between atoms: C4_4  and  C5_5 
REMARK    4  A    between atoms: C4_4  and  N6_6 
ROOT
HETATM    1  C4  UNL     1     -32.689   6.285   3.177  1.00 20.00     0.389 C 
ENDROOT
BRANCH   1   2
HETATM    2  C5  UNL     1     -32.090   7.607   2.769  1.00 20.00     0.413 C 
HETATM    3  F8  UNL     1     -31.154   7.999   3.662  1.00 20.00    -0.169 F 
HETATM    4  F9  UNL     1     -31.494   7.525   1.560  1.00 20.00    -0.169 F 
HETATM    5  F10 UNL     1     -33.029   8.576   2.709  1.00 20.00    -0.169 F 
ENDBRANCH   1   2
BRANCH   1   6
HETATM    6  N6  UNL     1     -33.937   6.464   3.918  1.00 20.00     0.099 N 
HETATM    7  C2  UNL     1     -33.673   6.544   5.354  1.00 20.00     0.310 C 
BRANCH   6   8
HETATM    8  C3  UNL     1     -34.864   5.370   3.630  1.00 20.00     0.341 C 
BRANCH   8   9
HETATM    9  C1  UNL     1     -35.185   4.668   4.917  1.00 20.00     0.261 C 
HETATM   10  O7  UNL     1     -35.143   3.445   5.033  1.00 20.00    -0.305 OA
ENDBRANCH   8   9
ENDBRANCH   6   8
ENDBRANCH   1   6
TORSDOF 4
ENDMDL
MODEL 4
REMARK VINA RESULT:      -3.9     11.505     12.203
REMARK  4 active torsions:
REMARK  status: ('A' for Active; 'I' for Inactive)
REMARK    1  A    between atoms: C1_1  and  C3_3 
REMARK    2  A    between atoms: C3_3  and  N6_6 
REMARK    3  A    between atoms: C4_4  and  C5_5 
REMARK    4  A    between atoms: C4_4  and  N6_6 
ROOT
HETATM    1  C4  UNL     1     -33.552   7.115   3.563  1.00 20.00     0.389 C 
ENDROOT
BRANCH   1   2
HETATM    2  C5  UNL     1     -32.097   7.014   3.183  1.00 20.00     0.413 C 
HETATM    3  F8  UNL     1     -31.698   5.723   3.176  1.00 20.00    -0.169 F 
HETATM    4  F9  UNL     1     -31.872   7.519   1.951  1.00 20.00    -0.169 F 
HETATM    5  F10 UNL     1     -31.313   7.679   4.059  1.00 20.00    -0.169 F 
ENDBRANCH   1   2
BRANCH   1   6
HETATM    6  N6  UNL     1     -34.035   5.882   4.184  1.00 20.00     0.099 N 
HETATM    7  C2  UNL     1     -35.311   5.478   3.596  1.00 20.00     0.310 C 
BRANCH   6   8
HETATM    8  C3  UNL     1     -34.172   6.058   5.630  1.00 20.00     0.341 C 
BRANCH   8   9
HETATM    9  C1  UNL     1     -34.863   4.849   6.192  1.00 20.00     0.261 C 
HETATM   10  O7  UNL     1     -34.373   3.723   6.140  1.00 20.00    -0.305 OA
ENDBRANCH   8   9
ENDBRANCH   6   8
ENDBRANCH   1   6
TORSDOF 4
ENDMDL
MODEL 5
REMARK VINA RESULT:      -3.8     11.502     12.359
REMARK  4 active torsions:
REMARK  status: ('A' for Active; 'I' for Inactive)
REMARK    1  A    between atoms: C1_1  and  C3_3 
REMARK    2  A    between atoms: C3_3  and  N6_6 
REMARK    3  A    between atoms: C4_4  and  C5_5 
REMARK    4  A    between atoms: C4_4  and  N6_6 
ROOT
HETATM    1  C4  UNL     1     -33.770   5.453   5.033  1.00 20.00     0.389 C 
ENDROOT
BRANCH   1   2
HETATM    2  C5  UNL     1     -35.108   4.772   5.163  1.00 20.00     0.413 C 
HETATM    3  F8  UNL     1     -35.586   4.904   6.420  1.00 20.00    -0.169 F 
HETATM    4  F9  UNL     1     -36.017   5.306   4.320  1.00 20.00    -0.169 F 
HETATM    5  F10 UNL     1     -35.015   3.450   4.898  1.00 20.00    -0.169 F 
ENDBRANCH   1   2
BRANCH   1   6
HETATM    6  N6  UNL     1     -33.672   6.221   3.792  1.00 20.00     0.099 N 
HETATM    7  C2  UNL     1     -33.733   5.329   2.634  1.00 20.00     0.310 C 
BRANCH   6   8
HETATM    8  C3  UNL     1     -32.437   7.003   3.770  1.00 20.00     0.341 C 
BRANCH   8   9
HETATM    9  C1  UNL     1     -32.228   7.521   2.376  1.00 20.00     0.261 C 
HETATM   10  O7  UNL     1     -32.280   8.717   2.099  1.00 20.00    -0.305 OA
ENDBRANCH   8   9
ENDBRANCH   6   8
ENDBRANCH   1   6
TORSDOF 4
ENDMDL
MODEL 6
REMARK VINA RESULT:      -3.8     11.484     12.204
REMARK  4 active torsions:
REMARK  status: ('A' for Active; 'I' for Inactive)
REMARK    1  A    between atoms: C1_1  and  C3_3 
REMARK    2  A    between atoms: C3_3  and  N6_6 
REMARK    3  A    between atoms: C4_4  and  C5_5 
REMARK    4  A    between atoms: C4_4  and  N6_6 
ROOT
HETATM    1  C4  UNL     1     -33.722   6.841   3.945  1.00 20.00     0.389 C 
ENDROOT
BRANCH   1   2
HETATM    2  C5  UNL     1     -32.384   6.878   3.253  1.00 20.00     0.413 C 
HETATM    3  F8  UNL     1     -31.943   5.624   3.009  1.00 20.00    -0.169 F 
HETATM    4  F9  UNL     1     -32.458   7.524   2.070  1.00 20.00    -0.169 F 
HETATM    5  F10 UNL     1     -31.454   7.497   4.012  1.00 20.00    -0.169 F 
ENDBRANCH   1   2
BRANCH   1   6
HETATM    6  N6  UNL     1     -34.046   5.498   4.425  1.00 20.00     0.099 N 
HETATM    7  C2  UNL     1     -35.365   5.088   3.946  1.00 20.00     0.310 C 
BRANCH   6   8
HETATM    8  C3  UNL     1     -33.995   5.450   5.886  1.00 20.00     0.341 C 
BRANCH   8   9
HETATM    9  C1  UNL     1     -34.011   6.858   6.408  1.00 20.00     0.261 C 
HETATM   10  O7  UNL     1     -33.092   7.327   7.075  1.00 20.00    -0.305 OA
ENDBRANCH   8   9
ENDBRANCH   6   8
ENDBRANCH   1   6
TORSDOF 4
ENDMDL
MODEL 7
REMARK VINA RESULT:      -3.8      3.271      3.723
REMARK  4 active torsions:
REMARK  status: ('A' for Active; 'I' for Inactive)
REMARK    1  A    between atoms: C1_1  and  C3_3 
REMARK    2  A    between atoms: C3_3  and  N6_6 
REMARK    3  A    between atoms: C4_4  and  C5_5 
REMARK    4  A    between atoms: C4_4  and  N6_6 
ROOT
HETATM    1  C4  UNL     1     -34.361  14.780  -5.054  1.00 20.00     0.389 C 
ENDROOT
BRANCH   1   2
HETATM    2  C5  UNL     1     -34.112  13.943  -3.825  1.00 20.00     0.413 C 
HETATM    3  F8  UNL     1     -34.950  12.883  -3.798  1.00 20.00    -0.169 F 
HETATM    4  F9  UNL     1     -32.849  13.467  -3.800  1.00 20.00    -0.169 F 
HETATM    5  F10 UNL     1     -34.316  14.654  -2.695  1.00 20.00    -0.169 F 
ENDBRANCH   1   2
BRANCH   1   6
HETATM    6  N6  UNL     1     -35.755  14.702  -5.487  1.00 20.00     0.099 N 
HETATM    7  C2  UNL     1     -35.834  14.634  -6.946  1.00 20.00     0.310 C 
BRANCH   6   8
HETATM    8  C3  UNL     1     -36.512  15.850  -4.988  1.00 20.00     0.341 C 
BRANCH   8   9
HETATM    9  C1  UNL     1     -37.527  15.356  -3.998  1.00 20.00     0.261 C 
HETATM   10  O7  UNL     1     -37.764  14.162  -3.833  1.00 20.00    -0.305 OA
ENDBRANCH   8   9
ENDBRANCH   6   8
ENDBRANCH   1   6
TORSDOF 4
ENDMDL
MODEL 8
REMARK VINA RESULT:      -3.8     11.920     12.787
REMARK  4 active torsions:
REMARK  status: ('A' for Active; 'I' for Inactive)
REMARK    1  A    between atoms: C1_1  and  C3_3 
REMARK    2  A    between atoms: C3_3  and  N6_6 
REMARK    3  A    between atoms: C4_4  and  C5_5 
REMARK    4  A    between atoms: C4_4  and  N6_6 
ROOT
HETATM    1  C4  UNL     1     -34.322   4.681   4.858  1.00 20.00     0.389 C 
ENDROOT
BRANCH   1   2
HETATM    2  C5  UNL     1     -34.530   5.045   6.306  1.00 20.00     0.413 C 
HETATM    3  F8  UNL     1     -34.409   6.380   6.481  1.00 20.00    -0.169 F 
HETATM    4  F9  UNL     1     -35.759   4.686   6.734  1.00 20.00    -0.169 F 
HETATM    5  F10 UNL     1     -33.617   4.445   7.100  1.00 20.00    -0.169 F 
ENDBRANCH   1   2
BRANCH   1   6
HETATM    6  N6  UNL     1     -34.423   5.852   3.987  1.00 20.00     0.099 N 
HETATM    7  C2  UNL     1     -35.732   5.893   3.337  1.00 20.00     0.310 C 
BRANCH   6   8
HETATM    8  C3  UNL     1     -33.356   5.840   2.987  1.00 20.00     0.341 C 
BRANCH   8   9
HETATM    9  C1  UNL     1     -32.313   6.841   3.393  1.00 20.00     0.261 C 
HETATM   10  O7  UNL     1     -31.987   7.784   2.677  1.00 20.00    -0.305 OA
ENDBRANCH   8   9
ENDBRANCH   6   8
ENDBRANCH   1   6
TORSDOF 4
ENDMDL
MODEL 9
REMARK VINA RESULT:      -3.8      3.269      3.851
REMARK  4 active torsions:
REMARK  status: ('A' for Active; 'I' for Inactive)
REMARK    1  A    between atoms: C1_1  and  C3_3 
REMARK    2  A    between atoms: C3_3  and  N6_6 
REMARK    3  A    between atoms: C4_4  and  C5_5 
REMARK    4  A    between atoms: C4_4  and  N6_6 
ROOT
HETATM    1  C4  UNL     1     -34.363  14.793  -5.047  1.00 20.00     0.389 C 
ENDROOT
BRANCH   1   2
HETATM    2  C5  UNL     1     -34.116  13.947  -3.824  1.00 20.00     0.413 C 
HETATM    3  F8  UNL     1     -34.320  14.669  -2.700  1.00 20.00    -0.169 F 
HETATM    4  F9  UNL     1     -34.947  12.884  -3.784  1.00 20.00    -0.169 F 
HETATM    5  F10 UNL     1     -32.846  13.489  -3.790  1.00 20.00    -0.169 F 
ENDBRANCH   1   2
BRANCH   1   6
HETATM    6  N6  UNL     1     -35.752  14.706  -5.493  1.00 20.00     0.099 N 
HETATM    7  C2  UNL     1     -35.818  14.632  -6.952  1.00 20.00     0.310 C 
BRANCH   6   8
HETATM    8  C3  UNL     1     -36.519  15.852  -5.005  1.00 20.00     0.341 C 
BRANCH   8   9
HETATM    9  C1  UNL     1     -37.544  15.357  -4.026  1.00 20.00     0.261 C 
HETATM   10  O7  UNL     1     -37.756  14.162  -3.838  1.00 20.00    -0.305 OA
ENDBRANCH   8   9
ENDBRANCH   6   8
ENDBRANCH   1   6
TORSDOF 4
ENDMDL
