MODEL 1
REMARK VINA RESULT:      -4.0      0.000      0.000
REMARK  4 active torsions:
REMARK  status: ('A' for Active; 'I' for Inactive)
REMARK    1  A    between atoms: C1_1  and  C7_7 
REMARK    2  A    between atoms: C7_7  and  N10_10 
REMARK    3  A    between atoms: C8_8  and  C9_9 
REMARK    4  A    between atoms: C8_8  and  N10_10 
ROOT
HETATM    1  C2  UNL     1     -34.502  13.250  -4.683  1.00 20.00     0.043 C 
HETATM    2  C8  UNL     1     -34.881  14.676  -4.280  1.00 20.00     0.226 C 
ENDROOT
BRANCH   2   3
HETATM    3  C9  UNL     1     -33.700  15.551  -3.750  1.00 20.00    -0.021 C 
HETATM    4  C3  UNL     1     -33.357  16.707  -4.711  1.00 20.00     0.016 C 
HETATM    5  C4  UNL     1     -34.048  16.150  -2.373  1.00 20.00     0.016 C 
HETATM    6  C5  UNL     1     -32.439  14.676  -3.573  1.00 20.00     0.016 C 
ENDBRANCH   2   3
BRANCH   2   7
HETATM    7  N10 UNL     1     -35.558  15.314  -5.390  1.00 20.00     0.095 N 
HETATM    8  C6  UNL     1     -35.601  14.427  -6.558  1.00 20.00     0.310 C 
BRANCH   7   9
HETATM    9  C7  UNL     1     -36.920  15.714  -5.016  1.00 20.00     0.341 C 
BRANCH   9  10
HETATM   10  C1  UNL     1     -37.329  14.926  -3.805  1.00 20.00     0.261 C 
HETATM   11  O11 UNL     1     -38.298  14.171  -3.802  1.00 20.00    -0.305 OA
ENDBRANCH   9  10
ENDBRANCH   7   9
ENDBRANCH   2   7
TORSDOF 4
ENDMDL
MODEL 2
REMARK VINA RESULT:      -3.9      1.094      2.097
REMARK  4 active torsions:
REMARK  status: ('A' for Active; 'I' for Inactive)
REMARK    1  A    between atoms: C1_1  and  C7_7 
REMARK    2  A    between atoms: C7_7  and  N10_10 
REMARK    3  A    between atoms: C8_8  and  C9_9 
REMARK    4  A    between atoms: C8_8  and  N10_10 
ROOT
HETATM    1  C2  UNL     1     -33.779  16.694  -5.716  1.00 20.00     0.043 C 
HETATM    2  C8  UNL     1     -34.737  15.684  -5.085  1.00 20.00     0.226 C 
ENDROOT
BRANCH   2   3
HETATM    3  C9  UNL     1     -34.215  15.000  -3.780  1.00 20.00    -0.021 C 
HETATM    4  C3  UNL     1     -34.825  15.627  -2.511  1.00 20.00     0.016 C 
HETATM    5  C4  UNL     1     -34.550  13.495  -3.789  1.00 20.00     0.016 C 
HETATM    6  C5  UNL     1     -32.678  15.135  -3.698  1.00 20.00     0.016 C 
ENDBRANCH   2   3
BRANCH   2   7
HETATM    7  N10 UNL     1     -36.020  16.323  -4.871  1.00 20.00     0.095 N 
HETATM    8  C6  UNL     1     -36.028  17.681  -5.425  1.00 20.00     0.310 C 
BRANCH   7   9
HETATM    9  C7  UNL     1     -37.105  15.534  -5.465  1.00 20.00     0.341 C 
BRANCH   9  10
HETATM   10  C1  UNL     1     -38.096  15.202  -4.387  1.00 20.00     0.261 C 
HETATM   11  O11 UNL     1     -38.036  14.167  -3.728  1.00 20.00    -0.305 OA
ENDBRANCH   9  10
ENDBRANCH   7   9
ENDBRANCH   2   7
TORSDOF 4
ENDMDL
MODEL 3
REMARK VINA RESULT:      -3.8      1.870      2.741
REMARK  4 active torsions:
REMARK  status: ('A' for Active; 'I' for Inactive)
REMARK    1  A    between atoms: C1_1  and  C7_7 
REMARK    2  A    between atoms: C7_7  and  N10_10 
REMARK    3  A    between atoms: C8_8  and  C9_9 
REMARK    4  A    between atoms: C8_8  and  N10_10 
ROOT
HETATM    1  C2  UNL     1     -33.393  16.791  -4.685  1.00 20.00     0.043 C 
HETATM    2  C8  UNL     1     -34.384  16.276  -3.641  1.00 20.00     0.226 C 
ENDROOT
BRANCH   2   3
HETATM    3  C9  UNL     1     -34.664  17.253  -2.454  1.00 20.00    -0.021 C 
HETATM    4  C3  UNL     1     -33.634  18.397  -2.387  1.00 20.00     0.016 C 
HETATM    5  C4  UNL     1     -36.070  17.872  -2.586  1.00 20.00     0.016 C 
HETATM    6  C5  UNL     1     -34.619  16.479  -1.118  1.00 20.00     0.016 C 
ENDBRANCH   2   3
BRANCH   2   7
HETATM    7  N10 UNL     1     -35.610  15.888  -4.309  1.00 20.00     0.095 N 
HETATM    8  C6  UNL     1     -35.450  15.931  -5.766  1.00 20.00     0.310 C 
BRANCH   7   9
HETATM    9  C7  UNL     1     -36.033  14.546  -3.891  1.00 20.00     0.341 C 
BRANCH   9  10
HETATM   10  C1  UNL     1     -34.848  13.628  -3.976  1.00 20.00     0.261 C 
HETATM   11  O11 UNL     1     -34.866  12.579  -4.616  1.00 20.00    -0.305 OA
ENDBRANCH   9  10
ENDBRANCH   7   9
ENDBRANCH   2   7
TORSDOF 4
ENDMDL
MODEL 4
REMARK VINA RESULT:      -3.8      2.031      3.512
REMARK  4 active torsions:
REMARK  status: ('A' for Active; 'I' for Inactive)
REMARK    1  A    between atoms: C1_1  and  C7_7 
REMARK    2  A    between atoms: C7_7  and  N10_10 
REMARK    3  A    between atoms: C8_8  and  C9_9 
REMARK    4  A    between atoms: C8_8  and  N10_10 
ROOT
HETATM    1  C2  UNL     1     -36.927  17.327  -5.759  1.00 20.00     0.043 C 
HETATM    2  C8  UNL     1     -36.002  16.111  -5.705  1.00 20.00     0.226 C 
ENDROOT
BRANCH   2   3
HETATM    3  C9  UNL     1     -34.639  16.280  -6.452  1.00 20.00    -0.021 C 
HETATM    4  C3  UNL     1     -33.463  16.476  -5.476  1.00 20.00     0.016 C 
HETATM    5  C4  UNL     1     -34.347  15.044  -7.326  1.00 20.00     0.016 C 
HETATM    6  C5  UNL     1     -34.705  17.508  -7.387  1.00 20.00     0.016 C 
ENDBRANCH   2   3
BRANCH   2   7
HETATM    7  N10 UNL     1     -35.805  15.731  -4.321  1.00 20.00     0.095 N 
HETATM    8  C6  UNL     1     -36.535  16.632  -3.421  1.00 20.00     0.310 C 
BRANCH   7   9
HETATM    9  C7  UNL     1     -36.228  14.344  -4.091  1.00 20.00     0.341 C 
BRANCH   9  10
HETATM   10  C1  UNL     1     -35.000  13.486  -3.983  1.00 20.00     0.261 C 
HETATM   11  O11 UNL     1     -34.747  12.590  -4.784  1.00 20.00    -0.305 OA
ENDBRANCH   9  10
ENDBRANCH   7   9
ENDBRANCH   2   7
TORSDOF 4
ENDMDL
MODEL 5
REMARK VINA RESULT:      -3.8      2.250      3.575
REMARK  4 active torsions:
REMARK  status: ('A' for Active; 'I' for Inactive)
REMARK    1  A    between atoms: C1_1  and  C7_7 
REMARK    2  A    between atoms: C7_7  and  N10_10 
REMARK    3  A    between atoms: C8_8  and  C9_9 
REMARK    4  A    between atoms: C8_8  and  N10_10 
ROOT
HETATM    1  C2  UNL     1     -33.798  17.789  -3.923  1.00 20.00     0.043 C 
HETATM    2  C8  UNL     1     -33.860  16.955  -2.643  1.00 20.00     0.226 C 
ENDROOT
BRANCH   2   3
HETATM    3  C9  UNL     1     -34.136  17.766  -1.336  1.00 20.00    -0.021 C 
HETATM    4  C3  UNL     1     -32.840  18.315  -0.708  1.00 20.00     0.016 C 
HETATM    5  C4  UNL     1     -35.076  18.953  -1.627  1.00 20.00     0.016 C 
HETATM    6  C5  UNL     1     -34.834  16.861  -0.297  1.00 20.00     0.016 C 
ENDBRANCH   2   3
BRANCH   2   7
HETATM    7  N10 UNL     1     -34.828  15.892  -2.822  1.00 20.00     0.095 N 
HETATM    8  C6  UNL     1     -35.850  16.273  -3.803  1.00 20.00     0.310 C 
BRANCH   7   9
HETATM    9  C7  UNL     1     -34.171  14.649  -3.242  1.00 20.00     0.341 C 
BRANCH   9  10
HETATM   10  C1  UNL     1     -35.112  13.894  -4.136  1.00 20.00     0.261 C 
HETATM   11  O11 UNL     1     -35.044  12.677  -4.292  1.00 20.00    -0.305 OA
ENDBRANCH   9  10
ENDBRANCH   7   9
ENDBRANCH   2   7
TORSDOF 4
ENDMDL
MODEL 6
REMARK VINA RESULT:      -3.7      1.999      3.595
REMARK  4 active torsions:
REMARK  status: ('A' for Active; 'I' for Inactive)
REMARK    1  A    between atoms: C1_1  and  C7_7 
REMARK    2  A    between atoms: C7_7  and  N10_10 
REMARK    3  A    between atoms: C8_8  and  C9_9 
REMARK    4  A    between atoms: C8_8  and  N10_10 
ROOT
HETATM    1  C2  UNL     1     -33.583  17.687  -4.966  1.00 20.00     0.043 C 
HETATM    2  C8  UNL     1     -34.626  16.594  -5.205  1.00 20.00     0.226 C 
ENDROOT
BRANCH   2   3
HETATM    3  C9  UNL     1     -35.038  16.384  -6.698  1.00 20.00    -0.021 C 
HETATM    4  C3  UNL     1     -36.562  16.237  -6.865  1.00 20.00     0.016 C 
HETATM    5  C4  UNL     1     -34.567  17.574  -7.558  1.00 20.00     0.016 C 
HETATM    6  C5  UNL     1     -34.362  15.111  -7.253  1.00 20.00     0.016 C 
ENDBRANCH   2   3
BRANCH   2   7
HETATM    7  N10 UNL     1     -34.158  15.360  -4.606  1.00 20.00     0.095 N 
HETATM    8  C6  UNL     1     -32.880  15.565  -3.915  1.00 20.00     0.310 C 
BRANCH   7   9
HETATM    9  C7  UNL     1     -35.152  14.820  -3.671  1.00 20.00     0.341 C 
BRANCH   9  10
HETATM   10  C1  UNL     1     -35.619  13.491  -4.190  1.00 20.00     0.261 C 
HETATM   11  O11 UNL     1     -34.849  12.654  -4.655  1.00 20.00    -0.305 OA
ENDBRANCH   9  10
ENDBRANCH   7   9
ENDBRANCH   2   7
TORSDOF 4
ENDMDL
MODEL 7
REMARK VINA RESULT:      -3.7      1.984      3.155
REMARK  4 active torsions:
REMARK  status: ('A' for Active; 'I' for Inactive)
REMARK    1  A    between atoms: C1_1  and  C7_7 
REMARK    2  A    between atoms: C7_7  and  N10_10 
REMARK    3  A    between atoms: C8_8  and  C9_9 
REMARK    4  A    between atoms: C8_8  and  N10_10 
ROOT
HETATM    1  C2  UNL     1     -34.627  15.941  -2.233  1.00 20.00     0.043 C 
HETATM    2  C8  UNL     1     -34.674  16.467  -3.668  1.00 20.00     0.226 C 
ENDROOT
BRANCH   2   3
HETATM    3  C9  UNL     1     -34.424  18.002  -3.821  1.00 20.00    -0.021 C 
HETATM    4  C3  UNL     1     -33.560  18.329  -5.055  1.00 20.00     0.016 C 
HETATM    5  C4  UNL     1     -35.762  18.756  -3.950  1.00 20.00     0.016 C 
HETATM    6  C5  UNL     1     -33.703  18.542  -2.566  1.00 20.00     0.016 C 
ENDBRANCH   2   3
BRANCH   2   7
HETATM    7  N10 UNL     1     -33.755  15.696  -4.481  1.00 20.00     0.095 N 
HETATM    8  C6  UNL     1     -32.769  15.004  -3.645  1.00 20.00     0.310 C 
BRANCH   7   9
HETATM    9  C7  UNL     1     -34.477  14.723  -5.311  1.00 20.00     0.341 C 
BRANCH   9  10
HETATM   10  C1  UNL     1     -34.241  13.352  -4.747  1.00 20.00     0.261 C 
HETATM   11  O11 UNL     1     -35.154  12.636  -4.343  1.00 20.00    -0.305 OA
ENDBRANCH   9  10
ENDBRANCH   7   9
ENDBRANCH   2   7
TORSDOF 4
ENDMDL
MODEL 8
REMARK VINA RESULT:      -3.7      2.184      3.100
REMARK  4 active torsions:
REMARK  status: ('A' for Active; 'I' for Inactive)
REMARK    1  A    between atoms: C1_1  and  C7_7 
REMARK    2  A    between atoms: C7_7  and  N10_10 
REMARK    3  A    between atoms: C8_8  and  C9_9 
REMARK    4  A    between atoms: C8_8  and  N10_10 
ROOT
HETATM    1  C2  UNL     1     -36.718  14.685  -3.865  1.00 20.00     0.043 C 
HETATM    2  C8  UNL     1     -35.373  15.339  -3.544  1.00 20.00     0.226 C 
ENDROOT
BRANCH   2   3
HETATM    3  C9  UNL     1     -34.180  14.877  -4.443  1.00 20.00    -0.021 C 
HETATM    4  C3  UNL     1     -34.655  14.340  -5.807  1.00 20.00     0.016 C 
HETATM    5  C4  UNL     1     -33.209  16.047  -4.691  1.00 20.00     0.016 C 
HETATM    6  C5  UNL     1     -33.390  13.758  -3.728  1.00 20.00     0.016 C 
ENDBRANCH   2   3
BRANCH   2   7
HETATM    7  N10 UNL     1     -35.532  16.778  -3.573  1.00 20.00     0.095 N 
HETATM    8  C6  UNL     1     -36.667  17.164  -4.419  1.00 20.00     0.310 C 
BRANCH   7   9
HETATM    9  C7  UNL     1     -35.713  17.314  -2.219  1.00 20.00     0.341 C 
BRANCH   9  10
HETATM   10  C1  UNL     1     -34.694  16.680  -1.317  1.00 20.00     0.261 C 
HETATM   11  O11 UNL     1     -34.778  16.719  -0.092  1.00 20.00    -0.305 OA
ENDBRANCH   9  10
ENDBRANCH   7   9
ENDBRANCH   2   7
TORSDOF 4
ENDMDL
MODEL 9
REMARK VINA RESULT:      -3.6      1.912      2.952
REMARK  4 active torsions:
REMARK  status: ('A' for Active; 'I' for Inactive)
REMARK    1  A    between atoms: C1_1  and  C7_7 
REMARK    2  A    between atoms: C7_7  and  N10_10 
REMARK    3  A    between atoms: C8_8  and  C9_9 
REMARK    4  A    between atoms: C8_8  and  N10_10 
ROOT
HETATM    1  C2  UNL     1     -36.782  16.770  -3.284  1.00 20.00     0.043 C 
HETATM    2  C8  UNL     1     -35.769  16.062  -4.184  1.00 20.00     0.226 C 
ENDROOT
BRANCH   2   3
HETATM    3  C9  UNL     1     -34.464  15.586  -3.467  1.00 20.00    -0.021 C 
HETATM    4  C3  UNL     1     -34.412  16.038  -1.995  1.00 20.00     0.016 C 
HETATM    5  C4  UNL     1     -34.358  14.048  -3.508  1.00 20.00     0.016 C 
HETATM    6  C5  UNL     1     -33.228  16.158  -4.196  1.00 20.00     0.016 C 
ENDBRANCH   2   3
BRANCH   2   7
HETATM    7  N10 UNL     1     -36.430  14.967  -4.865  1.00 20.00     0.095 N 
HETATM    8  C6  UNL     1     -37.774  14.746  -4.320  1.00 20.00     0.310 C 
BRANCH   7   9
HETATM    9  C7  UNL     1     -36.511  15.219  -6.309  1.00 20.00     0.341 C 
BRANCH   9  10
HETATM   10  C1  UNL     1     -35.459  14.394  -6.993  1.00 20.00     0.261 C 
HETATM   11  O11 UNL     1     -34.334  14.824  -7.235  1.00 20.00    -0.305 OA
ENDBRANCH   9  10
ENDBRANCH   7   9
ENDBRANCH   2   7
TORSDOF 4
ENDMDL
