MODEL 1
REMARK VINA RESULT:      -4.5      0.000      0.000
REMARK  2 active torsions:
REMARK  status: ('A' for Active; 'I' for Inactive)
REMARK    1  A    between atoms: C2_2  and  C8_8 
REMARK    2  A    between atoms: C8_8  and  O9_9 
ROOT
HETATM    1  C3  UNL     1     -35.826  14.268  -4.101  1.00 20.00     0.012 C 
HETATM    2  C4  UNL     1     -34.736  14.240  -5.877  1.00 20.00     0.012 C 
HETATM    3  C5  UNL     1     -33.448  13.709  -3.847  1.00 20.00     0.047 C 
HETATM    4  C6  UNL     1     -34.710  13.312  -4.624  1.00 20.00    -0.010 C 
HETATM    5  C7  UNL     1     -34.869  15.325  -4.754  1.00 20.00     0.024 C 
HETATM    6  C8  UNL     1     -33.554  15.240  -3.969  1.00 20.00     0.079 C 
ENDROOT
BRANCH   6   7
HETATM    7  C2  UNL     1     -33.666  15.980  -2.680  1.00 20.00     0.001 C 
HETATM    8  C1  UNL     1     -33.956  17.281  -2.587  1.00 20.00     0.010 C 
ENDBRANCH   6   7
BRANCH   6   9
HETATM    9  O9  UNL     1     -32.491  15.805  -4.724  1.00 20.00    -0.385 OA
HETATM   10  H21 UNL     1     -32.404  15.273  -5.530  1.00 20.00     0.211 HD
ENDBRANCH   6   9
TORSDOF 2
ENDMDL
MODEL 2
REMARK VINA RESULT:      -4.1      1.247      1.782
REMARK  2 active torsions:
REMARK  status: ('A' for Active; 'I' for Inactive)
REMARK    1  A    between atoms: C2_2  and  C8_8 
REMARK    2  A    between atoms: C8_8  and  O9_9 
ROOT
HETATM    1  C3  UNL     1     -35.853  14.878  -5.255  1.00 20.00     0.012 C 
HETATM    2  C4  UNL     1     -34.974  13.287  -4.234  1.00 20.00     0.012 C 
HETATM    3  C5  UNL     1     -34.632  15.503  -3.219  1.00 20.00     0.047 C 
HETATM    4  C6  UNL     1     -35.725  14.559  -3.733  1.00 20.00    -0.010 C 
HETATM    5  C7  UNL     1     -34.379  14.343  -5.229  1.00 20.00     0.024 C 
HETATM    6  C8  UNL     1     -33.596  15.318  -4.342  1.00 20.00     0.079 C 
ENDROOT
BRANCH   6   7
HETATM    7  C2  UNL     1     -33.248  16.552  -5.103  1.00 20.00     0.001 C 
HETATM    8  C1  UNL     1     -33.602  17.786  -4.730  1.00 20.00     0.010 C 
ENDBRANCH   6   7
BRANCH   6   9
HETATM    9  O9  UNL     1     -32.393  14.715  -3.886  1.00 20.00    -0.385 OA
HETATM   10  H21 UNL     1     -31.809  14.634  -4.657  1.00 20.00     0.211 HD
ENDBRANCH   6   9
TORSDOF 2
ENDMDL
MODEL 3
REMARK VINA RESULT:      -4.1      0.857      3.094
REMARK  2 active torsions:
REMARK  status: ('A' for Active; 'I' for Inactive)
REMARK    1  A    between atoms: C2_2  and  C8_8 
REMARK    2  A    between atoms: C8_8  and  O9_9 
ROOT
HETATM    1  C3  UNL     1     -35.062  16.107  -2.159  1.00 20.00     0.012 C 
HETATM    2  C4  UNL     1     -33.849  17.626  -2.911  1.00 20.00     0.012 C 
HETATM    3  C5  UNL     1     -34.878  16.168  -4.607  1.00 20.00     0.047 C 
HETATM    4  C6  UNL     1     -35.213  17.047  -3.395  1.00 20.00    -0.010 C 
HETATM    5  C7  UNL     1     -33.579  16.101  -2.668  1.00 20.00     0.024 C 
HETATM    6  C8  UNL     1     -33.618  15.468  -4.064  1.00 20.00     0.079 C 
ENDROOT
BRANCH   6   7
HETATM    7  C2  UNL     1     -33.703  13.983  -3.963  1.00 20.00     0.001 C 
HETATM    8  C1  UNL     1     -34.642  13.245  -4.564  1.00 20.00     0.010 C 
ENDBRANCH   6   7
BRANCH   6   9
HETATM    9  O9  UNL     1     -32.446  15.805  -4.792  1.00 20.00    -0.385 OA
HETATM   10  H21 UNL     1     -32.416  15.218  -5.564  1.00 20.00     0.211 HD
ENDBRANCH   6   9
TORSDOF 2
ENDMDL
MODEL 4
REMARK VINA RESULT:      -4.1      1.728      3.104
REMARK  2 active torsions:
REMARK  status: ('A' for Active; 'I' for Inactive)
REMARK    1  A    between atoms: C2_2  and  C8_8 
REMARK    2  A    between atoms: C8_8  and  O9_9 
ROOT
HETATM    1  C3  UNL     1     -34.188  16.224  -3.485  1.00 20.00     0.012 C 
HETATM    2  C4  UNL     1     -32.915  14.579  -3.632  1.00 20.00     0.012 C 
HETATM    3  C5  UNL     1     -34.599  14.767  -5.419  1.00 20.00     0.047 C 
HETATM    4  C6  UNL     1     -33.489  15.552  -4.708  1.00 20.00    -0.010 C 
HETATM    5  C7  UNL     1     -34.381  14.718  -3.095  1.00 20.00     0.024 C 
HETATM    6  C8  UNL     1     -35.261  14.110  -4.194  1.00 20.00     0.079 C 
ENDROOT
BRANCH   6   7
HETATM    7  C2  UNL     1     -36.692  14.463  -3.972  1.00 20.00     0.001 C 
HETATM    8  C1  UNL     1     -37.455  15.093  -4.871  1.00 20.00     0.010 C 
ENDBRANCH   6   7
BRANCH   6   9
HETATM    9  O9  UNL     1     -35.140  12.695  -4.197  1.00 20.00    -0.385 OA
HETATM   10  H21 UNL     1     -35.828  12.355  -4.790  1.00 20.00     0.211 HD
ENDBRANCH   6   9
TORSDOF 2
ENDMDL
MODEL 5
REMARK VINA RESULT:      -4.1      1.790      2.478
REMARK  2 active torsions:
REMARK  status: ('A' for Active; 'I' for Inactive)
REMARK    1  A    between atoms: C2_2  and  C8_8 
REMARK    2  A    between atoms: C8_8  and  O9_9 
ROOT
HETATM    1  C3  UNL     1     -34.819  16.021  -5.932  1.00 20.00     0.012 C 
HETATM    2  C4  UNL     1     -35.419  14.207  -6.765  1.00 20.00     0.012 C 
HETATM    3  C5  UNL     1     -36.462  14.767  -4.607  1.00 20.00     0.047 C 
HETATM    4  C6  UNL     1     -36.211  15.321  -6.015  1.00 20.00    -0.010 C 
HETATM    5  C7  UNL     1     -34.380  14.545  -5.639  1.00 20.00     0.024 C 
HETATM    6  C8  UNL     1     -35.078  14.152  -4.331  1.00 20.00     0.079 C 
ENDROOT
BRANCH   6   7
HETATM    7  C2  UNL     1     -34.348  14.714  -3.160  1.00 20.00     0.001 C 
HETATM    8  C1  UNL     1     -34.834  15.672  -2.365  1.00 20.00     0.010 C 
ENDBRANCH   6   7
BRANCH   6   9
HETATM    9  O9  UNL     1     -35.121  12.738  -4.200  1.00 20.00    -0.385 OA
HETATM   10  H21 UNL     1     -34.265  12.463  -3.836  1.00 20.00     0.211 HD
ENDBRANCH   6   9
TORSDOF 2
ENDMDL
MODEL 6
REMARK VINA RESULT:      -4.0     11.735     13.040
REMARK  2 active torsions:
REMARK  status: ('A' for Active; 'I' for Inactive)
REMARK    1  A    between atoms: C2_2  and  C8_8 
REMARK    2  A    between atoms: C8_8  and  O9_9 
ROOT
HETATM    1  C3  UNL     1     -41.843   6.839  -2.337  1.00 20.00     0.012 C 
HETATM    2  C4  UNL     1     -42.855   6.857  -0.515  1.00 20.00     0.012 C 
HETATM    3  C5  UNL     1     -40.606   5.859  -0.456  1.00 20.00     0.047 C 
HETATM    4  C6  UNL     1     -41.363   7.124  -0.880  1.00 20.00    -0.010 C 
HETATM    5  C7  UNL     1     -42.647   5.726  -1.581  1.00 20.00     0.024 C 
HETATM    6  C8  UNL     1     -41.596   4.795  -0.965  1.00 20.00     0.079 C 
ENDROOT
BRANCH   6   7
HETATM    7  C2  UNL     1     -41.059   3.860  -1.993  1.00 20.00     0.001 C 
HETATM    8  C1  UNL     1     -41.823   3.108  -2.793  1.00 20.00     0.010 C 
ENDBRANCH   6   7
BRANCH   6   9
HETATM    9  O9  UNL     1     -42.168   4.031   0.087  1.00 20.00    -0.385 OA
HETATM   10  H21 UNL     1     -41.849   3.121  -0.021  1.00 20.00     0.211 HD
ENDBRANCH   6   9
TORSDOF 2
ENDMDL
MODEL 7
REMARK VINA RESULT:      -4.0      1.680      3.243
REMARK  2 active torsions:
REMARK  status: ('A' for Active; 'I' for Inactive)
REMARK    1  A    between atoms: C2_2  and  C8_8 
REMARK    2  A    between atoms: C8_8  and  O9_9 
ROOT
HETATM    1  C3  UNL     1     -34.132  16.337  -4.140  1.00 20.00     0.012 C 
HETATM    2  C4  UNL     1     -34.901  15.326  -2.487  1.00 20.00     0.012 C 
HETATM    3  C5  UNL     1     -33.305  14.042  -3.853  1.00 20.00     0.047 C 
HETATM    4  C6  UNL     1     -33.471  15.372  -3.107  1.00 20.00    -0.010 C 
HETATM    5  C7  UNL     1     -35.281  15.278  -4.007  1.00 20.00     0.024 C 
HETATM    6  C8  UNL     1     -34.693  13.956  -4.516  1.00 20.00     0.079 C 
ENDROOT
BRANCH   6   7
HETATM    7  C2  UNL     1     -34.690  13.924  -6.006  1.00 20.00     0.001 C 
HETATM    8  C1  UNL     1     -35.651  14.458  -6.768  1.00 20.00     0.010 C 
ENDBRANCH   6   7
BRANCH   6   9
HETATM    9  O9  UNL     1     -35.460  12.859  -4.042  1.00 20.00    -0.385 OA
HETATM   10  H21 UNL     1     -34.865  12.308  -3.510  1.00 20.00     0.211 HD
ENDBRANCH   6   9
TORSDOF 2
ENDMDL
MODEL 8
REMARK VINA RESULT:      -4.0      1.896      2.580
REMARK  2 active torsions:
REMARK  status: ('A' for Active; 'I' for Inactive)
REMARK    1  A    between atoms: C2_2  and  C8_8 
REMARK    2  A    between atoms: C8_8  and  O9_9 
ROOT
HETATM    1  C3  UNL     1     -32.884  15.054  -3.711  1.00 20.00     0.012 C 
HETATM    2  C4  UNL     1     -34.585  14.469  -4.765  1.00 20.00     0.012 C 
HETATM    3  C5  UNL     1     -34.611  16.785  -3.933  1.00 20.00     0.047 C 
HETATM    4  C6  UNL     1     -33.772  15.799  -4.756  1.00 20.00    -0.010 C 
HETATM    5  C7  UNL     1     -34.299  14.582  -3.227  1.00 20.00     0.024 C 
HETATM    6  C8  UNL     1     -35.035  15.852  -2.784  1.00 20.00     0.079 C 
ENDROOT
BRANCH   6   7
HETATM    7  C2  UNL     1     -34.589  16.266  -1.424  1.00 20.00     0.001 C 
HETATM    8  C1  UNL     1     -33.975  17.423  -1.158  1.00 20.00     0.010 C 
ENDBRANCH   6   7
BRANCH   6   9
HETATM    9  O9  UNL     1     -36.437  15.624  -2.751  1.00 20.00    -0.385 OA
HETATM   10  H21 UNL     1     -36.664  15.401  -1.834  1.00 20.00     0.211 HD
ENDBRANCH   6   9
TORSDOF 2
ENDMDL
MODEL 9
REMARK VINA RESULT:      -3.9      1.501      3.174
REMARK  2 active torsions:
REMARK  status: ('A' for Active; 'I' for Inactive)
REMARK    1  A    between atoms: C2_2  and  C8_8 
REMARK    2  A    between atoms: C8_8  and  O9_9 
ROOT
HETATM    1  C3  UNL     1     -35.222  16.845  -3.734  1.00 20.00     0.012 C 
HETATM    2  C4  UNL     1     -34.548  15.893  -2.006  1.00 20.00     0.012 C 
HETATM    3  C5  UNL     1     -33.184  15.505  -4.018  1.00 20.00     0.047 C 
HETATM    4  C6  UNL     1     -33.789  16.621  -3.158  1.00 20.00    -0.010 C 
HETATM    5  C7  UNL     1     -35.377  15.369  -3.229  1.00 20.00     0.024 C 
HETATM    6  C8  UNL     1     -34.383  14.539  -4.050  1.00 20.00     0.079 C 
ENDROOT
BRANCH   6   7
HETATM    7  C2  UNL     1     -34.936  14.248  -5.403  1.00 20.00     0.001 C 
HETATM    8  C1  UNL     1     -34.466  14.784  -6.535  1.00 20.00     0.010 C 
ENDBRANCH   6   7
BRANCH   6   9
HETATM    9  O9  UNL     1     -34.112  13.306  -3.398  1.00 20.00    -0.385 OA
HETATM   10  H21 UNL     1     -33.556  13.510  -2.630  1.00 20.00     0.211 HD
ENDBRANCH   6   9
TORSDOF 2
ENDMDL
