MODEL 1
REMARK VINA RESULT:      -5.3      0.000      0.000
REMARK  1 active torsions:
REMARK  status: ('A' for Active; 'I' for Inactive)
REMARK    1  A    between atoms: C4_4  and  C7_7 
ROOT
HETATM    1  C1  UNL     1     -34.375   5.627   6.224  1.00 20.00     0.056 A 
HETATM    2  C2  UNL     1     -33.795   6.689   5.672  1.00 20.00     0.010 A 
HETATM    3  C3  UNL     1     -34.835   4.801   5.115  1.00 20.00     0.157 A 
HETATM    4  C4  UNL     1     -33.841   6.628   4.193  1.00 20.00     0.157 A 
HETATM    5  N8  UNL     1     -35.448   3.675   5.179  1.00 20.00    -0.278 NA
HETATM    6  O9  UNL     1     -34.524   5.394   3.929  1.00 20.00    -0.325 OA
HETATM    7  H20 UNL     1     -35.641   3.334   4.230  1.00 20.00     0.189 HD
ENDROOT
BRANCH   4   8
HETATM    8  C7  UNL     1     -32.464   6.588   3.555  1.00 20.00     0.011 C 
HETATM    9  C5  UNL     1     -32.318   5.362   2.649  1.00 20.00     0.012 C 
HETATM   10  C6  UNL     1     -32.192   7.868   2.763  1.00 20.00     0.012 C 
ENDBRANCH   4   8
TORSDOF 1
ENDMDL
MODEL 2
REMARK VINA RESULT:      -4.7      2.148      3.659
REMARK  1 active torsions:
REMARK  status: ('A' for Active; 'I' for Inactive)
REMARK    1  A    between atoms: C4_4  and  C7_7 
ROOT
HETATM    1  C1  UNL     1     -33.151   5.524   2.598  1.00 20.00     0.056 A 
HETATM    2  C2  UNL     1     -34.361   5.142   2.995  1.00 20.00     0.010 A 
HETATM    3  C3  UNL     1     -32.802   6.670   3.430  1.00 20.00     0.157 A 
HETATM    4  C4  UNL     1     -34.874   5.999   4.088  1.00 20.00     0.157 A 
HETATM    5  N8  UNL     1     -31.719   7.359   3.398  1.00 20.00    -0.278 NA
HETATM    6  O9  UNL     1     -33.816   6.945   4.296  1.00 20.00    -0.325 OA
HETATM    7  H20 UNL     1     -31.765   8.103   4.105  1.00 20.00     0.189 HD
ENDROOT
BRANCH   4   8
HETATM    8  C7  UNL     1     -35.126   5.235   5.376  1.00 20.00     0.011 C 
HETATM    9  C5  UNL     1     -34.789   3.752   5.205  1.00 20.00     0.012 C 
HETATM   10  C6  UNL     1     -34.321   5.832   6.532  1.00 20.00     0.012 C 
ENDBRANCH   4   8
TORSDOF 1
ENDMDL
MODEL 3
REMARK VINA RESULT:      -4.4     11.564     13.148
REMARK  1 active torsions:
REMARK  status: ('A' for Active; 'I' for Inactive)
REMARK    1  A    between atoms: C4_4  and  C7_7 
ROOT
HETATM    1  C1  UNL     1     -33.285  13.838  -3.602  1.00 20.00     0.056 A 
HETATM    2  C2  UNL     1     -32.960  15.121  -3.730  1.00 20.00     0.010 A 
HETATM    3  C3  UNL     1     -34.614  13.703  -4.186  1.00 20.00     0.157 A 
HETATM    4  C4  UNL     1     -34.036  15.894  -4.390  1.00 20.00     0.157 A 
HETATM    5  N8  UNL     1     -35.321  12.636  -4.286  1.00 20.00    -0.278 NA
HETATM    6  O9  UNL     1     -35.050  14.911  -4.642  1.00 20.00    -0.325 OA
HETATM    7  H20 UNL     1     -36.213  12.857  -4.745  1.00 20.00     0.189 HD
ENDROOT
BRANCH   4   8
HETATM    8  C7  UNL     1     -33.601  16.517  -5.706  1.00 20.00     0.011 C 
HETATM    9  C5  UNL     1     -34.518  16.072  -6.848  1.00 20.00     0.012 C 
HETATM   10  C6  UNL     1     -33.581  18.043  -5.606  1.00 20.00     0.012 C 
ENDBRANCH   4   8
TORSDOF 1
ENDMDL
MODEL 4
REMARK VINA RESULT:      -4.4     11.710     12.638
REMARK  1 active torsions:
REMARK  status: ('A' for Active; 'I' for Inactive)
REMARK    1  A    between atoms: C4_4  and  C7_7 
ROOT
HETATM    1  C1  UNL     1     -34.348  14.642  -5.330  1.00 20.00     0.056 A 
HETATM    2  C2  UNL     1     -33.761  15.714  -4.807  1.00 20.00     0.010 A 
HETATM    3  C3  UNL     1     -34.707  13.792  -4.201  1.00 20.00     0.157 A 
HETATM    4  C4  UNL     1     -33.696  15.635  -3.330  1.00 20.00     0.157 A 
HETATM    5  N8  UNL     1     -35.299  12.653  -4.234  1.00 20.00    -0.278 NA
HETATM    6  O9  UNL     1     -34.319  14.377  -3.033  1.00 20.00    -0.325 OA
HETATM    7  H20 UNL     1     -35.416  12.298  -3.277  1.00 20.00     0.189 HD
ENDROOT
BRANCH   4   8
HETATM    8  C7  UNL     1     -34.461  16.750  -2.639  1.00 20.00     0.011 C 
HETATM    9  C5  UNL     1     -34.587  16.476  -1.138  1.00 20.00     0.012 C 
HETATM   10  C6  UNL     1     -33.786  18.102  -2.876  1.00 20.00     0.012 C 
ENDBRANCH   4   8
TORSDOF 1
ENDMDL
MODEL 5
REMARK VINA RESULT:      -4.3     12.511     13.211
REMARK  1 active torsions:
REMARK  status: ('A' for Active; 'I' for Inactive)
REMARK    1  A    between atoms: C4_4  and  C7_7 
ROOT
HETATM    1  C1  UNL     1     -34.216  14.995  -3.311  1.00 20.00     0.056 A 
HETATM    2  C2  UNL     1     -34.851  15.596  -2.309  1.00 20.00     0.010 A 
HETATM    3  C3  UNL     1     -33.393  16.023  -3.937  1.00 20.00     0.157 A 
HETATM    4  C4  UNL     1     -34.493  17.030  -2.219  1.00 20.00     0.157 A 
HETATM    5  N8  UNL     1     -32.607  15.892  -4.944  1.00 20.00    -0.278 NA
HETATM    6  O9  UNL     1     -33.563  17.213  -3.297  1.00 20.00    -0.325 OA
HETATM    7  H20 UNL     1     -32.163  16.794  -5.153  1.00 20.00     0.189 HD
ENDROOT
BRANCH   4   8
HETATM    8  C7  UNL     1     -33.821  17.397  -0.907  1.00 20.00     0.011 C 
HETATM    9  C5  UNL     1     -33.185  18.787  -0.990  1.00 20.00     0.012 C 
HETATM   10  C6  UNL     1     -34.819  17.337   0.251  1.00 20.00     0.012 C 
ENDBRANCH   4   8
TORSDOF 1
ENDMDL
MODEL 6
REMARK VINA RESULT:      -4.2     11.576     12.824
REMARK  1 active torsions:
REMARK  status: ('A' for Active; 'I' for Inactive)
REMARK    1  A    between atoms: C4_4  and  C7_7 
ROOT
HETATM    1  C1  UNL     1     -33.293  13.936  -3.797  1.00 20.00     0.056 A 
HETATM    2  C2  UNL     1     -33.138  15.215  -3.469  1.00 20.00     0.010 A 
HETATM    3  C3  UNL     1     -34.732  13.716  -3.879  1.00 20.00     0.157 A 
HETATM    4  C4  UNL     1     -34.442  15.900  -3.316  1.00 20.00     0.157 A 
HETATM    5  N8  UNL     1     -35.342  12.624  -4.172  1.00 20.00    -0.278 NA
HETATM    6  O9  UNL     1     -35.399  14.868  -3.593  1.00 20.00    -0.325 OA
HETATM    7  H20 UNL     1     -36.356  12.781  -4.150  1.00 20.00     0.189 HD
ENDROOT
BRANCH   4   8
HETATM    8  C7  UNL     1     -34.634  17.042  -4.299  1.00 20.00     0.011 C 
HETATM    9  C5  UNL     1     -33.418  17.181  -5.218  1.00 20.00     0.012 C 
HETATM   10  C6  UNL     1     -35.904  16.840  -5.128  1.00 20.00     0.012 C 
ENDBRANCH   4   8
TORSDOF 1
ENDMDL
MODEL 7
REMARK VINA RESULT:      -4.2      9.613     10.296
REMARK  1 active torsions:
REMARK  status: ('A' for Active; 'I' for Inactive)
REMARK    1  A    between atoms: C4_4  and  C7_7 
ROOT
HETATM    1  C1  UNL     1     -41.569   5.925   0.317  1.00 20.00     0.056 A 
HETATM    2  C2  UNL     1     -41.528   4.635  -0.003  1.00 20.00     0.010 A 
HETATM    3  C3  UNL     1     -41.221   6.649  -0.900  1.00 20.00     0.157 A 
HETATM    4  C4  UNL     1     -41.155   4.435  -1.422  1.00 20.00     0.157 A 
HETATM    5  N8  UNL     1     -41.140   7.920  -1.059  1.00 20.00    -0.278 NA
HETATM    6  O9  UNL     1     -40.976   5.771  -1.913  1.00 20.00    -0.325 OA
HETATM    7  H20 UNL     1     -40.875   8.129  -2.029  1.00 20.00     0.189 HD
ENDROOT
BRANCH   4   8
HETATM    8  C7  UNL     1     -42.238   3.742  -2.231  1.00 20.00     0.011 C 
HETATM    9  C5  UNL     1     -43.006   4.751  -3.089  1.00 20.00     0.012 C 
HETATM   10  C6  UNL     1     -41.641   2.643  -3.112  1.00 20.00     0.012 C 
ENDBRANCH   4   8
TORSDOF 1
ENDMDL
MODEL 8
REMARK VINA RESULT:      -4.1     12.163     12.789
REMARK  1 active torsions:
REMARK  status: ('A' for Active; 'I' for Inactive)
REMARK    1  A    between atoms: C4_4  and  C7_7 
ROOT
HETATM    1  C1  UNL     1     -35.795  14.349  -5.638  1.00 20.00     0.056 A 
HETATM    2  C2  UNL     1     -34.468  14.400  -5.586  1.00 20.00     0.010 A 
HETATM    3  C3  UNL     1     -36.248  14.307  -4.253  1.00 20.00     0.157 A 
HETATM    4  C4  UNL     1     -33.975  14.392  -4.189  1.00 20.00     0.157 A 
HETATM    5  N8  UNL     1     -37.458  14.256  -3.825  1.00 20.00    -0.278 NA
HETATM    6  O9  UNL     1     -35.178  14.328  -3.410  1.00 20.00    -0.325 OA
HETATM    7  H20 UNL     1     -37.459  14.238  -2.798  1.00 20.00     0.189 HD
ENDROOT
BRANCH   4   8
HETATM    8  C7  UNL     1     -33.203  15.647  -3.822  1.00 20.00     0.011 C 
HETATM    9  C5  UNL     1     -33.251  16.669  -4.960  1.00 20.00     0.012 C 
HETATM   10  C6  UNL     1     -33.748  16.264  -2.532  1.00 20.00     0.012 C 
ENDBRANCH   4   8
TORSDOF 1
ENDMDL
MODEL 9
REMARK VINA RESULT:      -4.0     12.096     12.985
REMARK  1 active torsions:
REMARK  status: ('A' for Active; 'I' for Inactive)
REMARK    1  A    between atoms: C4_4  and  C7_7 
ROOT
HETATM    1  C1  UNL     1     -34.528  13.326  -4.926  1.00 20.00     0.056 A 
HETATM    2  C2  UNL     1     -34.667  13.668  -3.649  1.00 20.00     0.010 A 
HETATM    3  C3  UNL     1     -34.863  14.517  -5.697  1.00 20.00     0.157 A 
HETATM    4  C4  UNL     1     -35.096  15.078  -3.505  1.00 20.00     0.157 A 
HETATM    5  N8  UNL     1     -34.863  14.649  -6.974  1.00 20.00    -0.278 NA
HETATM    6  O9  UNL     1     -35.199  15.538  -4.860  1.00 20.00    -0.325 OA
HETATM    7  H20 UNL     1     -35.142  15.606  -7.221  1.00 20.00     0.189 HD
ENDROOT
BRANCH   4   8
HETATM    8  C7  UNL     1     -34.089  15.935  -2.757  1.00 20.00     0.011 C 
HETATM    9  C5  UNL     1     -33.723  17.179  -3.571  1.00 20.00     0.012 C 
HETATM   10  C6  UNL     1     -34.629  16.338  -1.384  1.00 20.00     0.012 C 
ENDBRANCH   4   8
TORSDOF 1
ENDMDL
