MODEL 1
REMARK VINA RESULT:      -4.6      0.000      0.000
REMARK  2 active torsions:
REMARK  status: ('A' for Active; 'I' for Inactive)
REMARK    1  A    between atoms: C3_3  and  C6_6 
REMARK    2  A    between atoms: C3_3  and  O10_10 
ROOT
HETATM    1  C1  UNL     1     -35.108   5.079   5.726  1.00 20.00    -0.003 C 
HETATM    2  C2  UNL     1     -34.240   5.948   6.257  1.00 20.00     0.132 C 
HETATM    3  C4  UNL     1     -35.106   4.762   4.265  1.00 20.00     0.032 C 
HETATM    4  C5  UNL     1     -34.261   5.776   3.496  1.00 20.00     0.046 C 
HETATM    5  C6  UNL     1     -32.984   6.081   4.273  1.00 20.00     0.227 C 
HETATM    6  O9  UNL     1     -33.240   6.601   5.583  1.00 20.00    -0.348 OA
ENDROOT
BRANCH   5   7
HETATM    7  C3  UNL     1     -32.200   7.159   3.600  1.00 20.00     0.288 C 
HETATM    8  O8  UNL     1     -31.214   7.696   4.088  1.00 20.00    -0.262 OA
BRANCH   7   9
HETATM    9  O10 UNL     1     -32.754   7.434   2.384  1.00 20.00    -0.324 OA
HETATM   10  C7  UNL     1     -32.091   8.448   1.622  1.00 20.00     0.213 C 
ENDBRANCH   7   9
ENDBRANCH   5   7
TORSDOF 2
ENDMDL
MODEL 2
REMARK VINA RESULT:      -4.6      1.248      1.806
REMARK  2 active torsions:
REMARK  status: ('A' for Active; 'I' for Inactive)
REMARK    1  A    between atoms: C3_3  and  C6_6 
REMARK    2  A    between atoms: C3_3  and  O10_10 
ROOT
HETATM    1  C1  UNL     1     -35.224   4.846   5.998  1.00 20.00    -0.003 C 
HETATM    2  C2  UNL     1     -35.134   4.476   4.715  1.00 20.00     0.132 C 
HETATM    3  C4  UNL     1     -34.434   5.992   6.542  1.00 20.00     0.032 C 
HETATM    4  C5  UNL     1     -33.336   6.401   5.562  1.00 20.00     0.046 C 
HETATM    5  C6  UNL     1     -33.881   6.380   4.137  1.00 20.00     0.227 C 
HETATM    6  O9  UNL     1     -34.380   5.095   3.751  1.00 20.00    -0.348 OA
ENDROOT
BRANCH   5   7
HETATM    7  C3  UNL     1     -32.794   6.660   3.151  1.00 20.00     0.288 C 
HETATM    8  O8  UNL     1     -31.920   5.859   2.849  1.00 20.00    -0.262 OA
BRANCH   7   9
HETATM    9  O10 UNL     1     -32.940   7.924   2.660  1.00 20.00    -0.324 OA
HETATM   10  C7  UNL     1     -31.921   8.350   1.749  1.00 20.00     0.213 C 
ENDBRANCH   7   9
ENDBRANCH   5   7
TORSDOF 2
ENDMDL
MODEL 3
REMARK VINA RESULT:      -4.2     11.354     12.492
REMARK  2 active torsions:
REMARK  status: ('A' for Active; 'I' for Inactive)
REMARK    1  A    between atoms: C3_3  and  C6_6 
REMARK    2  A    between atoms: C3_3  and  O10_10 
ROOT
HETATM    1  C1  UNL     1     -33.961  17.196  -2.584  1.00 20.00    -0.003 C 
HETATM    2  C2  UNL     1     -33.542  17.095  -3.851  1.00 20.00     0.132 C 
HETATM    3  C4  UNL     1     -34.653  16.065  -1.894  1.00 20.00     0.032 C 
HETATM    4  C5  UNL     1     -35.083  15.002  -2.903  1.00 20.00     0.046 C 
HETATM    5  C6  UNL     1     -33.976  14.785  -3.930  1.00 20.00     0.227 C 
HETATM    6  O9  UNL     1     -33.637  15.980  -4.643  1.00 20.00    -0.348 OA
ENDROOT
BRANCH   5   7
HETATM    7  C3  UNL     1     -34.422  13.839  -4.996  1.00 20.00     0.288 C 
HETATM    8  O8  UNL     1     -34.786  12.690  -4.785  1.00 20.00    -0.262 OA
BRANCH   7   9
HETATM    9  O10 UNL     1     -34.355  14.457  -6.211  1.00 20.00    -0.324 OA
HETATM   10  C7  UNL     1     -35.531  14.351  -7.020  1.00 20.00     0.213 C 
ENDBRANCH   7   9
ENDBRANCH   5   7
TORSDOF 2
ENDMDL
MODEL 4
REMARK VINA RESULT:      -4.1     11.346     12.971
REMARK  2 active torsions:
REMARK  status: ('A' for Active; 'I' for Inactive)
REMARK    1  A    between atoms: C3_3  and  C6_6 
REMARK    2  A    between atoms: C3_3  and  O10_10 
ROOT
HETATM    1  C1  UNL     1     -33.363  16.981  -5.366  1.00 20.00    -0.003 C 
HETATM    2  C2  UNL     1     -33.459  16.485  -4.126  1.00 20.00     0.132 C 
HETATM    3  C4  UNL     1     -34.128  16.393  -6.507  1.00 20.00     0.032 C 
HETATM    4  C5  UNL     1     -34.706  15.032  -6.123  1.00 20.00     0.046 C 
HETATM    5  C6  UNL     1     -35.260  15.087  -4.703  1.00 20.00     0.227 C 
HETATM    6  O9  UNL     1     -34.271  15.452  -3.734  1.00 20.00    -0.348 OA
ENDROOT
BRANCH   5   7
HETATM    7  C3  UNL     1     -35.720  13.736  -4.263  1.00 20.00     0.288 C 
HETATM    8  O8  UNL     1     -35.031  12.727  -4.313  1.00 20.00    -0.262 OA
BRANCH   7   9
HETATM    9  O10 UNL     1     -37.004  13.819  -3.807  1.00 20.00    -0.324 OA
HETATM   10  C7  UNL     1     -37.637  15.091  -3.985  1.00 20.00     0.213 C 
ENDBRANCH   7   9
ENDBRANCH   5   7
TORSDOF 2
ENDMDL
MODEL 5
REMARK VINA RESULT:      -4.1     11.468     12.309
REMARK  2 active torsions:
REMARK  status: ('A' for Active; 'I' for Inactive)
REMARK    1  A    between atoms: C3_3  and  C6_6 
REMARK    2  A    between atoms: C3_3  and  O10_10 
ROOT
HETATM    1  C1  UNL     1     -35.018  16.439  -2.236  1.00 20.00    -0.003 C 
HETATM    2  C2  UNL     1     -36.090  15.915  -2.842  1.00 20.00     0.132 C 
HETATM    3  C4  UNL     1     -33.628  16.058  -2.634  1.00 20.00     0.032 C 
HETATM    4  C5  UNL     1     -33.644  14.815  -3.521  1.00 20.00     0.046 C 
HETATM    5  C6  UNL     1     -34.790  14.909  -4.524  1.00 20.00     0.227 C 
HETATM    6  O9  UNL     1     -36.070  15.037  -3.895  1.00 20.00    -0.348 OA
ENDROOT
BRANCH   5   7
HETATM    7  C3  UNL     1     -34.900  13.651  -5.321  1.00 20.00     0.288 C 
HETATM    8  O8  UNL     1     -34.770  12.528  -4.852  1.00 20.00    -0.262 OA
BRANCH   7   9
HETATM    9  O10 UNL     1     -35.163  13.959  -6.624  1.00 20.00    -0.324 OA
HETATM   10  C7  UNL     1     -34.447  15.084  -7.145  1.00 20.00     0.213 C 
ENDBRANCH   7   9
ENDBRANCH   5   7
TORSDOF 2
ENDMDL
MODEL 6
REMARK VINA RESULT:      -4.0     11.236     11.959
REMARK  2 active torsions:
REMARK  status: ('A' for Active; 'I' for Inactive)
REMARK    1  A    between atoms: C3_3  and  C6_6 
REMARK    2  A    between atoms: C3_3  and  O10_10 
ROOT
HETATM    1  C1  UNL     1     -35.140  13.457  -4.230  1.00 20.00    -0.003 C 
HETATM    2  C2  UNL     1     -35.954  14.465  -3.892  1.00 20.00     0.132 C 
HETATM    3  C4  UNL     1     -33.668  13.519  -3.977  1.00 20.00     0.032 C 
HETATM    4  C5  UNL     1     -33.241  14.943  -3.629  1.00 20.00     0.046 C 
HETATM    5  C6  UNL     1     -34.264  15.576  -2.691  1.00 20.00     0.227 C 
HETATM    6  O9  UNL     1     -35.582  15.619  -3.251  1.00 20.00    -0.348 OA
ENDROOT
BRANCH   5   7
HETATM    7  C3  UNL     1     -33.931  17.009  -2.433  1.00 20.00     0.288 C 
HETATM    8  O8  UNL     1     -33.936  17.879  -3.294  1.00 20.00    -0.262 OA
BRANCH   7   9
HETATM    9  O10 UNL     1     -33.630  17.176  -1.114  1.00 20.00    -0.324 OA
HETATM   10  C7  UNL     1     -34.739  17.082  -0.214  1.00 20.00     0.213 C 
ENDBRANCH   7   9
ENDBRANCH   5   7
TORSDOF 2
ENDMDL
MODEL 7
REMARK VINA RESULT:      -3.9     11.393     12.493
REMARK  2 active torsions:
REMARK  status: ('A' for Active; 'I' for Inactive)
REMARK    1  A    between atoms: C3_3  and  C6_6 
REMARK    2  A    between atoms: C3_3  and  O10_10 
ROOT
HETATM    1  C1  UNL     1     -34.113  18.044  -1.106  1.00 20.00    -0.003 C 
HETATM    2  C2  UNL     1     -33.673  18.367  -2.328  1.00 20.00     0.132 C 
HETATM    3  C4  UNL     1     -34.585  16.663  -0.782  1.00 20.00     0.032 C 
HETATM    4  C5  UNL     1     -34.798  15.854  -2.060  1.00 20.00     0.046 C 
HETATM    5  C6  UNL     1     -33.662  16.126  -3.041  1.00 20.00     0.227 C 
HETATM    6  O9  UNL     1     -33.549  17.510  -3.391  1.00 20.00    -0.348 OA
ENDROOT
BRANCH   5   7
HETATM    7  C3  UNL     1     -33.912  15.440  -4.344  1.00 20.00     0.288 C 
HETATM    8  O8  UNL     1     -34.283  16.013  -5.360  1.00 20.00    -0.262 OA
BRANCH   7   9
HETATM    9  O10 UNL     1     -33.663  14.106  -4.211  1.00 20.00    -0.324 OA
HETATM   10  C7  UNL     1     -34.636  13.238  -4.803  1.00 20.00     0.213 C 
ENDBRANCH   7   9
ENDBRANCH   5   7
TORSDOF 2
ENDMDL
MODEL 8
REMARK VINA RESULT:      -3.9     10.012     11.297
REMARK  2 active torsions:
REMARK  status: ('A' for Active; 'I' for Inactive)
REMARK    1  A    between atoms: C3_3  and  C6_6 
REMARK    2  A    between atoms: C3_3  and  O10_10 
ROOT
HETATM    1  C1  UNL     1     -40.942   6.671  -0.539  1.00 20.00    -0.003 C 
HETATM    2  C2  UNL     1     -40.620   5.372  -0.509  1.00 20.00     0.132 C 
HETATM    3  C4  UNL     1     -41.933   7.210  -1.519  1.00 20.00     0.032 C 
HETATM    4  C5  UNL     1     -42.218   6.185  -2.615  1.00 20.00     0.046 C 
HETATM    5  C6  UNL     1     -42.341   4.794  -2.003  1.00 20.00     0.227 C 
HETATM    6  O9  UNL     1     -41.162   4.390  -1.297  1.00 20.00    -0.348 OA
ENDROOT
BRANCH   5   7
HETATM    7  C3  UNL     1     -42.500   3.759  -3.068  1.00 20.00     0.288 C 
HETATM    8  O8  UNL     1     -43.417   3.744  -3.878  1.00 20.00    -0.262 OA
BRANCH   7   9
HETATM    9  O10 UNL     1     -41.477   2.861  -2.986  1.00 20.00    -0.324 OA
HETATM   10  C7  UNL     1     -41.758   1.560  -3.513  1.00 20.00     0.213 C 
ENDBRANCH   7   9
ENDBRANCH   5   7
TORSDOF 2
ENDMDL
MODEL 9
REMARK VINA RESULT:      -3.8     11.300     12.493
REMARK  2 active torsions:
REMARK  status: ('A' for Active; 'I' for Inactive)
REMARK    1  A    between atoms: C3_3  and  C6_6 
REMARK    2  A    between atoms: C3_3  and  O10_10 
ROOT
HETATM    1  C1  UNL     1     -33.285  14.183  -3.812  1.00 20.00    -0.003 C 
HETATM    2  C2  UNL     1     -34.140  13.333  -4.394  1.00 20.00     0.132 C 
HETATM    3  C4  UNL     1     -33.747  15.472  -3.212  1.00 20.00     0.032 C 
HETATM    4  C5  UNL     1     -35.173  15.792  -3.656  1.00 20.00     0.046 C 
HETATM    5  C6  UNL     1     -36.019  14.523  -3.631  1.00 20.00     0.227 C 
HETATM    6  O9  UNL     1     -35.500  13.490  -4.475  1.00 20.00    -0.348 OA
ENDROOT
BRANCH   5   7
HETATM    7  C3  UNL     1     -37.384  14.787  -4.176  1.00 20.00     0.288 C 
HETATM    8  O8  UNL     1     -38.391  14.189  -3.821  1.00 20.00    -0.262 OA
BRANCH   7   9
HETATM    9  O10 UNL     1     -37.318  15.780  -5.108  1.00 20.00    -0.324 OA
HETATM   10  C7  UNL     1     -37.788  15.429  -6.414  1.00 20.00     0.213 C 
ENDBRANCH   7   9
ENDBRANCH   5   7
TORSDOF 2
ENDMDL
