MODEL 1
REMARK VINA RESULT:      -4.8      0.000      0.000
REMARK  0 active torsions:
REMARK  status: ('A' for Active; 'I' for Inactive)
ROOT
HETATM    1  C1  UNL     1     -36.910  14.520  -3.979  1.00 20.00     0.069 C 
HETATM    2  C2  UNL     1     -33.273  13.815  -3.752  1.00 20.00     0.007 C 
HETATM    3  C3  UNL     1     -34.706  13.367  -4.052  1.00 20.00     0.025 C 
HETATM    4  C4  UNL     1     -33.288  15.342  -3.782  1.00 20.00     0.070 C 
HETATM    5  C5  UNL     1     -35.116  16.965  -1.682  1.00 20.00     0.197 C 
HETATM    6  C6  UNL     1     -35.659  17.683  -2.888  1.00 20.00     0.197 C 
HETATM    7  C7  UNL     1     -35.491  14.650  -4.337  1.00 20.00     0.155 C 
HETATM    8  C8  UNL     1     -34.747  15.714  -3.523  1.00 20.00     0.180 C 
HETATM    9  N9  UNL     1     -38.029  14.419  -3.697  1.00 20.00    -0.197 NA
HETATM   10  O10 UNL     1     -35.026  15.610  -2.120  1.00 20.00    -0.352 OA
HETATM   11  O11 UNL     1     -35.013  17.038  -3.986  1.00 20.00    -0.352 OA
ENDROOT
TORSDOF 0
ENDMDL
MODEL 2
REMARK VINA RESULT:      -4.7      1.763      2.895
REMARK  0 active torsions:
REMARK  status: ('A' for Active; 'I' for Inactive)
ROOT
HETATM    1  C1  UNL     1     -36.728  14.523  -3.708  1.00 20.00     0.069 C 
HETATM    2  C2  UNL     1     -33.622  16.318  -2.757  1.00 20.00     0.007 C 
HETATM    3  C3  UNL     1     -34.989  15.728  -2.399  1.00 20.00     0.025 C 
HETATM    4  C4  UNL     1     -33.210  15.672  -4.077  1.00 20.00     0.070 C 
HETATM    5  C5  UNL     1     -35.017  16.115  -6.709  1.00 20.00     0.197 C 
HETATM    6  C6  UNL     1     -35.000  14.616  -6.832  1.00 20.00     0.197 C 
HETATM    7  C7  UNL     1     -35.287  14.685  -3.480  1.00 20.00     0.155 C 
HETATM    8  C8  UNL     1     -34.526  15.208  -4.702  1.00 20.00     0.180 C 
HETATM    9  N9  UNL     1     -37.866  14.395  -3.888  1.00 20.00    -0.197 NA
HETATM   10  O10 UNL     1     -35.188  16.328  -5.308  1.00 20.00    -0.352 OA
HETATM   11  O11 UNL     1     -34.286  14.189  -5.672  1.00 20.00    -0.352 OA
ENDROOT
TORSDOF 0
ENDMDL
MODEL 3
REMARK VINA RESULT:      -4.6      2.031      3.134
REMARK  0 active torsions:
REMARK  status: ('A' for Active; 'I' for Inactive)
ROOT
HETATM    1  C1  UNL     1     -34.462  13.933  -3.813  1.00 20.00     0.069 C 
HETATM    2  C2  UNL     1     -34.475  17.252  -2.152  1.00 20.00     0.007 C 
HETATM    3  C3  UNL     1     -34.551  15.724  -2.088  1.00 20.00     0.025 C 
HETATM    4  C4  UNL     1     -33.874  17.593  -3.514  1.00 20.00     0.070 C 
HETATM    5  C5  UNL     1     -35.419  16.730  -6.207  1.00 20.00     0.197 C 
HETATM    6  C6  UNL     1     -34.111  16.111  -6.621  1.00 20.00     0.197 C 
HETATM    7  C7  UNL     1     -33.905  15.221  -3.382  1.00 20.00     0.155 C 
HETATM    8  C8  UNL     1     -34.156  16.361  -4.374  1.00 20.00     0.180 C 
HETATM    9  N9  UNL     1     -34.901  12.915  -4.153  1.00 20.00    -0.197 NA
HETATM   10  O10 UNL     1     -35.518  16.394  -4.823  1.00 20.00    -0.352 OA
HETATM   11  O11 UNL     1     -33.266  16.318  -5.489  1.00 20.00    -0.352 OA
ENDROOT
TORSDOF 0
ENDMDL
MODEL 4
REMARK VINA RESULT:      -4.5      1.953      3.138
REMARK  0 active torsions:
REMARK  status: ('A' for Active; 'I' for Inactive)
ROOT
HETATM    1  C1  UNL     1     -35.703  16.641  -2.627  1.00 20.00     0.069 C 
HETATM    2  C2  UNL     1     -33.756  13.838  -4.086  1.00 20.00     0.007 C 
HETATM    3  C3  UNL     1     -33.845  15.092  -3.211  1.00 20.00     0.025 C 
HETATM    4  C4  UNL     1     -35.189  13.348  -4.278  1.00 20.00     0.070 C 
HETATM    5  C5  UNL     1     -37.340  15.236  -5.760  1.00 20.00     0.197 C 
HETATM    6  C6  UNL     1     -38.211  14.989  -4.559  1.00 20.00     0.197 C 
HETATM    7  C7  UNL     1     -35.325  15.239  -2.847  1.00 20.00     0.155 C 
HETATM    8  C8  UNL     1     -36.051  14.585  -4.026  1.00 20.00     0.180 C 
HETATM    9  N9  UNL     1     -36.001  17.747  -2.453  1.00 20.00    -0.197 NA
HETATM   10  O10 UNL     1     -36.044  15.420  -5.193  1.00 20.00    -0.352 OA
HETATM   11  O11 UNL     1     -37.387  14.202  -3.699  1.00 20.00    -0.352 OA
ENDROOT
TORSDOF 0
ENDMDL
MODEL 5
REMARK VINA RESULT:      -4.5      2.050      2.856
REMARK  0 active torsions:
REMARK  status: ('A' for Active; 'I' for Inactive)
ROOT
HETATM    1  C1  UNL     1     -37.164  14.818  -4.588  1.00 20.00     0.069 C 
HETATM    2  C2  UNL     1     -35.093  14.907  -7.667  1.00 20.00     0.007 C 
HETATM    3  C3  UNL     1     -36.455  14.812  -6.973  1.00 20.00     0.025 C 
HETATM    4  C4  UNL     1     -34.123  15.467  -6.629  1.00 20.00     0.070 C 
HETATM    5  C5  UNL     1     -33.555  13.820  -3.918  1.00 20.00     0.197 C 
HETATM    6  C6  UNL     1     -33.883  15.104  -3.206  1.00 20.00     0.197 C 
HETATM    7  C7  UNL     1     -36.252  15.407  -5.577  1.00 20.00     0.155 C 
HETATM    8  C8  UNL     1     -34.772  15.139  -5.285  1.00 20.00     0.180 C 
HETATM    9  N9  UNL     1     -37.883  14.354  -3.807  1.00 20.00    -0.197 NA
HETATM   10  O10 UNL     1     -34.529  13.763  -4.959  1.00 20.00    -0.352 OA
HETATM   11  O11 UNL     1     -34.256  15.990  -4.261  1.00 20.00    -0.352 OA
ENDROOT
TORSDOF 0
ENDMDL
MODEL 6
REMARK VINA RESULT:      -4.5      2.679      3.773
REMARK  0 active torsions:
REMARK  status: ('A' for Active; 'I' for Inactive)
ROOT
HETATM    1  C1  UNL     1     -33.804  17.039  -5.000  1.00 20.00     0.069 C 
HETATM    2  C2  UNL     1     -33.382  13.588  -3.699  1.00 20.00     0.007 C 
HETATM    3  C3  UNL     1     -32.947  15.055  -3.767  1.00 20.00     0.025 C 
HETATM    4  C4  UNL     1     -34.812  13.542  -4.232  1.00 20.00     0.070 C 
HETATM    5  C5  UNL     1     -35.420  14.445  -7.265  1.00 20.00     0.197 C 
HETATM    6  C6  UNL     1     -36.469  15.342  -6.665  1.00 20.00     0.197 C 
HETATM    7  C7  UNL     1     -34.174  15.830  -4.253  1.00 20.00     0.155 C 
HETATM    8  C8  UNL     1     -34.941  14.801  -5.089  1.00 20.00     0.180 C 
HETATM    9  N9  UNL     1     -33.512  17.993  -5.590  1.00 20.00    -0.197 NA
HETATM   10  O10 UNL     1     -34.322  14.576  -6.364  1.00 20.00    -0.352 OA
HETATM   11  O11 UNL     1     -36.314  15.150  -5.259  1.00 20.00    -0.352 OA
ENDROOT
TORSDOF 0
ENDMDL
MODEL 7
REMARK VINA RESULT:      -4.5      2.172      2.674
REMARK  0 active torsions:
REMARK  status: ('A' for Active; 'I' for Inactive)
ROOT
HETATM    1  C1  UNL     1     -34.722  15.917  -2.143  1.00 20.00     0.069 C 
HETATM    2  C2  UNL     1     -34.314  13.513  -4.941  1.00 20.00     0.007 C 
HETATM    3  C3  UNL     1     -34.406  13.819  -3.443  1.00 20.00     0.025 C 
HETATM    4  C4  UNL     1     -34.896  14.726  -5.662  1.00 20.00     0.070 C 
HETATM    5  C5  UNL     1     -33.502  17.611  -5.322  1.00 20.00     0.197 C 
HETATM    6  C6  UNL     1     -34.877  18.104  -4.961  1.00 20.00     0.197 C 
HETATM    7  C7  UNL     1     -35.125  15.167  -3.339  1.00 20.00     0.155 C 
HETATM    8  C8  UNL     1     -34.767  15.867  -4.653  1.00 20.00     0.180 C 
HETATM    9  N9  UNL     1     -34.404  16.510  -1.198  1.00 20.00    -0.197 NA
HETATM   10  O10 UNL     1     -33.418  16.354  -4.653  1.00 20.00    -0.352 OA
HETATM   11  O11 UNL     1     -35.675  16.921  -4.974  1.00 20.00    -0.352 OA
ENDROOT
TORSDOF 0
ENDMDL
MODEL 8
REMARK VINA RESULT:      -4.4      2.203      2.650
REMARK  0 active torsions:
REMARK  status: ('A' for Active; 'I' for Inactive)
ROOT
HETATM    1  C1  UNL     1     -35.018  13.621  -4.980  1.00 20.00     0.069 C 
HETATM    2  C2  UNL     1     -34.306  16.711  -6.909  1.00 20.00     0.007 C 
HETATM    3  C3  UNL     1     -34.498  15.193  -6.837  1.00 20.00     0.025 C 
HETATM    4  C4  UNL     1     -34.925  17.281  -5.636  1.00 20.00     0.070 C 
HETATM    5  C5  UNL     1     -33.739  16.434  -2.761  1.00 20.00     0.197 C 
HETATM    6  C6  UNL     1     -35.161  16.092  -2.405  1.00 20.00     0.197 C 
HETATM    7  C7  UNL     1     -35.307  14.937  -5.563  1.00 20.00     0.155 C 
HETATM    8  C8  UNL     1     -34.924  16.109  -4.654  1.00 20.00     0.180 C 
HETATM    9  N9  UNL     1     -34.790  12.582  -4.519  1.00 20.00    -0.197 NA
HETATM   10  O10 UNL     1     -33.611  15.952  -4.098  1.00 20.00    -0.352 OA
HETATM   11  O11 UNL     1     -35.879  16.328  -3.616  1.00 20.00    -0.352 OA
ENDROOT
TORSDOF 0
ENDMDL
MODEL 9
REMARK VINA RESULT:      -4.4      2.016      2.263
REMARK  0 active torsions:
REMARK  status: ('A' for Active; 'I' for Inactive)
ROOT
HETATM    1  C1  UNL     1     -35.508  15.408  -6.475  1.00 20.00     0.069 C 
HETATM    2  C2  UNL     1     -34.035  13.593  -3.592  1.00 20.00     0.007 C 
HETATM    3  C3  UNL     1     -34.931  13.629  -4.833  1.00 20.00     0.025 C 
HETATM    4  C4  UNL     1     -33.110  14.802  -3.697  1.00 20.00     0.070 C 
HETATM    5  C5  UNL     1     -34.357  17.774  -3.727  1.00 20.00     0.197 C 
HETATM    6  C6  UNL     1     -33.538  17.980  -4.972  1.00 20.00     0.197 C 
HETATM    7  C7  UNL     1     -34.435  14.812  -5.668  1.00 20.00     0.155 C 
HETATM    8  C8  UNL     1     -33.848  15.767  -4.625  1.00 20.00     0.180 C 
HETATM    9  N9  UNL     1     -36.355  15.879  -7.111  1.00 20.00    -0.197 NA
HETATM   10  O10 UNL     1     -34.870  16.452  -3.887  1.00 20.00    -0.352 OA
HETATM   11  O11 UNL     1     -32.935  16.705  -5.196  1.00 20.00    -0.352 OA
ENDROOT
TORSDOF 0
ENDMDL
