MODEL 1
REMARK VINA RESULT:      -5.7      0.000      0.000
REMARK  1 active torsions:
REMARK  status: ('A' for Active; 'I' for Inactive)
REMARK    1  A    between atoms: C5_5  and  C8_8 
ROOT
HETATM    1  C1  UNL     1     -33.373  13.905  -3.768  1.00 20.00     0.047 C 
HETATM    2  C2  UNL     1     -33.148  15.147  -3.322  1.00 20.00    -0.009 C 
HETATM    3  C3  UNL     1     -34.607  13.593  -4.527  1.00 20.00     0.149 C 
HETATM    4  C6  UNL     1     -35.553  14.724  -4.861  1.00 20.00     0.084 C 
HETATM    5  C7  UNL     1     -35.530  15.795  -3.778  1.00 20.00     0.025 C 
HETATM    6  C8  UNL     1     -34.105  16.312  -3.473  1.00 20.00    -0.003 C 
HETATM    7  C11 UNL     1     -33.598  17.229  -4.599  1.00 20.00     0.024 C 
HETATM    8  O12 UNL     1     -34.807  12.445  -4.922  1.00 20.00    -0.293 OA
ENDROOT
BRANCH   6   9
HETATM    9  C5  UNL     1     -34.158  17.120  -2.199  1.00 20.00    -0.076 C 
HETATM   10  C4  UNL     1     -34.680  16.605  -1.069  1.00 20.00    -0.027 C 
HETATM   11  C9  UNL     1     -34.804  17.260   0.248  1.00 20.00     0.036 C 
HETATM   12  C10 UNL     1     -33.592  18.508  -2.302  1.00 20.00     0.044 C 
ENDBRANCH   6   9
TORSDOF 1
ENDMDL
MODEL 2
REMARK VINA RESULT:      -5.1      1.396      1.983
REMARK  1 active torsions:
REMARK  status: ('A' for Active; 'I' for Inactive)
REMARK    1  A    between atoms: C5_5  and  C8_8 
ROOT
HETATM    1  C1  UNL     1     -35.723  14.274  -4.985  1.00 20.00     0.047 C 
HETATM    2  C2  UNL     1     -35.104  14.689  -3.872  1.00 20.00    -0.009 C 
HETATM    3  C3  UNL     1     -35.254  14.724  -6.316  1.00 20.00     0.149 C 
HETATM    4  C6  UNL     1     -34.012  15.583  -6.390  1.00 20.00     0.084 C 
HETATM    5  C7  UNL     1     -33.882  16.466  -5.156  1.00 20.00     0.025 C 
HETATM    6  C8  UNL     1     -33.948  15.667  -3.834  1.00 20.00    -0.003 C 
HETATM    7  C11 UNL     1     -32.645  14.888  -3.595  1.00 20.00     0.024 C 
HETATM    8  O12 UNL     1     -35.839  14.345  -7.330  1.00 20.00    -0.293 OA
ENDROOT
BRANCH   6   9
HETATM    9  C5  UNL     1     -34.124  16.647  -2.698  1.00 20.00    -0.076 C 
HETATM   10  C4  UNL     1     -34.546  16.240  -1.486  1.00 20.00    -0.027 C 
HETATM   11  C9  UNL     1     -34.767  17.065  -0.283  1.00 20.00     0.036 C 
HETATM   12  C10 UNL     1     -33.795  18.074  -3.033  1.00 20.00     0.044 C 
ENDBRANCH   6   9
TORSDOF 1
ENDMDL
MODEL 3
REMARK VINA RESULT:      -5.1      2.416      4.732
REMARK  1 active torsions:
REMARK  status: ('A' for Active; 'I' for Inactive)
REMARK    1  A    between atoms: C5_5  and  C8_8 
ROOT
HETATM    1  C1  UNL     1     -33.670  17.925  -3.678  1.00 20.00     0.047 C 
HETATM    2  C2  UNL     1     -33.467  16.831  -4.421  1.00 20.00    -0.009 C 
HETATM    3  C3  UNL     1     -34.162  17.806  -2.286  1.00 20.00     0.149 C 
HETATM    4  C6  UNL     1     -34.337  16.423  -1.700  1.00 20.00     0.084 C 
HETATM    5  C7  UNL     1     -34.730  15.418  -2.775  1.00 20.00     0.025 C 
HETATM    6  C8  UNL     1     -33.758  15.412  -3.977  1.00 20.00    -0.003 C 
HETATM    7  C11 UNL     1     -32.432  14.724  -3.610  1.00 20.00     0.024 C 
HETATM    8  O12 UNL     1     -34.356  18.820  -1.617  1.00 20.00    -0.293 OA
ENDROOT
BRANCH   6   9
HETATM    9  C5  UNL     1     -34.398  14.629  -5.099  1.00 20.00    -0.076 C 
HETATM   10  C4  UNL     1     -34.516  15.151  -6.334  1.00 20.00    -0.027 C 
HETATM   11  C9  UNL     1     -35.111  14.521  -7.528  1.00 20.00     0.036 C 
HETATM   12  C10 UNL     1     -34.876  13.255  -4.723  1.00 20.00     0.044 C 
ENDBRANCH   6   9
TORSDOF 1
ENDMDL
MODEL 4
REMARK VINA RESULT:      -4.9      1.716      2.596
REMARK  1 active torsions:
REMARK  status: ('A' for Active; 'I' for Inactive)
REMARK    1  A    between atoms: C5_5  and  C8_8 
ROOT
HETATM    1  C1  UNL     1     -36.830  14.967  -5.460  1.00 20.00     0.047 C 
HETATM    2  C2  UNL     1     -36.220  15.094  -4.275  1.00 20.00    -0.009 C 
HETATM    3  C3  UNL     1     -36.035  14.874  -6.707  1.00 20.00     0.149 C 
HETATM    4  C6  UNL     1     -34.528  14.833  -6.599  1.00 20.00     0.084 C 
HETATM    5  C7  UNL     1     -34.042  15.637  -5.399  1.00 20.00     0.025 C 
HETATM    6  C8  UNL     1     -34.723  15.215  -4.077  1.00 20.00    -0.003 C 
HETATM    7  C11 UNL     1     -34.176  13.866  -3.581  1.00 20.00     0.024 C 
HETATM    8  O12 UNL     1     -36.608  14.769  -7.790  1.00 20.00    -0.293 OA
ENDROOT
BRANCH   6   9
HETATM    9  C5  UNL     1     -34.413  16.260  -3.032  1.00 20.00    -0.076 C 
HETATM   10  C4  UNL     1     -34.715  16.060  -1.735  1.00 20.00    -0.027 C 
HETATM   11  C9  UNL     1     -34.480  16.974  -0.601  1.00 20.00     0.036 C 
HETATM   12  C10 UNL     1     -33.755  17.506  -3.553  1.00 20.00     0.044 C 
ENDBRANCH   6   9
TORSDOF 1
ENDMDL
MODEL 5
REMARK VINA RESULT:      -4.8      1.970      3.267
REMARK  1 active torsions:
REMARK  status: ('A' for Active; 'I' for Inactive)
REMARK    1  A    between atoms: C5_5  and  C8_8 
ROOT
HETATM    1  C1  UNL     1     -37.372  15.171  -5.448  1.00 20.00     0.047 C 
HETATM    2  C2  UNL     1     -36.568  14.903  -4.411  1.00 20.00    -0.009 C 
HETATM    3  C3  UNL     1     -36.852  15.118  -6.834  1.00 20.00     0.149 C 
HETATM    4  C6  UNL     1     -35.425  14.669  -7.051  1.00 20.00     0.084 C 
HETATM    5  C7  UNL     1     -34.539  15.072  -5.879  1.00 20.00     0.025 C 
HETATM    6  C8  UNL     1     -35.089  14.593  -4.516  1.00 20.00    -0.003 C 
HETATM    7  C11 UNL     1     -34.885  13.079  -4.341  1.00 20.00     0.024 C 
HETATM    8  O12 UNL     1     -37.598  15.377  -7.777  1.00 20.00    -0.293 OA
ENDROOT
BRANCH   6   9
HETATM    9  C5  UNL     1     -34.323  15.298  -3.423  1.00 20.00    -0.076 C 
HETATM   10  C4  UNL     1     -34.961  15.906  -2.405  1.00 20.00    -0.027 C 
HETATM   11  C9  UNL     1     -34.363  16.632  -1.269  1.00 20.00     0.036 C 
HETATM   12  C10 UNL     1     -32.828  15.263  -3.569  1.00 20.00     0.044 C 
ENDBRANCH   6   9
TORSDOF 1
ENDMDL
MODEL 6
REMARK VINA RESULT:      -4.8      2.698      4.665
REMARK  1 active torsions:
REMARK  status: ('A' for Active; 'I' for Inactive)
REMARK    1  A    between atoms: C5_5  and  C8_8 
ROOT
HETATM    1  C1  UNL     1     -33.815  17.486  -0.453  1.00 20.00     0.047 C 
HETATM    2  C2  UNL     1     -34.741  16.737  -1.065  1.00 20.00    -0.009 C 
HETATM    3  C3  UNL     1     -33.143  18.589  -1.179  1.00 20.00     0.149 C 
HETATM    4  C6  UNL     1     -33.592  18.903  -2.588  1.00 20.00     0.084 C 
HETATM    5  C7  UNL     1     -34.066  17.646  -3.305  1.00 20.00     0.025 C 
HETATM    6  C8  UNL     1     -35.150  16.875  -2.517  1.00 20.00    -0.003 C 
HETATM    7  C11 UNL     1     -36.503  17.603  -2.585  1.00 20.00     0.024 C 
HETATM    8  O12 UNL     1     -32.286  19.262  -0.609  1.00 20.00    -0.293 OA
ENDROOT
BRANCH   6   9
HETATM    9  C5  UNL     1     -35.317  15.514  -3.149  1.00 20.00    -0.076 C 
HETATM   10  C4  UNL     1     -34.253  14.727  -3.399  1.00 20.00    -0.027 C 
HETATM   11  C9  UNL     1     -34.248  13.382  -4.007  1.00 20.00     0.036 C 
HETATM   12  C10 UNL     1     -36.734  15.129  -3.465  1.00 20.00     0.044 C 
ENDBRANCH   6   9
TORSDOF 1
ENDMDL
MODEL 7
REMARK VINA RESULT:      -4.6      2.368      4.393
REMARK  1 active torsions:
REMARK  status: ('A' for Active; 'I' for Inactive)
REMARK    1  A    between atoms: C5_5  and  C8_8 
ROOT
HETATM    1  C1  UNL     1     -33.464  16.053  -2.982  1.00 20.00     0.047 C 
HETATM    2  C2  UNL     1     -33.419  15.688  -4.269  1.00 20.00    -0.009 C 
HETATM    3  C3  UNL     1     -34.738  15.984  -2.228  1.00 20.00     0.149 C 
HETATM    4  C6  UNL     1     -35.953  15.408  -2.918  1.00 20.00     0.084 C 
HETATM    5  C7  UNL     1     -35.925  15.700  -4.413  1.00 20.00     0.025 C 
HETATM    6  C8  UNL     1     -34.612  15.243  -5.090  1.00 20.00    -0.003 C 
HETATM    7  C11 UNL     1     -34.571  13.714  -5.238  1.00 20.00     0.024 C 
HETATM    8  O12 UNL     1     -34.769  16.332  -1.049  1.00 20.00    -0.293 OA
ENDROOT
BRANCH   6   9
HETATM    9  C5  UNL     1     -34.557  15.850  -6.471  1.00 20.00    -0.076 C 
HETATM   10  C4  UNL     1     -34.434  17.179  -6.645  1.00 20.00    -0.027 C 
HETATM   11  C9  UNL     1     -34.366  17.922  -7.918  1.00 20.00     0.036 C 
HETATM   12  C10 UNL     1     -34.650  14.865  -7.602  1.00 20.00     0.044 C 
ENDBRANCH   6   9
TORSDOF 1
ENDMDL
MODEL 8
REMARK VINA RESULT:      -4.6      1.865      2.810
REMARK  1 active torsions:
REMARK  status: ('A' for Active; 'I' for Inactive)
REMARK    1  A    between atoms: C5_5  and  C8_8 
ROOT
HETATM    1  C1  UNL     1     -34.561  15.429  -2.756  1.00 20.00     0.047 C 
HETATM    2  C2  UNL     1     -33.809  16.363  -2.161  1.00 20.00    -0.009 C 
HETATM    3  C3  UNL     1     -35.973  15.712  -3.104  1.00 20.00     0.149 C 
HETATM    4  C6  UNL     1     -36.511  17.102  -2.856  1.00 20.00     0.084 C 
HETATM    5  C7  UNL     1     -35.843  17.741  -1.645  1.00 20.00     0.025 C 
HETATM    6  C8  UNL     1     -34.300  17.731  -1.735  1.00 20.00    -0.003 C 
HETATM    7  C11 UNL     1     -33.800  18.776  -2.746  1.00 20.00     0.024 C 
HETATM    8  O12 UNL     1     -36.656  14.841  -3.641  1.00 20.00    -0.293 OA
ENDROOT
BRANCH   6   9
HETATM    9  C5  UNL     1     -33.746  18.091  -0.377  1.00 20.00    -0.076 C 
HETATM   10  C4  UNL     1     -32.525  18.644  -0.246  1.00 20.00    -0.027 C 
HETATM   11  C9  UNL     1     -31.846  19.049   0.999  1.00 20.00     0.036 C 
HETATM   12  C10 UNL     1     -34.652  17.784   0.781  1.00 20.00     0.044 C 
ENDBRANCH   6   9
TORSDOF 1
ENDMDL
MODEL 9
REMARK VINA RESULT:      -4.6      1.568      2.616
REMARK  1 active torsions:
REMARK  status: ('A' for Active; 'I' for Inactive)
REMARK    1  A    between atoms: C5_5  and  C8_8 
ROOT
HETATM    1  C1  UNL     1     -35.650  14.097  -3.923  1.00 20.00     0.047 C 
HETATM    2  C2  UNL     1     -35.883  15.292  -3.368  1.00 20.00    -0.009 C 
HETATM    3  C3  UNL     1     -34.262  13.642  -4.170  1.00 20.00     0.149 C 
HETATM    4  C6  UNL     1     -33.123  14.517  -3.698  1.00 20.00     0.084 C 
HETATM    5  C7  UNL     1     -33.503  15.990  -3.754  1.00 20.00     0.025 C 
HETATM    6  C8  UNL     1     -34.816  16.302  -2.999  1.00 20.00    -0.003 C 
HETATM    7  C11 UNL     1     -34.600  16.264  -1.477  1.00 20.00     0.024 C 
HETATM    8  O12 UNL     1     -34.061  12.547  -4.692  1.00 20.00    -0.293 OA
ENDROOT
BRANCH   6   9
HETATM    9  C5  UNL     1     -35.258  17.696  -3.375  1.00 20.00    -0.076 C 
HETATM   10  C4  UNL     1     -36.540  17.960  -3.689  1.00 20.00    -0.027 C 
HETATM   11  C9  UNL     1     -37.127  19.258  -4.075  1.00 20.00     0.036 C 
HETATM   12  C10 UNL     1     -34.170  18.732  -3.367  1.00 20.00     0.044 C 
ENDBRANCH   6   9
TORSDOF 1
ENDMDL
