MODEL 1
REMARK VINA RESULT:      -5.0      0.000      0.000
REMARK  1 active torsions:
REMARK  status: ('A' for Active; 'I' for Inactive)
REMARK    1  A    between atoms: C10_10  and  O11_11 
ROOT
HETATM    1  C1  UNL     1     -34.862  16.289  -1.681  1.00 20.00     0.011 A 
HETATM    2  C2  UNL     1     -36.856  14.709  -3.713  1.00 20.00     0.013 A 
HETATM    3  C3  UNL     1     -32.290  14.387  -3.468  1.00 20.00     0.013 A 
HETATM    4  C4  UNL     1     -35.332  16.813  -3.012  1.00 20.00    -0.005 A 
HETATM    5  C5  UNL     1     -33.845  16.569  -2.753  1.00 20.00    -0.005 A 
HETATM    6  C6  UNL     1     -36.182  16.024  -4.034  1.00 20.00    -0.003 A 
HETATM    7  C7  UNL     1     -33.174  15.571  -3.665  1.00 20.00    -0.003 A 
HETATM    8  C8  UNL     1     -35.870  14.762  -4.850  1.00 20.00     0.019 A 
HETATM    9  C9  UNL     1     -33.767  14.175  -3.629  1.00 20.00     0.019 A 
HETATM   10  C10 UNL     1     -34.605  13.927  -4.829  1.00 20.00     0.127 C 
ENDROOT
BRANCH  10  11
HETATM   11  O11 UNL     1     -34.970  12.549  -4.879  1.00 20.00    -0.395 OA
HETATM   12  H25 UNL     1     -35.936  12.523  -4.955  1.00 20.00     0.210 HD
ENDBRANCH  10  11
TORSDOF 1
ENDMDL
MODEL 2
REMARK VINA RESULT:      -4.9      1.756      2.483
REMARK  1 active torsions:
REMARK  status: ('A' for Active; 'I' for Inactive)
REMARK    1  A    between atoms: C10_10  and  O11_11 
ROOT
HETATM    1  C1  UNL     1     -34.998  17.477  -5.582  1.00 20.00     0.011 A 
HETATM    2  C2  UNL     1     -35.878  14.534  -6.664  1.00 20.00     0.013 A 
HETATM    3  C3  UNL     1     -33.686  15.537  -2.765  1.00 20.00     0.013 A 
HETATM    4  C4  UNL     1     -34.175  16.611  -6.500  1.00 20.00    -0.005 A 
HETATM    5  C5  UNL     1     -33.648  17.002  -5.118  1.00 20.00    -0.005 A 
HETATM    6  C6  UNL     1     -34.529  15.168  -6.924  1.00 20.00    -0.003 A 
HETATM    7  C7  UNL     1     -33.351  15.858  -4.181  1.00 20.00    -0.003 A 
HETATM    8  C8  UNL     1     -34.644  13.873  -6.108  1.00 20.00     0.019 A 
HETATM    9  C9  UNL     1     -34.539  14.969  -3.862  1.00 20.00     0.019 A 
HETATM   10  C10 UNL     1     -34.458  13.692  -4.615  1.00 20.00     0.127 C 
ENDROOT
BRANCH  10  11
HETATM   11  O11 UNL     1     -35.458  12.795  -4.138  1.00 20.00    -0.395 OA
HETATM   12  H25 UNL     1     -36.156  13.343  -3.747  1.00 20.00     0.210 HD
ENDBRANCH  10  11
TORSDOF 1
ENDMDL
MODEL 3
REMARK VINA RESULT:      -4.9      1.673      2.755
REMARK  1 active torsions:
REMARK  status: ('A' for Active; 'I' for Inactive)
REMARK    1  A    between atoms: C10_10  and  O11_11 
ROOT
HETATM    1  C1  UNL     1     -33.398  17.011  -5.326  1.00 20.00     0.011 A 
HETATM    2  C2  UNL     1     -34.433  15.279  -2.771  1.00 20.00     0.013 A 
HETATM    3  C3  UNL     1     -35.100  14.373  -7.214  1.00 20.00     0.013 A 
HETATM    4  C4  UNL     1     -34.688  17.249  -4.586  1.00 20.00    -0.005 A 
HETATM    5  C5  UNL     1     -34.699  16.865  -6.067  1.00 20.00    -0.005 A 
HETATM    6  C6  UNL     1     -35.243  16.361  -3.449  1.00 20.00    -0.003 A 
HETATM    7  C7  UNL     1     -35.420  15.585  -6.408  1.00 20.00    -0.003 A 
HETATM    8  C8  UNL     1     -35.725  14.903  -3.446  1.00 20.00     0.019 A 
HETATM    9  C9  UNL     1     -34.872  14.342  -5.731  1.00 20.00     0.019 A 
HETATM   10  C10 UNL     1     -35.747  13.927  -4.605  1.00 20.00     0.127 C 
ENDROOT
BRANCH  10  11
HETATM   11  O11 UNL     1     -35.333  12.648  -4.129  1.00 20.00    -0.395 OA
HETATM   12  H25 UNL     1     -36.049  12.320  -3.564  1.00 20.00     0.210 HD
ENDBRANCH  10  11
TORSDOF 1
ENDMDL
MODEL 4
REMARK VINA RESULT:      -4.9      2.230      3.792
REMARK  1 active torsions:
REMARK  status: ('A' for Active; 'I' for Inactive)
REMARK    1  A    between atoms: C10_10  and  O11_11 
ROOT
HETATM    1  C1  UNL     1     -36.065  13.941  -4.325  1.00 20.00     0.011 A 
HETATM    2  C2  UNL     1     -33.920  15.883  -2.832  1.00 20.00     0.013 A 
HETATM    3  C3  UNL     1     -34.961  15.780  -7.295  1.00 20.00     0.013 A 
HETATM    4  C4  UNL     1     -34.623  13.594  -4.062  1.00 20.00    -0.005 A 
HETATM    5  C5  UNL     1     -35.154  13.681  -5.494  1.00 20.00    -0.005 A 
HETATM    6  C6  UNL     1     -33.570  14.552  -3.461  1.00 20.00    -0.003 A 
HETATM    7  C7  UNL     1     -34.487  14.704  -6.380  1.00 20.00    -0.003 A 
HETATM    8  C8  UNL     1     -32.966  15.858  -3.997  1.00 20.00     0.019 A 
HETATM    9  C9  UNL     1     -34.581  16.136  -5.887  1.00 20.00     0.019 A 
HETATM   10  C10 UNL     1     -33.293  16.573  -5.292  1.00 20.00     0.127 C 
ENDROOT
BRANCH  10  11
HETATM   11  O11 UNL     1     -33.339  17.976  -5.037  1.00 20.00    -0.395 OA
HETATM   12  H25 UNL     1     -33.692  18.389  -5.840  1.00 20.00     0.210 HD
ENDBRANCH  10  11
TORSDOF 1
ENDMDL
MODEL 5
REMARK VINA RESULT:      -4.8      1.692      2.576
REMARK  1 active torsions:
REMARK  status: ('A' for Active; 'I' for Inactive)
REMARK    1  A    between atoms: C10_10  and  O11_11 
ROOT
HETATM    1  C1  UNL     1     -34.049  17.553  -5.173  1.00 20.00     0.011 A 
HETATM    2  C2  UNL     1     -35.956  15.199  -6.366  1.00 20.00     0.013 A 
HETATM    3  C3  UNL     1     -34.831  15.930  -1.983  1.00 20.00     0.013 A 
HETATM    4  C4  UNL     1     -33.563  16.220  -5.678  1.00 20.00    -0.005 A 
HETATM    5  C5  UNL     1     -33.347  16.625  -4.219  1.00 20.00    -0.005 A 
HETATM    6  C6  UNL     1     -34.468  15.054  -6.136  1.00 20.00    -0.003 A 
HETATM    7  C7  UNL     1     -33.977  15.724  -3.187  1.00 20.00    -0.003 A 
HETATM    8  C8  UNL     1     -35.471  14.187  -5.362  1.00 20.00     0.019 A 
HETATM    9  C9  UNL     1     -35.485  15.590  -3.290  1.00 20.00     0.019 A 
HETATM   10  C10 UNL     1     -35.857  14.287  -3.900  1.00 20.00     0.127 C 
ENDROOT
BRANCH  10  11
HETATM   11  O11 UNL     1     -37.265  14.095  -3.787  1.00 20.00    -0.395 OA
HETATM   12  H25 UNL     1     -37.429  13.785  -2.884  1.00 20.00     0.210 HD
ENDBRANCH  10  11
TORSDOF 1
ENDMDL
MODEL 6
REMARK VINA RESULT:      -4.8      1.341      3.030
REMARK  1 active torsions:
REMARK  status: ('A' for Active; 'I' for Inactive)
REMARK    1  A    between atoms: C10_10  and  O11_11 
ROOT
HETATM    1  C1  UNL     1     -33.558  17.249  -5.533  1.00 20.00     0.011 A 
HETATM    2  C2  UNL     1     -32.837  14.683  -3.663  1.00 20.00     0.013 A 
HETATM    3  C3  UNL     1     -36.529  15.255  -6.319  1.00 20.00     0.013 A 
HETATM    4  C4  UNL     1     -33.912  17.115  -4.075  1.00 20.00    -0.005 A 
HETATM    5  C5  UNL     1     -35.008  17.247  -5.134  1.00 20.00    -0.005 A 
HETATM    6  C6  UNL     1     -33.679  15.856  -3.211  1.00 20.00    -0.003 A 
HETATM    7  C7  UNL     1     -35.981  16.097  -5.219  1.00 20.00    -0.003 A 
HETATM    8  C8  UNL     1     -34.278  14.445  -3.295  1.00 20.00     0.019 A 
HETATM    9  C9  UNL     1     -35.353  14.752  -5.533  1.00 20.00     0.019 A 
HETATM   10  C10 UNL     1     -35.268  13.912  -4.312  1.00 20.00     0.127 C 
ENDROOT
BRANCH  10  11
HETATM   11  O11 UNL     1     -34.880  12.588  -4.672  1.00 20.00    -0.395 OA
HETATM   12  H25 UNL     1     -35.691  12.125  -4.933  1.00 20.00     0.210 HD
ENDBRANCH  10  11
TORSDOF 1
ENDMDL
MODEL 7
REMARK VINA RESULT:      -4.8     10.820     12.265
REMARK  1 active torsions:
REMARK  status: ('A' for Active; 'I' for Inactive)
REMARK    1  A    between atoms: C10_10  and  O11_11 
ROOT
HETATM    1  C1  UNL     1     -42.112   5.097   0.662  1.00 20.00     0.011 A 
HETATM    2  C2  UNL     1     -42.515   7.836  -1.053  1.00 20.00     0.013 A 
HETATM    3  C3  UNL     1     -42.374   3.539  -2.644  1.00 20.00     0.013 A 
HETATM    4  C4  UNL     1     -40.995   5.950   0.119  1.00 20.00    -0.005 A 
HETATM    5  C5  UNL     1     -41.163   4.501  -0.342  1.00 20.00    -0.005 A 
HETATM    6  C6  UNL     1     -41.175   7.184  -0.793  1.00 20.00    -0.003 A 
HETATM    7  C7  UNL     1     -41.397   4.306  -1.820  1.00 20.00    -0.003 A 
HETATM    8  C8  UNL     1     -41.721   7.316  -2.221  1.00 20.00     0.019 A 
HETATM    9  C9  UNL     1     -42.635   4.991  -2.367  1.00 20.00     0.019 A 
HETATM   10  C10 UNL     1     -42.269   6.221  -3.115  1.00 20.00     0.127 C 
ENDROOT
BRANCH  10  11
HETATM   11  O11 UNL     1     -43.417   6.722  -3.796  1.00 20.00    -0.395 OA
HETATM   12  H25 UNL     1     -43.835   5.961  -4.228  1.00 20.00     0.210 HD
ENDBRANCH  10  11
TORSDOF 1
ENDMDL
MODEL 8
REMARK VINA RESULT:      -4.8      1.464      2.962
REMARK  1 active torsions:
REMARK  status: ('A' for Active; 'I' for Inactive)
REMARK    1  A    between atoms: C10_10  and  O11_11 
ROOT
HETATM    1  C1  UNL     1     -36.660  16.308  -4.594  1.00 20.00     0.011 A 
HETATM    2  C2  UNL     1     -33.881  17.381  -3.281  1.00 20.00     0.013 A 
HETATM    3  C3  UNL     1     -34.726  13.227  -5.023  1.00 20.00     0.013 A 
HETATM    4  C4  UNL     1     -36.322  16.260  -3.127  1.00 20.00    -0.005 A 
HETATM    5  C5  UNL     1     -36.572  14.971  -3.911  1.00 20.00    -0.005 A 
HETATM    6  C6  UNL     1     -34.962  16.658  -2.510  1.00 20.00    -0.003 A 
HETATM    7  C7  UNL     1     -35.423  13.995  -3.953  1.00 20.00    -0.003 A 
HETATM    8  C8  UNL     1     -33.563  16.046  -2.663  1.00 20.00     0.019 A 
HETATM    9  C9  UNL     1     -34.147  14.536  -4.571  1.00 20.00     0.019 A 
HETATM   10  C10 UNL     1     -33.151  14.865  -3.520  1.00 20.00     0.127 C 
ENDROOT
BRANCH  10  11
HETATM   11  O11 UNL     1     -31.897  15.163  -4.130  1.00 20.00    -0.395 OA
HETATM   12  H25 UNL     1     -31.268  15.311  -3.407  1.00 20.00     0.210 HD
ENDBRANCH  10  11
TORSDOF 1
ENDMDL
MODEL 9
REMARK VINA RESULT:      -4.8      1.620      2.841
REMARK  1 active torsions:
REMARK  status: ('A' for Active; 'I' for Inactive)
REMARK    1  A    between atoms: C10_10  and  O11_11 
ROOT
HETATM    1  C1  UNL     1     -36.957  14.690  -3.860  1.00 20.00     0.011 A 
HETATM    2  C2  UNL     1     -34.526  14.588  -6.024  1.00 20.00     0.013 A 
HETATM    3  C3  UNL     1     -34.397  16.251  -1.755  1.00 20.00     0.013 A 
HETATM    4  C4  UNL     1     -36.679  15.745  -4.899  1.00 20.00    -0.005 A 
HETATM    5  C5  UNL     1     -36.617  16.084  -3.408  1.00 20.00    -0.005 A 
HETATM    6  C6  UNL     1     -35.461  15.763  -5.850  1.00 20.00    -0.003 A 
HETATM    7  C7  UNL     1     -35.286  16.585  -2.904  1.00 20.00    -0.003 A 
HETATM    8  C8  UNL     1     -33.959  15.907  -5.570  1.00 20.00     0.019 A 
HETATM    9  C9  UNL     1     -34.129  15.621  -3.090  1.00 20.00     0.019 A 
HETATM   10  C10 UNL     1     -33.270  16.042  -4.226  1.00 20.00     0.127 C 
ENDROOT
BRANCH  10  11
HETATM   11  O11 UNL     1     -32.083  15.253  -4.243  1.00 20.00    -0.395 OA
HETATM   12  H25 UNL     1     -32.036  14.845  -5.122  1.00 20.00     0.210 HD
ENDBRANCH  10  11
TORSDOF 1
ENDMDL
