MODEL 1
REMARK VINA RESULT:      -4.4      0.000      0.000
REMARK  1 active torsions:
REMARK  status: ('A' for Active; 'I' for Inactive)
REMARK    1  A    between atoms: C4_4  and  C8_8 
ROOT
HETATM    1  C1  UNL     1     -33.515  16.541  -3.346  1.00 20.00     0.012 A 
HETATM    2  C2  UNL     1     -33.493  16.222  -4.699  1.00 20.00     0.040 A 
HETATM    3  C3  UNL     1     -35.569  15.358  -3.152  1.00 20.00     0.125 A 
HETATM    4  C4  UNL     1     -34.569  16.105  -2.550  1.00 20.00    -0.036 A 
HETATM    5  C5  UNL     1     -34.541  15.469  -5.204  1.00 20.00     0.102 A 
HETATM    6  N9  UNL     1     -35.582  15.027  -4.464  1.00 20.00    -0.253 NA
HETATM    7 BR10 UNL     1     -34.531  15.021  -7.050  1.00 20.00    -0.029 Br
ENDROOT
BRANCH   4   8
HETATM    8  C8  UNL     1     -34.620  16.428  -1.100  1.00 20.00     0.020 A 
HETATM    9  C6  UNL     1     -35.295  17.701  -0.654  1.00 20.00     0.010 A 
HETATM   10  C7  UNL     1     -33.806  17.583  -0.574  1.00 20.00     0.010 A 
ENDBRANCH   4   8
TORSDOF 1
ENDMDL
MODEL 2
REMARK VINA RESULT:      -4.3      0.894      1.502
REMARK  1 active torsions:
REMARK  status: ('A' for Active; 'I' for Inactive)
REMARK    1  A    between atoms: C4_4  and  C8_8 
ROOT
HETATM    1  C1  UNL     1     -35.324  15.075  -3.014  1.00 20.00     0.012 A 
HETATM    2  C2  UNL     1     -35.318  14.762  -4.369  1.00 20.00     0.040 A 
HETATM    3  C3  UNL     1     -33.710  16.767  -3.451  1.00 20.00     0.125 A 
HETATM    4  C4  UNL     1     -34.507  16.095  -2.538  1.00 20.00    -0.036 A 
HETATM    5  C5  UNL     1     -34.485  15.495  -5.200  1.00 20.00     0.102 A 
HETATM    6  N9  UNL     1     -33.678  16.492  -4.775  1.00 20.00    -0.253 NA
HETATM    7 BR10 UNL     1     -34.462  15.085  -7.055  1.00 20.00    -0.029 Br
ENDROOT
BRANCH   4   8
HETATM    8  C8  UNL     1     -34.492  16.454  -1.095  1.00 20.00     0.020 A 
HETATM    9  C6  UNL     1     -35.264  17.664  -0.631  1.00 20.00     0.010 A 
HETATM   10  C7  UNL     1     -33.769  17.701  -0.653  1.00 20.00     0.010 A 
ENDBRANCH   4   8
TORSDOF 1
ENDMDL
MODEL 3
REMARK VINA RESULT:      -4.3     11.494     12.178
REMARK  1 active torsions:
REMARK  status: ('A' for Active; 'I' for Inactive)
REMARK    1  A    between atoms: C4_4  and  C8_8 
ROOT
HETATM    1  C1  UNL     1     -33.295   6.175   2.481  1.00 20.00     0.012 A 
HETATM    2  C2  UNL     1     -34.061   5.292   3.233  1.00 20.00     0.040 A 
HETATM    3  C3  UNL     1     -32.684   7.280   4.497  1.00 20.00     0.125 A 
HETATM    4  C4  UNL     1     -32.590   7.191   3.117  1.00 20.00    -0.036 A 
HETATM    5  C5  UNL     1     -34.089   5.466   4.608  1.00 20.00     0.102 A 
HETATM    6  N9  UNL     1     -33.418   6.440   5.262  1.00 20.00    -0.253 NA
HETATM    7 BR10 UNL     1     -35.130   4.271   5.655  1.00 20.00    -0.029 Br
ENDROOT
BRANCH   4   8
HETATM    8  C8  UNL     1     -31.760   8.150   2.341  1.00 20.00     0.020 A 
HETATM    9  C6  UNL     1     -32.414   9.369   1.740  1.00 20.00     0.010 A 
HETATM   10  C7  UNL     1     -31.958   8.256   0.850  1.00 20.00     0.010 A 
ENDBRANCH   4   8
TORSDOF 1
ENDMDL
MODEL 4
REMARK VINA RESULT:      -4.3      2.561      4.535
REMARK  1 active torsions:
REMARK  status: ('A' for Active; 'I' for Inactive)
REMARK    1  A    between atoms: C4_4  and  C8_8 
ROOT
HETATM    1  C1  UNL     1     -33.460  15.269  -4.103  1.00 20.00     0.012 A 
HETATM    2  C2  UNL     1     -33.454  15.887  -2.858  1.00 20.00     0.040 A 
HETATM    3  C3  UNL     1     -35.834  15.184  -3.992  1.00 20.00     0.125 A 
HETATM    4  C4  UNL     1     -34.669  14.907  -4.688  1.00 20.00    -0.036 A 
HETATM    5  C5  UNL     1     -34.674  16.121  -2.244  1.00 20.00     0.102 A 
HETATM    6  N9  UNL     1     -35.868  15.785  -2.780  1.00 20.00    -0.253 NA
HETATM    7 BR10 UNL     1     -34.688  16.966  -0.543  1.00 20.00    -0.029 Br
ENDROOT
BRANCH   4   8
HETATM    8  C8  UNL     1     -34.709  14.246  -6.019  1.00 20.00     0.020 A 
HETATM    9  C6  UNL     1     -34.399  15.058  -7.253  1.00 20.00     0.010 A 
HETATM   10  C7  UNL     1     -35.803  14.610  -6.991  1.00 20.00     0.010 A 
ENDBRANCH   4   8
TORSDOF 1
ENDMDL
MODEL 5
REMARK VINA RESULT:      -4.1     12.866     13.950
REMARK  1 active torsions:
REMARK  status: ('A' for Active; 'I' for Inactive)
REMARK    1  A    between atoms: C4_4  and  C8_8 
ROOT
HETATM    1  C1  UNL     1     -41.365   3.914  -1.853  1.00 20.00     0.012 A 
HETATM    2  C2  UNL     1     -41.565   2.912  -2.796  1.00 20.00     0.040 A 
HETATM    3  C3  UNL     1     -43.192   5.103  -2.806  1.00 20.00     0.125 A 
HETATM    4  C4  UNL     1     -42.190   5.034  -1.851  1.00 20.00    -0.036 A 
HETATM    5  C5  UNL     1     -42.596   3.075  -3.708  1.00 20.00     0.102 A 
HETATM    6  N9  UNL     1     -43.417   4.148  -3.737  1.00 20.00    -0.253 NA
HETATM    7 BR10 UNL     1     -42.887   1.718  -5.004  1.00 20.00    -0.029 Br
ENDROOT
BRANCH   4   8
HETATM    8  C8  UNL     1     -42.002   6.122  -0.855  1.00 20.00     0.020 A 
HETATM    9  C6  UNL     1     -41.027   7.234  -1.155  1.00 20.00     0.010 A 
HETATM   10  C7  UNL     1     -40.697   6.219  -0.106  1.00 20.00     0.010 A 
ENDBRANCH   4   8
TORSDOF 1
ENDMDL
MODEL 6
REMARK VINA RESULT:      -4.1      2.620      4.829
REMARK  1 active torsions:
REMARK  status: ('A' for Active; 'I' for Inactive)
REMARK    1  A    between atoms: C4_4  and  C8_8 
ROOT
HETATM    1  C1  UNL     1     -35.025  14.904  -4.513  1.00 20.00     0.012 A 
HETATM    2  C2  UNL     1     -35.111  15.239  -3.167  1.00 20.00     0.040 A 
HETATM    3  C3  UNL     1     -33.578  16.765  -4.830  1.00 20.00     0.125 A 
HETATM    4  C4  UNL     1     -34.246  15.676  -5.368  1.00 20.00    -0.036 A 
HETATM    5  C5  UNL     1     -34.404  16.346  -2.727  1.00 20.00     0.102 A 
HETATM    6  N9  UNL     1     -33.637  17.121  -3.526  1.00 20.00    -0.253 NA
HETATM    7 BR10 UNL     1     -34.507  16.821  -0.891  1.00 20.00    -0.029 Br
ENDROOT
BRANCH   4   8
HETATM    8  C8  UNL     1     -34.132  15.343  -6.812  1.00 20.00     0.020 A 
HETATM    9  C6  UNL     1     -35.041  16.033  -7.800  1.00 20.00     0.010 A 
HETATM   10  C7  UNL     1     -35.250  14.585  -7.484  1.00 20.00     0.010 A 
ENDBRANCH   4   8
TORSDOF 1
ENDMDL
MODEL 7
REMARK VINA RESULT:      -4.1      2.877      4.411
REMARK  1 active torsions:
REMARK  status: ('A' for Active; 'I' for Inactive)
REMARK    1  A    between atoms: C4_4  and  C8_8 
ROOT
HETATM    1  C1  UNL     1     -34.830  15.673  -2.087  1.00 20.00     0.012 A 
HETATM    2  C2  UNL     1     -34.354  16.740  -1.334  1.00 20.00     0.040 A 
HETATM    3  C3  UNL     1     -34.091  16.797  -4.050  1.00 20.00     0.125 A 
HETATM    4  C4  UNL     1     -34.701  15.694  -3.473  1.00 20.00    -0.036 A 
HETATM    5  C5  UNL     1     -33.759  17.796  -2.007  1.00 20.00     0.102 A 
HETATM    6  N9  UNL     1     -33.615  17.852  -3.350  1.00 20.00    -0.253 NA
HETATM    7 BR10 UNL     1     -33.101  19.263  -0.997  1.00 20.00    -0.029 Br
ENDROOT
BRANCH   4   8
HETATM    8  C8  UNL     1     -35.198  14.568  -4.306  1.00 20.00     0.020 A 
HETATM    9  C6  UNL     1     -34.296  13.385  -4.557  1.00 20.00     0.010 A 
HETATM   10  C7  UNL     1     -34.599  14.339  -5.670  1.00 20.00     0.010 A 
ENDBRANCH   4   8
TORSDOF 1
ENDMDL
MODEL 8
REMARK VINA RESULT:      -4.0      2.167      3.165
REMARK  1 active torsions:
REMARK  status: ('A' for Active; 'I' for Inactive)
REMARK    1  A    between atoms: C4_4  and  C8_8 
ROOT
HETATM    1  C1  UNL     1     -34.730  16.606  -0.762  1.00 20.00     0.012 A 
HETATM    2  C2  UNL     1     -34.364  16.083  -1.997  1.00 20.00     0.040 A 
HETATM    3  C3  UNL     1     -34.016  18.746  -1.516  1.00 20.00     0.125 A 
HETATM    4  C4  UNL     1     -34.555  17.962  -0.509  1.00 20.00    -0.036 A 
HETATM    5  C5  UNL     1     -33.834  16.951  -2.939  1.00 20.00     0.102 A 
HETATM    6  N9  UNL     1     -33.649  18.273  -2.729  1.00 20.00    -0.253 NA
HETATM    7 BR10 UNL     1     -33.328  16.257  -4.633  1.00 20.00    -0.029 Br
ENDROOT
BRANCH   4   8
HETATM    8  C8  UNL     1     -34.938  18.552   0.802  1.00 20.00     0.020 A 
HETATM    9  C6  UNL     1     -33.986  18.436   1.966  1.00 20.00     0.010 A 
HETATM   10  C7  UNL     1     -35.251  17.637   1.958  1.00 20.00     0.010 A 
ENDBRANCH   4   8
TORSDOF 1
ENDMDL
MODEL 9
REMARK VINA RESULT:      -4.0      1.824      2.839
REMARK  1 active torsions:
REMARK  status: ('A' for Active; 'I' for Inactive)
REMARK    1  A    between atoms: C4_4  and  C8_8 
ROOT
HETATM    1  C1  UNL     1     -34.377  16.836  -0.947  1.00 20.00     0.012 A 
HETATM    2  C2  UNL     1     -34.755  15.920  -1.921  1.00 20.00     0.040 A 
HETATM    3  C3  UNL     1     -33.642  18.294  -2.677  1.00 20.00     0.125 A 
HETATM    4  C4  UNL     1     -33.809  18.049  -1.323  1.00 20.00    -0.036 A 
HETATM    5  C5  UNL     1     -34.547  16.260  -3.248  1.00 20.00     0.102 A 
HETATM    6  N9  UNL     1     -33.998  17.427  -3.653  1.00 20.00    -0.253 NA
HETATM    7 BR10 UNL     1     -35.057  15.023  -4.595  1.00 20.00    -0.029 Br
ENDROOT
BRANCH   4   8
HETATM    8  C8  UNL     1     -33.396  19.050  -0.305  1.00 20.00     0.020 A 
HETATM    9  C6  UNL     1     -32.023  18.947   0.313  1.00 20.00     0.010 A 
HETATM   10  C7  UNL     1     -33.233  18.618   1.130  1.00 20.00     0.010 A 
ENDBRANCH   4   8
TORSDOF 1
ENDMDL
