MODEL 1
REMARK VINA RESULT:      -4.0      0.000      0.000
REMARK  1 active torsions:
REMARK  status: ('A' for Active; 'I' for Inactive)
REMARK    1  A    between atoms: C3_3  and  C7_7 
ROOT
HETATM    1  C1  UNL     1     -34.248  15.885  -4.876  1.00 20.00     0.034 A 
HETATM    2  C2  UNL     1     -34.352  14.144  -3.339  1.00 20.00     0.058 A 
HETATM    3  C3  UNL     1     -34.121  15.491  -3.512  1.00 20.00    -0.046 A 
HETATM    4  C4  UNL     1     -34.571  14.825  -5.693  1.00 20.00     0.051 A 
HETATM    5  S8  UNL     1     -34.720  13.360  -4.817  1.00 20.00    -0.094 SA
HETATM    6 BR9  UNL     1     -34.823  14.953  -7.571  1.00 20.00    -0.043 Br
ENDROOT
BRANCH   3   7
HETATM    7  C7  UNL     1     -33.769  16.450  -2.377  1.00 20.00     0.019 A 
HETATM    8  C5  UNL     1     -34.619  16.445  -1.122  1.00 20.00     0.010 A 
HETATM    9  C6  UNL     1     -34.709  17.601  -2.070  1.00 20.00     0.010 A 
ENDBRANCH   3   7
TORSDOF 1
ENDMDL
MODEL 2
REMARK VINA RESULT:      -4.0      1.820      2.298
REMARK  1 active torsions:
REMARK  status: ('A' for Active; 'I' for Inactive)
REMARK    1  A    between atoms: C3_3  and  C7_7 
ROOT
HETATM    1  C1  UNL     1     -34.268  15.406  -2.780  1.00 20.00     0.034 A 
HETATM    2  C2  UNL     1     -33.601  17.397  -3.776  1.00 20.00     0.058 A 
HETATM    3  C3  UNL     1     -33.886  16.765  -2.586  1.00 20.00    -0.046 A 
HETATM    4  C4  UNL     1     -34.260  15.050  -4.110  1.00 20.00     0.051 A 
HETATM    5  S8  UNL     1     -33.794  16.353  -5.120  1.00 20.00    -0.094 SA
HETATM    6 BR9  UNL     1     -34.712  13.325  -4.764  1.00 20.00    -0.043 Br
ENDROOT
BRANCH   3   7
HETATM    7  C7  UNL     1     -33.804  17.441  -1.219  1.00 20.00     0.019 A 
HETATM    8  C5  UNL     1     -34.767  17.014  -0.129  1.00 20.00     0.010 A 
HETATM    9  C6  UNL     1     -34.933  18.353  -0.782  1.00 20.00     0.010 A 
ENDBRANCH   3   7
TORSDOF 1
ENDMDL
MODEL 3
REMARK VINA RESULT:      -4.0      3.358      4.550
REMARK  1 active torsions:
REMARK  status: ('A' for Active; 'I' for Inactive)
REMARK    1  A    between atoms: C3_3  and  C7_7 
ROOT
HETATM    1  C1  UNL     1     -34.469  15.810  -1.927  1.00 20.00     0.034 A 
HETATM    2  C2  UNL     1     -33.708  16.764  -3.904  1.00 20.00     0.058 A 
HETATM    3  C3  UNL     1     -34.051  15.590  -3.271  1.00 20.00    -0.046 A 
HETATM    4  C4  UNL     1     -34.430  17.142  -1.583  1.00 20.00     0.051 A 
HETATM    5  S8  UNL     1     -33.890  18.124  -2.880  1.00 20.00    -0.094 SA
HETATM    6 BR9  UNL     1     -34.913  17.828   0.121  1.00 20.00    -0.043 Br
ENDROOT
BRANCH   3   7
HETATM    7  C7  UNL     1     -33.990  14.214  -3.931  1.00 20.00     0.019 A 
HETATM    8  C5  UNL     1     -34.468  14.064  -5.362  1.00 20.00     0.010 A 
HETATM    9  C6  UNL     1     -35.286  13.492  -4.246  1.00 20.00     0.010 A 
ENDBRANCH   3   7
TORSDOF 1
ENDMDL
MODEL 4
REMARK VINA RESULT:      -3.9      3.719      4.782
REMARK  1 active torsions:
REMARK  status: ('A' for Active; 'I' for Inactive)
REMARK    1  A    between atoms: C3_3  and  C7_7 
ROOT
HETATM    1  C1  UNL     1     -34.581  16.202  -1.581  1.00 20.00     0.034 A 
HETATM    2  C2  UNL     1     -33.726  17.659  -3.176  1.00 20.00     0.058 A 
HETATM    3  C3  UNL     1     -34.091  16.358  -2.910  1.00 20.00    -0.046 A 
HETATM    4  C4  UNL     1     -34.572  17.388  -0.883  1.00 20.00     0.051 A 
HETATM    5  S8  UNL     1     -33.974  18.686  -1.828  1.00 20.00    -0.094 SA
HETATM    6 BR9  UNL     1     -35.150  17.581   0.916  1.00 20.00    -0.043 Br
ENDROOT
BRANCH   3   7
HETATM    7  C7  UNL     1     -33.982  15.217  -3.919  1.00 20.00     0.019 A 
HETATM    8  C5  UNL     1     -34.450  13.833  -3.515  1.00 20.00     0.010 A 
HETATM    9  C6  UNL     1     -32.984  14.104  -3.665  1.00 20.00     0.010 A 
ENDBRANCH   3   7
TORSDOF 1
ENDMDL
MODEL 5
REMARK VINA RESULT:      -3.8      1.187      1.221
REMARK  1 active torsions:
REMARK  status: ('A' for Active; 'I' for Inactive)
REMARK    1  A    between atoms: C3_3  and  C7_7 
ROOT
HETATM    1  C1  UNL     1     -34.152  15.618  -4.538  1.00 20.00     0.034 A 
HETATM    2  C2  UNL     1     -36.053  15.427  -3.215  1.00 20.00     0.058 A 
HETATM    3  C3  UNL     1     -34.712  15.743  -3.234  1.00 20.00    -0.046 A 
HETATM    4  C4  UNL     1     -35.085  15.214  -5.466  1.00 20.00     0.051 A 
HETATM    5  S8  UNL     1     -36.631  14.985  -4.765  1.00 20.00    -0.094 SA
HETATM    6 BR9  UNL     1     -34.718  14.937  -7.309  1.00 20.00    -0.043 Br
ENDROOT
BRANCH   3   7
HETATM    7  C7  UNL     1     -33.918  16.173  -2.002  1.00 20.00     0.019 A 
HETATM    8  C5  UNL     1     -34.665  16.718  -0.801  1.00 20.00     0.010 A 
HETATM    9  C6  UNL     1     -33.851  17.646  -1.649  1.00 20.00     0.010 A 
ENDBRANCH   3   7
TORSDOF 1
ENDMDL
MODEL 6
REMARK VINA RESULT:      -3.7      3.009      4.566
REMARK  1 active torsions:
REMARK  status: ('A' for Active; 'I' for Inactive)
REMARK    1  A    between atoms: C3_3  and  C7_7 
ROOT
HETATM    1  C1  UNL     1     -34.545  15.551  -3.292  1.00 20.00     0.034 A 
HETATM    2  C2  UNL     1     -33.845  17.017  -4.953  1.00 20.00     0.058 A 
HETATM    3  C3  UNL     1     -34.259  15.733  -4.676  1.00 20.00    -0.046 A 
HETATM    4  C4  UNL     1     -34.341  16.702  -2.565  1.00 20.00     0.051 A 
HETATM    5  S8  UNL     1     -33.805  17.997  -3.550  1.00 20.00    -0.094 SA
HETATM    6 BR9  UNL     1     -34.614  16.853  -0.691  1.00 20.00    -0.043 Br
ENDROOT
BRANCH   3   7
HETATM    7  C7  UNL     1     -34.393  14.633  -5.726  1.00 20.00     0.019 A 
HETATM    8  C5  UNL     1     -34.408  15.016  -7.193  1.00 20.00     0.010 A 
HETATM    9  C6  UNL     1     -35.671  14.545  -6.538  1.00 20.00     0.010 A 
ENDBRANCH   3   7
TORSDOF 1
ENDMDL
MODEL 7
REMARK VINA RESULT:      -3.7     13.491     14.862
REMARK  1 active torsions:
REMARK  status: ('A' for Active; 'I' for Inactive)
REMARK    1  A    between atoms: C3_3  and  C7_7 
ROOT
HETATM    1  C1  UNL     1     -41.072   3.868  -1.992  1.00 20.00     0.034 A 
HETATM    2  C2  UNL     1     -43.068   3.896  -3.181  1.00 20.00     0.058 A 
HETATM    3  C3  UNL     1     -41.887   3.220  -2.964  1.00 20.00    -0.046 A 
HETATM    4  C4  UNL     1     -41.660   5.013  -1.501  1.00 20.00     0.051 A 
HETATM    5  S8  UNL     1     -43.191   5.303  -2.213  1.00 20.00    -0.094 SA
HETATM    6 BR9  UNL     1     -40.880   6.146  -0.192  1.00 20.00    -0.043 Br
ENDROOT
BRANCH   3   7
HETATM    7  C7  UNL     1     -41.496   1.931  -3.683  1.00 20.00     0.019 A 
HETATM    8  C5  UNL     1     -42.444   1.348  -4.713  1.00 20.00     0.010 A 
HETATM    9  C6  UNL     1     -42.275   0.663  -3.391  1.00 20.00     0.010 A 
ENDBRANCH   3   7
TORSDOF 1
ENDMDL
MODEL 8
REMARK VINA RESULT:      -3.6     12.773     13.730
REMARK  1 active torsions:
REMARK  status: ('A' for Active; 'I' for Inactive)
REMARK    1  A    between atoms: C3_3  and  C7_7 
ROOT
HETATM    1  C1  UNL     1     -41.054   3.532  -2.467  1.00 20.00     0.034 A 
HETATM    2  C2  UNL     1     -42.824   4.022  -1.043  1.00 20.00     0.058 A 
HETATM    3  C3  UNL     1     -41.550   4.375  -1.431  1.00 20.00    -0.046 A 
HETATM    4  C4  UNL     1     -41.967   2.568  -2.833  1.00 20.00     0.051 A 
HETATM    5  S8  UNL     1     -43.417   2.681  -1.927  1.00 20.00    -0.094 SA
HETATM    6 BR9  UNL     1     -41.670   1.261  -4.178  1.00 20.00    -0.043 Br
ENDROOT
BRANCH   3   7
HETATM    7  C7  UNL     1     -40.761   5.531  -0.822  1.00 20.00     0.019 A 
HETATM    8  C5  UNL     1     -41.475   6.506   0.094  1.00 20.00     0.010 A 
HETATM    9  C6  UNL     1     -41.061   6.946  -1.277  1.00 20.00     0.010 A 
ENDBRANCH   3   7
TORSDOF 1
ENDMDL
MODEL 9
REMARK VINA RESULT:      -3.6      4.992      6.189
REMARK  1 active torsions:
REMARK  status: ('A' for Active; 'I' for Inactive)
REMARK    1  A    between atoms: C3_3  and  C7_7 
ROOT
HETATM    1  C1  UNL     1     -35.097  17.391   0.753  1.00 20.00     0.034 A 
HETATM    2  C2  UNL     1     -33.264  18.096  -0.489  1.00 20.00     0.058 A 
HETATM    3  C3  UNL     1     -34.338  17.233  -0.442  1.00 20.00    -0.046 A 
HETATM    4  C4  UNL     1     -34.577  18.367   1.573  1.00 20.00     0.051 A 
HETATM    5  S8  UNL     1     -33.176  19.090   0.902  1.00 20.00    -0.094 SA
HETATM    6 BR9  UNL     1     -35.312  18.865   3.252  1.00 20.00    -0.043 Br
ENDROOT
BRANCH   3   7
HETATM    7  C7  UNL     1     -34.673  16.226  -1.540  1.00 20.00     0.019 A 
HETATM    8  C5  UNL     1     -33.783  16.151  -2.764  1.00 20.00     0.010 A 
HETATM    9  C6  UNL     1     -35.155  16.738  -2.883  1.00 20.00     0.010 A 
ENDBRANCH   3   7
TORSDOF 1
ENDMDL
