MODEL 1
REMARK VINA RESULT:      -5.3      0.000      0.000
REMARK  0 active torsions:
REMARK  status: ('A' for Active; 'I' for Inactive)
ROOT
HETATM    1  C1  UNL     1     -34.638  13.679  -4.699  1.00 20.00     0.136 C 
HETATM    2  C2  UNL     1     -35.614  14.442  -7.080  1.00 20.00     0.018 A 
HETATM    3  C3  UNL     1     -32.523  14.640  -3.591  1.00 20.00     0.018 A 
HETATM    4  C4  UNL     1     -34.238  17.873  -5.296  1.00 20.00     0.011 A 
HETATM    5  C5  UNL     1     -34.555  14.212  -6.063  1.00 20.00     0.060 A 
HETATM    6  C6  UNL     1     -34.021  14.502  -3.616  1.00 20.00     0.060 A 
HETATM    7  C7  UNL     1     -35.263  15.572  -6.169  1.00 20.00     0.002 A 
HETATM    8  C8  UNL     1     -33.371  15.875  -3.780  1.00 20.00     0.002 A 
HETATM    9  C9  UNL     1     -34.242  16.691  -6.221  1.00 20.00    -0.005 A 
HETATM   10  C10 UNL     1     -33.259  16.750  -5.048  1.00 20.00    -0.005 A 
HETATM   11  O11 UNL     1     -35.156  12.597  -4.461  1.00 20.00    -0.297 OA
ENDROOT
TORSDOF 0
ENDMDL
MODEL 2
REMARK VINA RESULT:      -5.2     12.033     13.737
REMARK  0 active torsions:
REMARK  status: ('A' for Active; 'I' for Inactive)
ROOT
HETATM    1  C1  UNL     1     -34.292   5.280   3.181  1.00 20.00     0.136 C 
HETATM    2  C2  UNL     1     -32.274   7.049   3.204  1.00 20.00     0.018 A 
HETATM    3  C3  UNL     1     -34.983   3.797   5.168  1.00 20.00     0.018 A 
HETATM    4  C4  UNL     1     -34.019   7.310   6.909  1.00 20.00     0.011 A 
HETATM    5  C5  UNL     1     -33.001   5.821   3.619  1.00 20.00     0.060 A 
HETATM    6  C6  UNL     1     -35.282   4.952   4.250  1.00 20.00     0.060 A 
HETATM    7  C7  UNL     1     -33.185   7.140   4.383  1.00 20.00     0.002 A 
HETATM    8  C8  UNL     1     -35.106   5.186   5.750  1.00 20.00     0.002 A 
HETATM    9  C9  UNL     1     -33.011   6.912   5.872  1.00 20.00    -0.005 A 
HETATM   10  C10 UNL     1     -33.934   5.861   6.496  1.00 20.00    -0.005 A 
HETATM   11  O11 UNL     1     -34.537   5.073   2.000  1.00 20.00    -0.297 OA
ENDROOT
TORSDOF 0
ENDMDL
MODEL 3
REMARK VINA RESULT:      -4.9      1.003      2.731
REMARK  0 active torsions:
REMARK  status: ('A' for Active; 'I' for Inactive)
ROOT
HETATM    1  C1  UNL     1     -34.979  13.872  -4.635  1.00 20.00     0.136 C 
HETATM    2  C2  UNL     1     -34.842  15.457  -2.473  1.00 20.00     0.018 A 
HETATM    3  C3  UNL     1     -35.717  14.631  -6.981  1.00 20.00     0.018 A 
HETATM    4  C4  UNL     1     -33.560  17.761  -5.618  1.00 20.00     0.011 A 
HETATM    5  C5  UNL     1     -35.356  15.015  -3.796  1.00 20.00     0.060 A 
HETATM    6  C6  UNL     1     -34.624  14.168  -6.056  1.00 20.00     0.060 A 
HETATM    7  C7  UNL     1     -34.207  16.030  -3.697  1.00 20.00     0.002 A 
HETATM    8  C8  UNL     1     -34.551  15.551  -6.702  1.00 20.00     0.002 A 
HETATM    9  C9  UNL     1     -34.496  17.235  -4.570  1.00 20.00    -0.005 A 
HETATM   10  C10 UNL     1     -34.750  16.938  -6.051  1.00 20.00    -0.005 A 
HETATM   11  O11 UNL     1     -34.987  12.727  -4.205  1.00 20.00    -0.297 OA
ENDROOT
TORSDOF 0
ENDMDL
MODEL 4
REMARK VINA RESULT:      -4.8      1.649      3.011
REMARK  0 active torsions:
REMARK  status: ('A' for Active; 'I' for Inactive)
ROOT
HETATM    1  C1  UNL     1     -34.431  15.360  -6.149  1.00 20.00     0.136 C 
HETATM    2  C2  UNL     1     -33.499  17.796  -5.515  1.00 20.00     0.018 A 
HETATM    3  C3  UNL     1     -34.202  13.260  -4.680  1.00 20.00     0.018 A 
HETATM    4  C4  UNL     1     -34.910  16.201  -2.006  1.00 20.00     0.011 A 
HETATM    5  C5  UNL     1     -33.526  16.310  -5.493  1.00 20.00     0.060 A 
HETATM    6  C6  UNL     1     -35.074  14.331  -5.278  1.00 20.00     0.060 A 
HETATM    7  C7  UNL     1     -34.264  17.126  -4.421  1.00 20.00     0.002 A 
HETATM    8  C8  UNL     1     -34.932  14.211  -3.762  1.00 20.00     0.002 A 
HETATM    9  C9  UNL     1     -33.905  16.621  -3.038  1.00 20.00    -0.005 A 
HETATM   10  C10 UNL     1     -34.174  15.135  -2.782  1.00 20.00    -0.005 A 
HETATM   11  O11 UNL     1     -34.626  15.385  -7.357  1.00 20.00    -0.297 OA
ENDROOT
TORSDOF 0
ENDMDL
MODEL 5
REMARK VINA RESULT:      -4.8      2.093      3.304
REMARK  0 active torsions:
REMARK  status: ('A' for Active; 'I' for Inactive)
ROOT
HETATM    1  C1  UNL     1     -33.862  17.219  -4.434  1.00 20.00     0.136 C 
HETATM    2  C2  UNL     1     -34.589  16.611  -6.944  1.00 20.00     0.018 A 
HETATM    3  C3  UNL     1     -34.837  16.142  -2.309  1.00 20.00     0.018 A 
HETATM    4  C4  UNL     1     -34.592  13.053  -4.898  1.00 20.00     0.011 A 
HETATM    5  C5  UNL     1     -34.783  16.756  -5.478  1.00 20.00     0.060 A 
HETATM    6  C6  UNL     1     -33.679  16.323  -3.253  1.00 20.00     0.060 A 
HETATM    7  C7  UNL     1     -34.310  15.425  -6.081  1.00 20.00     0.002 A 
HETATM    8  C8  UNL     1     -34.305  14.943  -3.057  1.00 20.00     0.002 A 
HETATM    9  C9  UNL     1     -35.153  14.282  -5.553  1.00 20.00    -0.005 A 
HETATM   10  C10 UNL     1     -35.192  14.133  -4.029  1.00 20.00    -0.005 A 
HETATM   11  O11 UNL     1     -33.297  18.302  -4.507  1.00 20.00    -0.297 OA
ENDROOT
TORSDOF 0
ENDMDL
MODEL 6
REMARK VINA RESULT:      -4.8      1.582      1.736
REMARK  0 active torsions:
REMARK  status: ('A' for Active; 'I' for Inactive)
ROOT
HETATM    1  C1  UNL     1     -36.116  14.737  -3.927  1.00 20.00     0.136 C 
HETATM    2  C2  UNL     1     -35.165  14.168  -6.371  1.00 20.00     0.018 A 
HETATM    3  C3  UNL     1     -34.774  15.867  -2.044  1.00 20.00     0.018 A 
HETATM    4  C4  UNL     1     -33.536  17.798  -5.366  1.00 20.00     0.011 A 
HETATM    5  C5  UNL     1     -35.076  14.406  -4.907  1.00 20.00     0.060 A 
HETATM    6  C6  UNL     1     -35.875  15.935  -3.068  1.00 20.00     0.060 A 
HETATM    7  C7  UNL     1     -34.873  15.556  -5.906  1.00 20.00     0.002 A 
HETATM    8  C8  UNL     1     -34.683  16.887  -3.154  1.00 20.00     0.002 A 
HETATM    9  C9  UNL     1     -33.601  16.314  -5.580  1.00 20.00    -0.005 A 
HETATM   10  C10 UNL     1     -33.513  16.887  -4.162  1.00 20.00    -0.005 A 
HETATM   11  O11 UNL     1     -37.117  14.047  -3.793  1.00 20.00    -0.297 OA
ENDROOT
TORSDOF 0
ENDMDL
MODEL 7
REMARK VINA RESULT:      -4.8      1.522      2.895
REMARK  0 active torsions:
REMARK  status: ('A' for Active; 'I' for Inactive)
ROOT
HETATM    1  C1  UNL     1     -34.969  13.692  -4.402  1.00 20.00     0.136 C 
HETATM    2  C2  UNL     1     -32.532  14.370  -3.506  1.00 20.00     0.018 A 
HETATM    3  C3  UNL     1     -37.163  14.876  -3.760  1.00 20.00     0.018 A 
HETATM    4  C4  UNL     1     -34.521  17.911  -4.091  1.00 20.00     0.011 A 
HETATM    5  C5  UNL     1     -34.011  14.250  -3.441  1.00 20.00     0.060 A 
HETATM    6  C6  UNL     1     -36.115  14.566  -4.795  1.00 20.00     0.060 A 
HETATM    7  C7  UNL     1     -33.348  15.520  -3.996  1.00 20.00     0.002 A 
HETATM    8  C8  UNL     1     -36.351  16.007  -4.346  1.00 20.00     0.002 A 
HETATM    9  C9  UNL     1     -33.940  16.750  -3.338  1.00 20.00    -0.005 A 
HETATM   10  C10 UNL     1     -35.458  16.907  -3.464  1.00 20.00    -0.005 A 
HETATM   11  O11 UNL     1     -34.857  12.553  -4.836  1.00 20.00    -0.297 OA
ENDROOT
TORSDOF 0
ENDMDL
MODEL 8
REMARK VINA RESULT:      -4.7      2.092      2.435
REMARK  0 active torsions:
REMARK  status: ('A' for Active; 'I' for Inactive)
ROOT
HETATM    1  C1  UNL     1     -35.026  13.822  -4.082  1.00 20.00     0.136 C 
HETATM    2  C2  UNL     1     -37.556  14.701  -4.253  1.00 20.00     0.018 A 
HETATM    3  C3  UNL     1     -32.938  15.326  -4.030  1.00 20.00     0.018 A 
HETATM    4  C4  UNL     1     -35.620  17.368  -1.807  1.00 20.00     0.011 A 
HETATM    5  C5  UNL     1     -36.087  14.761  -4.466  1.00 20.00     0.060 A 
HETATM    6  C6  UNL     1     -33.873  14.386  -3.318  1.00 20.00     0.060 A 
HETATM    7  C7  UNL     1     -36.729  15.404  -3.228  1.00 20.00     0.002 A 
HETATM    8  C8  UNL     1     -33.722  15.829  -2.840  1.00 20.00     0.002 A 
HETATM    9  C9  UNL     1     -36.238  16.829  -3.064  1.00 20.00    -0.005 A 
HETATM   10  C10 UNL     1     -34.720  17.001  -2.963  1.00 20.00    -0.005 A 
HETATM   11  O11 UNL     1     -35.064  12.642  -4.401  1.00 20.00    -0.297 OA
ENDROOT
TORSDOF 0
ENDMDL
MODEL 9
REMARK VINA RESULT:      -4.7      2.205      4.135
REMARK  0 active torsions:
REMARK  status: ('A' for Active; 'I' for Inactive)
ROOT
HETATM    1  C1  UNL     1     -34.840  17.516  -3.965  1.00 20.00     0.136 C 
HETATM    2  C2  UNL     1     -34.440  16.297  -1.608  1.00 20.00     0.018 A 
HETATM    3  C3  UNL     1     -33.988  16.659  -6.237  1.00 20.00     0.018 A 
HETATM    4  C4  UNL     1     -35.093  13.284  -4.316  1.00 20.00     0.011 A 
HETATM    5  C5  UNL     1     -34.119  16.665  -3.011  1.00 20.00     0.060 A 
HETATM    6  C6  UNL     1     -35.138  16.924  -5.303  1.00 20.00     0.060 A 
HETATM    7  C7  UNL     1     -34.918  15.391  -2.694  1.00 20.00     0.002 A 
HETATM    8  C8  UNL     1     -34.825  15.498  -5.753  1.00 20.00     0.002 A 
HETATM    9  C9  UNL     1     -34.318  14.203  -3.419  1.00 20.00    -0.005 A 
HETATM   10  C10 UNL     1     -34.210  14.337  -4.941  1.00 20.00    -0.005 A 
HETATM   11  O11 UNL     1     -35.153  18.667  -3.692  1.00 20.00    -0.297 OA
ENDROOT
TORSDOF 0
ENDMDL
