MODEL 1
REMARK VINA RESULT:      -3.8      0.000      0.000
REMARK  1 active torsions:
REMARK  status: ('A' for Active; 'I' for Inactive)
REMARK    1  A    between atoms: C2_2  and  C6_6 
ROOT
HETATM    1  C1  UNL     1     -34.053  14.118  -3.748  1.00 20.00     0.133 A 
HETATM    2  C2  UNL     1     -34.066  15.485  -3.565  1.00 20.00     0.007 A 
HETATM    3  C3  UNL     1     -34.768  14.709  -5.736  1.00 20.00     0.143 A 
HETATM    4  N7  UNL     1     -34.457  13.672  -4.992  1.00 20.00    -0.245 NA
HETATM    5  S8  UNL     1     -34.599  16.253  -5.003  1.00 20.00    -0.066 SA
HETATM    6 BR9  UNL     1     -35.376  14.511  -7.536  1.00 20.00    -0.021 Br
ENDROOT
BRANCH   2   7
HETATM    7  C6  UNL     1     -33.664  16.216  -2.274  1.00 20.00     0.027 A 
HETATM    8  C4  UNL     1     -34.721  16.460  -1.221  1.00 20.00     0.010 A 
HETATM    9  C5  UNL     1     -34.203  17.607  -2.032  1.00 20.00     0.010 A 
ENDBRANCH   2   7
TORSDOF 1
ENDMDL
MODEL 2
REMARK VINA RESULT:      -3.7      2.782      4.442
REMARK  1 active torsions:
REMARK  status: ('A' for Active; 'I' for Inactive)
REMARK    1  A    between atoms: C2_2  and  C6_6 
ROOT
HETATM    1  C1  UNL     1     -35.756  14.744  -4.486  1.00 20.00     0.133 A 
HETATM    2  C2  UNL     1     -34.679  15.235  -5.196  1.00 20.00     0.007 A 
HETATM    3  C3  UNL     1     -34.816  15.917  -2.889  1.00 20.00     0.143 A 
HETATM    4  N7  UNL     1     -35.835  15.133  -3.164  1.00 20.00    -0.245 NA
HETATM    5  S8  UNL     1     -33.723  16.228  -4.176  1.00 20.00    -0.066 SA
HETATM    6 BR9  UNL     1     -34.564  16.668  -1.151  1.00 20.00    -0.021 Br
ENDROOT
BRANCH   2   7
HETATM    7  C6  UNL     1     -34.377  14.942  -6.674  1.00 20.00     0.027 A 
HETATM    8  C4  UNL     1     -34.924  15.882  -7.724  1.00 20.00     0.010 A 
HETATM    9  C5  UNL     1     -35.513  14.514  -7.574  1.00 20.00     0.010 A 
ENDBRANCH   2   7
TORSDOF 1
ENDMDL
MODEL 3
REMARK VINA RESULT:      -3.7      1.456      1.582
REMARK  1 active torsions:
REMARK  status: ('A' for Active; 'I' for Inactive)
REMARK    1  A    between atoms: C2_2  and  C6_6 
ROOT
HETATM    1  C1  UNL     1     -33.384  16.571  -3.950  1.00 20.00     0.133 A 
HETATM    2  C2  UNL     1     -34.374  16.004  -3.176  1.00 20.00     0.007 A 
HETATM    3  C3  UNL     1     -34.450  15.480  -5.526  1.00 20.00     0.143 A 
HETATM    4  N7  UNL     1     -33.425  16.270  -5.298  1.00 20.00    -0.245 NA
HETATM    5  S8  UNL     1     -35.407  15.058  -4.165  1.00 20.00    -0.066 SA
HETATM    6 BR9  UNL     1     -34.852  14.835  -7.278  1.00 20.00    -0.021 Br
ENDROOT
BRANCH   2   7
HETATM    7  C6  UNL     1     -34.536  16.189  -1.658  1.00 20.00     0.027 A 
HETATM    8  C4  UNL     1     -35.335  17.369  -1.154  1.00 20.00     0.010 A 
HETATM    9  C5  UNL     1     -33.847  17.359  -0.994  1.00 20.00     0.010 A 
ENDBRANCH   2   7
TORSDOF 1
ENDMDL
MODEL 4
REMARK VINA RESULT:      -3.7      2.883      4.393
REMARK  1 active torsions:
REMARK  status: ('A' for Active; 'I' for Inactive)
REMARK    1  A    between atoms: C2_2  and  C6_6 
ROOT
HETATM    1  C1  UNL     1     -33.261  15.265  -4.179  1.00 20.00     0.133 A 
HETATM    2  C2  UNL     1     -34.525  14.939  -4.623  1.00 20.00     0.007 A 
HETATM    3  C3  UNL     1     -34.413  16.010  -2.468  1.00 20.00     0.143 A 
HETATM    4  N7  UNL     1     -33.195  15.881  -2.944  1.00 20.00    -0.245 NA
HETATM    5  S8  UNL     1     -35.686  15.414  -3.453  1.00 20.00    -0.066 SA
HETATM    6 BR9  UNL     1     -34.749  16.821  -0.770  1.00 20.00    -0.021 Br
ENDROOT
BRANCH   2   7
HETATM    7  C6  UNL     1     -34.852  14.253  -5.959  1.00 20.00     0.027 A 
HETATM    8  C4  UNL     1     -34.584  15.004  -7.243  1.00 20.00     0.010 A 
HETATM    9  C5  UNL     1     -35.994  14.792  -6.789  1.00 20.00     0.010 A 
ENDBRANCH   2   7
TORSDOF 1
ENDMDL
MODEL 5
REMARK VINA RESULT:      -3.6     13.121     14.195
REMARK  1 active torsions:
REMARK  status: ('A' for Active; 'I' for Inactive)
REMARK    1  A    between atoms: C2_2  and  C6_6 
ROOT
HETATM    1  C1  UNL     1     -40.866   3.991  -1.656  1.00 20.00     0.133 A 
HETATM    2  C2  UNL     1     -41.906   3.606  -2.475  1.00 20.00     0.007 A 
HETATM    3  C3  UNL     1     -41.895   5.921  -1.808  1.00 20.00     0.143 A 
HETATM    4  N7  UNL     1     -40.857   5.318  -1.274  1.00 20.00    -0.245 NA
HETATM    5  S8  UNL     1     -42.924   4.952  -2.783  1.00 20.00    -0.066 SA
HETATM    6 BR9  UNL     1     -42.241   7.777  -1.516  1.00 20.00    -0.021 Br
ENDROOT
BRANCH   2   7
HETATM    7  C6  UNL     1     -42.128   2.190  -3.031  1.00 20.00     0.027 A 
HETATM    8  C4  UNL     1     -41.245   1.708  -4.159  1.00 20.00     0.010 A 
HETATM    9  C5  UNL     1     -42.679   2.039  -4.430  1.00 20.00     0.010 A 
ENDBRANCH   2   7
TORSDOF 1
ENDMDL
MODEL 6
REMARK VINA RESULT:      -3.4     11.305     11.911
REMARK  1 active torsions:
REMARK  status: ('A' for Active; 'I' for Inactive)
REMARK    1  A    between atoms: C2_2  and  C6_6 
ROOT
HETATM    1  C1  UNL     1     -33.384   5.987   2.466  1.00 20.00     0.133 A 
HETATM    2  C2  UNL     1     -32.751   7.010   3.140  1.00 20.00     0.007 A 
HETATM    3  C3  UNL     1     -34.092   5.533   4.491  1.00 20.00     0.143 A 
HETATM    4  N7  UNL     1     -34.152   5.139   3.239  1.00 20.00    -0.245 NA
HETATM    5  S8  UNL     1     -33.129   6.918   4.811  1.00 20.00    -0.066 SA
HETATM    6 BR9  UNL     1     -35.026   4.615   5.882  1.00 20.00    -0.021 Br
ENDROOT
BRANCH   2   7
HETATM    7  C6  UNL     1     -31.845   8.074   2.500  1.00 20.00     0.027 A 
HETATM    8  C4  UNL     1     -32.483   9.321   1.932  1.00 20.00     0.010 A 
HETATM    9  C5  UNL     1     -31.922   8.287   1.006  1.00 20.00     0.010 A 
ENDBRANCH   2   7
TORSDOF 1
ENDMDL
MODEL 7
REMARK VINA RESULT:      -3.4      2.672      3.483
REMARK  1 active torsions:
REMARK  status: ('A' for Active; 'I' for Inactive)
REMARK    1  A    between atoms: C2_2  and  C6_6 
ROOT
HETATM    1  C1  UNL     1     -33.683  17.144  -3.796  1.00 20.00     0.133 A 
HETATM    2  C2  UNL     1     -34.170  15.967  -4.324  1.00 20.00     0.007 A 
HETATM    3  C3  UNL     1     -33.966  17.804  -5.868  1.00 20.00     0.143 A 
HETATM    4  N7  UNL     1     -33.564  18.198  -4.681  1.00 20.00    -0.245 NA
HETATM    5  S8  UNL     1     -34.500  16.177  -5.994  1.00 20.00    -0.066 SA
HETATM    6 BR9  UNL     1     -33.955  18.979  -7.375  1.00 20.00    -0.021 Br
ENDROOT
BRANCH   2   7
HETATM    7  C6  UNL     1     -34.389  14.661  -3.541  1.00 20.00     0.027 A 
HETATM    8  C4  UNL     1     -33.452  13.503  -3.790  1.00 20.00     0.010 A 
HETATM    9  C5  UNL     1     -34.860  13.438  -4.292  1.00 20.00     0.010 A 
ENDBRANCH   2   7
TORSDOF 1
ENDMDL
MODEL 8
REMARK VINA RESULT:      -3.3     12.919     13.544
REMARK  1 active torsions:
REMARK  status: ('A' for Active; 'I' for Inactive)
REMARK    1  A    between atoms: C2_2  and  C6_6 
ROOT
HETATM    1  C1  UNL     1     -43.354   5.171  -2.908  1.00 20.00     0.133 A 
HETATM    2  C2  UNL     1     -42.436   5.048  -1.885  1.00 20.00     0.007 A 
HETATM    3  C3  UNL     1     -42.546   3.199  -3.425  1.00 20.00     0.143 A 
HETATM    4  N7  UNL     1     -43.417   4.112  -3.792  1.00 20.00    -0.245 NA
HETATM    5  S8  UNL     1     -41.617   3.548  -2.025  1.00 20.00    -0.066 SA
HETATM    6 BR9  UNL     1     -42.326   1.570  -4.399  1.00 20.00    -0.021 Br
ENDROOT
BRANCH   2   7
HETATM    7  C6  UNL     1     -42.182   6.090  -0.784  1.00 20.00     0.027 A 
HETATM    8  C4  UNL     1     -41.187   7.196  -1.050  1.00 20.00     0.010 A 
HETATM    9  C5  UNL     1     -40.839   6.100  -0.092  1.00 20.00     0.010 A 
ENDBRANCH   2   7
TORSDOF 1
ENDMDL
MODEL 9
REMARK VINA RESULT:      -3.3      2.361      2.477
REMARK  1 active torsions:
REMARK  status: ('A' for Active; 'I' for Inactive)
REMARK    1  A    between atoms: C2_2  and  C6_6 
ROOT
HETATM    1  C1  UNL     1     -35.174  17.325  -3.972  1.00 20.00     0.133 A 
HETATM    2  C2  UNL     1     -35.218  16.299  -3.050  1.00 20.00     0.007 A 
HETATM    3  C3  UNL     1     -36.763  16.125  -4.890  1.00 20.00     0.143 A 
HETATM    4  N7  UNL     1     -36.058  17.225  -5.028  1.00 20.00    -0.245 NA
HETATM    5  S8  UNL     1     -36.414  15.161  -3.513  1.00 20.00    -0.066 SA
HETATM    6 BR9  UNL     1     -38.103  15.623  -6.156  1.00 20.00    -0.021 Br
ENDROOT
BRANCH   2   7
HETATM    7  C6  UNL     1     -34.335  16.188  -1.797  1.00 20.00     0.027 A 
HETATM    8  C4  UNL     1     -34.808  16.839  -0.518  1.00 20.00     0.010 A 
HETATM    9  C5  UNL     1     -33.661  17.435  -1.273  1.00 20.00     0.010 A 
ENDBRANCH   2   7
TORSDOF 1
ENDMDL
