MODEL 1
REMARK VINA RESULT:      -7.0      0.000      0.000
REMARK  1 active torsions:
REMARK  status: ('A' for Active; 'I' for Inactive)
REMARK    1  A    between atoms: C9_9  and  C10_10 
ROOT
HETATM    1  C1  UNL     1     -32.065   8.475   1.868  1.00 20.00     0.063 C 
HETATM    2  C10 UNL     1     -31.631   7.740   3.039  1.00 20.00     0.163 C 
HETATM    3  N11 UNL     1     -32.383   9.082   0.930  1.00 20.00    -0.197 NA
ENDROOT
BRANCH   2   4
HETATM    4  C9  UNL     1     -32.727   6.742   3.423  1.00 20.00    -0.033 A 
HETATM    5  C6  UNL     1     -33.506   5.767   2.680  1.00 20.00     0.021 A 
HETATM    6  C7  UNL     1     -34.133   5.432   3.812  1.00 20.00    -0.025 A 
HETATM    7  C4  UNL     1     -35.135   4.604   4.499  1.00 20.00     0.012 A 
HETATM    8  C8  UNL     1     -33.374   6.380   4.537  1.00 20.00    -0.019 A 
HETATM    9  C2  UNL     1     -35.297   4.785   5.826  1.00 20.00     0.001 A 
HETATM   10  C3  UNL     1     -34.508   5.769   6.578  1.00 20.00     0.001 A 
HETATM   11  C5  UNL     1     -33.580   6.546   5.981  1.00 20.00     0.013 A 
ENDBRANCH   2   4
TORSDOF 1
ENDMDL
MODEL 2
REMARK VINA RESULT:      -5.9      0.765      1.816
REMARK  1 active torsions:
REMARK  status: ('A' for Active; 'I' for Inactive)
REMARK    1  A    between atoms: C9_9  and  C10_10 
ROOT
HETATM    1  C1  UNL     1     -32.331   8.776   1.818  1.00 20.00     0.063 C 
HETATM    2  C10 UNL     1     -32.084   7.364   2.031  1.00 20.00     0.163 C 
HETATM    3  N11 UNL     1     -32.512   9.905   1.616  1.00 20.00    -0.197 NA
ENDROOT
BRANCH   2   4
HETATM    4  C9  UNL     1     -32.686   6.961   3.381  1.00 20.00    -0.033 A 
HETATM    5  C6  UNL     1     -32.440   7.369   4.753  1.00 20.00     0.021 A 
HETATM    6  C7  UNL     1     -33.390   6.518   5.156  1.00 20.00    -0.025 A 
HETATM    7  C4  UNL     1     -34.163   5.923   6.255  1.00 20.00     0.012 A 
HETATM    8  C8  UNL     1     -33.631   6.122   3.819  1.00 20.00    -0.019 A 
HETATM    9  C2  UNL     1     -35.096   5.000   5.940  1.00 20.00     0.001 A 
HETATM   10  C3  UNL     1     -35.346   4.590   4.553  1.00 20.00     0.001 A 
HETATM   11  C5  UNL     1     -34.655   5.114   3.518  1.00 20.00     0.013 A 
ENDBRANCH   2   4
TORSDOF 1
ENDMDL
MODEL 3
REMARK VINA RESULT:      -5.2     11.212     11.944
REMARK  1 active torsions:
REMARK  status: ('A' for Active; 'I' for Inactive)
REMARK    1  A    between atoms: C9_9  and  C10_10 
ROOT
HETATM    1  C1  UNL     1     -33.373  14.560  -3.781  1.00 20.00     0.063 C 
HETATM    2  C10 UNL     1     -33.205  15.990  -3.614  1.00 20.00     0.163 C 
HETATM    3  N11 UNL     1     -33.490  13.416  -3.945  1.00 20.00    -0.197 NA
ENDROOT
BRANCH   2   4
HETATM    4  C9  UNL     1     -33.850  16.405  -2.288  1.00 20.00    -0.033 A 
HETATM    5  C6  UNL     1     -35.044  15.986  -1.575  1.00 20.00     0.021 A 
HETATM    6  C7  UNL     1     -34.753  16.864  -0.609  1.00 20.00    -0.025 A 
HETATM    7  C4  UNL     1     -35.101  17.478   0.680  1.00 20.00     0.012 A 
HETATM    8  C8  UNL     1     -33.589  17.272  -1.303  1.00 20.00    -0.019 A 
HETATM    9  C2  UNL     1     -34.277  18.430   1.165  1.00 20.00     0.001 A 
HETATM   10  C3  UNL     1     -33.069  18.853   0.446  1.00 20.00     0.001 A 
HETATM   11  C5  UNL     1     -32.719  18.311  -0.741  1.00 20.00     0.013 A 
ENDBRANCH   2   4
TORSDOF 1
ENDMDL
MODEL 4
REMARK VINA RESULT:      -5.1     11.380     12.704
REMARK  1 active torsions:
REMARK  status: ('A' for Active; 'I' for Inactive)
REMARK    1  A    between atoms: C9_9  and  C10_10 
ROOT
HETATM    1  C1  UNL     1     -34.648  13.746  -5.112  1.00 20.00     0.063 C 
HETATM    2  C10 UNL     1     -34.394  14.983  -5.823  1.00 20.00     0.163 C 
HETATM    3  N11 UNL     1     -34.857  12.739  -4.572  1.00 20.00    -0.197 NA
ENDROOT
BRANCH   2   4
HETATM    4  C9  UNL     1     -34.122  16.088  -4.798  1.00 20.00    -0.033 A 
HETATM    5  C6  UNL     1     -33.557  17.423  -4.884  1.00 20.00     0.021 A 
HETATM    6  C7  UNL     1     -33.737  17.565  -3.567  1.00 20.00    -0.025 A 
HETATM    7  C4  UNL     1     -33.613  18.396  -2.362  1.00 20.00     0.012 A 
HETATM    8  C8  UNL     1     -34.290  16.265  -3.482  1.00 20.00    -0.019 A 
HETATM    9  C2  UNL     1     -34.041  17.876  -1.192  1.00 20.00     0.001 A 
HETATM   10  C3  UNL     1     -34.615  16.528  -1.105  1.00 20.00     0.001 A 
HETATM   11  C5  UNL     1     -34.744  15.736  -2.191  1.00 20.00     0.013 A 
ENDBRANCH   2   4
TORSDOF 1
ENDMDL
MODEL 5
REMARK VINA RESULT:      -5.0     10.272     11.426
REMARK  1 active torsions:
REMARK  status: ('A' for Active; 'I' for Inactive)
REMARK    1  A    between atoms: C9_9  and  C10_10 
ROOT
HETATM    1  C1  UNL     1     -42.663   2.080  -4.473  1.00 20.00     0.063 C 
HETATM    2  C10 UNL     1     -42.356   2.250  -3.067  1.00 20.00     0.163 C 
HETATM    3  N11 UNL     1     -42.907   1.910  -5.595  1.00 20.00    -0.197 NA
ENDROOT
BRANCH   2   4
HETATM    4  C9  UNL     1     -42.347   3.747  -2.746  1.00 20.00    -0.033 A 
HETATM    5  C6  UNL     1     -43.069   4.893  -3.272  1.00 20.00     0.021 A 
HETATM    6  C7  UNL     1     -42.412   5.678  -2.411  1.00 20.00    -0.025 A 
HETATM    7  C4  UNL     1     -42.167   7.022  -1.868  1.00 20.00     0.012 A 
HETATM    8  C8  UNL     1     -41.710   4.562  -1.897  1.00 20.00    -0.019 A 
HETATM    9  C2  UNL     1     -41.259   7.142  -0.877  1.00 20.00     0.001 A 
HETATM   10  C3  UNL     1     -40.531   5.985  -0.344  1.00 20.00     0.001 A 
HETATM   11  C5  UNL     1     -40.730   4.736  -0.818  1.00 20.00     0.013 A 
ENDBRANCH   2   4
TORSDOF 1
ENDMDL
MODEL 6
REMARK VINA RESULT:      -4.9     11.127     11.740
REMARK  1 active torsions:
REMARK  status: ('A' for Active; 'I' for Inactive)
REMARK    1  A    between atoms: C9_9  and  C10_10 
ROOT
HETATM    1  C1  UNL     1     -34.584  17.385   0.051  1.00 20.00     0.063 C 
HETATM    2  C10 UNL     1     -33.817  17.240  -1.170  1.00 20.00     0.163 C 
HETATM    3  N11 UNL     1     -35.173  17.522   1.042  1.00 20.00    -0.197 NA
ENDROOT
BRANCH   2   4
HETATM    4  C9  UNL     1     -34.586  16.323  -2.124  1.00 20.00    -0.033 A 
HETATM    5  C6  UNL     1     -35.974  16.247  -2.547  1.00 20.00     0.021 A 
HETATM    6  C7  UNL     1     -35.661  15.205  -3.325  1.00 20.00    -0.025 A 
HETATM    7  C4  UNL     1     -36.089  14.177  -4.284  1.00 20.00     0.012 A 
HETATM    8  C8  UNL     1     -34.309  15.279  -2.915  1.00 20.00    -0.019 A 
HETATM    9  C2  UNL     1     -35.153  13.322  -4.748  1.00 20.00     0.001 A 
HETATM   10  C3  UNL     1     -33.750  13.399  -4.322  1.00 20.00     0.001 A 
HETATM   11  C5  UNL     1     -33.321  14.330  -3.443  1.00 20.00     0.013 A 
ENDBRANCH   2   4
TORSDOF 1
ENDMDL
MODEL 7
REMARK VINA RESULT:      -4.7     10.061     10.811
REMARK  1 active torsions:
REMARK  status: ('A' for Active; 'I' for Inactive)
REMARK    1  A    between atoms: C9_9  and  C10_10 
ROOT
HETATM    1  C1  UNL     1     -42.272   8.845  -4.768  1.00 20.00     0.063 C 
HETATM    2  C10 UNL     1     -43.211   8.502  -3.718  1.00 20.00     0.163 C 
HETATM    3  N11 UNL     1     -41.538   9.149  -5.615  1.00 20.00    -0.197 NA
ENDROOT
BRANCH   2   4
HETATM    4  C9  UNL     1     -42.769   7.182  -3.080  1.00 20.00    -0.033 A 
HETATM    5  C6  UNL     1     -43.044   5.784  -3.365  1.00 20.00     0.021 A 
HETATM    6  C7  UNL     1     -42.260   5.440  -2.338  1.00 20.00    -0.025 A 
HETATM    7  C4  UNL     1     -41.660   4.383  -1.512  1.00 20.00     0.012 A 
HETATM    8  C8  UNL     1     -41.991   6.801  -2.060  1.00 20.00    -0.019 A 
HETATM    9  C2  UNL     1     -40.855   4.760  -0.496  1.00 20.00     0.001 A 
HETATM   10  C3  UNL     1     -40.575   6.172  -0.209  1.00 20.00     0.001 A 
HETATM   11  C5  UNL     1     -41.109   7.170  -0.946  1.00 20.00     0.013 A 
ENDBRANCH   2   4
TORSDOF 1
ENDMDL
MODEL 8
REMARK VINA RESULT:      -4.7     11.197     12.561
REMARK  1 active torsions:
REMARK  status: ('A' for Active; 'I' for Inactive)
REMARK    1  A    between atoms: C9_9  and  C10_10 
ROOT
HETATM    1  C1  UNL     1     -33.569  17.707  -0.732  1.00 20.00     0.063 C 
HETATM    2  C10 UNL     1     -34.404  16.576  -1.085  1.00 20.00     0.163 C 
HETATM    3  N11 UNL     1     -32.910  18.609  -0.417  1.00 20.00    -0.197 NA
ENDROOT
BRANCH   2   4
HETATM    4  C9  UNL     1     -34.331  16.368  -2.600  1.00 20.00    -0.033 A 
HETATM    5  C6  UNL     1     -34.017  17.236  -3.721  1.00 20.00     0.021 A 
HETATM    6  C7  UNL     1     -34.207  16.205  -4.550  1.00 20.00    -0.025 A 
HETATM    7  C4  UNL     1     -34.223  15.679  -5.922  1.00 20.00     0.012 A 
HETATM    8  C8  UNL     1     -34.511  15.357  -3.459  1.00 20.00    -0.019 A 
HETATM    9  C2  UNL     1     -34.535  14.377  -6.093  1.00 20.00     0.001 A 
HETATM   10  C3  UNL     1     -34.851  13.498  -4.961  1.00 20.00     0.001 A 
HETATM   11  C5  UNL     1     -34.846  13.946  -3.687  1.00 20.00     0.013 A 
ENDBRANCH   2   4
TORSDOF 1
ENDMDL
MODEL 9
REMARK VINA RESULT:      -4.5      9.901     11.138
REMARK  1 active torsions:
REMARK  status: ('A' for Active; 'I' for Inactive)
REMARK    1  A    between atoms: C9_9  and  C10_10 
ROOT
HETATM    1  C1  UNL     1     -41.697   2.126  -3.495  1.00 20.00     0.063 C 
HETATM    2  C10 UNL     1     -42.638   2.698  -2.553  1.00 20.00     0.163 C 
HETATM    3  N11 UNL     1     -40.965   1.642  -4.255  1.00 20.00    -0.197 NA
ENDROOT
BRANCH   2   4
HETATM    4  C9  UNL     1     -42.037   3.986  -1.983  1.00 20.00    -0.033 A 
HETATM    5  C6  UNL     1     -40.799   4.297  -1.289  1.00 20.00     0.021 A 
HETATM    6  C7  UNL     1     -41.180   5.577  -1.223  1.00 20.00    -0.025 A 
HETATM    7  C4  UNL     1     -40.896   6.955  -0.798  1.00 20.00     0.012 A 
HETATM    8  C8  UNL     1     -42.385   5.275  -1.900  1.00 20.00    -0.019 A 
HETATM    9  C2  UNL     1     -41.816   7.902  -1.076  1.00 20.00     0.001 A 
HETATM   10  C3  UNL     1     -43.065   7.588  -1.779  1.00 20.00     0.001 A 
HETATM   11  C5  UNL     1     -43.361   6.334  -2.184  1.00 20.00     0.013 A 
ENDBRANCH   2   4
TORSDOF 1
ENDMDL
