MODEL 1
REMARK VINA RESULT:      -4.7      0.000      0.000
REMARK  2 active torsions:
REMARK  status: ('A' for Active; 'I' for Inactive)
REMARK    1  A    between atoms: C5_5  and  C9_9 
REMARK    2  A    between atoms: C6_6  and  C10_10 
ROOT
HETATM    1  C1  UNL     1     -33.739  16.155  -4.958  1.00 20.00     0.131 C 
HETATM    2  C2  UNL     1     -33.423  17.525  -4.400  1.00 20.00     0.079 C 
HETATM    3  C3  UNL     1     -34.168  17.755  -3.093  1.00 20.00     0.012 C 
HETATM    4  C4  UNL     1     -34.312  15.271  -2.693  1.00 20.00     0.016 C 
HETATM    5  C5  UNL     1     -33.559  14.986  -3.997  1.00 20.00     0.055 C 
HETATM    6  C6  UNL     1     -33.912  16.625  -2.086  1.00 20.00    -0.014 C 
HETATM    7  O11 UNL     1     -34.034  16.006  -6.143  1.00 20.00    -0.298 OA
ENDROOT
BRANCH   5   8
HETATM    8  C9  UNL     1     -34.026  13.671  -4.613  1.00 20.00     0.007 C 
HETATM    9  C7  UNL     1     -35.456  13.385  -4.290  1.00 20.00     0.006 C 
ENDBRANCH   5   8
BRANCH   6  10
HETATM   10  C10 UNL     1     -34.676  16.878  -0.788  1.00 20.00     0.000 C 
HETATM   11  C8  UNL     1     -33.996  17.901   0.061  1.00 20.00     0.005 C 
ENDBRANCH   6  10
TORSDOF 2
ENDMDL
MODEL 2
REMARK VINA RESULT:      -4.6      1.721      2.550
REMARK  2 active torsions:
REMARK  status: ('A' for Active; 'I' for Inactive)
REMARK    1  A    between atoms: C5_5  and  C9_9 
REMARK    2  A    between atoms: C6_6  and  C10_10 
ROOT
HETATM    1  C1  UNL     1     -35.018  14.105  -4.741  1.00 20.00     0.131 C 
HETATM    2  C2  UNL     1     -33.680  13.925  -4.059  1.00 20.00     0.079 C 
HETATM    3  C3  UNL     1     -33.296  15.185  -3.297  1.00 20.00     0.012 C 
HETATM    4  C4  UNL     1     -35.718  15.850  -3.097  1.00 20.00     0.016 C 
HETATM    5  C5  UNL     1     -36.159  14.593  -3.855  1.00 20.00     0.055 C 
HETATM    6  C6  UNL     1     -34.405  15.626  -2.331  1.00 20.00    -0.014 C 
HETATM    7  O11 UNL     1     -35.178  13.783  -5.918  1.00 20.00    -0.298 OA
ENDROOT
BRANCH   5   8
HETATM    8  C9  UNL     1     -37.425  14.864  -4.662  1.00 20.00     0.007 C 
HETATM    9  C7  UNL     1     -38.643  14.864  -3.797  1.00 20.00     0.006 C 
ENDBRANCH   5   8
BRANCH   6  10
HETATM   10  C10 UNL     1     -33.995  16.894  -1.585  1.00 20.00     0.000 C 
HETATM   11  C8  UNL     1     -34.730  17.035  -0.293  1.00 20.00     0.005 C 
ENDBRANCH   6  10
TORSDOF 2
ENDMDL
MODEL 3
REMARK VINA RESULT:      -4.4      1.207      1.712
REMARK  2 active torsions:
REMARK  status: ('A' for Active; 'I' for Inactive)
REMARK    1  A    between atoms: C5_5  and  C9_9 
REMARK    2  A    between atoms: C6_6  and  C10_10 
ROOT
HETATM    1  C1  UNL     1     -34.321  17.158  -3.748  1.00 20.00     0.131 C 
HETATM    2  C2  UNL     1     -33.678  18.483  -3.404  1.00 20.00     0.079 C 
HETATM    3  C3  UNL     1     -33.992  18.872  -1.966  1.00 20.00     0.012 C 
HETATM    4  C4  UNL     1     -34.357  16.455  -1.351  1.00 20.00     0.016 C 
HETATM    5  C5  UNL     1     -34.042  16.010  -2.784  1.00 20.00     0.055 C 
HETATM    6  C6  UNL     1     -33.624  17.754  -0.981  1.00 20.00    -0.014 C 
HETATM    7  O11 UNL     1     -34.951  17.012  -4.795  1.00 20.00    -0.298 OA
ENDROOT
BRANCH   5   8
HETATM    8  C9  UNL     1     -34.838  14.761  -3.148  1.00 20.00     0.007 C 
HETATM    9  C7  UNL     1     -33.970  13.713  -3.765  1.00 20.00     0.006 C 
ENDBRANCH   5   8
BRANCH   6  10
HETATM   10  C10 UNL     1     -33.955  18.168   0.451  1.00 20.00     0.000 C 
HETATM   11  C8  UNL     1     -35.230  17.549   0.923  1.00 20.00     0.005 C 
ENDBRANCH   6  10
TORSDOF 2
ENDMDL
MODEL 4
REMARK VINA RESULT:      -4.3      2.180      3.414
REMARK  2 active torsions:
REMARK  status: ('A' for Active; 'I' for Inactive)
REMARK    1  A    between atoms: C5_5  and  C9_9 
REMARK    2  A    between atoms: C6_6  and  C10_10 
ROOT
HETATM    1  C1  UNL     1     -34.803  13.827  -3.920  1.00 20.00     0.131 C 
HETATM    2  C2  UNL     1     -33.378  14.174  -3.550  1.00 20.00     0.079 C 
HETATM    3  C3  UNL     1     -32.988  15.525  -4.132  1.00 20.00     0.012 C 
HETATM    4  C4  UNL     1     -35.405  16.234  -4.205  1.00 20.00     0.016 C 
HETATM    5  C5  UNL     1     -35.850  14.892  -3.614  1.00 20.00     0.055 C 
HETATM    6  C6  UNL     1     -33.990  16.621  -3.746  1.00 20.00    -0.014 C 
HETATM    7  O11 UNL     1     -35.091  12.713  -4.355  1.00 20.00    -0.298 OA
ENDROOT
BRANCH   5   8
HETATM    8  C9  UNL     1     -37.226  14.499  -4.142  1.00 20.00     0.007 C 
HETATM    9  C7  UNL     1     -38.314  15.297  -3.500  1.00 20.00     0.006 C 
ENDBRANCH   5   8
BRANCH   6  10
HETATM   10  C10 UNL     1     -33.578  17.963  -4.349  1.00 20.00     0.000 C 
HETATM   11  C8  UNL     1     -33.736  17.972  -5.834  1.00 20.00     0.005 C 
ENDBRANCH   6  10
TORSDOF 2
ENDMDL
MODEL 5
REMARK VINA RESULT:      -4.3      1.588      3.762
REMARK  2 active torsions:
REMARK  status: ('A' for Active; 'I' for Inactive)
REMARK    1  A    between atoms: C5_5  and  C9_9 
REMARK    2  A    between atoms: C6_6  and  C10_10 
ROOT
HETATM    1  C1  UNL     1     -34.244  17.922  -3.587  1.00 20.00     0.131 C 
HETATM    2  C2  UNL     1     -34.024  17.189  -2.283  1.00 20.00     0.079 C 
HETATM    3  C3  UNL     1     -34.189  15.689  -2.478  1.00 20.00     0.012 C 
HETATM    4  C4  UNL     1     -33.621  15.906  -4.924  1.00 20.00     0.016 C 
HETATM    5  C5  UNL     1     -33.436  17.421  -4.779  1.00 20.00     0.055 C 
HETATM    6  C6  UNL     1     -33.304  15.163  -3.617  1.00 20.00    -0.014 C 
HETATM    7  O11 UNL     1     -34.965  18.918  -3.641  1.00 20.00    -0.298 OA
ENDROOT
BRANCH   5   8
HETATM    8  C9  UNL     1     -33.825  18.138  -6.067  1.00 20.00     0.007 C 
HETATM    9  C7  UNL     1     -34.571  17.239  -6.998  1.00 20.00     0.006 C 
ENDBRANCH   5   8
BRANCH   6  10
HETATM   10  C10 UNL     1     -33.494  13.658  -3.795  1.00 20.00     0.000 C 
HETATM   11  C8  UNL     1     -34.782  13.343  -4.482  1.00 20.00     0.005 C 
ENDBRANCH   6  10
TORSDOF 2
ENDMDL
MODEL 6
REMARK VINA RESULT:      -4.3      2.053      4.340
REMARK  2 active torsions:
REMARK  status: ('A' for Active; 'I' for Inactive)
REMARK    1  A    between atoms: C5_5  and  C9_9 
REMARK    2  A    between atoms: C6_6  and  C10_10 
ROOT
HETATM    1  C1  UNL     1     -33.580  18.455  -1.940  1.00 20.00     0.131 C 
HETATM    2  C2  UNL     1     -33.699  18.276  -3.437  1.00 20.00     0.079 C 
HETATM    3  C3  UNL     1     -33.695  16.798  -3.800  1.00 20.00     0.012 C 
HETATM    4  C4  UNL     1     -34.542  16.192  -1.506  1.00 20.00     0.016 C 
HETATM    5  C5  UNL     1     -34.572  17.667  -1.092  1.00 20.00     0.055 C 
HETATM    6  C6  UNL     1     -34.759  16.016  -3.017  1.00 20.00    -0.014 C 
HETATM    7  O11 UNL     1     -32.785  19.263  -1.460  1.00 20.00    -0.298 OA
ENDROOT
BRANCH   5   8
HETATM    8  C9  UNL     1     -34.283  17.816   0.399  1.00 20.00     0.007 C 
HETATM    9  C7  UNL     1     -35.541  17.873   1.203  1.00 20.00     0.006 C 
ENDBRANCH   5   8
BRANCH   6  10
HETATM   10  C10 UNL     1     -34.727  14.537  -3.396  1.00 20.00     0.000 C 
HETATM   11  C8  UNL     1     -33.349  14.090  -3.757  1.00 20.00     0.005 C 
ENDBRANCH   6  10
TORSDOF 2
ENDMDL
MODEL 7
REMARK VINA RESULT:      -4.3     11.546     12.726
REMARK  2 active torsions:
REMARK  status: ('A' for Active; 'I' for Inactive)
REMARK    1  A    between atoms: C5_5  and  C9_9 
REMARK    2  A    between atoms: C6_6  and  C10_10 
ROOT
HETATM    1  C1  UNL     1     -34.811   5.249   4.014  1.00 20.00     0.131 C 
HETATM    2  C2  UNL     1     -34.275   5.062   2.612  1.00 20.00     0.079 C 
HETATM    3  C3  UNL     1     -33.424   6.255   2.202  1.00 20.00     0.012 C 
HETATM    4  C4  UNL     1     -32.941   6.791   4.616  1.00 20.00     0.016 C 
HETATM    5  C5  UNL     1     -33.781   5.597   5.082  1.00 20.00     0.055 C 
HETATM    6  C6  UNL     1     -32.323   6.550   3.230  1.00 20.00    -0.014 C 
HETATM    7  O11 UNL     1     -35.996   5.039   4.272  1.00 20.00    -0.298 OA
ENDROOT
BRANCH   5   8
HETATM    8  C9  UNL     1     -34.438   5.891   6.427  1.00 20.00     0.007 C 
HETATM    9  C7  UNL     1     -33.939   7.168   7.019  1.00 20.00     0.006 C 
ENDBRANCH   5   8
BRANCH   6  10
HETATM   10  C10 UNL     1     -31.490   7.754   2.796  1.00 20.00     0.000 C 
HETATM   11  C8  UNL     1     -32.136   8.494   1.671  1.00 20.00     0.005 C 
ENDBRANCH   6  10
TORSDOF 2
ENDMDL
MODEL 8
REMARK VINA RESULT:      -4.3     11.636     13.639
REMARK  2 active torsions:
REMARK  status: ('A' for Active; 'I' for Inactive)
REMARK    1  A    between atoms: C5_5  and  C9_9 
REMARK    2  A    between atoms: C6_6  and  C10_10 
ROOT
HETATM    1  C1  UNL     1     -41.705   7.018  -1.379  1.00 20.00     0.131 C 
HETATM    2  C2  UNL     1     -40.849   5.965  -0.712  1.00 20.00     0.079 C 
HETATM    3  C3  UNL     1     -41.473   4.586  -0.876  1.00 20.00     0.012 C 
HETATM    4  C4  UNL     1     -42.695   5.344  -2.945  1.00 20.00     0.016 C 
HETATM    5  C5  UNL     1     -42.089   6.746  -2.829  1.00 20.00     0.055 C 
HETATM    6  C6  UNL     1     -41.773   4.270  -2.348  1.00 20.00    -0.014 C 
HETATM    7  O11 UNL     1     -41.987   8.066  -0.799  1.00 20.00    -0.298 OA
ENDROOT
BRANCH   5   8
HETATM    8  C9  UNL     1     -43.055   7.799  -3.364  1.00 20.00     0.007 C 
HETATM    9  C7  UNL     1     -42.489   8.520  -4.544  1.00 20.00     0.006 C 
ENDBRANCH   5   8
BRANCH   6  10
HETATM   10  C10 UNL     1     -42.403   2.885  -2.483  1.00 20.00     0.000 C 
HETATM   11  C8  UNL     1     -41.686   2.049  -3.490  1.00 20.00     0.005 C 
ENDBRANCH   6  10
TORSDOF 2
ENDMDL
MODEL 9
REMARK VINA RESULT:      -4.3      2.011      3.391
REMARK  2 active torsions:
REMARK  status: ('A' for Active; 'I' for Inactive)
REMARK    1  A    between atoms: C5_5  and  C9_9 
REMARK    2  A    between atoms: C6_6  and  C10_10 
ROOT
HETATM    1  C1  UNL     1     -34.784  13.956  -4.434  1.00 20.00     0.131 C 
HETATM    2  C2  UNL     1     -34.545  14.565  -3.071  1.00 20.00     0.079 C 
HETATM    3  C3  UNL     1     -33.750  15.857  -3.195  1.00 20.00     0.012 C 
HETATM    4  C4  UNL     1     -34.559  16.174  -5.560  1.00 20.00     0.016 C 
HETATM    5  C5  UNL     1     -35.383  14.884  -5.485  1.00 20.00     0.055 C 
HETATM    6  C6  UNL     1     -34.403  16.835  -4.182  1.00 20.00    -0.014 C 
HETATM    7  O11 UNL     1     -34.586  12.758  -4.636  1.00 20.00    -0.298 OA
ENDROOT
BRANCH   5   8
HETATM    8  C9  UNL     1     -35.462  14.212  -6.853  1.00 20.00     0.007 C 
HETATM    9  C7  UNL     1     -34.832  15.050  -7.918  1.00 20.00     0.006 C 
ENDBRANCH   5   8
BRANCH   6  10
HETATM   10  C10 UNL     1     -33.581  18.117  -4.291  1.00 20.00     0.000 C 
HETATM   11  C8  UNL     1     -33.641  18.695  -5.667  1.00 20.00     0.005 C 
ENDBRANCH   6  10
TORSDOF 2
ENDMDL
