MODEL 1
REMARK VINA RESULT:      -4.3      0.000      0.000
REMARK  0 active torsions:
REMARK  status: ('A' for Active; 'I' for Inactive)
ROOT
HETATM    1  C1  UNL     1     -42.798   4.849  -2.958  1.00 20.00     0.050 C 
HETATM    2  C2  UNL     1     -41.957   3.906  -2.501  1.00 20.00     0.003 C 
HETATM    3  C3  UNL     1     -42.654   6.301  -2.639  1.00 20.00     0.027 C 
HETATM    4  C4  UNL     1     -40.619   6.043   0.120  1.00 20.00     0.056 A 
HETATM    5  C5  UNL     1     -42.062   6.101  -0.322  1.00 20.00     0.133 A 
HETATM    6  C6  UNL     1     -41.323   4.797  -0.326  1.00 20.00     0.108 A 
HETATM    7  C7  UNL     1     -42.037   2.511  -3.069  1.00 20.00     0.068 C 
HETATM    8  C8  UNL     1     -42.954   7.240  -3.790  1.00 20.00     0.070 C 
HETATM    9  N9  UNL     1     -42.321   6.870  -1.529  1.00 20.00    -0.287 NA
HETATM   10  N10 UNL     1     -40.975   4.086  -1.548  1.00 20.00    -0.387 N 
HETATM   11  H22 UNL     1     -40.266   3.359  -1.506  1.00 20.00     0.159 HD
ENDROOT
TORSDOF 0
ENDMDL
MODEL 2
REMARK VINA RESULT:      -4.2     12.096     13.478
REMARK  0 active torsions:
REMARK  status: ('A' for Active; 'I' for Inactive)
ROOT
HETATM    1  C1  UNL     1     -34.570  17.059  -3.787  1.00 20.00     0.050 C 
HETATM    2  C2  UNL     1     -33.955  16.845  -4.963  1.00 20.00     0.003 C 
HETATM    3  C3  UNL     1     -34.791  15.987  -2.771  1.00 20.00     0.027 C 
HETATM    4  C4  UNL     1     -34.385  13.238  -4.797  1.00 20.00     0.056 A 
HETATM    5  C5  UNL     1     -35.411  14.207  -4.258  1.00 20.00     0.133 A 
HETATM    6  C6  UNL     1     -34.607  14.556  -5.474  1.00 20.00     0.108 A 
HETATM    7  C7  UNL     1     -33.562  18.028  -5.812  1.00 20.00     0.068 C 
HETATM    8  C8  UNL     1     -34.598  16.421  -1.332  1.00 20.00     0.070 C 
HETATM    9  N9  UNL     1     -35.131  14.752  -2.939  1.00 20.00    -0.287 NA
HETATM   10  N10 UNL     1     -33.610  15.616  -5.488  1.00 20.00    -0.387 N 
HETATM   11  H22 UNL     1     -32.930  15.638  -6.243  1.00 20.00     0.159 HD
ENDROOT
TORSDOF 0
ENDMDL
MODEL 3
REMARK VINA RESULT:      -4.1     12.461     13.711
REMARK  0 active torsions:
REMARK  status: ('A' for Active; 'I' for Inactive)
ROOT
HETATM    1  C1  UNL     1     -34.188  14.954  -3.169  1.00 20.00     0.050 C 
HETATM    2  C2  UNL     1     -34.601  14.616  -4.403  1.00 20.00     0.003 C 
HETATM    3  C3  UNL     1     -34.198  16.356  -2.657  1.00 20.00     0.027 C 
HETATM    4  C4  UNL     1     -34.382  18.021  -5.659  1.00 20.00     0.056 A 
HETATM    5  C5  UNL     1     -33.418  17.466  -4.638  1.00 20.00     0.133 A 
HETATM    6  C6  UNL     1     -33.983  16.578  -5.705  1.00 20.00     0.108 A 
HETATM    7  C7  UNL     1     -34.784  13.159  -4.743  1.00 20.00     0.068 C 
HETATM    8  C8  UNL     1     -34.615  16.504  -1.208  1.00 20.00     0.070 C 
HETATM    9  N9  UNL     1     -33.894  17.456  -3.264  1.00 20.00    -0.287 NA
HETATM   10  N10 UNL     1     -34.910  15.491  -5.424  1.00 20.00    -0.387 N 
HETATM   11  H22 UNL     1     -35.448  15.098  -6.191  1.00 20.00     0.159 HD
ENDROOT
TORSDOF 0
ENDMDL
MODEL 4
REMARK VINA RESULT:      -4.1     12.516     13.920
REMARK  0 active torsions:
REMARK  status: ('A' for Active; 'I' for Inactive)
ROOT
HETATM    1  C1  UNL     1     -34.869  15.253  -2.937  1.00 20.00     0.050 C 
HETATM    2  C2  UNL     1     -34.409  16.386  -2.377  1.00 20.00     0.003 C 
HETATM    3  C3  UNL     1     -34.553  14.845  -4.338  1.00 20.00     0.027 C 
HETATM    4  C4  UNL     1     -33.566  17.897  -5.575  1.00 20.00     0.056 A 
HETATM    5  C5  UNL     1     -34.761  16.992  -5.391  1.00 20.00     0.133 A 
HETATM    6  C6  UNL     1     -34.323  17.899  -4.282  1.00 20.00     0.108 A 
HETATM    7  C7  UNL     1     -34.576  16.593  -0.893  1.00 20.00     0.068 C 
HETATM    8  C8  UNL     1     -34.294  13.364  -4.529  1.00 20.00     0.070 C 
HETATM    9  N9  UNL     1     -34.478  15.565  -5.408  1.00 20.00    -0.287 NA
HETATM   10  N10 UNL     1     -33.756  17.410  -3.034  1.00 20.00    -0.387 N 
HETATM   11  H22 UNL     1     -33.251  18.059  -2.438  1.00 20.00     0.159 HD
ENDROOT
TORSDOF 0
ENDMDL
MODEL 5
REMARK VINA RESULT:      -4.1     12.235     13.541
REMARK  0 active torsions:
REMARK  status: ('A' for Active; 'I' for Inactive)
ROOT
HETATM    1  C1  UNL     1     -33.704  16.952  -3.247  1.00 20.00     0.050 C 
HETATM    2  C2  UNL     1     -34.519  16.268  -2.424  1.00 20.00     0.003 C 
HETATM    3  C3  UNL     1     -33.749  16.827  -4.734  1.00 20.00     0.027 C 
HETATM    4  C4  UNL     1     -35.424  13.834  -4.969  1.00 20.00     0.056 A 
HETATM    5  C5  UNL     1     -34.048  14.450  -4.884  1.00 20.00     0.133 A 
HETATM    6  C6  UNL     1     -34.834  14.181  -3.636  1.00 20.00     0.108 A 
HETATM    7  C7  UNL     1     -34.568  16.638  -0.963  1.00 20.00     0.068 C 
HETATM    8  C8  UNL     1     -33.559  18.126  -5.490  1.00 20.00     0.070 C 
HETATM    9  N9  UNL     1     -33.914  15.775  -5.466  1.00 20.00    -0.287 NA
HETATM   10  N10 UNL     1     -35.363  15.239  -2.788  1.00 20.00    -0.387 N 
HETATM   11  H22 UNL     1     -36.089  15.009  -2.116  1.00 20.00     0.159 HD
ENDROOT
TORSDOF 0
ENDMDL
MODEL 6
REMARK VINA RESULT:      -4.0     11.354     12.506
REMARK  0 active torsions:
REMARK  status: ('A' for Active; 'I' for Inactive)
ROOT
HETATM    1  C1  UNL     1     -34.114  15.534  -2.766  1.00 20.00     0.050 C 
HETATM    2  C2  UNL     1     -34.480  14.457  -3.482  1.00 20.00     0.003 C 
HETATM    3  C3  UNL     1     -35.089  16.431  -2.078  1.00 20.00     0.027 C 
HETATM    4  C4  UNL     1     -37.931  15.557  -3.804  1.00 20.00     0.056 A 
HETATM    5  C5  UNL     1     -36.766  16.519  -3.792  1.00 20.00     0.133 A 
HETATM    6  C6  UNL     1     -36.618  15.161  -4.409  1.00 20.00     0.108 A 
HETATM    7  C7  UNL     1     -33.424  13.480  -3.933  1.00 20.00     0.068 C 
HETATM    8  C8  UNL     1     -34.652  16.921  -0.712  1.00 20.00     0.070 C 
HETATM    9  N9  UNL     1     -36.241  16.855  -2.479  1.00 20.00    -0.287 NA
HETATM   10  N10 UNL     1     -35.769  14.122  -3.844  1.00 20.00    -0.387 N 
HETATM   11  H22 UNL     1     -35.903  13.162  -4.148  1.00 20.00     0.159 HD
ENDROOT
TORSDOF 0
ENDMDL
MODEL 7
REMARK VINA RESULT:      -3.9     11.611     13.071
REMARK  0 active torsions:
REMARK  status: ('A' for Active; 'I' for Inactive)
ROOT
HETATM    1  C1  UNL     1     -34.040  16.232  -3.239  1.00 20.00     0.050 C 
HETATM    2  C2  UNL     1     -35.029  16.256  -2.328  1.00 20.00     0.003 C 
HETATM    3  C3  UNL     1     -34.283  16.193  -4.712  1.00 20.00     0.027 C 
HETATM    4  C4  UNL     1     -37.542  15.098  -4.687  1.00 20.00     0.056 A 
HETATM    5  C5  UNL     1     -36.106  14.631  -4.731  1.00 20.00     0.133 A 
HETATM    6  C6  UNL     1     -36.761  14.938  -3.418  1.00 20.00     0.108 A 
HETATM    7  C7  UNL     1     -34.693  16.540  -0.886  1.00 20.00     0.068 C 
HETATM    8  C8  UNL     1     -33.339  17.042  -5.538  1.00 20.00     0.070 C 
HETATM    9  N9  UNL     1     -35.171  15.535  -5.381  1.00 20.00    -0.287 NA
HETATM   10  N10 UNL     1     -36.372  16.064  -2.582  1.00 20.00    -0.387 N 
HETATM   11  H22 UNL     1     -37.004  16.369  -1.847  1.00 20.00     0.159 HD
ENDROOT
TORSDOF 0
ENDMDL
MODEL 8
REMARK VINA RESULT:      -3.9     12.141     13.267
REMARK  0 active torsions:
REMARK  status: ('A' for Active; 'I' for Inactive)
ROOT
HETATM    1  C1  UNL     1     -35.019  16.338  -5.950  1.00 20.00     0.050 C 
HETATM    2  C2  UNL     1     -35.039  15.067  -6.385  1.00 20.00     0.003 C 
HETATM    3  C3  UNL     1     -34.046  16.842  -4.935  1.00 20.00     0.027 C 
HETATM    4  C4  UNL     1     -33.080  13.833  -3.581  1.00 20.00     0.056 A 
HETATM    5  C5  UNL     1     -34.077  14.959  -3.446  1.00 20.00     0.133 A 
HETATM    6  C6  UNL     1     -34.330  13.838  -4.407  1.00 20.00     0.108 A 
HETATM    7  C7  UNL     1     -35.888  14.712  -7.580  1.00 20.00     0.068 C 
HETATM    8  C8  UNL     1     -33.509  18.234  -5.200  1.00 20.00     0.070 C 
HETATM    9  N9  UNL     1     -33.606  16.270  -3.864  1.00 20.00    -0.287 NA
HETATM   10  N10 UNL     1     -34.323  14.014  -5.852  1.00 20.00    -0.387 N 
HETATM   11  H22 UNL     1     -34.245  13.193  -6.445  1.00 20.00     0.159 HD
ENDROOT
TORSDOF 0
ENDMDL
MODEL 9
REMARK VINA RESULT:      -3.9     11.538     12.721
REMARK  0 active torsions:
REMARK  status: ('A' for Active; 'I' for Inactive)
ROOT
HETATM    1  C1  UNL     1     -35.800  14.576  -5.345  1.00 20.00     0.050 C 
HETATM    2  C2  UNL     1     -34.778  15.250  -5.901  1.00 20.00     0.003 C 
HETATM    3  C3  UNL     1     -36.390  14.929  -4.019  1.00 20.00     0.027 C 
HETATM    4  C4  UNL     1     -33.801  16.811  -2.765  1.00 20.00     0.056 A 
HETATM    5  C5  UNL     1     -34.356  15.408  -2.839  1.00 20.00     0.133 A 
HETATM    6  C6  UNL     1     -33.500  15.941  -3.948  1.00 20.00     0.108 A 
HETATM    7  C7  UNL     1     -34.413  14.978  -7.338  1.00 20.00     0.068 C 
HETATM    8  C8  UNL     1     -37.899  14.811  -3.940  1.00 20.00     0.070 C 
HETATM    9  N9  UNL     1     -35.803  15.308  -2.933  1.00 20.00    -0.287 NA
HETATM   10  N10 UNL     1     -34.011  16.217  -5.283  1.00 20.00    -0.387 N 
HETATM   11  H22 UNL     1     -33.464  16.805  -5.904  1.00 20.00     0.159 HD
ENDROOT
TORSDOF 0
ENDMDL
