MODEL 1
REMARK VINA RESULT:      -4.9      0.000      0.000
REMARK  1 active torsions:
REMARK  status: ('A' for Active; 'I' for Inactive)
REMARK    1  A    between atoms: C3_3  and  C8_8 
ROOT
HETATM    1  C1  UNL     1     -33.812  15.380  -4.054  1.00 20.00     0.147 C 
HETATM    2  C4  UNL     1     -36.164  16.837  -4.903  1.00 20.00     0.007 C 
HETATM    3  C5  UNL     1     -35.112  17.444  -3.953  1.00 20.00     0.022 C 
HETATM    4  C6  UNL     1     -35.920  15.370  -3.082  1.00 20.00     0.027 C 
HETATM    5  C7  UNL     1     -36.076  15.322  -4.609  1.00 20.00     0.002 C 
HETATM    6  C8  UNL     1     -34.664  16.235  -3.127  1.00 20.00     0.038 C 
HETATM    7  C9  UNL     1     -34.717  14.703  -5.082  1.00 20.00     0.018 C 
HETATM    8  C10 UNL     1     -34.683  13.183  -4.909  1.00 20.00     0.023 C 
HETATM    9  C11 UNL     1     -34.318  15.076  -6.508  1.00 20.00     0.023 C 
HETATM   10  O12 UNL     1     -32.595  15.273  -4.015  1.00 20.00    -0.296 OA
ENDROOT
BRANCH   6  11
HETATM   11  C3  UNL     1     -34.015  16.525  -1.828  1.00 20.00    -0.020 C 
HETATM   12  C2  UNL     1     -34.683  16.752  -0.692  1.00 20.00     0.008 C 
ENDBRANCH   6  11
TORSDOF 1
ENDMDL
MODEL 2
REMARK VINA RESULT:      -4.8      1.335      3.605
REMARK  1 active torsions:
REMARK  status: ('A' for Active; 'I' for Inactive)
REMARK    1  A    between atoms: C3_3  and  C8_8 
ROOT
HETATM    1  C1  UNL     1     -33.855  15.971  -4.829  1.00 20.00     0.147 C 
HETATM    2  C4  UNL     1     -34.933  13.287  -4.948  1.00 20.00     0.007 C 
HETATM    3  C5  UNL     1     -34.795  14.181  -6.197  1.00 20.00     0.022 C 
HETATM    4  C6  UNL     1     -36.055  15.306  -4.507  1.00 20.00     0.027 C 
HETATM    5  C7  UNL     1     -35.126  14.307  -3.802  1.00 20.00     0.002 C 
HETATM    6  C8  UNL     1     -35.078  15.581  -5.646  1.00 20.00     0.038 C 
HETATM    7  C9  UNL     1     -33.835  15.154  -3.537  1.00 20.00     0.018 C 
HETATM    8  C10 UNL     1     -33.984  16.071  -2.321  1.00 20.00     0.023 C 
HETATM    9  C11 UNL     1     -32.555  14.331  -3.418  1.00 20.00     0.023 C 
HETATM   10  O12 UNL     1     -32.999  16.779  -5.159  1.00 20.00    -0.296 OA
ENDROOT
BRANCH   6  11
HETATM   11  C3  UNL     1     -35.484  16.610  -6.629  1.00 20.00    -0.020 C 
HETATM   12  C2  UNL     1     -35.125  16.598  -7.918  1.00 20.00     0.008 C 
ENDBRANCH   6  11
TORSDOF 1
ENDMDL
MODEL 3
REMARK VINA RESULT:      -4.7      1.363      1.965
REMARK  1 active torsions:
REMARK  status: ('A' for Active; 'I' for Inactive)
REMARK    1  A    between atoms: C3_3  and  C8_8 
ROOT
HETATM    1  C1  UNL     1     -34.849  16.382  -4.690  1.00 20.00     0.147 C 
HETATM    2  C4  UNL     1     -36.928  14.470  -4.060  1.00 20.00     0.007 C 
HETATM    3  C5  UNL     1     -36.435  15.521  -3.045  1.00 20.00     0.022 C 
HETATM    4  C6  UNL     1     -34.597  14.228  -3.862  1.00 20.00     0.027 C 
HETATM    5  C7  UNL     1     -35.686  14.221  -4.945  1.00 20.00     0.002 C 
HETATM    6  C8  UNL     1     -34.942  15.631  -3.369  1.00 20.00     0.038 C 
HETATM    7  C9  UNL     1     -35.320  15.468  -5.820  1.00 20.00     0.018 C 
HETATM    8  C10 UNL     1     -34.171  15.178  -6.789  1.00 20.00     0.023 C 
HETATM    9  C11 UNL     1     -36.500  16.075  -6.574  1.00 20.00     0.023 C 
HETATM   10  O12 UNL     1     -34.492  17.542  -4.831  1.00 20.00    -0.296 OA
ENDROOT
BRANCH   6  11
HETATM   11  C3  UNL     1     -34.074  16.190  -2.309  1.00 20.00    -0.020 C 
HETATM   12  C2  UNL     1     -34.514  16.577  -1.107  1.00 20.00     0.008 C 
ENDBRANCH   6  11
TORSDOF 1
ENDMDL
MODEL 4
REMARK VINA RESULT:      -4.7      1.519      2.159
REMARK  1 active torsions:
REMARK  status: ('A' for Active; 'I' for Inactive)
REMARK    1  A    between atoms: C3_3  and  C8_8 
ROOT
HETATM    1  C1  UNL     1     -35.401  14.909  -4.439  1.00 20.00     0.147 C 
HETATM    2  C4  UNL     1     -33.355  16.712  -5.410  1.00 20.00     0.007 C 
HETATM    3  C5  UNL     1     -33.275  16.035  -4.027  1.00 20.00     0.022 C 
HETATM    4  C6  UNL     1     -35.337  17.222  -4.251  1.00 20.00     0.027 C 
HETATM    5  C7  UNL     1     -34.877  16.825  -5.661  1.00 20.00     0.002 C 
HETATM    6  C8  UNL     1     -34.740  15.984  -3.587  1.00 20.00     0.038 C 
HETATM    7  C9  UNL     1     -35.550  15.426  -5.870  1.00 20.00     0.018 C 
HETATM    8  C10 UNL     1     -37.028  15.545  -6.246  1.00 20.00     0.023 C 
HETATM    9  C11 UNL     1     -34.828  14.522  -6.866  1.00 20.00     0.023 C 
HETATM   10  O12 UNL     1     -35.731  13.796  -4.059  1.00 20.00    -0.296 OA
ENDROOT
BRANCH   6  11
HETATM   11  C3  UNL     1     -34.992  15.827  -2.138  1.00 20.00    -0.020 C 
HETATM   12  C2  UNL     1     -34.435  16.593  -1.193  1.00 20.00     0.008 C 
ENDBRANCH   6  11
TORSDOF 1
ENDMDL
MODEL 5
REMARK VINA RESULT:      -4.6      1.161      3.884
REMARK  1 active torsions:
REMARK  status: ('A' for Active; 'I' for Inactive)
REMARK    1  A    between atoms: C3_3  and  C8_8 
ROOT
HETATM    1  C1  UNL     1     -34.071  16.215  -4.864  1.00 20.00     0.147 C 
HETATM    2  C4  UNL     1     -34.841  13.788  -3.487  1.00 20.00     0.007 C 
HETATM    3  C5  UNL     1     -34.042  13.775  -4.806  1.00 20.00     0.022 C 
HETATM    4  C6  UNL     1     -36.058  15.032  -5.070  1.00 20.00     0.027 C 
HETATM    5  C7  UNL     1     -35.666  15.092  -3.586  1.00 20.00     0.002 C 
HETATM    6  C8  UNL     1     -34.614  14.977  -5.563  1.00 20.00     0.038 C 
HETATM    7  C9  UNL     1     -34.765  16.372  -3.512  1.00 20.00     0.018 C 
HETATM    8  C10 UNL     1     -35.591  17.660  -3.479  1.00 20.00     0.023 C 
HETATM    9  C11 UNL     1     -33.758  16.367  -2.364  1.00 20.00     0.023 C 
HETATM   10  O12 UNL     1     -33.195  16.952  -5.290  1.00 20.00    -0.296 OA
ENDROOT
BRANCH   6  11
HETATM   11  C3  UNL     1     -34.417  14.991  -7.029  1.00 20.00    -0.020 C 
HETATM   12  C2  UNL     1     -35.390  14.763  -7.918  1.00 20.00     0.008 C 
ENDBRANCH   6  11
TORSDOF 1
ENDMDL
MODEL 6
REMARK VINA RESULT:      -4.6      1.693      2.733
REMARK  1 active torsions:
REMARK  status: ('A' for Active; 'I' for Inactive)
REMARK    1  A    between atoms: C3_3  and  C8_8 
ROOT
HETATM    1  C1  UNL     1     -35.153  16.961  -3.988  1.00 20.00     0.147 C 
HETATM    2  C4  UNL     1     -34.462  14.280  -4.833  1.00 20.00     0.007 C 
HETATM    3  C5  UNL     1     -35.231  14.565  -3.527  1.00 20.00     0.022 C 
HETATM    4  C6  UNL     1     -33.186  15.800  -3.572  1.00 20.00     0.027 C 
HETATM    5  C7  UNL     1     -33.609  15.555  -5.027  1.00 20.00     0.002 C 
HETATM    6  C8  UNL     1     -34.619  15.885  -3.053  1.00 20.00     0.038 C 
HETATM    7  C9  UNL     1     -34.486  16.812  -5.355  1.00 20.00     0.018 C 
HETATM    8  C10 UNL     1     -33.636  18.043  -5.673  1.00 20.00     0.023 C 
HETATM    9  C11 UNL     1     -35.519  16.589  -6.457  1.00 20.00     0.023 C 
HETATM   10  O12 UNL     1     -36.004  17.792  -3.712  1.00 20.00    -0.296 OA
ENDROOT
BRANCH   6  11
HETATM   11  C3  UNL     1     -34.783  16.214  -1.619  1.00 20.00    -0.020 C 
HETATM   12  C2  UNL     1     -34.030  17.104  -0.964  1.00 20.00     0.008 C 
ENDBRANCH   6  11
TORSDOF 1
ENDMDL
MODEL 7
REMARK VINA RESULT:      -4.6      1.737      3.869
REMARK  1 active torsions:
REMARK  status: ('A' for Active; 'I' for Inactive)
REMARK    1  A    between atoms: C3_3  and  C8_8 
ROOT
HETATM    1  C1  UNL     1     -35.542  16.185  -4.988  1.00 20.00     0.147 C 
HETATM    2  C4  UNL     1     -33.261  15.329  -3.426  1.00 20.00     0.007 C 
HETATM    3  C5  UNL     1     -33.114  16.022  -4.795  1.00 20.00     0.022 C 
HETATM    4  C6  UNL     1     -34.522  14.099  -4.984  1.00 20.00     0.027 C 
HETATM    5  C7  UNL     1     -34.623  14.607  -3.538  1.00 20.00     0.002 C 
HETATM    6  C8  UNL     1     -34.320  15.492  -5.575  1.00 20.00     0.038 C 
HETATM    7  C9  UNL     1     -35.824  15.611  -3.601  1.00 20.00     0.018 C 
HETATM    8  C10 UNL     1     -37.177  14.896  -3.581  1.00 20.00     0.023 C 
HETATM    9  C11 UNL     1     -35.792  16.699  -2.530  1.00 20.00     0.023 C 
HETATM   10  O12 UNL     1     -36.180  17.082  -5.517  1.00 20.00    -0.296 OA
ENDROOT
BRANCH   6  11
HETATM   11  C3  UNL     1     -34.244  15.577  -7.051  1.00 20.00    -0.020 C 
HETATM   12  C2  UNL     1     -34.966  14.818  -7.883  1.00 20.00     0.008 C 
ENDBRANCH   6  11
TORSDOF 1
ENDMDL
MODEL 8
REMARK VINA RESULT:      -4.5      1.716      2.867
REMARK  1 active torsions:
REMARK  status: ('A' for Active; 'I' for Inactive)
REMARK    1  A    between atoms: C3_3  and  C8_8 
ROOT
HETATM    1  C1  UNL     1     -35.059  15.807  -5.097  1.00 20.00     0.147 C 
HETATM    2  C4  UNL     1     -34.875  16.052  -2.220  1.00 20.00     0.007 C 
HETATM    3  C5  UNL     1     -34.762  17.266  -3.163  1.00 20.00     0.022 C 
HETATM    4  C6  UNL     1     -33.167  15.593  -3.770  1.00 20.00     0.027 C 
HETATM    5  C7  UNL     1     -34.342  14.884  -3.080  1.00 20.00     0.002 C 
HETATM    6  C8  UNL     1     -34.042  16.684  -4.382  1.00 20.00     0.038 C 
HETATM    7  C9  UNL     1     -35.297  14.542  -4.274  1.00 20.00     0.018 C 
HETATM    8  C10 UNL     1     -34.835  13.304  -5.048  1.00 20.00     0.023 C 
HETATM    9  C11 UNL     1     -36.766  14.398  -3.884  1.00 20.00     0.023 C 
HETATM   10  O12 UNL     1     -35.629  16.078  -6.144  1.00 20.00    -0.296 OA
ENDROOT
BRANCH   6  11
HETATM   11  C3  UNL     1     -33.363  17.649  -5.274  1.00 20.00    -0.020 C 
HETATM   12  C2  UNL     1     -33.656  18.953  -5.329  1.00 20.00     0.008 C 
ENDBRANCH   6  11
TORSDOF 1
ENDMDL
MODEL 9
REMARK VINA RESULT:      -4.5      1.293      3.125
REMARK  1 active torsions:
REMARK  status: ('A' for Active; 'I' for Inactive)
REMARK    1  A    between atoms: C3_3  and  C8_8 
ROOT
HETATM    1  C1  UNL     1     -33.723  16.399  -4.220  1.00 20.00     0.147 C 
HETATM    2  C4  UNL     1     -35.323  17.230  -1.956  1.00 20.00     0.007 C 
HETATM    3  C5  UNL     1     -34.417  15.982  -1.917  1.00 20.00     0.022 C 
HETATM    4  C6  UNL     1     -35.932  15.852  -3.762  1.00 20.00     0.027 C 
HETATM    5  C7  UNL     1     -35.712  17.340  -3.448  1.00 20.00     0.002 C 
HETATM    6  C8  UNL     1     -34.522  15.443  -3.346  1.00 20.00     0.038 C 
HETATM    7  C9  UNL     1     -34.491  17.714  -4.355  1.00 20.00     0.018 C 
HETATM    8  C10 UNL     1     -34.901  17.948  -5.810  1.00 20.00     0.023 C 
HETATM    9  C11 UNL     1     -33.668  18.895  -3.846  1.00 20.00     0.023 C 
HETATM   10  O12 UNL     1     -32.626  16.176  -4.711  1.00 20.00    -0.296 OA
ENDROOT
BRANCH   6  11
HETATM   11  C3  UNL     1     -34.163  14.021  -3.545  1.00 20.00    -0.020 C 
HETATM   12  C2  UNL     1     -34.629  13.263  -4.544  1.00 20.00     0.008 C 
ENDBRANCH   6  11
TORSDOF 1
ENDMDL
