MODEL 1
REMARK VINA RESULT:      -5.0      0.000      0.000
REMARK  0 active torsions:
REMARK  status: ('A' for Active; 'I' for Inactive)
ROOT
HETATM    1  C1  UNL     1     -36.829  15.731  -3.389  1.00 20.00    -0.023 C 
HETATM    2  C2  UNL     1     -37.202  14.709  -4.182  1.00 20.00    -0.013 C 
HETATM    3  C3  UNL     1     -34.932  13.613  -4.510  1.00 20.00     0.140 C 
HETATM    4  C4  UNL     1     -34.064  14.172  -3.399  1.00 20.00     0.088 C 
HETATM    5  C5  UNL     1     -35.562  16.021  -4.182  1.00 20.00     0.035 C 
HETATM    6  C6  UNL     1     -35.917  14.736  -4.989  1.00 20.00     0.042 C 
HETATM    7  C7  UNL     1     -34.180  15.713  -3.549  1.00 20.00    -0.033 C 
HETATM    8  C8  UNL     1     -36.058  14.876  -6.491  1.00 20.00     0.029 C 
HETATM    9  C9  UNL     1     -34.031  16.417  -2.198  1.00 20.00     0.016 C 
HETATM   10  C10 UNL     1     -33.082  16.224  -4.502  1.00 20.00     0.016 C 
HETATM   11  O11 UNL     1     -34.861  12.448  -4.887  1.00 20.00    -0.297 OA
ENDROOT
TORSDOF 0
ENDMDL
MODEL 2
REMARK VINA RESULT:      -4.9      0.961      3.373
REMARK  0 active torsions:
REMARK  status: ('A' for Active; 'I' for Inactive)
ROOT
HETATM    1  C1  UNL     1     -34.100  16.642  -5.681  1.00 20.00    -0.023 C 
HETATM    2  C2  UNL     1     -33.089  16.304  -4.860  1.00 20.00    -0.013 C 
HETATM    3  C3  UNL     1     -33.915  14.012  -4.136  1.00 20.00     0.140 C 
HETATM    4  C4  UNL     1     -34.962  13.632  -5.165  1.00 20.00     0.088 C 
HETATM    5  C5  UNL     1     -35.176  16.093  -4.754  1.00 20.00     0.035 C 
HETATM    6  C6  UNL     1     -33.991  15.560  -3.893  1.00 20.00     0.042 C 
HETATM    7  C7  UNL     1     -35.961  14.820  -5.166  1.00 20.00    -0.033 C 
HETATM    8  C8  UNL     1     -33.937  15.990  -2.441  1.00 20.00     0.029 C 
HETATM    9  C9  UNL     1     -36.609  15.003  -6.541  1.00 20.00     0.016 C 
HETATM   10  C10 UNL     1     -37.066  14.569  -4.122  1.00 20.00     0.016 C 
HETATM   11  O11 UNL     1     -33.131  13.201  -3.654  1.00 20.00    -0.297 OA
ENDROOT
TORSDOF 0
ENDMDL
MODEL 3
REMARK VINA RESULT:      -4.9      1.320      3.300
REMARK  0 active torsions:
REMARK  status: ('A' for Active; 'I' for Inactive)
ROOT
HETATM    1  C1  UNL     1     -33.169  16.373  -5.014  1.00 20.00    -0.023 C 
HETATM    2  C2  UNL     1     -33.113  15.510  -3.982  1.00 20.00    -0.013 C 
HETATM    3  C3  UNL     1     -34.882  13.855  -4.750  1.00 20.00     0.140 C 
HETATM    4  C4  UNL     1     -35.058  14.130  -6.231  1.00 20.00     0.088 C 
HETATM    5  C5  UNL     1     -34.689  16.334  -5.099  1.00 20.00     0.035 C 
HETATM    6  C6  UNL     1     -34.601  15.215  -4.019  1.00 20.00     0.042 C 
HETATM    7  C7  UNL     1     -35.368  15.648  -6.314  1.00 20.00    -0.033 C 
HETATM    8  C8  UNL     1     -35.370  15.429  -2.731  1.00 20.00     0.029 C 
HETATM    9  C9  UNL     1     -34.864  16.250  -7.629  1.00 20.00     0.016 C 
HETATM   10  C10 UNL     1     -36.889  15.873  -6.214  1.00 20.00     0.016 C 
HETATM   11  O11 UNL     1     -34.913  12.725  -4.275  1.00 20.00    -0.297 OA
ENDROOT
TORSDOF 0
ENDMDL
MODEL 4
REMARK VINA RESULT:      -4.7      2.125      3.382
REMARK  0 active torsions:
REMARK  status: ('A' for Active; 'I' for Inactive)
ROOT
HETATM    1  C1  UNL     1     -36.574  15.260  -3.475  1.00 20.00    -0.023 C 
HETATM    2  C2  UNL     1     -36.358  16.514  -3.034  1.00 20.00    -0.013 C 
HETATM    3  C3  UNL     1     -33.981  16.826  -3.878  1.00 20.00     0.140 C 
HETATM    4  C4  UNL     1     -33.792  15.745  -4.925  1.00 20.00     0.088 C 
HETATM    5  C5  UNL     1     -35.186  14.771  -3.084  1.00 20.00     0.035 C 
HETATM    6  C6  UNL     1     -34.892  16.261  -2.733  1.00 20.00     0.042 C 
HETATM    7  C7  UNL     1     -34.159  14.425  -4.195  1.00 20.00    -0.033 C 
HETATM    8  C8  UNL     1     -34.424  16.564  -1.324  1.00 20.00     0.029 C 
HETATM    9  C9  UNL     1     -34.737  13.392  -5.167  1.00 20.00     0.016 C 
HETATM   10  C10 UNL     1     -32.902  13.834  -3.529  1.00 20.00     0.016 C 
HETATM   11  O11 UNL     1     -33.514  17.954  -3.996  1.00 20.00    -0.297 OA
ENDROOT
TORSDOF 0
ENDMDL
MODEL 5
REMARK VINA RESULT:      -4.7      1.455      2.736
REMARK  0 active torsions:
REMARK  status: ('A' for Active; 'I' for Inactive)
ROOT
HETATM    1  C1  UNL     1     -33.921  16.344  -5.260  1.00 20.00    -0.023 C 
HETATM    2  C2  UNL     1     -34.382  15.123  -5.589  1.00 20.00    -0.013 C 
HETATM    3  C3  UNL     1     -36.101  14.837  -3.738  1.00 20.00     0.140 C 
HETATM    4  C4  UNL     1     -36.337  16.238  -3.206  1.00 20.00     0.088 C 
HETATM    5  C5  UNL     1     -33.903  16.051  -3.766  1.00 20.00     0.035 C 
HETATM    6  C6  UNL     1     -34.591  14.705  -4.145  1.00 20.00     0.042 C 
HETATM    7  C7  UNL     1     -34.923  16.762  -2.838  1.00 20.00    -0.033 C 
HETATM    8  C8  UNL     1     -33.910  13.427  -3.699  1.00 20.00     0.029 C 
HETATM    9  C9  UNL     1     -34.834  18.282  -2.995  1.00 20.00     0.016 C 
HETATM   10  C10 UNL     1     -34.596  16.390  -1.379  1.00 20.00     0.016 C 
HETATM   11  O11 UNL     1     -36.998  14.010  -3.856  1.00 20.00    -0.297 OA
ENDROOT
TORSDOF 0
ENDMDL
MODEL 6
REMARK VINA RESULT:      -4.6      1.752      3.329
REMARK  0 active torsions:
REMARK  status: ('A' for Active; 'I' for Inactive)
ROOT
HETATM    1  C1  UNL     1     -36.399  15.141  -3.435  1.00 20.00    -0.023 C 
HETATM    2  C2  UNL     1     -35.189  15.289  -2.866  1.00 20.00    -0.013 C 
HETATM    3  C3  UNL     1     -33.867  15.993  -4.920  1.00 20.00     0.140 C 
HETATM    4  C4  UNL     1     -34.914  16.431  -5.926  1.00 20.00     0.088 C 
HETATM    5  C5  UNL     1     -35.846  14.466  -4.683  1.00 20.00     0.035 C 
HETATM    6  C6  UNL     1     -34.442  14.792  -4.090  1.00 20.00     0.042 C 
HETATM    7  C7  UNL     1     -35.881  15.222  -6.037  1.00 20.00    -0.033 C 
HETATM    8  C8  UNL     1     -33.489  13.633  -3.883  1.00 20.00     0.029 C 
HETATM    9  C9  UNL     1     -37.305  15.675  -6.371  1.00 20.00     0.016 C 
HETATM   10  C10 UNL     1     -35.390  14.266  -7.142  1.00 20.00     0.016 C 
HETATM   11  O11 UNL     1     -32.789  16.564  -4.791  1.00 20.00    -0.297 OA
ENDROOT
TORSDOF 0
ENDMDL
MODEL 7
REMARK VINA RESULT:      -4.5      1.669      3.321
REMARK  0 active torsions:
REMARK  status: ('A' for Active; 'I' for Inactive)
ROOT
HETATM    1  C1  UNL     1     -33.732  13.688  -4.535  1.00 20.00    -0.023 C 
HETATM    2  C2  UNL     1     -34.431  13.556  -3.391  1.00 20.00    -0.013 C 
HETATM    3  C3  UNL     1     -36.514  14.856  -4.049  1.00 20.00     0.140 C 
HETATM    4  C4  UNL     1     -36.463  14.936  -5.563  1.00 20.00     0.088 C 
HETATM    5  C5  UNL     1     -34.113  15.150  -4.722  1.00 20.00     0.035 C 
HETATM    6  C6  UNL     1     -35.049  14.939  -3.494  1.00 20.00     0.042 C 
HETATM    7  C7  UNL     1     -35.071  15.546  -5.877  1.00 20.00    -0.033 C 
HETATM    8  C8  UNL     1     -34.857  15.860  -2.307  1.00 20.00     0.029 C 
HETATM    9  C9  UNL     1     -34.535  15.049  -7.222  1.00 20.00     0.016 C 
HETATM   10  C10 UNL     1     -35.176  17.082  -5.918  1.00 20.00     0.016 C 
HETATM   11  O11 UNL     1     -37.558  14.698  -3.426  1.00 20.00    -0.297 OA
ENDROOT
TORSDOF 0
ENDMDL
MODEL 8
REMARK VINA RESULT:      -4.5      2.233      3.239
REMARK  0 active torsions:
REMARK  status: ('A' for Active; 'I' for Inactive)
ROOT
HETATM    1  C1  UNL     1     -34.814  14.414  -6.523  1.00 20.00    -0.023 C 
HETATM    2  C2  UNL     1     -34.890  15.614  -7.128  1.00 20.00    -0.013 C 
HETATM    3  C3  UNL     1     -33.802  17.037  -5.323  1.00 20.00     0.140 C 
HETATM    4  C4  UNL     1     -33.066  16.049  -4.438  1.00 20.00     0.088 C 
HETATM    5  C5  UNL     1     -35.205  14.961  -5.156  1.00 20.00     0.035 C 
HETATM    6  C6  UNL     1     -35.126  16.364  -5.830  1.00 20.00     0.042 C 
HETATM    7  C7  UNL     1     -34.145  15.013  -4.025  1.00 20.00    -0.033 C 
HETATM    8  C8  UNL     1     -36.363  17.238  -5.763  1.00 20.00     0.029 C 
HETATM    9  C9  UNL     1     -33.531  13.630  -3.791  1.00 20.00     0.016 C 
HETATM   10  C10 UNL     1     -34.838  15.476  -2.729  1.00 20.00     0.016 C 
HETATM   11  O11 UNL     1     -33.353  18.143  -5.601  1.00 20.00    -0.297 OA
ENDROOT
TORSDOF 0
ENDMDL
MODEL 9
REMARK VINA RESULT:      -4.4      1.775      2.828
REMARK  0 active torsions:
REMARK  status: ('A' for Active; 'I' for Inactive)
ROOT
HETATM    1  C1  UNL     1     -33.488  17.405  -5.311  1.00 20.00    -0.023 C 
HETATM    2  C2  UNL     1     -34.296  17.336  -6.386  1.00 20.00    -0.013 C 
HETATM    3  C3  UNL     1     -36.071  15.778  -5.447  1.00 20.00     0.140 C 
HETATM    4  C4  UNL     1     -35.876  15.825  -3.943  1.00 20.00     0.088 C 
HETATM    5  C5  UNL     1     -33.605  15.921  -4.996  1.00 20.00     0.035 C 
HETATM    6  C6  UNL     1     -34.666  15.885  -6.137  1.00 20.00     0.042 C 
HETATM    7  C7  UNL     1     -34.381  15.469  -3.730  1.00 20.00    -0.033 C 
HETATM    8  C8  UNL     1     -34.429  14.916  -7.277  1.00 20.00     0.029 C 
HETATM    9  C9  UNL     1     -33.819  16.147  -2.478  1.00 20.00     0.016 C 
HETATM   10  C10 UNL     1     -34.227  13.943  -3.583  1.00 20.00     0.016 C 
HETATM   11  O11 UNL     1     -37.177  15.720  -5.973  1.00 20.00    -0.297 OA
ENDROOT
TORSDOF 0
ENDMDL
