MODEL 1
REMARK VINA RESULT:      -3.7      0.000      0.000
REMARK  3 active torsions:
REMARK  status: ('A' for Active; 'I' for Inactive)
REMARK    1  A    between atoms: C6_6  and  N10_10 
REMARK    2  A    between atoms: C7_7  and  C8_8 
REMARK    3  A    between atoms: C7_7  and  N10_10 
ROOT
HETATM    1  C1  UNL     1     -34.107  13.643  -4.179  1.00 20.00     0.086 C 
HETATM    2  C6  UNL     1     -33.210  14.724  -3.783  1.00 20.00     0.357 C 
HETATM    3  N9  UNL     1     -34.816  12.780  -4.494  1.00 20.00    -0.196 NA
ENDROOT
BRANCH   2   4
HETATM    4  N10 UNL     1     -33.869  16.056  -4.054  1.00 20.00    -0.062 N 
HETATM    5  C5  UNL     1     -33.468  16.596  -5.405  1.00 20.00     0.270 C 
HETATM    6  H27 UNL     1     -34.884  15.865  -4.113  1.00 20.00     0.280 HD
BRANCH   4   7
HETATM    7  C7  UNL     1     -33.652  17.033  -2.960  1.00 20.00     0.243 C 
BRANCH   7   8
HETATM    8  C8  UNL     1     -34.927  17.278  -2.125  1.00 20.00    -0.027 C 
HETATM    9  C2  UNL     1     -36.152  16.597  -2.759  1.00 20.00     0.016 C 
HETATM   10  C3  UNL     1     -34.699  16.670  -0.727  1.00 20.00     0.016 C 
HETATM   11  C4  UNL     1     -35.210  18.781  -1.963  1.00 20.00     0.016 C 
ENDBRANCH   7   8
ENDBRANCH   4   7
ENDBRANCH   2   4
TORSDOF 3
ENDMDL
MODEL 2
REMARK VINA RESULT:      -3.7      1.383      1.849
REMARK  3 active torsions:
REMARK  status: ('A' for Active; 'I' for Inactive)
REMARK    1  A    between atoms: C6_6  and  N10_10 
REMARK    2  A    between atoms: C7_7  and  C8_8 
REMARK    3  A    between atoms: C7_7  and  N10_10 
ROOT
HETATM    1  C1  UNL     1     -35.457  13.611  -4.222  1.00 20.00     0.086 C 
HETATM    2  C6  UNL     1     -36.307  14.723  -3.806  1.00 20.00     0.357 C 
HETATM    3  N9  UNL     1     -34.786  12.724  -4.551  1.00 20.00    -0.196 NA
ENDROOT
BRANCH   2   4
HETATM    4  N10 UNL     1     -35.473  15.973  -3.662  1.00 20.00    -0.062 N 
HETATM    5  C5  UNL     1     -34.648  16.224  -4.902  1.00 20.00     0.270 C 
HETATM    6  H27 UNL     1     -36.144  16.758  -3.602  1.00 20.00     0.280 HD
BRANCH   4   7
HETATM    7  C7  UNL     1     -34.658  15.976  -2.423  1.00 20.00     0.243 C 
BRANCH   7   8
HETATM    8  C8  UNL     1     -34.831  17.273  -1.605  1.00 20.00    -0.027 C 
HETATM    9  C2  UNL     1     -34.799  16.991  -0.093  1.00 20.00     0.016 C 
HETATM   10  C3  UNL     1     -33.657  18.210  -1.951  1.00 20.00     0.016 C 
HETATM   11  C4  UNL     1     -36.146  17.988  -1.959  1.00 20.00     0.016 C 
ENDBRANCH   7   8
ENDBRANCH   4   7
ENDBRANCH   2   4
TORSDOF 3
ENDMDL
MODEL 3
REMARK VINA RESULT:      -3.7      1.813      3.795
REMARK  3 active torsions:
REMARK  status: ('A' for Active; 'I' for Inactive)
REMARK    1  A    between atoms: C6_6  and  N10_10 
REMARK    2  A    between atoms: C7_7  and  C8_8 
REMARK    3  A    between atoms: C7_7  and  N10_10 
ROOT
HETATM    1  C1  UNL     1     -35.534  13.631  -4.180  1.00 20.00     0.086 C 
HETATM    2  C6  UNL     1     -36.426  14.734  -3.836  1.00 20.00     0.357 C 
HETATM    3  N9  UNL     1     -34.827  12.751  -4.451  1.00 20.00    -0.196 NA
ENDROOT
BRANCH   2   4
HETATM    4  N10 UNL     1     -35.734  16.049  -4.103  1.00 20.00    -0.062 N 
HETATM    5  C5  UNL     1     -36.200  17.114  -3.139  1.00 20.00     0.270 C 
HETATM    6  H27 UNL     1     -34.734  15.892  -3.893  1.00 20.00     0.280 HD
BRANCH   4   7
HETATM    7  C7  UNL     1     -35.842  16.474  -5.520  1.00 20.00     0.243 C 
BRANCH   7   8
HETATM    8  C8  UNL     1     -34.476  16.480  -6.239  1.00 20.00    -0.027 C 
HETATM    9  C2  UNL     1     -34.334  15.274  -7.183  1.00 20.00     0.016 C 
HETATM   10  C3  UNL     1     -34.393  17.770  -7.080  1.00 20.00     0.016 C 
HETATM   11  C4  UNL     1     -33.313  16.477  -5.234  1.00 20.00     0.016 C 
ENDBRANCH   7   8
ENDBRANCH   4   7
ENDBRANCH   2   4
TORSDOF 3
ENDMDL
MODEL 4
REMARK VINA RESULT:      -3.7      1.084      1.923
REMARK  3 active torsions:
REMARK  status: ('A' for Active; 'I' for Inactive)
REMARK    1  A    between atoms: C6_6  and  N10_10 
REMARK    2  A    between atoms: C7_7  and  C8_8 
REMARK    3  A    between atoms: C7_7  and  N10_10 
ROOT
HETATM    1  C1  UNL     1     -34.035  13.813  -4.170  1.00 20.00     0.086 C 
HETATM    2  C6  UNL     1     -33.358  15.047  -3.781  1.00 20.00     0.357 C 
HETATM    3  N9  UNL     1     -34.568  12.831  -4.481  1.00 20.00    -0.196 NA
ENDROOT
BRANCH   2   4
HETATM    4  N10 UNL     1     -34.379  16.075  -3.358  1.00 20.00    -0.062 N 
HETATM    5  C5  UNL     1     -35.444  16.252  -4.414  1.00 20.00     0.270 C 
HETATM    6  H27 UNL     1     -34.859  15.678  -2.532  1.00 20.00     0.280 HD
BRANCH   4   7
HETATM    7  C7  UNL     1     -33.760  17.360  -2.950  1.00 20.00     0.243 C 
BRANCH   7   8
HETATM    8  C8  UNL     1     -34.180  17.793  -1.529  1.00 20.00    -0.027 C 
HETATM    9  C2  UNL     1     -33.011  18.448  -0.774  1.00 20.00     0.016 C 
HETATM   10  C3  UNL     1     -35.313  18.829  -1.667  1.00 20.00     0.016 C 
HETATM   11  C4  UNL     1     -34.706  16.601  -0.712  1.00 20.00     0.016 C 
ENDBRANCH   7   8
ENDBRANCH   4   7
ENDBRANCH   2   4
TORSDOF 3
ENDMDL
MODEL 5
REMARK VINA RESULT:      -3.6      2.208      3.488
REMARK  3 active torsions:
REMARK  status: ('A' for Active; 'I' for Inactive)
REMARK    1  A    between atoms: C6_6  and  N10_10 
REMARK    2  A    between atoms: C7_7  and  C8_8 
REMARK    3  A    between atoms: C7_7  and  N10_10 
ROOT
HETATM    1  C1  UNL     1     -37.739  15.071  -4.484  1.00 20.00     0.086 C 
HETATM    2  C6  UNL     1     -37.090  16.021  -5.383  1.00 20.00     0.357 C 
HETATM    3  N9  UNL     1     -38.259  14.317  -3.773  1.00 20.00    -0.196 NA
ENDROOT
BRANCH   2   4
HETATM    4  N10 UNL     1     -35.831  16.550  -4.740  1.00 20.00    -0.062 N 
HETATM    5  C5  UNL     1     -35.600  17.997  -5.104  1.00 20.00     0.270 C 
HETATM    6  H27 UNL     1     -36.004  16.537  -3.720  1.00 20.00     0.280 HD
BRANCH   4   7
HETATM    7  C7  UNL     1     -34.648  15.697  -5.012  1.00 20.00     0.243 C 
BRANCH   7   8
HETATM    8  C8  UNL     1     -34.102  15.021  -3.737  1.00 20.00    -0.027 C 
HETATM    9  C2  UNL     1     -34.686  15.662  -2.467  1.00 20.00     0.016 C 
HETATM   10  C3  UNL     1     -34.522  13.538  -3.773  1.00 20.00     0.016 C 
HETATM   11  C4  UNL     1     -32.567  15.092  -3.679  1.00 20.00     0.016 C 
ENDBRANCH   7   8
ENDBRANCH   4   7
ENDBRANCH   2   4
TORSDOF 3
ENDMDL
MODEL 6
REMARK VINA RESULT:      -3.6      2.304      3.420
REMARK  3 active torsions:
REMARK  status: ('A' for Active; 'I' for Inactive)
REMARK    1  A    between atoms: C6_6  and  N10_10 
REMARK    2  A    between atoms: C7_7  and  C8_8 
REMARK    3  A    between atoms: C7_7  and  N10_10 
ROOT
HETATM    1  C1  UNL     1     -37.802  14.941  -4.555  1.00 20.00     0.086 C 
HETATM    2  C6  UNL     1     -37.043  15.702  -5.543  1.00 20.00     0.357 C 
HETATM    3  N9  UNL     1     -38.410  14.336  -3.773  1.00 20.00    -0.196 NA
ENDROOT
BRANCH   2   4
HETATM    4  N10 UNL     1     -35.908  16.428  -4.862  1.00 20.00    -0.062 N 
HETATM    5  C5  UNL     1     -35.862  17.879  -5.278  1.00 20.00     0.270 C 
HETATM    6  H27 UNL     1     -36.133  16.427  -3.853  1.00 20.00     0.280 HD
BRANCH   4   7
HETATM    7  C7  UNL     1     -34.605  15.742  -5.038  1.00 20.00     0.243 C 
BRANCH   7   8
HETATM    8  C8  UNL     1     -34.152  14.997  -3.764  1.00 20.00    -0.027 C 
HETATM    9  C2  UNL     1     -34.540  13.510  -3.817  1.00 20.00     0.016 C 
HETATM   10  C3  UNL     1     -32.617  15.099  -3.678  1.00 20.00     0.016 C 
HETATM   11  C4  UNL     1     -34.755  15.632  -2.500  1.00 20.00     0.016 C 
ENDBRANCH   7   8
ENDBRANCH   4   7
ENDBRANCH   2   4
TORSDOF 3
ENDMDL
MODEL 7
REMARK VINA RESULT:      -3.6      2.206      3.401
REMARK  3 active torsions:
REMARK  status: ('A' for Active; 'I' for Inactive)
REMARK    1  A    between atoms: C6_6  and  N10_10 
REMARK    2  A    between atoms: C7_7  and  C8_8 
REMARK    3  A    between atoms: C7_7  and  N10_10 
ROOT
HETATM    1  C1  UNL     1     -37.609  15.000  -4.456  1.00 20.00     0.086 C 
HETATM    2  C6  UNL     1     -36.841  15.897  -5.314  1.00 20.00     0.357 C 
HETATM    3  N9  UNL     1     -38.224  14.291  -3.773  1.00 20.00    -0.196 NA
ENDROOT
BRANCH   2   4
HETATM    4  N10 UNL     1     -35.468  15.317  -5.555  1.00 20.00    -0.062 N 
HETATM    5  C5  UNL     1     -35.475  14.374  -6.734  1.00 20.00     0.270 C 
HETATM    6  H27 UNL     1     -34.866  16.112  -5.829  1.00 20.00     0.280 HD
BRANCH   4   7
HETATM    7  C7  UNL     1     -34.885  14.704  -4.337  1.00 20.00     0.243 C 
BRANCH   7   8
HETATM    8  C8  UNL     1     -33.707  15.523  -3.768  1.00 20.00    -0.027 C 
HETATM    9  C2  UNL     1     -34.068  16.159  -2.415  1.00 20.00     0.016 C 
HETATM   10  C3  UNL     1     -32.522  14.561  -3.555  1.00 20.00     0.016 C 
HETATM   11  C4  UNL     1     -33.269  16.627  -4.745  1.00 20.00     0.016 C 
ENDBRANCH   7   8
ENDBRANCH   4   7
ENDBRANCH   2   4
TORSDOF 3
ENDMDL
MODEL 8
REMARK VINA RESULT:      -3.6      1.522      1.912
REMARK  3 active torsions:
REMARK  status: ('A' for Active; 'I' for Inactive)
REMARK    1  A    between atoms: C6_6  and  N10_10 
REMARK    2  A    between atoms: C7_7  and  C8_8 
REMARK    3  A    between atoms: C7_7  and  N10_10 
ROOT
HETATM    1  C1  UNL     1     -34.857  13.555  -5.234  1.00 20.00     0.086 C 
HETATM    2  C6  UNL     1     -34.717  14.430  -6.395  1.00 20.00     0.357 C 
HETATM    3  N9  UNL     1     -34.971  12.856  -4.315  1.00 20.00    -0.196 NA
ENDROOT
BRANCH   2   4
HETATM    4  N10 UNL     1     -34.701  15.872  -5.945  1.00 20.00    -0.062 N 
HETATM    5  C5  UNL     1     -34.544  16.807  -7.120  1.00 20.00     0.270 C 
HETATM    6  H27 UNL     1     -35.641  16.059  -5.555  1.00 20.00     0.280 HD
BRANCH   4   7
HETATM    7  C7  UNL     1     -33.706  16.125  -4.875  1.00 20.00     0.243 C 
BRANCH   7   8
HETATM    8  C8  UNL     1     -34.305  16.897  -3.681  1.00 20.00    -0.027 C 
HETATM    9  C2  UNL     1     -35.842  16.844  -3.694  1.00 20.00     0.016 C 
HETATM   10  C3  UNL     1     -33.805  16.225  -2.387  1.00 20.00     0.016 C 
HETATM   11  C4  UNL     1     -33.849  18.365  -3.676  1.00 20.00     0.016 C 
ENDBRANCH   7   8
ENDBRANCH   4   7
ENDBRANCH   2   4
TORSDOF 3
ENDMDL
MODEL 9
REMARK VINA RESULT:      -3.5      1.431      3.163
REMARK  3 active torsions:
REMARK  status: ('A' for Active; 'I' for Inactive)
REMARK    1  A    between atoms: C6_6  and  N10_10 
REMARK    2  A    between atoms: C7_7  and  C8_8 
REMARK    3  A    between atoms: C7_7  and  N10_10 
ROOT
HETATM    1  C1  UNL     1     -34.155  13.588  -4.081  1.00 20.00     0.086 C 
HETATM    2  C6  UNL     1     -33.230  14.654  -3.709  1.00 20.00     0.357 C 
HETATM    3  N9  UNL     1     -34.887  12.738  -4.378  1.00 20.00    -0.196 NA
ENDROOT
BRANCH   2   4
HETATM    4  N10 UNL     1     -33.985  15.952  -3.557  1.00 20.00    -0.062 N 
HETATM    5  C5  UNL     1     -34.431  16.159  -2.130  1.00 20.00     0.270 C 
HETATM    6  H27 UNL     1     -33.302  16.704  -3.754  1.00 20.00     0.280 HD
BRANCH   4   7
HETATM    7  C7  UNL     1     -35.098  16.083  -4.529  1.00 20.00     0.243 C 
BRANCH   7   8
HETATM    8  C8  UNL     1     -34.712  16.932  -5.758  1.00 20.00    -0.027 C 
HETATM    9  C2  UNL     1     -34.344  16.044  -6.959  1.00 20.00     0.016 C 
HETATM   10  C3  UNL     1     -35.935  17.788  -6.142  1.00 20.00     0.016 C 
HETATM   11  C4  UNL     1     -33.537  17.872  -5.444  1.00 20.00     0.016 C 
ENDBRANCH   7   8
ENDBRANCH   4   7
ENDBRANCH   2   4
TORSDOF 3
ENDMDL
