MODEL 1
REMARK VINA RESULT:      -5.0      0.000      0.000
REMARK  0 active torsions:
REMARK  status: ('A' for Active; 'I' for Inactive)
ROOT
HETATM    1  C1  UNL     1     -33.446  17.534  -5.340  1.00 20.00     0.052 A 
HETATM    2  C2  UNL     1     -36.032  16.511  -5.548  1.00 20.00     0.126 A 
HETATM    3  C3  UNL     1     -33.925  16.628  -4.424  1.00 20.00    -0.043 A 
HETATM    4  C4  UNL     1     -35.221  16.109  -4.522  1.00 20.00    -0.028 A 
HETATM    5  C5  UNL     1     -34.338  17.890  -6.342  1.00 20.00     0.126 A 
HETATM    6  C6  UNL     1     -34.551  15.871  -2.336  1.00 20.00     0.020 C 
HETATM    7  C7  UNL     1     -33.046  14.490  -3.576  1.00 20.00     0.030 C 
HETATM    8  C8  UNL     1     -33.289  15.975  -3.222  1.00 20.00     0.021 C 
HETATM    9  C9  UNL     1     -35.396  15.126  -3.395  1.00 20.00     0.040 C 
HETATM   10  C10 UNL     1     -34.485  13.895  -3.622  1.00 20.00     0.091 C 
HETATM   11  N11 UNL     1     -35.610  17.408  -6.471  1.00 20.00    -0.248 NA
HETATM   12 CL12 UNL     1     -33.883  19.015  -7.558  1.00 20.00    -0.062 Cl
HETATM   13 CL13 UNL     1     -34.826  13.024  -5.129  1.00 20.00    -0.124 Cl
ENDROOT
TORSDOF 0
ENDMDL
MODEL 2
REMARK VINA RESULT:      -4.9      2.760      3.561
REMARK  0 active torsions:
REMARK  status: ('A' for Active; 'I' for Inactive)
ROOT
HETATM    1  C1  UNL     1     -33.525  15.951  -2.694  1.00 20.00     0.052 A 
HETATM    2  C2  UNL     1     -36.294  16.276  -2.639  1.00 20.00     0.126 A 
HETATM    3  C3  UNL     1     -34.341  15.198  -3.503  1.00 20.00    -0.043 A 
HETATM    4  C4  UNL     1     -35.733  15.356  -3.483  1.00 20.00    -0.028 A 
HETATM    5  C5  UNL     1     -34.180  16.854  -1.867  1.00 20.00     0.126 A 
HETATM    6  C6  UNL     1     -35.292  13.263  -4.324  1.00 20.00     0.020 C 
HETATM    7  C7  UNL     1     -34.345  14.762  -5.926  1.00 20.00     0.030 C 
HETATM    8  C8  UNL     1     -34.043  14.145  -4.541  1.00 20.00     0.021 C 
HETATM    9  C9  UNL     1     -36.305  14.416  -4.511  1.00 20.00     0.040 C 
HETATM   10  C10 UNL     1     -35.899  14.878  -5.931  1.00 20.00     0.091 C 
HETATM   11  N11 UNL     1     -35.532  17.035  -1.816  1.00 20.00    -0.248 NA
HETATM   12 CL12 UNL     1     -33.291  17.862  -0.797  1.00 20.00    -0.062 Cl
HETATM   13 CL13 UNL     1     -36.469  16.507  -6.342  1.00 20.00    -0.124 Cl
ENDROOT
TORSDOF 0
ENDMDL
MODEL 3
REMARK VINA RESULT:      -4.9      3.074      4.162
REMARK  0 active torsions:
REMARK  status: ('A' for Active; 'I' for Inactive)
ROOT
HETATM    1  C1  UNL     1     -34.602  16.514  -0.889  1.00 20.00     0.052 A 
HETATM    2  C2  UNL     1     -36.154  18.025  -2.645  1.00 20.00     0.126 A 
HETATM    3  C3  UNL     1     -34.760  16.133  -2.199  1.00 20.00    -0.043 A 
HETATM    4  C4  UNL     1     -35.536  16.887  -3.088  1.00 20.00    -0.028 A 
HETATM    5  C5  UNL     1     -35.269  17.677  -0.525  1.00 20.00     0.126 A 
HETATM    6  C6  UNL     1     -35.406  14.752  -3.930  1.00 20.00     0.020 C 
HETATM    7  C7  UNL     1     -33.154  15.548  -3.971  1.00 20.00     0.030 C 
HETATM    8  C8  UNL     1     -34.202  14.976  -2.989  1.00 20.00     0.021 C 
HETATM    9  C9  UNL     1     -35.457  16.214  -4.433  1.00 20.00     0.040 C 
HETATM   10  C10 UNL     1     -34.022  16.334  -4.999  1.00 20.00     0.091 C 
HETATM   11  N11 UNL     1     -36.036  18.437  -1.361  1.00 20.00    -0.248 NA
HETATM   12 CL12 UNL     1     -35.168  18.277   1.081  1.00 20.00    -0.062 Cl
HETATM   13 CL13 UNL     1     -33.481  18.008  -5.224  1.00 20.00    -0.124 Cl
ENDROOT
TORSDOF 0
ENDMDL
MODEL 4
REMARK VINA RESULT:      -4.9      2.558      3.410
REMARK  0 active torsions:
REMARK  status: ('A' for Active; 'I' for Inactive)
ROOT
HETATM    1  C1  UNL     1     -34.408  15.778  -2.221  1.00 20.00     0.052 A 
HETATM    2  C2  UNL     1     -35.337  17.632  -4.085  1.00 20.00     0.126 A 
HETATM    3  C3  UNL     1     -35.138  15.377  -3.314  1.00 20.00    -0.043 A 
HETATM    4  C4  UNL     1     -35.607  16.302  -4.255  1.00 20.00    -0.028 A 
HETATM    5  C5  UNL     1     -34.187  17.146  -2.125  1.00 20.00     0.126 A 
HETATM    6  C6  UNL     1     -36.922  14.424  -4.423  1.00 20.00     0.020 C 
HETATM    7  C7  UNL     1     -34.740  13.684  -5.056  1.00 20.00     0.030 C 
HETATM    8  C8  UNL     1     -35.571  14.015  -3.795  1.00 20.00     0.021 C 
HETATM    9  C9  UNL     1     -36.321  15.523  -5.329  1.00 20.00     0.040 C 
HETATM   10  C10 UNL     1     -35.306  14.667  -6.123  1.00 20.00     0.091 C 
HETATM   11  N11 UNL     1     -34.630  18.078  -3.020  1.00 20.00    -0.248 NA
HETATM   12 CL12 UNL     1     -33.293  17.797  -0.811  1.00 20.00    -0.062 Cl
HETATM   13 CL13 UNL     1     -34.042  15.620  -6.925  1.00 20.00    -0.124 Cl
ENDROOT
TORSDOF 0
ENDMDL
MODEL 5
REMARK VINA RESULT:      -4.8      2.560      3.745
REMARK  0 active torsions:
REMARK  status: ('A' for Active; 'I' for Inactive)
ROOT
HETATM    1  C1  UNL     1     -37.231  16.556  -3.220  1.00 20.00     0.052 A 
HETATM    2  C2  UNL     1     -36.160  14.103  -4.001  1.00 20.00     0.126 A 
HETATM    3  C3  UNL     1     -35.872  16.374  -3.307  1.00 20.00    -0.043 A 
HETATM    4  C4  UNL     1     -35.326  15.145  -3.700  1.00 20.00    -0.028 A 
HETATM    5  C5  UNL     1     -38.000  15.445  -3.538  1.00 20.00     0.126 A 
HETATM    6  C6  UNL     1     -33.704  16.274  -2.526  1.00 20.00     0.020 C 
HETATM    7  C7  UNL     1     -34.091  17.625  -4.458  1.00 20.00     0.030 C 
HETATM    8  C8  UNL     1     -34.710  17.307  -3.077  1.00 20.00     0.021 C 
HETATM    9  C9  UNL     1     -33.829  15.310  -3.728  1.00 20.00     0.040 C 
HETATM   10  C10 UNL     1     -33.427  16.277  -4.868  1.00 20.00     0.091 C 
HETATM   11  N11 UNL     1     -37.506  14.231  -3.922  1.00 20.00    -0.248 NA
HETATM   12 CL12 UNL     1     -39.715  15.520  -3.472  1.00 20.00    -0.062 Cl
HETATM   13 CL13 UNL     1     -33.919  15.724  -6.480  1.00 20.00    -0.124 Cl
ENDROOT
TORSDOF 0
ENDMDL
MODEL 6
REMARK VINA RESULT:      -4.8      2.101      3.173
REMARK  0 active torsions:
REMARK  status: ('A' for Active; 'I' for Inactive)
ROOT
HETATM    1  C1  UNL     1     -36.296  14.621  -5.613  1.00 20.00     0.052 A 
HETATM    2  C2  UNL     1     -34.192  16.214  -6.512  1.00 20.00     0.126 A 
HETATM    3  C3  UNL     1     -35.170  14.802  -4.848  1.00 20.00    -0.043 A 
HETATM    4  C4  UNL     1     -34.110  15.602  -5.291  1.00 20.00    -0.028 A 
HETATM    5  C5  UNL     1     -36.292  15.274  -6.839  1.00 20.00     0.126 A 
HETATM    6  C6  UNL     1     -33.269  14.162  -3.709  1.00 20.00     0.020 C 
HETATM    7  C7  UNL     1     -34.835  15.513  -2.514  1.00 20.00     0.030 C 
HETATM    8  C8  UNL     1     -34.789  14.304  -3.476  1.00 20.00     0.021 C 
HETATM    9  C9  UNL     1     -33.072  15.615  -4.199  1.00 20.00     0.040 C 
HETATM   10  C10 UNL     1     -33.616  16.372  -2.964  1.00 20.00     0.091 C 
HETATM   11  N11 UNL     1     -35.277  16.059  -7.307  1.00 20.00    -0.248 NA
HETATM   12 CL12 UNL     1     -37.631  15.139  -7.906  1.00 20.00    -0.062 Cl
HETATM   13 CL13 UNL     1     -34.045  18.061  -3.294  1.00 20.00    -0.124 Cl
ENDROOT
TORSDOF 0
ENDMDL
MODEL 7
REMARK VINA RESULT:      -4.7      2.300      3.680
REMARK  0 active torsions:
REMARK  status: ('A' for Active; 'I' for Inactive)
ROOT
HETATM    1  C1  UNL     1     -37.228  14.919  -3.606  1.00 20.00     0.052 A 
HETATM    2  C2  UNL     1     -36.377  15.115  -6.253  1.00 20.00     0.126 A 
HETATM    3  C3  UNL     1     -35.902  14.773  -3.935  1.00 20.00    -0.043 A 
HETATM    4  C4  UNL     1     -35.466  14.872  -5.262  1.00 20.00    -0.028 A 
HETATM    5  C5  UNL     1     -38.081  15.157  -4.675  1.00 20.00     0.126 A 
HETATM    6  C6  UNL     1     -33.881  13.676  -4.105  1.00 20.00     0.020 C 
HETATM    7  C7  UNL     1     -33.848  15.841  -3.096  1.00 20.00     0.030 C 
HETATM    8  C8  UNL     1     -34.673  14.533  -3.094  1.00 20.00     0.021 C 
HETATM    9  C9  UNL     1     -33.969  14.706  -5.254  1.00 20.00     0.040 C 
HETATM   10  C10 UNL     1     -33.308  15.918  -4.555  1.00 20.00     0.091 C 
HETATM   11  N11 UNL     1     -37.695  15.257  -5.981  1.00 20.00    -0.248 NA
HETATM   12 CL12 UNL     1     -39.768  15.359  -4.420  1.00 20.00    -0.062 Cl
HETATM   13 CL13 UNL     1     -33.655  17.471  -5.339  1.00 20.00    -0.124 Cl
ENDROOT
TORSDOF 0
ENDMDL
MODEL 8
REMARK VINA RESULT:      -4.7      2.728      3.921
REMARK  0 active torsions:
REMARK  status: ('A' for Active; 'I' for Inactive)
ROOT
HETATM    1  C1  UNL     1     -37.657  14.575  -3.926  1.00 20.00     0.052 A 
HETATM    2  C2  UNL     1     -36.578  17.103  -4.394  1.00 20.00     0.126 A 
HETATM    3  C3  UNL     1     -36.364  14.721  -4.368  1.00 20.00    -0.043 A 
HETATM    4  C4  UNL     1     -35.814  15.987  -4.604  1.00 20.00    -0.028 A 
HETATM    5  C5  UNL     1     -38.359  15.759  -3.746  1.00 20.00     0.126 A 
HETATM    6  C6  UNL     1     -34.592  14.469  -5.823  1.00 20.00     0.020 C 
HETATM    7  C7  UNL     1     -34.212  13.851  -3.547  1.00 20.00     0.030 C 
HETATM    8  C8  UNL     1     -35.277  13.718  -4.660  1.00 20.00     0.021 C 
HETATM    9  C9  UNL     1     -34.385  15.781  -5.031  1.00 20.00     0.040 C 
HETATM   10  C10 UNL     1     -33.555  15.230  -3.847  1.00 20.00     0.091 C 
HETATM   11  N11 UNL     1     -37.860  17.011  -3.968  1.00 20.00    -0.248 NA
HETATM   12 CL12 UNL     1     -39.988  15.736  -3.201  1.00 20.00    -0.062 Cl
HETATM   13 CL13 UNL     1     -33.525  16.305  -2.436  1.00 20.00    -0.124 Cl
ENDROOT
TORSDOF 0
ENDMDL
MODEL 9
REMARK VINA RESULT:      -4.6      2.687      3.882
REMARK  0 active torsions:
REMARK  status: ('A' for Active; 'I' for Inactive)
ROOT
HETATM    1  C1  UNL     1     -33.996  16.930  -4.087  1.00 20.00     0.052 A 
HETATM    2  C2  UNL     1     -35.154  14.416  -3.751  1.00 20.00     0.126 A 
HETATM    3  C3  UNL     1     -34.438  16.205  -5.167  1.00 20.00    -0.043 A 
HETATM    4  C4  UNL     1     -35.023  14.943  -5.007  1.00 20.00    -0.028 A 
HETATM    5  C5  UNL     1     -34.163  16.316  -2.853  1.00 20.00     0.126 A 
HETATM    6  C6  UNL     1     -34.247  15.071  -7.167  1.00 20.00     0.020 C 
HETATM    7  C7  UNL     1     -35.940  16.752  -7.040  1.00 20.00     0.030 C 
HETATM    8  C8  UNL     1     -34.466  16.508  -6.644  1.00 20.00     0.021 C 
HETATM    9  C9  UNL     1     -35.426  14.460  -6.375  1.00 20.00     0.040 C 
HETATM   10  C10 UNL     1     -36.578  15.335  -6.925  1.00 20.00     0.091 C 
HETATM   11  N11 UNL     1     -34.725  15.087  -2.656  1.00 20.00    -0.248 NA
HETATM   12 CL12 UNL     1     -33.655  17.100  -1.411  1.00 20.00    -0.062 Cl
HETATM   13 CL13 UNL     1     -38.036  15.312  -5.916  1.00 20.00    -0.124 Cl
ENDROOT
TORSDOF 0
ENDMDL
