MODEL 1
REMARK VINA RESULT:      -5.2      0.000      0.000
REMARK  2 active torsions:
REMARK  status: ('A' for Active; 'I' for Inactive)
REMARK    1  A    between atoms: C6_6  and  C10_10 
REMARK    2  A    between atoms: C10_10  and  O11_11 
ROOT
HETATM    1  C1  UNL     1     -35.036   4.373   4.542  1.00 20.00    -0.024 C 
HETATM    2  C2  UNL     1     -34.569   5.381   3.783  1.00 20.00    -0.081 C 
HETATM    3  C3  UNL     1     -34.983   4.353   6.040  1.00 20.00     0.027 C 
HETATM    4  C4  UNL     1     -34.682   5.722   6.641  1.00 20.00     0.004 C 
HETATM    5  C5  UNL     1     -33.548   6.404   5.885  1.00 20.00     0.012 C 
HETATM    6  C6  UNL     1     -33.895   6.601   4.396  1.00 20.00     0.042 C 
HETATM    7  C7  UNL     1     -34.749   5.357   2.290  1.00 20.00     0.043 C 
ENDROOT
BRANCH   6   8
HETATM    8  C10 UNL     1     -32.625   7.025   3.649  1.00 20.00     0.124 C 
HETATM    9  C8  UNL     1     -31.910   5.830   3.047  1.00 20.00     0.040 C 
BRANCH   8  10
HETATM   10  O11 UNL     1     -32.982   7.937   2.620  1.00 20.00    -0.390 OA
HETATM   11  C9  UNL     1     -31.871   8.253   1.793  1.00 20.00     0.202 C 
ENDBRANCH   8  10
ENDBRANCH   6   8
TORSDOF 2
ENDMDL
MODEL 2
REMARK VINA RESULT:      -5.0     11.217     12.922
REMARK  2 active torsions:
REMARK  status: ('A' for Active; 'I' for Inactive)
REMARK    1  A    between atoms: C6_6  and  C10_10 
REMARK    2  A    between atoms: C10_10  and  O11_11 
ROOT
HETATM    1  C1  UNL     1     -33.717  18.389  -3.112  1.00 20.00    -0.024 C 
HETATM    2  C2  UNL     1     -33.759  17.194  -3.729  1.00 20.00    -0.081 C 
HETATM    3  C3  UNL     1     -33.979  18.590  -1.650  1.00 20.00     0.027 C 
HETATM    4  C4  UNL     1     -33.944  17.287  -0.857  1.00 20.00     0.004 C 
HETATM    5  C5  UNL     1     -34.713  16.192  -1.586  1.00 20.00     0.012 C 
HETATM    6  C6  UNL     1     -34.122  15.917  -2.984  1.00 20.00     0.042 C 
HETATM    7  C7  UNL     1     -33.390  17.074  -5.183  1.00 20.00     0.043 C 
ENDROOT
BRANCH   6   8
HETATM    8  C10 UNL     1     -35.096  15.024  -3.760  1.00 20.00     0.124 C 
HETATM    9  C8  UNL     1     -34.604  13.590  -3.823  1.00 20.00     0.040 C 
BRANCH   8  10
HETATM   10  O11 UNL     1     -36.364  15.067  -3.122  1.00 20.00    -0.390 OA
HETATM   11  C9  UNL     1     -37.409  14.700  -4.012  1.00 20.00     0.202 C 
ENDBRANCH   8  10
ENDBRANCH   6   8
TORSDOF 2
ENDMDL
MODEL 3
REMARK VINA RESULT:      -4.9     11.256     12.456
REMARK  2 active torsions:
REMARK  status: ('A' for Active; 'I' for Inactive)
REMARK    1  A    between atoms: C6_6  and  C10_10 
REMARK    2  A    between atoms: C10_10  and  O11_11 
ROOT
HETATM    1  C1  UNL     1     -35.705  14.092  -4.512  1.00 20.00    -0.024 C 
HETATM    2  C2  UNL     1     -35.760  15.052  -3.571  1.00 20.00    -0.081 C 
HETATM    3  C3  UNL     1     -34.466  13.321  -4.855  1.00 20.00     0.027 C 
HETATM    4  C4  UNL     1     -33.368  13.467  -3.806  1.00 20.00     0.004 C 
HETATM    5  C5  UNL     1     -33.220  14.922  -3.380  1.00 20.00     0.012 C 
HETATM    6  C6  UNL     1     -34.529  15.474  -2.781  1.00 20.00     0.042 C 
HETATM    7  C7  UNL     1     -37.070  15.708  -3.229  1.00 20.00     0.043 C 
ENDROOT
BRANCH   6   8
HETATM    8  C10 UNL     1     -34.399  16.995  -2.638  1.00 20.00     0.124 C 
HETATM    9  C8  UNL     1     -33.774  17.376  -1.310  1.00 20.00     0.040 C 
BRANCH   8  10
HETATM   10  O11 UNL     1     -33.598  17.488  -3.703  1.00 20.00    -0.390 OA
HETATM   11  C9  UNL     1     -34.311  18.419  -4.505  1.00 20.00     0.202 C 
ENDBRANCH   8  10
ENDBRANCH   6   8
TORSDOF 2
ENDMDL
MODEL 4
REMARK VINA RESULT:      -4.8     11.800     12.639
REMARK  2 active torsions:
REMARK  status: ('A' for Active; 'I' for Inactive)
REMARK    1  A    between atoms: C6_6  and  C10_10 
REMARK    2  A    between atoms: C10_10  and  O11_11 
ROOT
HETATM    1  C1  UNL     1     -33.499  15.091  -3.572  1.00 20.00    -0.024 C 
HETATM    2  C2  UNL     1     -34.598  14.399  -3.925  1.00 20.00    -0.081 C 
HETATM    3  C3  UNL     1     -33.507  16.259  -2.632  1.00 20.00     0.027 C 
HETATM    4  C4  UNL     1     -34.804  16.371  -1.836  1.00 20.00     0.004 C 
HETATM    5  C5  UNL     1     -36.011  16.163  -2.742  1.00 20.00     0.012 C 
HETATM    6  C6  UNL     1     -35.982  14.776  -3.417  1.00 20.00     0.042 C 
HETATM    7  C7  UNL     1     -34.482  13.182  -4.801  1.00 20.00     0.043 C 
ENDROOT
BRANCH   6   8
HETATM    8  C10 UNL     1     -37.054  14.743  -4.512  1.00 20.00     0.124 C 
HETATM    9  C8  UNL     1     -38.450  14.829  -3.926  1.00 20.00     0.040 C 
BRANCH   8  10
HETATM   10  O11 UNL     1     -36.838  15.833  -5.397  1.00 20.00    -0.390 OA
HETATM   11  C9  UNL     1     -36.909  15.425  -6.756  1.00 20.00     0.202 C 
ENDBRANCH   8  10
ENDBRANCH   6   8
TORSDOF 2
ENDMDL
MODEL 5
REMARK VINA RESULT:      -4.6     11.391     13.576
REMARK  2 active torsions:
REMARK  status: ('A' for Active; 'I' for Inactive)
REMARK    1  A    between atoms: C6_6  and  C10_10 
REMARK    2  A    between atoms: C10_10  and  O11_11 
ROOT
HETATM    1  C1  UNL     1     -37.267  15.378  -6.307  1.00 20.00    -0.024 C 
HETATM    2  C2  UNL     1     -36.562  14.927  -5.253  1.00 20.00    -0.081 C 
HETATM    3  C3  UNL     1     -36.763  15.377  -7.718  1.00 20.00     0.027 C 
HETATM    4  C4  UNL     1     -35.531  14.497  -7.907  1.00 20.00     0.004 C 
HETATM    5  C5  UNL     1     -34.530  14.724  -6.781  1.00 20.00     0.012 C 
HETATM    6  C6  UNL     1     -35.142  14.400  -5.403  1.00 20.00     0.042 C 
HETATM    7  C7  UNL     1     -37.185  14.880  -3.885  1.00 20.00     0.043 C 
ENDROOT
BRANCH   6   8
HETATM    8  C10 UNL     1     -34.193  14.912  -4.313  1.00 20.00     0.124 C 
HETATM    9  C8  UNL     1     -33.323  13.796  -3.767  1.00 20.00     0.040 C 
BRANCH   8  10
HETATM   10  O11 UNL     1     -33.373  15.933  -4.863  1.00 20.00    -0.390 OA
HETATM   11  C9  UNL     1     -33.635  17.193  -4.262  1.00 20.00     0.202 C 
ENDBRANCH   8  10
ENDBRANCH   6   8
TORSDOF 2
ENDMDL
MODEL 6
REMARK VINA RESULT:      -4.6     11.249     13.154
REMARK  2 active torsions:
REMARK  status: ('A' for Active; 'I' for Inactive)
REMARK    1  A    between atoms: C6_6  and  C10_10 
REMARK    2  A    between atoms: C10_10  and  O11_11 
ROOT
HETATM    1  C1  UNL     1     -33.176  16.010  -4.382  1.00 20.00    -0.024 C 
HETATM    2  C2  UNL     1     -34.350  16.070  -5.038  1.00 20.00    -0.081 C 
HETATM    3  C3  UNL     1     -32.717  14.826  -3.585  1.00 20.00     0.027 C 
HETATM    4  C4  UNL     1     -33.529  13.567  -3.873  1.00 20.00     0.004 C 
HETATM    5  C5  UNL     1     -35.019  13.884  -3.907  1.00 20.00     0.012 C 
HETATM    6  C6  UNL     1     -35.354  14.927  -4.992  1.00 20.00     0.042 C 
HETATM    7  C7  UNL     1     -34.686  17.263  -5.889  1.00 20.00     0.043 C 
ENDROOT
BRANCH   6   8
HETATM    8  C10 UNL     1     -36.797  15.402  -4.786  1.00 20.00     0.124 C 
HETATM    9  C8  UNL     1     -37.609  15.278  -6.061  1.00 20.00     0.040 C 
BRANCH   8  10
HETATM   10  O11 UNL     1     -37.394  14.622  -3.760  1.00 20.00    -0.390 OA
HETATM   11  C9  UNL     1     -38.777  14.914  -3.619  1.00 20.00     0.202 C 
ENDBRANCH   8  10
ENDBRANCH   6   8
TORSDOF 2
ENDMDL
MODEL 7
REMARK VINA RESULT:      -4.5     11.245     13.500
REMARK  2 active torsions:
REMARK  status: ('A' for Active; 'I' for Inactive)
REMARK    1  A    between atoms: C6_6  and  C10_10 
REMARK    2  A    between atoms: C10_10  and  O11_11 
ROOT
HETATM    1  C1  UNL     1     -34.905  13.885  -5.776  1.00 20.00    -0.024 C 
HETATM    2  C2  UNL     1     -34.080  14.470  -4.889  1.00 20.00    -0.081 C 
HETATM    3  C3  UNL     1     -35.459  14.570  -6.989  1.00 20.00     0.027 C 
HETATM    4  C4  UNL     1     -34.729  15.867  -7.322  1.00 20.00     0.004 C 
HETATM    5  C5  UNL     1     -34.500  16.695  -6.064  1.00 20.00     0.012 C 
HETATM    6  C6  UNL     1     -33.660  15.927  -5.023  1.00 20.00     0.042 C 
HETATM    7  C7  UNL     1     -33.498  13.676  -3.752  1.00 20.00     0.043 C 
ENDROOT
BRANCH   6   8
HETATM    8  C10 UNL     1     -33.707  16.691  -3.695  1.00 20.00     0.124 C 
HETATM    9  C8  UNL     1     -33.653  18.191  -3.915  1.00 20.00     0.040 C 
BRANCH   8  10
HETATM   10  O11 UNL     1     -34.905  16.350  -3.013  1.00 20.00    -0.390 OA
HETATM   11  C9  UNL     1     -34.734  16.387  -1.604  1.00 20.00     0.202 C 
ENDBRANCH   8  10
ENDBRANCH   6   8
TORSDOF 2
ENDMDL
MODEL 8
REMARK VINA RESULT:      -4.5     11.306     14.131
REMARK  2 active torsions:
REMARK  status: ('A' for Active; 'I' for Inactive)
REMARK    1  A    between atoms: C6_6  and  C10_10 
REMARK    2  A    between atoms: C10_10  and  O11_11 
ROOT
HETATM    1  C1  UNL     1     -34.770  17.220  -7.147  1.00 20.00    -0.024 C 
HETATM    2  C2  UNL     1     -34.487  15.976  -6.720  1.00 20.00    -0.081 C 
HETATM    3  C3  UNL     1     -34.455  18.466  -6.375  1.00 20.00     0.027 C 
HETATM    4  C4  UNL     1     -33.470  18.224  -5.235  1.00 20.00     0.004 C 
HETATM    5  C5  UNL     1     -33.843  16.967  -4.459  1.00 20.00     0.012 C 
HETATM    6  C6  UNL     1     -33.842  15.719  -5.365  1.00 20.00     0.042 C 
HETATM    7  C7  UNL     1     -34.755  14.789  -7.603  1.00 20.00     0.043 C 
ENDROOT
BRANCH   6   8
HETATM    8  C10 UNL     1     -34.490  14.558  -4.601  1.00 20.00     0.124 C 
HETATM    9  C8  UNL     1     -33.465  13.785  -3.794  1.00 20.00     0.040 C 
BRANCH   8  10
HETATM   10  O11 UNL     1     -35.486  15.081  -3.735  1.00 20.00    -0.390 OA
HETATM   11  C9  UNL     1     -36.769  14.548  -4.032  1.00 20.00     0.202 C 
ENDBRANCH   8  10
ENDBRANCH   6   8
TORSDOF 2
ENDMDL
MODEL 9
REMARK VINA RESULT:      -4.5     11.687     13.901
REMARK  2 active torsions:
REMARK  status: ('A' for Active; 'I' for Inactive)
REMARK    1  A    between atoms: C6_6  and  C10_10 
REMARK    2  A    between atoms: C10_10  and  O11_11 
ROOT
HETATM    1  C1  UNL     1     -33.670  16.480  -3.791  1.00 20.00    -0.024 C 
HETATM    2  C2  UNL     1     -33.871  16.555  -5.119  1.00 20.00    -0.081 C 
HETATM    3  C3  UNL     1     -33.766  15.212  -2.996  1.00 20.00     0.027 C 
HETATM    4  C4  UNL     1     -33.757  13.962  -3.871  1.00 20.00     0.004 C 
HETATM    5  C5  UNL     1     -34.682  14.137  -5.069  1.00 20.00     0.012 C 
HETATM    6  C6  UNL     1     -34.259  15.335  -5.943  1.00 20.00     0.042 C 
HETATM    7  C7  UNL     1     -33.662  17.854  -5.848  1.00 20.00     0.043 C 
ENDROOT
BRANCH   6   8
HETATM    8  C10 UNL     1     -35.376  15.623  -6.953  1.00 20.00     0.124 C 
HETATM    9  C8  UNL     1     -35.565  14.466  -7.915  1.00 20.00     0.040 C 
BRANCH   8  10
HETATM   10  O11 UNL     1     -36.584  15.858  -6.244  1.00 20.00    -0.390 OA
HETATM   11  C9  UNL     1     -37.268  17.000  -6.741  1.00 20.00     0.202 C 
ENDBRANCH   8  10
ENDBRANCH   6   8
TORSDOF 2
ENDMDL
