MODEL 1
REMARK VINA RESULT:      -5.4      0.000      0.000
REMARK  0 active torsions:
REMARK  status: ('A' for Active; 'I' for Inactive)
ROOT
HETATM    1  C1  UNL     1     -34.325  16.800  -2.942  1.00 20.00    -0.010 C 
HETATM    2  C2  UNL     1     -33.814  17.471  -4.173  1.00 20.00     0.155 C 
HETATM    3  C3  UNL     1     -34.110  17.393  -1.762  1.00 20.00    -0.078 C 
HETATM    4  C4  UNL     1     -35.025  15.484  -3.109  1.00 20.00     0.051 C 
HETATM    5  C5  UNL     1     -33.279  16.578  -5.271  1.00 20.00     0.084 C 
HETATM    6  C6  UNL     1     -34.067  15.280  -5.424  1.00 20.00     0.017 C 
HETATM    7  C7  UNL     1     -34.301  14.535  -4.091  1.00 20.00    -0.043 C 
HETATM    8  C8  UNL     1     -34.587  16.793  -0.471  1.00 20.00     0.043 C 
HETATM    9  C9  UNL     1     -33.379  18.701  -1.650  1.00 20.00     0.043 C 
HETATM   10  C10 UNL     1     -35.195  13.308  -4.354  1.00 20.00     0.015 C 
HETATM   11  C11 UNL     1     -32.970  14.040  -3.495  1.00 20.00     0.015 C 
HETATM   12  O12 UNL     1     -33.757  18.696  -4.261  1.00 20.00    -0.293 OA
ENDROOT
TORSDOF 0
ENDMDL
MODEL 2
REMARK VINA RESULT:      -5.0      1.222      3.833
REMARK  0 active torsions:
REMARK  status: ('A' for Active; 'I' for Inactive)
ROOT
HETATM    1  C1  UNL     1     -34.216  15.670  -3.866  1.00 20.00    -0.010 C 
HETATM    2  C2  UNL     1     -33.509  16.837  -4.471  1.00 20.00     0.155 C 
HETATM    3  C3  UNL     1     -34.680  14.718  -4.684  1.00 20.00    -0.078 C 
HETATM    4  C4  UNL     1     -34.383  15.657  -2.376  1.00 20.00     0.051 C 
HETATM    5  C5  UNL     1     -33.732  18.187  -3.824  1.00 20.00     0.084 C 
HETATM    6  C6  UNL     1     -33.841  18.110  -2.304  1.00 20.00     0.017 C 
HETATM    7  C7  UNL     1     -34.822  17.026  -1.806  1.00 20.00    -0.043 C 
HETATM    8  C8  UNL     1     -35.403  13.508  -4.167  1.00 20.00     0.043 C 
HETATM    9  C9  UNL     1     -34.505  14.794  -6.174  1.00 20.00     0.043 C 
HETATM   10  C10 UNL     1     -34.766  16.969  -0.268  1.00 20.00     0.015 C 
HETATM   11  C11 UNL     1     -36.268  17.356  -2.221  1.00 20.00     0.015 C 
HETATM   12  O12 UNL     1     -32.837  16.721  -5.494  1.00 20.00    -0.293 OA
ENDROOT
TORSDOF 0
ENDMDL
MODEL 3
REMARK VINA RESULT:      -4.8      2.360      3.420
REMARK  0 active torsions:
REMARK  status: ('A' for Active; 'I' for Inactive)
ROOT
HETATM    1  C1  UNL     1     -36.000  15.660  -3.200  1.00 20.00    -0.010 C 
HETATM    2  C2  UNL     1     -36.631  14.507  -3.905  1.00 20.00     0.155 C 
HETATM    3  C3  UNL     1     -36.757  16.733  -2.936  1.00 20.00    -0.078 C 
HETATM    4  C4  UNL     1     -34.544  15.550  -2.854  1.00 20.00     0.051 C 
HETATM    5  C5  UNL     1     -35.774  13.762  -4.906  1.00 20.00     0.084 C 
HETATM    6  C6  UNL     1     -34.317  13.639  -4.470  1.00 20.00     0.017 C 
HETATM    7  C7  UNL     1     -33.692  14.974  -4.009  1.00 20.00    -0.043 C 
HETATM    8  C8  UNL     1     -36.209  17.939  -2.230  1.00 20.00     0.043 C 
HETATM    9  C9  UNL     1     -38.205  16.799  -3.327  1.00 20.00     0.043 C 
HETATM   10  C10 UNL     1     -32.265  14.708  -3.494  1.00 20.00     0.015 C 
HETATM   11  C11 UNL     1     -33.601  15.975  -5.177  1.00 20.00     0.015 C 
HETATM   12  O12 UNL     1     -37.815  14.223  -3.741  1.00 20.00    -0.293 OA
ENDROOT
TORSDOF 0
ENDMDL
MODEL 4
REMARK VINA RESULT:      -4.8      1.610      4.205
REMARK  0 active torsions:
REMARK  status: ('A' for Active; 'I' for Inactive)
ROOT
HETATM    1  C1  UNL     1     -34.605  15.592  -3.577  1.00 20.00    -0.010 C 
HETATM    2  C2  UNL     1     -36.006  15.993  -3.897  1.00 20.00     0.155 C 
HETATM    3  C3  UNL     1     -34.248  14.319  -3.784  1.00 20.00    -0.078 C 
HETATM    4  C4  UNL     1     -33.694  16.643  -3.017  1.00 20.00     0.051 C 
HETATM    5  C5  UNL     1     -36.658  17.005  -2.980  1.00 20.00     0.084 C 
HETATM    6  C6  UNL     1     -35.689  18.077  -2.488  1.00 20.00     0.017 C 
HETATM    7  C7  UNL     1     -34.368  17.508  -1.927  1.00 20.00    -0.043 C 
HETATM    8  C8  UNL     1     -32.861  13.824  -3.492  1.00 20.00     0.043 C 
HETATM    9  C9  UNL     1     -35.210  13.300  -4.325  1.00 20.00     0.043 C 
HETATM   10  C10 UNL     1     -33.433  18.677  -1.566  1.00 20.00     0.015 C 
HETATM   11  C11 UNL     1     -34.619  16.683  -0.650  1.00 20.00     0.015 C 
HETATM   12  O12 UNL     1     -36.631  15.468  -4.817  1.00 20.00    -0.293 OA
ENDROOT
TORSDOF 0
ENDMDL
MODEL 5
REMARK VINA RESULT:      -4.5      2.260      4.080
REMARK  0 active torsions:
REMARK  status: ('A' for Active; 'I' for Inactive)
ROOT
HETATM    1  C1  UNL     1     -35.823  15.350  -4.488  1.00 20.00    -0.010 C 
HETATM    2  C2  UNL     1     -34.500  15.140  -5.144  1.00 20.00     0.155 C 
HETATM    3  C3  UNL     1     -36.916  15.370  -5.261  1.00 20.00    -0.078 C 
HETATM    4  C4  UNL     1     -35.837  15.551  -3.002  1.00 20.00     0.051 C 
HETATM    5  C5  UNL     1     -33.322  15.901  -4.575  1.00 20.00     0.084 C 
HETATM    6  C6  UNL     1     -33.369  16.025  -3.055  1.00 20.00     0.017 C 
HETATM    7  C7  UNL     1     -34.731  16.514  -2.514  1.00 20.00    -0.043 C 
HETATM    8  C8  UNL     1     -38.290  15.575  -4.691  1.00 20.00     0.043 C 
HETATM    9  C9  UNL     1     -36.842  15.188  -6.750  1.00 20.00     0.043 C 
HETATM   10  C10 UNL     1     -34.694  16.495  -0.974  1.00 20.00     0.015 C 
HETATM   11  C11 UNL     1     -35.019  17.958  -2.968  1.00 20.00     0.015 C 
HETATM   12  O12 UNL     1     -34.384  14.443  -6.150  1.00 20.00    -0.293 OA
ENDROOT
TORSDOF 0
ENDMDL
MODEL 6
REMARK VINA RESULT:      -4.5      3.180      4.832
REMARK  0 active torsions:
REMARK  status: ('A' for Active; 'I' for Inactive)
ROOT
HETATM    1  C1  UNL     1     -37.008  15.724  -5.173  1.00 20.00    -0.010 C 
HETATM    2  C2  UNL     1     -36.986  14.547  -4.256  1.00 20.00     0.155 C 
HETATM    3  C3  UNL     1     -38.126  15.963  -5.869  1.00 20.00    -0.078 C 
HETATM    4  C4  UNL     1     -35.760  16.549  -5.273  1.00 20.00     0.051 C 
HETATM    5  C5  UNL     1     -35.684  13.782  -4.150  1.00 20.00     0.084 C 
HETATM    6  C6  UNL     1     -34.455  14.685  -4.205  1.00 20.00     0.017 C 
HETATM    7  C7  UNL     1     -34.477  15.692  -5.376  1.00 20.00    -0.043 C 
HETATM    8  C8  UNL     1     -38.241  17.122  -6.816  1.00 20.00     0.043 C 
HETATM    9  C9  UNL     1     -39.340  15.088  -5.749  1.00 20.00     0.043 C 
HETATM   10  C10 UNL     1     -33.248  16.615  -5.265  1.00 20.00     0.015 C 
HETATM   11  C11 UNL     1     -34.409  14.965  -6.732  1.00 20.00     0.015 C 
HETATM   12  O12 UNL     1     -37.999  14.168  -3.672  1.00 20.00    -0.293 OA
ENDROOT
TORSDOF 0
ENDMDL
MODEL 7
REMARK VINA RESULT:      -4.4      2.050      3.378
REMARK  0 active torsions:
REMARK  status: ('A' for Active; 'I' for Inactive)
ROOT
HETATM    1  C1  UNL     1     -33.897  16.616  -4.261  1.00 20.00    -0.010 C 
HETATM    2  C2  UNL     1     -33.847  15.137  -4.457  1.00 20.00     0.155 C 
HETATM    3  C3  UNL     1     -34.051  17.085  -3.017  1.00 20.00    -0.078 C 
HETATM    4  C4  UNL     1     -33.797  17.481  -5.482  1.00 20.00     0.051 C 
HETATM    5  C5  UNL     1     -34.500  14.586  -5.705  1.00 20.00     0.084 C 
HETATM    6  C6  UNL     1     -34.317  15.488  -6.923  1.00 20.00     0.017 C 
HETATM    7  C7  UNL     1     -34.664  16.969  -6.656  1.00 20.00    -0.043 C 
HETATM    8  C8  UNL     1     -34.113  18.556  -2.723  1.00 20.00     0.043 C 
HETATM    9  C9  UNL     1     -34.171  16.171  -1.831  1.00 20.00     0.043 C 
HETATM   10  C10 UNL     1     -34.339  17.794  -7.916  1.00 20.00     0.015 C 
HETATM   11  C11 UNL     1     -36.163  17.139  -6.347  1.00 20.00     0.015 C 
HETATM   12  O12 UNL     1     -33.365  14.392  -3.605  1.00 20.00    -0.293 OA
ENDROOT
TORSDOF 0
ENDMDL
MODEL 8
REMARK VINA RESULT:      -4.4      2.384      4.596
REMARK  0 active torsions:
REMARK  status: ('A' for Active; 'I' for Inactive)
ROOT
HETATM    1  C1  UNL     1     -35.604  15.194  -5.217  1.00 20.00    -0.010 C 
HETATM    2  C2  UNL     1     -34.783  14.033  -4.766  1.00 20.00     0.155 C 
HETATM    3  C3  UNL     1     -35.923  15.278  -6.515  1.00 20.00    -0.078 C 
HETATM    4  C4  UNL     1     -35.996  16.209  -4.185  1.00 20.00     0.051 C 
HETATM    5  C5  UNL     1     -33.761  14.294  -3.681  1.00 20.00     0.084 C 
HETATM    6  C6  UNL     1     -34.242  15.295  -2.635  1.00 20.00     0.017 C 
HETATM    7  C7  UNL     1     -34.833  16.587  -3.239  1.00 20.00    -0.043 C 
HETATM    8  C8  UNL     1     -36.744  16.410  -7.061  1.00 20.00     0.043 C 
HETATM    9  C9  UNL     1     -35.482  14.244  -7.511  1.00 20.00     0.043 C 
HETATM   10  C10 UNL     1     -35.381  17.467  -2.099  1.00 20.00     0.015 C 
HETATM   11  C11 UNL     1     -33.754  17.392  -3.989  1.00 20.00     0.015 C 
HETATM   12  O12 UNL     1     -34.877  12.931  -5.304  1.00 20.00    -0.293 OA
ENDROOT
TORSDOF 0
ENDMDL
MODEL 9
REMARK VINA RESULT:      -4.4      2.226      3.289
REMARK  0 active torsions:
REMARK  status: ('A' for Active; 'I' for Inactive)
ROOT
HETATM    1  C1  UNL     1     -34.991  15.413  -4.244  1.00 20.00    -0.010 C 
HETATM    2  C2  UNL     1     -36.206  16.238  -3.984  1.00 20.00     0.155 C 
HETATM    3  C3  UNL     1     -33.987  15.469  -3.360  1.00 20.00    -0.078 C 
HETATM    4  C4  UNL     1     -34.965  14.591  -5.498  1.00 20.00     0.051 C 
HETATM    5  C5  UNL     1     -36.888  16.855  -5.186  1.00 20.00     0.084 C 
HETATM    6  C6  UNL     1     -36.873  15.948  -6.413  1.00 20.00     0.017 C 
HETATM    7  C7  UNL     1     -35.480  15.362  -6.735  1.00 20.00    -0.043 C 
HETATM    8  C8  UNL     1     -32.726  14.674  -3.537  1.00 20.00     0.043 C 
HETATM    9  C9  UNL     1     -34.055  16.329  -2.131  1.00 20.00     0.043 C 
HETATM   10  C10 UNL     1     -35.610  14.384  -7.918  1.00 20.00     0.015 C 
HETATM   11  C11 UNL     1     -34.494  16.474  -7.139  1.00 20.00     0.015 C 
HETATM   12  O12 UNL     1     -36.592  16.471  -2.840  1.00 20.00    -0.293 OA
ENDROOT
TORSDOF 0
ENDMDL
