MODEL 1
REMARK VINA RESULT:      -6.2      0.000      0.000
REMARK  2 active torsions:
REMARK  status: ('A' for Active; 'I' for Inactive)
REMARK    1  A    between atoms: C7_7  and  C9_9 
REMARK    2  A    between atoms: C8_8  and  C9_9 
ROOT
HETATM    1  C1  UNL     1     -32.169   8.854   1.161  1.00 20.00     0.012 C 
HETATM    2  C2  UNL     1     -32.008   8.121   2.098  1.00 20.00    -0.117 C 
HETATM    3  C8  UNL     1     -31.807   7.228   3.247  1.00 20.00     0.093 C 
ENDROOT
BRANCH   3   4
HETATM    4  C9  UNL     1     -32.827   6.101   3.229  1.00 20.00     0.017 C 
BRANCH   4   5
HETATM    5  C7  UNL     1     -34.112   6.511   3.946  1.00 20.00    -0.006 C 
HETATM    6  C5  UNL     1     -33.968   6.432   5.468  1.00 20.00     0.082 C 
HETATM    7  C3  UNL     1     -34.430   5.028   5.765  1.00 20.00     0.127 C 
HETATM    8  C4  UNL     1     -35.095   4.380   4.580  1.00 20.00     0.079 C 
HETATM    9  O10 UNL     1     -34.281   4.476   6.848  1.00 20.00    -0.298 OA
HETATM   10  C6  UNL     1     -35.273   5.563   3.636  1.00 20.00     0.012 C 
ENDBRANCH   4   5
ENDBRANCH   3   4
TORSDOF 2
ENDMDL
MODEL 2
REMARK VINA RESULT:      -5.1     10.984     11.918
REMARK  2 active torsions:
REMARK  status: ('A' for Active; 'I' for Inactive)
REMARK    1  A    between atoms: C7_7  and  C9_9 
REMARK    2  A    between atoms: C8_8  and  C9_9 
ROOT
HETATM    1  C1  UNL     1     -35.227  17.647   1.062  1.00 20.00     0.012 C 
HETATM    2  C2  UNL     1     -34.677  17.374   0.030  1.00 20.00    -0.117 C 
HETATM    3  C8  UNL     1     -34.000  17.043  -1.231  1.00 20.00     0.093 C 
ENDROOT
BRANCH   3   4
HETATM    4  C9  UNL     1     -34.717  15.902  -1.935  1.00 20.00     0.017 C 
BRANCH   4   5
HETATM    5  C7  UNL     1     -34.365  15.865  -3.421  1.00 20.00    -0.006 C 
HETATM    6  C5  UNL     1     -35.307  14.951  -4.210  1.00 20.00     0.082 C 
HETATM    7  C3  UNL     1     -34.591  13.626  -4.161  1.00 20.00     0.127 C 
HETATM    8  C4  UNL     1     -33.178  13.755  -3.654  1.00 20.00     0.079 C 
HETATM    9  O10 UNL     1     -35.098  12.563  -4.497  1.00 20.00    -0.298 OA
HETATM   10  C6  UNL     1     -32.978  15.266  -3.670  1.00 20.00     0.012 C 
ENDBRANCH   4   5
ENDBRANCH   3   4
TORSDOF 2
ENDMDL
MODEL 3
REMARK VINA RESULT:      -4.7     11.359     12.391
REMARK  2 active torsions:
REMARK  status: ('A' for Active; 'I' for Inactive)
REMARK    1  A    between atoms: C7_7  and  C9_9 
REMARK    2  A    between atoms: C8_8  and  C9_9 
ROOT
HETATM    1  C1  UNL     1     -35.056  17.298   0.413  1.00 20.00     0.012 C 
HETATM    2  C2  UNL     1     -34.470  17.088  -0.614  1.00 20.00    -0.117 C 
HETATM    3  C8  UNL     1     -33.748  16.835  -1.869  1.00 20.00     0.093 C 
ENDROOT
BRANCH   3   4
HETATM    4  C9  UNL     1     -34.394  15.689  -2.630  1.00 20.00     0.017 C 
BRANCH   4   5
HETATM    5  C7  UNL     1     -33.466  15.166  -3.726  1.00 20.00    -0.006 C 
HETATM    6  C5  UNL     1     -33.943  15.575  -5.123  1.00 20.00     0.082 C 
HETATM    7  C3  UNL     1     -34.819  14.414  -5.520  1.00 20.00     0.127 C 
HETATM    8  C4  UNL     1     -34.669  13.238  -4.592  1.00 20.00     0.079 C 
HETATM    9  O10 UNL     1     -35.568  14.426  -6.489  1.00 20.00    -0.298 OA
HETATM   10  C6  UNL     1     -33.443  13.636  -3.778  1.00 20.00     0.012 C 
ENDBRANCH   4   5
ENDBRANCH   3   4
TORSDOF 2
ENDMDL
MODEL 4
REMARK VINA RESULT:      -4.6     11.419     12.195
REMARK  2 active torsions:
REMARK  status: ('A' for Active; 'I' for Inactive)
REMARK    1  A    between atoms: C7_7  and  C9_9 
REMARK    2  A    between atoms: C8_8  and  C9_9 
ROOT
HETATM    1  C1  UNL     1     -34.850  17.123   0.120  1.00 20.00     0.012 C 
HETATM    2  C2  UNL     1     -34.362  17.109  -0.977  1.00 20.00    -0.117 C 
HETATM    3  C8  UNL     1     -33.762  17.098  -2.318  1.00 20.00     0.093 C 
ENDROOT
BRANCH   3   4
HETATM    4  C9  UNL     1     -33.751  15.687  -2.883  1.00 20.00     0.017 C 
BRANCH   4   5
HETATM    5  C7  UNL     1     -34.416  15.639  -4.257  1.00 20.00    -0.006 C 
HETATM    6  C5  UNL     1     -35.930  15.849  -4.167  1.00 20.00     0.082 C 
HETATM    7  C3  UNL     1     -36.447  14.439  -4.036  1.00 20.00     0.127 C 
HETATM    8  C4  UNL     1     -35.385  13.410  -4.324  1.00 20.00     0.079 C 
HETATM    9  O10 UNL     1     -37.599  14.160  -3.730  1.00 20.00    -0.298 OA
HETATM   10  C6  UNL     1     -34.273  14.266  -4.919  1.00 20.00     0.012 C 
ENDBRANCH   4   5
ENDBRANCH   3   4
TORSDOF 2
ENDMDL
MODEL 5
REMARK VINA RESULT:      -4.6     11.607     12.439
REMARK  2 active torsions:
REMARK  status: ('A' for Active; 'I' for Inactive)
REMARK    1  A    between atoms: C7_7  and  C9_9 
REMARK    2  A    between atoms: C8_8  and  C9_9 
ROOT
HETATM    1  C1  UNL     1     -34.865  17.285  -0.128  1.00 20.00     0.012 C 
HETATM    2  C2  UNL     1     -34.548  16.635  -1.087  1.00 20.00    -0.117 C 
HETATM    3  C8  UNL     1     -34.160  15.837  -2.257  1.00 20.00     0.093 C 
ENDROOT
BRANCH   3   4
HETATM    4  C9  UNL     1     -34.432  16.607  -3.539  1.00 20.00     0.017 C 
BRANCH   4   5
HETATM    5  C7  UNL     1     -35.629  16.022  -4.288  1.00 20.00    -0.006 C 
HETATM    6  C5  UNL     1     -35.962  14.604  -3.816  1.00 20.00     0.082 C 
HETATM    7  C3  UNL     1     -35.150  13.749  -4.754  1.00 20.00     0.127 C 
HETATM    8  C4  UNL     1     -34.593  14.537  -5.911  1.00 20.00     0.079 C 
HETATM    9  O10 UNL     1     -34.964  12.550  -4.595  1.00 20.00    -0.298 OA
HETATM   10  C6  UNL     1     -35.348  15.855  -5.784  1.00 20.00     0.012 C 
ENDBRANCH   4   5
ENDBRANCH   3   4
TORSDOF 2
ENDMDL
MODEL 6
REMARK VINA RESULT:      -4.4     11.063     12.726
REMARK  2 active torsions:
REMARK  status: ('A' for Active; 'I' for Inactive)
REMARK    1  A    between atoms: C7_7  and  C9_9 
REMARK    2  A    between atoms: C8_8  and  C9_9 
ROOT
HETATM    1  C1  UNL     1     -35.357  18.550  -6.282  1.00 20.00     0.012 C 
HETATM    2  C2  UNL     1     -34.552  18.180  -5.471  1.00 20.00    -0.117 C 
HETATM    3  C8  UNL     1     -33.569  17.732  -4.476  1.00 20.00     0.093 C 
ENDROOT
BRANCH   3   4
HETATM    4  C9  UNL     1     -33.173  16.288  -4.734  1.00 20.00     0.017 C 
BRANCH   4   5
HETATM    5  C7  UNL     1     -33.297  15.448  -3.463  1.00 20.00    -0.006 C 
HETATM    6  C5  UNL     1     -33.267  13.947  -3.765  1.00 20.00     0.082 C 
HETATM    7  C3  UNL     1     -34.728  13.621  -3.942  1.00 20.00     0.127 C 
HETATM    8  C4  UNL     1     -35.625  14.745  -3.492  1.00 20.00     0.079 C 
HETATM    9  O10 UNL     1     -35.140  12.563  -4.399  1.00 20.00    -0.298 OA
HETATM   10  C6  UNL     1     -34.644  15.656  -2.765  1.00 20.00     0.012 C 
ENDBRANCH   4   5
ENDBRANCH   3   4
TORSDOF 2
ENDMDL
MODEL 7
REMARK VINA RESULT:      -4.3     11.622     12.768
REMARK  2 active torsions:
REMARK  status: ('A' for Active; 'I' for Inactive)
REMARK    1  A    between atoms: C7_7  and  C9_9 
REMARK    2  A    between atoms: C8_8  and  C9_9 
ROOT
HETATM    1  C1  UNL     1     -35.123  14.141  -6.119  1.00 20.00     0.012 C 
HETATM    2  C2  UNL     1     -34.490  13.980  -5.111  1.00 20.00    -0.117 C 
HETATM    3  C8  UNL     1     -33.715  13.778  -3.879  1.00 20.00     0.093 C 
ENDROOT
BRANCH   3   4
HETATM    4  C9  UNL     1     -33.302  15.115  -3.286  1.00 20.00     0.017 C 
BRANCH   4   5
HETATM    5  C7  UNL     1     -34.523  15.983  -2.984  1.00 20.00    -0.006 C 
HETATM    6  C5  UNL     1     -34.370  17.400  -3.543  1.00 20.00     0.082 C 
HETATM    7  C3  UNL     1     -33.746  18.140  -2.388  1.00 20.00     0.127 C 
HETATM    8  C4  UNL     1     -33.782  17.344  -1.110  1.00 20.00     0.079 C 
HETATM    9  O10 UNL     1     -33.265  19.263  -2.477  1.00 20.00    -0.298 OA
HETATM   10  C6  UNL     1     -34.718  16.199  -1.481  1.00 20.00     0.012 C 
ENDBRANCH   4   5
ENDBRANCH   3   4
TORSDOF 2
ENDMDL
MODEL 8
REMARK VINA RESULT:      -4.2      1.367      1.827
REMARK  2 active torsions:
REMARK  status: ('A' for Active; 'I' for Inactive)
REMARK    1  A    between atoms: C7_7  and  C9_9 
REMARK    2  A    between atoms: C8_8  and  C9_9 
ROOT
HETATM    1  C1  UNL     1     -31.231   7.642   3.954  1.00 20.00     0.012 C 
HETATM    2  C2  UNL     1     -32.039   7.092   3.256  1.00 20.00    -0.117 C 
HETATM    3  C8  UNL     1     -33.026   6.423   2.398  1.00 20.00     0.093 C 
ENDROOT
BRANCH   3   4
HETATM    4  C9  UNL     1     -33.499   5.130   3.043  1.00 20.00     0.017 C 
BRANCH   4   5
HETATM    5  C7  UNL     1     -34.824   5.335   3.776  1.00 20.00    -0.006 C 
HETATM    6  C5  UNL     1     -34.823   6.619   4.611  1.00 20.00     0.082 C 
HETATM    7  C3  UNL     1     -34.330   6.135   5.951  1.00 20.00     0.127 C 
HETATM    8  C4  UNL     1     -34.313   4.632   6.047  1.00 20.00     0.079 C 
HETATM    9  O10 UNL     1     -33.984   6.880   6.859  1.00 20.00    -0.298 OA
HETATM   10  C6  UNL     1     -35.093   4.230   4.801  1.00 20.00     0.012 C 
ENDBRANCH   4   5
ENDBRANCH   3   4
TORSDOF 2
ENDMDL
MODEL 9
REMARK VINA RESULT:      -4.2     11.698     12.836
REMARK  2 active torsions:
REMARK  status: ('A' for Active; 'I' for Inactive)
REMARK    1  A    between atoms: C7_7  and  C9_9 
REMARK    2  A    between atoms: C8_8  and  C9_9 
ROOT
HETATM    1  C1  UNL     1     -35.459  14.535  -7.472  1.00 20.00     0.012 C 
HETATM    2  C2  UNL     1     -35.148  14.048  -6.419  1.00 20.00    -0.117 C 
HETATM    3  C8  UNL     1     -34.762  13.448  -5.134  1.00 20.00     0.093 C 
ENDROOT
BRANCH   3   4
HETATM    4  C9  UNL     1     -35.373  14.227  -3.981  1.00 20.00     0.017 C 
BRANCH   4   5
HETATM    5  C7  UNL     1     -34.291  14.760  -3.044  1.00 20.00    -0.006 C 
HETATM    6  C5  UNL     1     -34.758  16.002  -2.278  1.00 20.00     0.082 C 
HETATM    7  C3  UNL     1     -34.316  17.126  -3.182  1.00 20.00     0.127 C 
HETATM    8  C4  UNL     1     -33.385  16.656  -4.268  1.00 20.00     0.079 C 
HETATM    9  O10 UNL     1     -34.673  18.289  -3.047  1.00 20.00    -0.298 OA
HETATM   10  C6  UNL     1     -33.054  15.241  -3.806  1.00 20.00     0.012 C 
ENDBRANCH   4   5
ENDBRANCH   3   4
TORSDOF 2
ENDMDL
