MODEL 1
REMARK VINA RESULT:      -6.0      0.000      0.000
REMARK  2 active torsions:
REMARK  status: ('A' for Active; 'I' for Inactive)
REMARK    1  A    between atoms: C7_7  and  C9_9 
REMARK    2  A    between atoms: C8_8  and  C9_9 
ROOT
HETATM    1  C1  UNL     1     -32.137   9.116   1.113  1.00 20.00     0.012 C 
HETATM    2  C2  UNL     1     -32.106   8.281   1.976  1.00 20.00    -0.117 C 
HETATM    3  C8  UNL     1     -32.065   7.263   3.035  1.00 20.00     0.093 C 
ENDROOT
BRANCH   3   4
HETATM    4  C9  UNL     1     -33.177   6.247   2.837  1.00 20.00     0.017 C 
BRANCH   4   5
HETATM    5  C7  UNL     1     -34.094   6.199   4.048  1.00 20.00    -0.006 C 
HETATM    6  C5  UNL     1     -34.621   4.792   4.340  1.00 20.00     0.082 C 
HETATM    7  C3  UNL     1     -34.901   4.870   5.819  1.00 20.00     0.127 C 
HETATM    8  C4  UNL     1     -34.310   6.105   6.447  1.00 20.00     0.079 C 
HETATM    9  O10 UNL     1     -35.538   4.028   6.438  1.00 20.00    -0.298 OA
HETATM   10  C6  UNL     1     -33.389   6.605   5.343  1.00 20.00     0.012 C 
ENDBRANCH   4   5
ENDBRANCH   3   4
TORSDOF 2
ENDMDL
MODEL 2
REMARK VINA RESULT:      -5.1     11.131     12.284
REMARK  2 active torsions:
REMARK  status: ('A' for Active; 'I' for Inactive)
REMARK    1  A    between atoms: C7_7  and  C9_9 
REMARK    2  A    between atoms: C8_8  and  C9_9 
ROOT
HETATM    1  C1  UNL     1     -34.709  17.629   0.594  1.00 20.00     0.012 C 
HETATM    2  C2  UNL     1     -34.739  16.966  -0.406  1.00 20.00    -0.117 C 
HETATM    3  C8  UNL     1     -34.781  16.152  -1.629  1.00 20.00     0.093 C 
ENDROOT
BRANCH   3   4
HETATM    4  C9  UNL     1     -33.594  16.473  -2.521  1.00 20.00     0.017 C 
BRANCH   4   5
HETATM    5  C7  UNL     1     -33.507  15.500  -3.685  1.00 20.00    -0.006 C 
HETATM    6  C5  UNL     1     -34.098  14.127  -3.358  1.00 20.00     0.082 C 
HETATM    7  C3  UNL     1     -34.488  13.627  -4.725  1.00 20.00     0.127 C 
HETATM    8  C4  UNL     1     -34.434  14.714  -5.767  1.00 20.00     0.079 C 
HETATM    9  O10 UNL     1     -34.811  12.470  -4.962  1.00 20.00    -0.298 OA
HETATM   10  C6  UNL     1     -34.303  15.963  -4.907  1.00 20.00     0.012 C 
ENDBRANCH   4   5
ENDBRANCH   3   4
TORSDOF 2
ENDMDL
MODEL 3
REMARK VINA RESULT:      -5.0     11.056     11.900
REMARK  2 active torsions:
REMARK  status: ('A' for Active; 'I' for Inactive)
REMARK    1  A    between atoms: C7_7  and  C9_9 
REMARK    2  A    between atoms: C8_8  and  C9_9 
ROOT
HETATM    1  C1  UNL     1     -35.194  17.431   0.910  1.00 20.00     0.012 C 
HETATM    2  C2  UNL     1     -34.510  17.486  -0.076  1.00 20.00    -0.117 C 
HETATM    3  C8  UNL     1     -33.668  17.553  -1.278  1.00 20.00     0.093 C 
ENDROOT
BRANCH   3   4
HETATM    4  C9  UNL     1     -34.424  17.023  -2.485  1.00 20.00     0.017 C 
BRANCH   4   5
HETATM    5  C7  UNL     1     -34.244  15.520  -2.625  1.00 20.00    -0.006 C 
HETATM    6  C5  UNL     1     -35.427  14.842  -3.318  1.00 20.00     0.082 C 
HETATM    7  C3  UNL     1     -34.777  13.614  -3.903  1.00 20.00     0.127 C 
HETATM    8  C4  UNL     1     -33.274  13.683  -3.847  1.00 20.00     0.079 C 
HETATM    9  O10 UNL     1     -35.401  12.668  -4.368  1.00 20.00    -0.298 OA
HETATM   10  C6  UNL     1     -33.042  15.146  -3.495  1.00 20.00     0.012 C 
ENDBRANCH   4   5
ENDBRANCH   3   4
TORSDOF 2
ENDMDL
MODEL 4
REMARK VINA RESULT:      -4.5     11.442     12.526
REMARK  2 active torsions:
REMARK  status: ('A' for Active; 'I' for Inactive)
REMARK    1  A    between atoms: C7_7  and  C9_9 
REMARK    2  A    between atoms: C8_8  and  C9_9 
ROOT
HETATM    1  C1  UNL     1     -33.123  18.414  -0.064  1.00 20.00     0.012 C 
HETATM    2  C2  UNL     1     -33.745  17.567  -0.645  1.00 20.00    -0.117 C 
HETATM    3  C8  UNL     1     -34.510  16.532  -1.354  1.00 20.00     0.093 C 
ENDROOT
BRANCH   3   4
HETATM    4  C9  UNL     1     -33.753  16.062  -2.584  1.00 20.00     0.017 C 
BRANCH   4   5
HETATM    5  C7  UNL     1     -34.600  15.113  -3.417  1.00 20.00    -0.006 C 
HETATM    6  C5  UNL     1     -34.888  15.650  -4.820  1.00 20.00     0.082 C 
HETATM    7  C3  UNL     1     -35.115  14.377  -5.595  1.00 20.00     0.127 C 
HETATM    8  C4  UNL     1     -34.697  13.155  -4.819  1.00 20.00     0.079 C 
HETATM    9  O10 UNL     1     -35.585  14.340  -6.724  1.00 20.00    -0.298 OA
HETATM   10  C6  UNL     1     -33.912  13.770  -3.669  1.00 20.00     0.012 C 
ENDBRANCH   4   5
ENDBRANCH   3   4
TORSDOF 2
ENDMDL
MODEL 5
REMARK VINA RESULT:      -4.5     12.033     13.229
REMARK  2 active torsions:
REMARK  status: ('A' for Active; 'I' for Inactive)
REMARK    1  A    between atoms: C7_7  and  C9_9 
REMARK    2  A    between atoms: C8_8  and  C9_9 
ROOT
HETATM    1  C1  UNL     1     -34.673  17.119  -0.169  1.00 20.00     0.012 C 
HETATM    2  C2  UNL     1     -34.682  16.490  -1.192  1.00 20.00    -0.117 C 
HETATM    3  C8  UNL     1     -34.698  15.721  -2.444  1.00 20.00     0.093 C 
ENDROOT
BRANCH   3   4
HETATM    4  C9  UNL     1     -33.300  15.637  -3.033  1.00 20.00     0.017 C 
BRANCH   4   5
HETATM    5  C7  UNL     1     -33.353  15.430  -4.538  1.00 20.00    -0.006 C 
HETATM    6  C5  UNL     1     -34.398  14.394  -4.959  1.00 20.00     0.082 C 
HETATM    7  C3  UNL     1     -34.713  14.830  -6.367  1.00 20.00     0.127 C 
HETATM    8  C4  UNL     1     -34.153  16.193  -6.681  1.00 20.00     0.079 C 
HETATM    9  O10 UNL     1     -35.350  14.154  -7.164  1.00 20.00    -0.298 OA
HETATM   10  C6  UNL     1     -33.760  16.694  -5.297  1.00 20.00     0.012 C 
ENDBRANCH   4   5
ENDBRANCH   3   4
TORSDOF 2
ENDMDL
MODEL 6
REMARK VINA RESULT:      -4.4     11.124     12.319
REMARK  2 active torsions:
REMARK  status: ('A' for Active; 'I' for Inactive)
REMARK    1  A    between atoms: C7_7  and  C9_9 
REMARK    2  A    between atoms: C8_8  and  C9_9 
ROOT
HETATM    1  C1  UNL     1     -34.600  19.185  -3.474  1.00 20.00     0.012 C 
HETATM    2  C2  UNL     1     -34.191  18.377  -2.685  1.00 20.00    -0.117 C 
HETATM    3  C8  UNL     1     -33.687  17.393  -1.718  1.00 20.00     0.093 C 
ENDROOT
BRANCH   3   4
HETATM    4  C9  UNL     1     -34.639  16.213  -1.616  1.00 20.00     0.017 C 
BRANCH   4   5
HETATM    5  C7  UNL     1     -34.910  15.611  -2.985  1.00 20.00    -0.006 C 
HETATM    6  C5  UNL     1     -34.211  14.265  -3.192  1.00 20.00     0.082 C 
HETATM    7  C3  UNL     1     -35.097  13.615  -4.224  1.00 20.00     0.127 C 
HETATM    8  C4  UNL     1     -36.396  14.355  -4.409  1.00 20.00     0.079 C 
HETATM    9  O10 UNL     1     -34.793  12.603  -4.842  1.00 20.00    -0.298 OA
HETATM   10  C6  UNL     1     -36.390  15.297  -3.213  1.00 20.00     0.012 C 
ENDBRANCH   4   5
ENDBRANCH   3   4
TORSDOF 2
ENDMDL
MODEL 7
REMARK VINA RESULT:      -4.2     11.886     12.699
REMARK  2 active torsions:
REMARK  status: ('A' for Active; 'I' for Inactive)
REMARK    1  A    between atoms: C7_7  and  C9_9 
REMARK    2  A    between atoms: C8_8  and  C9_9 
ROOT
HETATM    1  C1  UNL     1     -33.836  16.031  -2.754  1.00 20.00     0.012 C 
HETATM    2  C2  UNL     1     -34.218  16.446  -1.693  1.00 20.00    -0.117 C 
HETATM    3  C8  UNL     1     -34.684  16.949  -0.394  1.00 20.00     0.093 C 
ENDROOT
BRANCH   3   4
HETATM    4  C9  UNL     1     -34.769  18.466  -0.413  1.00 20.00     0.017 C 
BRANCH   4   5
HETATM    5  C7  UNL     1     -33.810  19.079   0.594  1.00 20.00    -0.006 C 
HETATM    6  C5  UNL     1     -33.927  18.452   1.985  1.00 20.00     0.082 C 
HETATM    7  C3  UNL     1     -32.553  18.707   2.552  1.00 20.00     0.127 C 
HETATM    8  C4  UNL     1     -31.578  19.167   1.501  1.00 20.00     0.079 C 
HETATM    9  O10 UNL     1     -32.265  18.558   3.733  1.00 20.00    -0.298 OA
HETATM   10  C6  UNL     1     -32.342  18.871   0.217  1.00 20.00     0.012 C 
ENDBRANCH   4   5
ENDBRANCH   3   4
TORSDOF 2
ENDMDL
MODEL 8
REMARK VINA RESULT:      -4.2     11.794     12.877
REMARK  2 active torsions:
REMARK  status: ('A' for Active; 'I' for Inactive)
REMARK    1  A    between atoms: C7_7  and  C9_9 
REMARK    2  A    between atoms: C8_8  and  C9_9 
ROOT
HETATM    1  C1  UNL     1     -35.283  14.368  -7.021  1.00 20.00     0.012 C 
HETATM    2  C2  UNL     1     -35.180  14.007  -5.881  1.00 20.00    -0.117 C 
HETATM    3  C8  UNL     1     -35.059  13.562  -4.486  1.00 20.00     0.093 C 
ENDROOT
BRANCH   3   4
HETATM    4  C9  UNL     1     -33.638  13.764  -3.987  1.00 20.00     0.017 C 
BRANCH   4   5
HETATM    5  C7  UNL     1     -33.494  15.099  -3.274  1.00 20.00    -0.006 C 
HETATM    6  C5  UNL     1     -33.248  16.263  -4.236  1.00 20.00     0.082 C 
HETATM    7  C3  UNL     1     -33.782  17.431  -3.446  1.00 20.00     0.127 C 
HETATM    8  C4  UNL     1     -34.571  16.992  -2.241  1.00 20.00     0.079 C 
HETATM    9  O10 UNL     1     -33.595  18.602  -3.750  1.00 20.00    -0.298 OA
HETATM   10  C6  UNL     1     -34.759  15.506  -2.516  1.00 20.00     0.012 C 
ENDBRANCH   4   5
ENDBRANCH   3   4
TORSDOF 2
ENDMDL
MODEL 9
REMARK VINA RESULT:      -4.2     11.006     12.829
REMARK  2 active torsions:
REMARK  status: ('A' for Active; 'I' for Inactive)
REMARK    1  A    between atoms: C7_7  and  C9_9 
REMARK    2  A    between atoms: C8_8  and  C9_9 
ROOT
HETATM    1  C1  UNL     1     -34.776  17.346  -7.252  1.00 20.00     0.012 C 
HETATM    2  C2  UNL     1     -34.206  17.483  -6.204  1.00 20.00    -0.117 C 
HETATM    3  C8  UNL     1     -33.505  17.652  -4.924  1.00 20.00     0.093 C 
ENDROOT
BRANCH   3   4
HETATM    4  C9  UNL     1     -34.428  17.318  -3.765  1.00 20.00     0.017 C 
BRANCH   4   5
HETATM    5  C7  UNL     1     -34.291  15.860  -3.360  1.00 20.00    -0.006 C 
HETATM    6  C5  UNL     1     -35.306  14.951  -4.058  1.00 20.00     0.082 C 
HETATM    7  C3  UNL     1     -34.594  13.622  -4.036  1.00 20.00     0.127 C 
HETATM    8  C4  UNL     1     -33.145  13.758  -3.644  1.00 20.00     0.079 C 
HETATM    9  O10 UNL     1     -35.132  12.556  -4.303  1.00 20.00    -0.298 OA
HETATM   10  C6  UNL     1     -32.936  15.263  -3.743  1.00 20.00     0.012 C 
ENDBRANCH   4   5
ENDBRANCH   3   4
TORSDOF 2
ENDMDL
