MODEL 1
REMARK VINA RESULT:      -5.6      0.000      0.000
REMARK  3 active torsions:
REMARK  status: ('A' for Active; 'I' for Inactive)
REMARK    1  A    between atoms: C6_6  and  C7_7 
REMARK    2  A    between atoms: C8_8  and  C10_10 
REMARK    3  A    between atoms: C9_9  and  C11_11 
ROOT
HETATM    1  C1  UNL     1     -34.437  17.314  -5.838  1.00 20.00    -0.021 C 
HETATM    2  C2  UNL     1     -33.310  16.915  -5.207  1.00 20.00    -0.020 C 
HETATM    3  C5  UNL     1     -35.587  15.263  -5.087  1.00 20.00    -0.003 C 
HETATM    4  C6  UNL     1     -34.462  14.877  -4.457  1.00 20.00     0.024 C 
HETATM    5  C8  UNL     1     -35.730  16.779  -5.211  1.00 20.00     0.039 C 
HETATM    6  C9  UNL     1     -33.558  16.011  -3.995  1.00 20.00     0.056 C 
ENDROOT
BRANCH   4   7
HETATM    7  C7  UNL     1     -34.138  13.425  -4.221  1.00 20.00     0.205 C 
HETATM    8  O12 UNL     1     -34.997  12.599  -4.650  1.00 20.00    -0.644 OA
HETATM    9  O13 UNL     1     -33.045  13.202  -3.622  1.00 20.00    -0.644 OA
ENDBRANCH   4   7
BRANCH   6  10
HETATM   10  C11 UNL     1     -34.393  16.918  -3.035  1.00 20.00     0.029 A 
HETATM   11  C4  UNL     1     -33.703  17.967  -2.179  1.00 20.00    -0.024 A 
HETATM   12  C3  UNL     1     -33.915  17.309  -1.022  1.00 20.00    -0.024 A 
HETATM   13  C10 UNL     1     -34.643  16.151  -1.682  1.00 20.00     0.028 A 
ENDBRANCH   6  10
TORSDOF 3
ENDMDL
MODEL 2
REMARK VINA RESULT:      -5.3      1.402      2.952
REMARK  3 active torsions:
REMARK  status: ('A' for Active; 'I' for Inactive)
REMARK    1  A    between atoms: C6_6  and  C7_7 
REMARK    2  A    between atoms: C8_8  and  C10_10 
REMARK    3  A    between atoms: C9_9  and  C11_11 
ROOT
HETATM    1  C1  UNL     1     -33.883  17.201  -1.950  1.00 20.00    -0.021 C 
HETATM    2  C2  UNL     1     -34.751  16.250  -1.540  1.00 20.00    -0.020 C 
HETATM    3  C5  UNL     1     -33.301  15.828  -3.916  1.00 20.00    -0.003 C 
HETATM    4  C6  UNL     1     -34.172  14.889  -3.504  1.00 20.00     0.024 C 
HETATM    5  C8  UNL     1     -33.667  17.242  -3.466  1.00 20.00     0.039 C 
HETATM    6  C9  UNL     1     -35.340  15.409  -2.678  1.00 20.00     0.056 C 
ENDROOT
BRANCH   4   7
HETATM    7  C7  UNL     1     -34.000  13.434  -3.852  1.00 20.00     0.205 C 
HETATM    8  O12 UNL     1     -35.048  12.842  -4.246  1.00 20.00    -0.644 OA
HETATM    9  O13 UNL     1     -32.828  12.975  -3.708  1.00 20.00    -0.644 OA
ENDBRANCH   4   7
BRANCH   6  10
HETATM   10  C11 UNL     1     -36.101  16.462  -3.546  1.00 20.00     0.029 A 
HETATM   11  C4  UNL     1     -37.417  17.046  -3.062  1.00 20.00    -0.024 A 
HETATM   12  C3  UNL     1     -38.158  16.404  -3.987  1.00 20.00    -0.024 A 
HETATM   13  C10 UNL     1     -36.967  15.714  -4.628  1.00 20.00     0.028 A 
ENDBRANCH   6  10
TORSDOF 3
ENDMDL
MODEL 3
REMARK VINA RESULT:      -5.2      1.093      1.393
REMARK  3 active torsions:
REMARK  status: ('A' for Active; 'I' for Inactive)
REMARK    1  A    between atoms: C6_6  and  C7_7 
REMARK    2  A    between atoms: C8_8  and  C10_10 
REMARK    3  A    between atoms: C9_9  and  C11_11 
ROOT
HETATM    1  C1  UNL     1     -33.305  16.925  -5.264  1.00 20.00    -0.021 C 
HETATM    2  C2  UNL     1     -32.912  15.979  -4.382  1.00 20.00    -0.020 C 
HETATM    3  C5  UNL     1     -35.621  16.082  -5.142  1.00 20.00    -0.003 C 
HETATM    4  C6  UNL     1     -35.222  15.148  -4.260  1.00 20.00     0.024 C 
HETATM    5  C8  UNL     1     -34.769  17.351  -5.117  1.00 20.00     0.039 C 
HETATM    6  C9  UNL     1     -34.014  15.529  -3.417  1.00 20.00     0.056 C 
ENDROOT
BRANCH   4   7
HETATM    7  C7  UNL     1     -35.936  13.830  -4.116  1.00 20.00     0.205 C 
HETATM    8  O12 UNL     1     -37.172  13.906  -3.851  1.00 20.00    -0.644 OA
HETATM    9  O13 UNL     1     -35.215  12.800  -4.277  1.00 20.00    -0.644 OA
ENDBRANCH   4   7
BRANCH   6  10
HETATM   10  C11 UNL     1     -34.372  16.839  -2.643  1.00 20.00     0.029 A 
HETATM   11  C4  UNL     1     -33.513  17.299  -1.477  1.00 20.00    -0.024 A 
HETATM   12  C3  UNL     1     -34.449  17.022  -0.548  1.00 20.00    -0.024 A 
HETATM   13  C10 UNL     1     -35.466  16.518  -1.557  1.00 20.00     0.028 A 
ENDBRANCH   6  10
TORSDOF 3
ENDMDL
MODEL 4
REMARK VINA RESULT:      -4.9      2.451      3.457
REMARK  3 active torsions:
REMARK  status: ('A' for Active; 'I' for Inactive)
REMARK    1  A    between atoms: C6_6  and  C7_7 
REMARK    2  A    between atoms: C8_8  and  C10_10 
REMARK    3  A    between atoms: C9_9  and  C11_11 
ROOT
HETATM    1  C1  UNL     1     -34.452  14.258  -3.491  1.00 20.00    -0.021 C 
HETATM    2  C2  UNL     1     -35.400  15.214  -3.377  1.00 20.00    -0.020 C 
HETATM    3  C5  UNL     1     -32.936  15.882  -4.565  1.00 20.00    -0.003 C 
HETATM    4  C6  UNL     1     -33.883  16.829  -4.443  1.00 20.00     0.024 C 
HETATM    5  C8  UNL     1     -33.016  14.794  -3.495  1.00 20.00     0.039 C 
HETATM    6  C9  UNL     1     -34.843  16.638  -3.276  1.00 20.00     0.056 C 
ENDROOT
BRANCH   4   7
HETATM    7  C7  UNL     1     -33.971  17.997  -5.389  1.00 20.00     0.205 C 
HETATM    8  O12 UNL     1     -34.659  17.800  -6.435  1.00 20.00    -0.644 OA
HETATM    9  O13 UNL     1     -33.347  19.039  -5.029  1.00 20.00    -0.644 OA
ENDBRANCH   4   7
BRANCH   6  10
HETATM   10  C11 UNL     1     -33.991  16.598  -1.967  1.00 20.00     0.029 A 
HETATM   11  C4  UNL     1     -34.673  16.613  -0.609  1.00 20.00    -0.024 A 
HETATM   12  C3  UNL     1     -34.268  17.863  -0.307  1.00 20.00    -0.024 A 
HETATM   13  C10 UNL     1     -33.516  18.058  -1.612  1.00 20.00     0.028 A 
ENDBRANCH   6  10
TORSDOF 3
ENDMDL
MODEL 5
REMARK VINA RESULT:      -4.9      0.769      1.000
REMARK  3 active torsions:
REMARK  status: ('A' for Active; 'I' for Inactive)
REMARK    1  A    between atoms: C6_6  and  C7_7 
REMARK    2  A    between atoms: C8_8  and  C10_10 
REMARK    3  A    between atoms: C9_9  and  C11_11 
ROOT
HETATM    1  C1  UNL     1     -36.285  17.032  -5.448  1.00 20.00    -0.021 C 
HETATM    2  C2  UNL     1     -34.937  16.941  -5.394  1.00 20.00    -0.020 C 
HETATM    3  C5  UNL     1     -36.482  14.861  -4.292  1.00 20.00    -0.003 C 
HETATM    4  C6  UNL     1     -35.140  14.781  -4.237  1.00 20.00     0.024 C 
HETATM    5  C8  UNL     1     -37.010  16.295  -4.317  1.00 20.00     0.039 C 
HETATM    6  C9  UNL     1     -34.413  16.118  -4.212  1.00 20.00     0.056 C 
ENDROOT
BRANCH   4   7
HETATM    7  C7  UNL     1     -34.420  13.459  -4.192  1.00 20.00     0.205 C 
HETATM    8  O12 UNL     1     -35.010  12.498  -4.770  1.00 20.00    -0.644 OA
HETATM    9  O13 UNL     1     -33.311  13.464  -3.581  1.00 20.00    -0.644 OA
ENDBRANCH   4   7
BRANCH   6  10
HETATM   10  C11 UNL     1     -34.927  16.911  -2.967  1.00 20.00     0.029 A 
HETATM   11  C4  UNL     1     -34.168  18.129  -2.469  1.00 20.00    -0.024 A 
HETATM   12  C3  UNL     1     -33.730  17.523  -1.347  1.00 20.00    -0.024 A 
HETATM   13  C10 UNL     1     -34.417  16.204  -1.655  1.00 20.00     0.028 A 
ENDBRANCH   6  10
TORSDOF 3
ENDMDL
MODEL 6
REMARK VINA RESULT:      -4.8      1.090      3.270
REMARK  3 active torsions:
REMARK  status: ('A' for Active; 'I' for Inactive)
REMARK    1  A    between atoms: C6_6  and  C7_7 
REMARK    2  A    between atoms: C8_8  and  C10_10 
REMARK    3  A    between atoms: C9_9  and  C11_11 
ROOT
HETATM    1  C1  UNL     1     -35.656  17.070  -2.589  1.00 20.00    -0.021 C 
HETATM    2  C2  UNL     1     -36.374  16.290  -3.428  1.00 20.00    -0.020 C 
HETATM    3  C5  UNL     1     -33.685  15.623  -2.924  1.00 20.00    -0.003 C 
HETATM    4  C6  UNL     1     -34.405  14.856  -3.763  1.00 20.00     0.024 C 
HETATM    5  C8  UNL     1     -34.151  17.078  -2.874  1.00 20.00     0.039 C 
HETATM    6  C9  UNL     1     -35.532  15.575  -4.491  1.00 20.00     0.056 C 
ENDROOT
BRANCH   4   7
HETATM    7  C7  UNL     1     -34.101  13.396  -3.968  1.00 20.00     0.205 C 
HETATM    8  O12 UNL     1     -35.074  12.688  -4.363  1.00 20.00    -0.644 OA
HETATM    9  O13 UNL     1     -32.908  13.048  -3.723  1.00 20.00    -0.644 OA
ENDBRANCH   4   7
BRANCH   6  10
HETATM   10  C11 UNL     1     -34.897  16.753  -5.298  1.00 20.00     0.029 A 
HETATM   11  C4  UNL     1     -35.722  17.509  -6.325  1.00 20.00    -0.024 A 
HETATM   12  C3  UNL     1     -35.050  17.010  -7.382  1.00 20.00    -0.024 A 
HETATM   13  C10 UNL     1     -34.110  16.172  -6.532  1.00 20.00     0.028 A 
ENDBRANCH   6  10
TORSDOF 3
ENDMDL
MODEL 7
REMARK VINA RESULT:      -4.8      1.543      2.023
REMARK  3 active torsions:
REMARK  status: ('A' for Active; 'I' for Inactive)
REMARK    1  A    between atoms: C6_6  and  C7_7 
REMARK    2  A    between atoms: C8_8  and  C10_10 
REMARK    3  A    between atoms: C9_9  and  C11_11 
ROOT
HETATM    1  C1  UNL     1     -33.654  17.269  -5.947  1.00 20.00    -0.021 C 
HETATM    2  C2  UNL     1     -33.615  17.078  -4.609  1.00 20.00    -0.020 C 
HETATM    3  C5  UNL     1     -34.424  14.946  -6.259  1.00 20.00    -0.003 C 
HETATM    4  C6  UNL     1     -34.388  14.767  -4.927  1.00 20.00     0.024 C 
HETATM    5  C8  UNL     1     -34.679  16.394  -6.676  1.00 20.00     0.039 C 
HETATM    6  C9  UNL     1     -34.604  16.026  -4.099  1.00 20.00     0.056 C 
ENDROOT
BRANCH   4   7
HETATM    7  C7  UNL     1     -34.162  13.412  -4.309  1.00 20.00     0.205 C 
HETATM    8  O12 UNL     1     -35.118  12.589  -4.437  1.00 20.00    -0.644 OA
HETATM    9  O13 UNL     1     -33.044  13.255  -3.736  1.00 20.00    -0.644 OA
ENDBRANCH   4   7
BRANCH   6  10
HETATM   10  C11 UNL     1     -35.996  16.617  -4.495  1.00 20.00     0.029 A 
HETATM   11  C4  UNL     1     -36.588  17.773  -3.706  1.00 20.00    -0.024 A 
HETATM   12  C3  UNL     1     -37.562  17.025  -3.149  1.00 20.00    -0.024 A 
HETATM   13  C10 UNL     1     -37.135  15.745  -3.845  1.00 20.00     0.028 A 
ENDBRANCH   6  10
TORSDOF 3
ENDMDL
MODEL 8
REMARK VINA RESULT:      -4.8      2.043      3.144
REMARK  3 active torsions:
REMARK  status: ('A' for Active; 'I' for Inactive)
REMARK    1  A    between atoms: C6_6  and  C7_7 
REMARK    2  A    between atoms: C8_8  and  C10_10 
REMARK    3  A    between atoms: C9_9  and  C11_11 
ROOT
HETATM    1  C1  UNL     1     -35.969  14.709  -7.429  1.00 20.00    -0.021 C 
HETATM    2  C2  UNL     1     -34.627  14.864  -7.467  1.00 20.00    -0.020 C 
HETATM    3  C5  UNL     1     -35.887  14.575  -4.966  1.00 20.00    -0.003 C 
HETATM    4  C6  UNL     1     -34.552  14.736  -5.013  1.00 20.00     0.024 C 
HETATM    5  C8  UNL     1     -36.623  15.220  -6.141  1.00 20.00     0.039 C 
HETATM    6  C9  UNL     1     -34.036  15.518  -6.214  1.00 20.00     0.056 C 
ENDROOT
BRANCH   4   7
HETATM    7  C7  UNL     1     -33.644  14.188  -3.944  1.00 20.00     0.205 C 
HETATM    8  O12 UNL     1     -32.633  14.901  -3.671  1.00 20.00    -0.644 OA
HETATM    9  O13 UNL     1     -33.998  13.079  -3.445  1.00 20.00    -0.644 OA
ENDBRANCH   4   7
BRANCH   6  10
HETATM   10  C11 UNL     1     -34.717  16.924  -6.188  1.00 20.00     0.029 A 
HETATM   11  C4  UNL     1     -34.344  17.974  -7.221  1.00 20.00    -0.024 A 
HETATM   12  C3  UNL     1     -33.699  18.761  -6.336  1.00 20.00    -0.024 A 
HETATM   13  C10 UNL     1     -33.966  17.846  -5.154  1.00 20.00     0.028 A 
ENDBRANCH   6  10
TORSDOF 3
ENDMDL
MODEL 9
REMARK VINA RESULT:      -4.8      2.334      3.731
REMARK  3 active torsions:
REMARK  status: ('A' for Active; 'I' for Inactive)
REMARK    1  A    between atoms: C6_6  and  C7_7 
REMARK    2  A    between atoms: C8_8  and  C10_10 
REMARK    3  A    between atoms: C9_9  and  C11_11 
ROOT
HETATM    1  C1  UNL     1     -33.434  14.234  -3.445  1.00 20.00    -0.021 C 
HETATM    2  C2  UNL     1     -33.891  15.460  -3.108  1.00 20.00    -0.020 C 
HETATM    3  C5  UNL     1     -35.667  13.634  -4.309  1.00 20.00    -0.003 C 
HETATM    4  C6  UNL     1     -36.112  14.859  -3.976  1.00 20.00     0.024 C 
HETATM    5  C8  UNL     1     -34.172  13.591  -4.624  1.00 20.00     0.039 C 
HETATM    6  C9  UNL     1     -35.054  15.954  -3.976  1.00 20.00     0.056 C 
ENDROOT
BRANCH   4   7
HETATM    7  C7  UNL     1     -37.557  15.120  -3.641  1.00 20.00     0.205 C 
HETATM    8  O12 UNL     1     -38.336  14.132  -3.789  1.00 20.00    -0.644 OA
HETATM    9  O13 UNL     1     -37.822  16.295  -3.252  1.00 20.00    -0.644 OA
ENDBRANCH   4   7
BRANCH   6  10
HETATM   10  C11 UNL     1     -34.434  16.010  -5.409  1.00 20.00     0.029 A 
HETATM   11  C4  UNL     1     -33.460  17.117  -5.779  1.00 20.00    -0.024 A 
HETATM   12  C3  UNL     1     -34.323  17.736  -6.609  1.00 20.00    -0.024 A 
HETATM   13  C10 UNL     1     -35.440  16.733  -6.382  1.00 20.00     0.028 A 
ENDBRANCH   6  10
TORSDOF 3
ENDMDL
