MODEL 1
REMARK VINA RESULT:      -5.9      0.000      0.000
REMARK  0 active torsions:
REMARK  status: ('A' for Active; 'I' for Inactive)
ROOT
HETATM    1  C1  UNL     1     -34.450  13.464  -4.153  1.00 20.00     0.064 C 
HETATM    2  C2  UNL     1     -36.040  16.086  -5.684  1.00 20.00    -0.030 C 
HETATM    3  C3  UNL     1     -36.853  15.762  -4.674  1.00 20.00    -0.030 C 
HETATM    4  C4  UNL     1     -34.570  16.318  -5.573  1.00 20.00     0.037 C 
HETATM    5  C5  UNL     1     -36.463  15.597  -3.241  1.00 20.00     0.038 C 
HETATM    6  C6  UNL     1     -33.629  18.315  -2.358  1.00 20.00     0.001 C 
HETATM    7  C7  UNL     1     -34.737  17.757  -1.474  1.00 20.00     0.001 C 
HETATM    8  C8  UNL     1     -33.872  17.988  -3.825  1.00 20.00     0.011 C 
HETATM    9  C9  UNL     1     -34.729  16.236  -1.530  1.00 20.00     0.012 C 
HETATM   10  C10 UNL     1     -32.954  15.495  -3.784  1.00 20.00     0.030 C 
HETATM   11  C11 UNL     1     -34.005  14.490  -3.228  1.00 20.00     0.103 C 
HETATM   12  C12 UNL     1     -34.116  16.495  -4.102  1.00 20.00    -0.027 C 
HETATM   13  C13 UNL     1     -34.954  15.731  -2.984  1.00 20.00    -0.013 C 
HETATM   14  N14 UNL     1     -34.806  12.644  -4.892  1.00 20.00    -0.197 NA
ENDROOT
TORSDOF 0
ENDMDL
MODEL 2
REMARK VINA RESULT:      -5.5      1.999      3.653
REMARK  0 active torsions:
REMARK  status: ('A' for Active; 'I' for Inactive)
ROOT
HETATM    1  C1  UNL     1     -34.353  16.316  -1.631  1.00 20.00     0.064 C 
HETATM    2  C2  UNL     1     -37.323  16.569  -3.322  1.00 20.00    -0.030 C 
HETATM    3  C3  UNL     1     -36.680  17.700  -3.630  1.00 20.00    -0.030 C 
HETATM    4  C4  UNL     1     -36.750  15.194  -3.412  1.00 20.00     0.037 C 
HETATM    5  C5  UNL     1     -35.284  17.811  -4.148  1.00 20.00     0.038 C 
HETATM    6  C6  UNL     1     -34.573  14.708  -6.610  1.00 20.00     0.001 C 
HETATM    7  C7  UNL     1     -34.052  16.138  -6.687  1.00 20.00     0.001 C 
HETATM    8  C8  UNL     1     -35.736  14.592  -5.634  1.00 20.00     0.011 C 
HETATM    9  C9  UNL     1     -33.463  16.548  -5.345  1.00 20.00     0.012 C 
HETATM   10  C10 UNL     1     -34.306  14.479  -3.398  1.00 20.00     0.030 C 
HETATM   11  C11 UNL     1     -33.846  15.888  -2.922  1.00 20.00     0.103 C 
HETATM   12  C12 UNL     1     -35.439  15.161  -4.236  1.00 20.00    -0.027 C 
HETATM   13  C13 UNL     1     -34.534  16.471  -4.220  1.00 20.00    -0.013 C 
HETATM   14  N14 UNL     1     -34.759  16.658  -0.599  1.00 20.00    -0.197 NA
ENDROOT
TORSDOF 0
ENDMDL
MODEL 3
REMARK VINA RESULT:      -5.5      1.402      3.328
REMARK  0 active torsions:
REMARK  status: ('A' for Active; 'I' for Inactive)
ROOT
HETATM    1  C1  UNL     1     -34.902  13.645  -5.193  1.00 20.00     0.064 C 
HETATM    2  C2  UNL     1     -34.694  15.712  -2.468  1.00 20.00    -0.030 C 
HETATM    3  C3  UNL     1     -33.487  15.806  -3.036  1.00 20.00    -0.030 C 
HETATM    4  C4  UNL     1     -35.999  15.860  -3.176  1.00 20.00     0.037 C 
HETATM    5  C5  UNL     1     -33.207  16.103  -4.473  1.00 20.00     0.038 C 
HETATM    6  C6  UNL     1     -35.939  18.742  -5.801  1.00 20.00     0.001 C 
HETATM    7  C7  UNL     1     -34.473  18.596  -6.189  1.00 20.00     0.001 C 
HETATM    8  C8  UNL     1     -36.258  17.962  -4.533  1.00 20.00     0.011 C 
HETATM    9  C9  UNL     1     -34.174  17.148  -6.550  1.00 20.00     0.012 C 
HETATM   10  C10 UNL     1     -36.514  15.566  -5.653  1.00 20.00     0.030 C 
HETATM   11  C11 UNL     1     -35.137  14.886  -5.908  1.00 20.00     0.103 C 
HETATM   12  C12 UNL     1     -35.833  16.485  -4.583  1.00 20.00    -0.027 C 
HETATM   13  C13 UNL     1     -34.465  16.203  -5.349  1.00 20.00    -0.013 C 
HETATM   14  N14 UNL     1     -34.715  12.653  -4.621  1.00 20.00    -0.197 NA
ENDROOT
TORSDOF 0
ENDMDL
MODEL 4
REMARK VINA RESULT:      -5.4      2.216      3.912
REMARK  0 active torsions:
REMARK  status: ('A' for Active; 'I' for Inactive)
ROOT
HETATM    1  C1  UNL     1     -33.637  17.953  -2.256  1.00 20.00     0.064 C 
HETATM    2  C2  UNL     1     -35.298  17.960  -5.253  1.00 20.00    -0.030 C 
HETATM    3  C3  UNL     1     -34.034  17.678  -5.586  1.00 20.00    -0.030 C 
HETATM    4  C4  UNL     1     -36.086  17.278  -4.186  1.00 20.00     0.037 C 
HETATM    5  C5  UNL     1     -33.177  16.615  -4.982  1.00 20.00     0.038 C 
HETATM    6  C6  UNL     1     -35.481  13.426  -4.134  1.00 20.00     0.001 C 
HETATM    7  C7  UNL     1     -34.028  13.470  -4.588  1.00 20.00     0.001 C 
HETATM    8  C8  UNL     1     -36.169  14.768  -4.343  1.00 20.00     0.011 C 
HETATM    9  C9  UNL     1     -33.241  14.438  -3.715  1.00 20.00     0.012 C 
HETATM   10  C10 UNL     1     -35.244  15.976  -2.165  1.00 20.00     0.030 C 
HETATM   11  C11 UNL     1     -33.796  16.515  -2.360  1.00 20.00     0.103 C 
HETATM   12  C12 UNL     1     -35.420  15.959  -3.720  1.00 20.00    -0.027 C 
HETATM   13  C13 UNL     1     -33.832  15.875  -3.805  1.00 20.00    -0.013 C 
HETATM   14  N14 UNL     1     -33.510  19.103  -2.173  1.00 20.00    -0.197 NA
ENDROOT
TORSDOF 0
ENDMDL
MODEL 5
REMARK VINA RESULT:      -5.4      1.851      3.852
REMARK  0 active torsions:
REMARK  status: ('A' for Active; 'I' for Inactive)
ROOT
HETATM    1  C1  UNL     1     -35.268  16.442  -2.213  1.00 20.00     0.064 C 
HETATM    2  C2  UNL     1     -32.891  14.566  -3.816  1.00 20.00    -0.030 C 
HETATM    3  C3  UNL     1     -33.901  13.711  -3.627  1.00 20.00    -0.030 C 
HETATM    4  C4  UNL     1     -33.009  15.931  -4.407  1.00 20.00     0.037 C 
HETATM    5  C5  UNL     1     -35.331  13.937  -3.991  1.00 20.00     0.038 C 
HETATM    6  C6  UNL     1     -35.471  16.023  -7.430  1.00 20.00     0.001 C 
HETATM    7  C7  UNL     1     -36.419  14.946  -6.917  1.00 20.00     0.001 C 
HETATM    8  C8  UNL     1     -34.172  16.044  -6.635  1.00 20.00     0.011 C 
HETATM    9  C9  UNL     1     -36.851  15.270  -5.494  1.00 20.00     0.012 C 
HETATM   10  C10 UNL     1     -35.060  17.434  -4.552  1.00 20.00     0.030 C 
HETATM   11  C11 UNL     1     -35.843  16.546  -3.542  1.00 20.00     0.103 C 
HETATM   12  C12 UNL     1     -34.371  16.145  -5.113  1.00 20.00    -0.027 C 
HETATM   13  C13 UNL     1     -35.623  15.342  -4.542  1.00 20.00    -0.013 C 
HETATM   14  N14 UNL     1     -34.809  16.358  -1.152  1.00 20.00    -0.197 NA
ENDROOT
TORSDOF 0
ENDMDL
MODEL 6
REMARK VINA RESULT:      -5.4      1.188      1.512
REMARK  0 active torsions:
REMARK  status: ('A' for Active; 'I' for Inactive)
ROOT
HETATM    1  C1  UNL     1     -34.703  13.761  -4.036  1.00 20.00     0.064 C 
HETATM    2  C2  UNL     1     -35.491  15.387  -6.947  1.00 20.00    -0.030 C 
HETATM    3  C3  UNL     1     -36.558  15.589  -6.168  1.00 20.00    -0.030 C 
HETATM    4  C4  UNL     1     -34.072  15.619  -6.551  1.00 20.00     0.037 C 
HETATM    5  C5  UNL     1     -36.545  16.108  -4.767  1.00 20.00     0.038 C 
HETATM    6  C6  UNL     1     -33.638  18.873  -4.445  1.00 20.00     0.001 C 
HETATM    7  C7  UNL     1     -34.993  18.813  -3.750  1.00 20.00     0.001 C 
HETATM    8  C8  UNL     1     -33.572  17.901  -5.615  1.00 20.00     0.011 C 
HETATM    9  C9  UNL     1     -35.191  17.443  -3.116  1.00 20.00     0.012 C 
HETATM   10  C10 UNL     1     -33.060  15.702  -4.215  1.00 20.00     0.030 C 
HETATM   11  C11 UNL     1     -34.346  15.093  -3.583  1.00 20.00     0.103 C 
HETATM   12  C12 UNL     1     -33.957  16.456  -5.252  1.00 20.00    -0.027 C 
HETATM   13  C13 UNL     1     -35.137  16.320  -4.191  1.00 20.00    -0.013 C 
HETATM   14  N14 UNL     1     -34.989  12.697  -4.397  1.00 20.00    -0.197 NA
ENDROOT
TORSDOF 0
ENDMDL
MODEL 7
REMARK VINA RESULT:      -5.4      1.787      3.505
REMARK  0 active torsions:
REMARK  status: ('A' for Active; 'I' for Inactive)
ROOT
HETATM    1  C1  UNL     1     -37.676  15.043  -4.240  1.00 20.00     0.064 C 
HETATM    2  C2  UNL     1     -34.523  13.785  -3.772  1.00 20.00    -0.030 C 
HETATM    3  C3  UNL     1     -34.811  13.468  -5.038  1.00 20.00    -0.030 C 
HETATM    4  C4  UNL     1     -34.676  15.137  -3.160  1.00 20.00     0.037 C 
HETATM    5  C5  UNL     1     -35.311  14.402  -6.092  1.00 20.00     0.038 C 
HETATM    6  C6  UNL     1     -33.555  17.986  -5.575  1.00 20.00     0.001 C 
HETATM    7  C7  UNL     1     -33.973  17.296  -6.867  1.00 20.00     0.001 C 
HETATM    8  C8  UNL     1     -33.553  17.015  -4.402  1.00 20.00     0.011 C 
HETATM    9  C9  UNL     1     -35.417  16.828  -6.761  1.00 20.00     0.012 C 
HETATM   10  C10 UNL     1     -36.162  17.067  -3.903  1.00 20.00     0.030 C 
HETATM   11  C11 UNL     1     -36.964  16.142  -4.866  1.00 20.00     0.103 C 
HETATM   12  C12 UNL     1     -34.872  16.242  -4.228  1.00 20.00    -0.027 C 
HETATM   13  C13 UNL     1     -35.593  15.825  -5.585  1.00 20.00    -0.013 C 
HETATM   14  N14 UNL     1     -38.245  14.165  -3.740  1.00 20.00    -0.197 NA
ENDROOT
TORSDOF 0
ENDMDL
MODEL 8
REMARK VINA RESULT:      -5.3      2.114      3.123
REMARK  0 active torsions:
REMARK  status: ('A' for Active; 'I' for Inactive)
ROOT
HETATM    1  C1  UNL     1     -36.593  14.994  -7.239  1.00 20.00     0.064 C 
HETATM    2  C2  UNL     1     -36.858  16.836  -4.362  1.00 20.00    -0.030 C 
HETATM    3  C3  UNL     1     -37.276  15.618  -4.003  1.00 20.00    -0.030 C 
HETATM    4  C4  UNL     1     -35.596  17.138  -5.097  1.00 20.00     0.037 C 
HETATM    5  C5  UNL     1     -36.556  14.331  -4.240  1.00 20.00     0.038 C 
HETATM    6  C6  UNL     1     -32.602  14.974  -3.847  1.00 20.00     0.001 C 
HETATM    7  C7  UNL     1     -33.416  13.735  -3.495  1.00 20.00     0.001 C 
HETATM    8  C8  UNL     1     -33.502  16.180  -4.085  1.00 20.00     0.011 C 
HETATM    9  C9  UNL     1     -34.285  13.333  -4.679  1.00 20.00     0.012 C 
HETATM   10  C10 UNL     1     -34.206  15.603  -6.581  1.00 20.00     0.030 C 
HETATM   11  C11 UNL     1     -35.348  14.547  -6.641  1.00 20.00     0.103 C 
HETATM   12  C12 UNL     1     -34.623  15.933  -5.108  1.00 20.00    -0.027 C 
HETATM   13  C13 UNL     1     -35.267  14.476  -5.064  1.00 20.00    -0.013 C 
HETATM   14  N14 UNL     1     -37.587  15.352  -7.717  1.00 20.00    -0.197 NA
ENDROOT
TORSDOF 0
ENDMDL
MODEL 9
REMARK VINA RESULT:      -5.3      1.152      1.588
REMARK  0 active torsions:
REMARK  status: ('A' for Active; 'I' for Inactive)
ROOT
HETATM    1  C1  UNL     1     -34.884  13.822  -3.881  1.00 20.00     0.064 C 
HETATM    2  C2  UNL     1     -34.096  16.001  -6.405  1.00 20.00    -0.030 C 
HETATM    3  C3  UNL     1     -35.432  15.957  -6.424  1.00 20.00    -0.030 C 
HETATM    4  C4  UNL     1     -33.253  16.228  -5.195  1.00 20.00     0.037 C 
HETATM    5  C5  UNL     1     -36.341  16.151  -5.254  1.00 20.00     0.038 C 
HETATM    6  C6  UNL     1     -34.751  18.953  -2.841  1.00 20.00     0.001 C 
HETATM    7  C7  UNL     1     -36.215  18.655  -3.138  1.00 20.00     0.001 C 
HETATM    8  C8  UNL     1     -33.832  18.272  -3.846  1.00 20.00     0.011 C 
HETATM    9  C9  UNL     1     -36.490  17.169  -2.955  1.00 20.00     0.012 C 
HETATM   10  C10 UNL     1     -33.843  15.853  -2.746  1.00 20.00     0.030 C 
HETATM   11  C11 UNL     1     -35.115  15.040  -3.126  1.00 20.00     0.103 C 
HETATM   12  C12 UNL     1     -34.081  16.761  -3.999  1.00 20.00    -0.027 C 
HETATM   13  C13 UNL     1     -35.608  16.318  -3.914  1.00 20.00    -0.013 C 
HETATM   14  N14 UNL     1     -34.700  12.849  -4.485  1.00 20.00    -0.197 NA
ENDROOT
TORSDOF 0
ENDMDL
