MODEL 1
REMARK VINA RESULT:      -4.2      0.000      0.000
REMARK  3 active torsions:
REMARK  status: ('A' for Active; 'I' for Inactive)
REMARK    1  A    between atoms: C3_3  and  C7_7 
REMARK    2  A    between atoms: C6_6  and  N9_9 
REMARK    3  A    between atoms: C7_7  and  N9_9 
ROOT
HETATM    1  C1  UNL     1     -33.937  13.506  -4.119  1.00 20.00     0.089 C 
HETATM    2  C6  UNL     1     -32.837  14.342  -3.640  1.00 20.00     0.395 C 
HETATM    3  N8  UNL     1     -34.808  12.841  -4.500  1.00 20.00    -0.195 NA
ENDROOT
BRANCH   2   4
HETATM    4  N9  UNL     1     -33.265  15.742  -3.497  1.00 20.00     0.100 N 
HETATM    5  C5  UNL     1     -33.581  16.296  -4.824  1.00 20.00     0.311 C 
BRANCH   4   6
HETATM    6  C7  UNL     1     -34.381  15.859  -2.600  1.00 20.00     0.300 C 
BRANCH   6   7
HETATM    7  C3  UNL     1     -34.027  16.800  -1.495  1.00 20.00    -0.002 C 
HETATM    8  C2  UNL     1     -34.772  16.967  -0.393  1.00 20.00    -0.033 C 
HETATM    9  C4  UNL     1     -34.419  17.900   0.717  1.00 20.00     0.036 C 
ENDBRANCH   6   7
ENDBRANCH   4   6
ENDBRANCH   2   4
TORSDOF 3
ENDMDL
MODEL 2
REMARK VINA RESULT:      -4.1      1.926      2.331
REMARK  3 active torsions:
REMARK  status: ('A' for Active; 'I' for Inactive)
REMARK    1  A    between atoms: C3_3  and  C7_7 
REMARK    2  A    between atoms: C6_6  and  N9_9 
REMARK    3  A    between atoms: C7_7  and  N9_9 
ROOT
HETATM    1  C1  UNL     1     -37.048  14.794  -3.926  1.00 20.00     0.089 C 
HETATM    2  C6  UNL     1     -35.758  15.430  -4.188  1.00 20.00     0.395 C 
HETATM    3  N8  UNL     1     -38.073  14.291  -3.720  1.00 20.00    -0.195 NA
ENDROOT
BRANCH   2   4
HETATM    4  N9  UNL     1     -34.735  14.951  -3.245  1.00 20.00     0.100 N 
HETATM    5  C5  UNL     1     -34.265  13.622  -3.667  1.00 20.00     0.311 C 
BRANCH   4   6
HETATM    6  C7  UNL     1     -33.648  15.882  -3.134  1.00 20.00     0.300 C 
BRANCH   6   7
HETATM    7  C3  UNL     1     -33.916  16.819  -2.002  1.00 20.00    -0.002 C 
HETATM    8  C2  UNL     1     -34.624  16.486  -0.913  1.00 20.00    -0.033 C 
HETATM    9  C4  UNL     1     -34.890  17.417   0.224  1.00 20.00     0.036 C 
ENDBRANCH   6   7
ENDBRANCH   4   6
ENDBRANCH   2   4
TORSDOF 3
ENDMDL
MODEL 3
REMARK VINA RESULT:      -4.0     10.859     11.831
REMARK  3 active torsions:
REMARK  status: ('A' for Active; 'I' for Inactive)
REMARK    1  A    between atoms: C3_3  and  C7_7 
REMARK    2  A    between atoms: C6_6  and  N9_9 
REMARK    3  A    between atoms: C7_7  and  N9_9 
ROOT
HETATM    1  C1  UNL     1     -35.038   4.517   4.651  1.00 20.00     0.089 C 
HETATM    2  C6  UNL     1     -34.945   5.735   3.848  1.00 20.00     0.395 C 
HETATM    3  N8  UNL     1     -35.115   3.550   5.288  1.00 20.00    -0.195 NA
ENDROOT
BRANCH   2   4
HETATM    4  N9  UNL     1     -33.851   6.596   4.325  1.00 20.00     0.100 N 
HETATM    5  C5  UNL     1     -33.815   6.571   5.797  1.00 20.00     0.311 C 
BRANCH   4   6
HETATM    6  C7  UNL     1     -32.591   6.202   3.762  1.00 20.00     0.300 C 
BRANCH   6   7
HETATM    7  C3  UNL     1     -32.401   6.891   2.451  1.00 20.00    -0.002 C 
HETATM    8  C2  UNL     1     -32.162   8.205   2.328  1.00 20.00    -0.033 C 
HETATM    9  C4  UNL     1     -31.965   8.897   1.020  1.00 20.00     0.036 C 
ENDBRANCH   6   7
ENDBRANCH   4   6
ENDBRANCH   2   4
TORSDOF 3
ENDMDL
MODEL 4
REMARK VINA RESULT:      -4.0      1.188      1.429
REMARK  3 active torsions:
REMARK  status: ('A' for Active; 'I' for Inactive)
REMARK    1  A    between atoms: C3_3  and  C7_7 
REMARK    2  A    between atoms: C6_6  and  N9_9 
REMARK    3  A    between atoms: C7_7  and  N9_9 
ROOT
HETATM    1  C1  UNL     1     -34.632  13.777  -4.879  1.00 20.00     0.089 C 
HETATM    2  C6  UNL     1     -34.272  15.128  -5.306  1.00 20.00     0.395 C 
HETATM    3  N8  UNL     1     -34.918  12.704  -4.542  1.00 20.00    -0.195 NA
ENDROOT
BRANCH   2   4
HETATM    4  N9  UNL     1     -34.563  16.108  -4.248  1.00 20.00     0.100 N 
HETATM    5  C5  UNL     1     -36.011  16.129  -3.985  1.00 20.00     0.311 C 
BRANCH   4   6
HETATM    6  C7  UNL     1     -33.816  15.827  -3.054  1.00 20.00     0.300 C 
BRANCH   6   7
HETATM    7  C3  UNL     1     -34.635  16.203  -1.862  1.00 20.00    -0.002 C 
HETATM    8  C2  UNL     1     -34.191  16.993  -0.874  1.00 20.00    -0.033 C 
HETATM    9  C4  UNL     1     -35.008  17.376   0.315  1.00 20.00     0.036 C 
ENDBRANCH   6   7
ENDBRANCH   4   6
ENDBRANCH   2   4
TORSDOF 3
ENDMDL
MODEL 5
REMARK VINA RESULT:      -4.0     10.657     11.620
REMARK  3 active torsions:
REMARK  status: ('A' for Active; 'I' for Inactive)
REMARK    1  A    between atoms: C3_3  and  C7_7 
REMARK    2  A    between atoms: C6_6  and  N9_9 
REMARK    3  A    between atoms: C7_7  and  N9_9 
ROOT
HETATM    1  C1  UNL     1     -34.595   5.323   5.758  1.00 20.00     0.089 C 
HETATM    2  C6  UNL     1     -33.774   6.278   5.015  1.00 20.00     0.395 C 
HETATM    3  N8  UNL     1     -35.245   4.567   6.351  1.00 20.00    -0.195 NA
ENDROOT
BRANCH   2   4
HETATM    4  N9  UNL     1     -33.212   5.657   3.805  1.00 20.00     0.100 N 
HETATM    5  C5  UNL     1     -34.268   5.519   2.790  1.00 20.00     0.311 C 
BRANCH   4   6
HETATM    6  C7  UNL     1     -32.095   6.406   3.303  1.00 20.00     0.300 C 
BRANCH   6   7
HETATM    7  C3  UNL     1     -32.594   7.641   2.627  1.00 20.00    -0.002 C 
HETATM    8  C2  UNL     1     -31.883   8.336   1.727  1.00 20.00    -0.033 C 
HETATM    9  C4  UNL     1     -32.380   9.567   1.045  1.00 20.00     0.036 C 
ENDBRANCH   6   7
ENDBRANCH   4   6
ENDBRANCH   2   4
TORSDOF 3
ENDMDL
MODEL 6
REMARK VINA RESULT:      -3.9      1.463      1.818
REMARK  3 active torsions:
REMARK  status: ('A' for Active; 'I' for Inactive)
REMARK    1  A    between atoms: C3_3  and  C7_7 
REMARK    2  A    between atoms: C6_6  and  N9_9 
REMARK    3  A    between atoms: C7_7  and  N9_9 
ROOT
HETATM    1  C1  UNL     1     -34.795  14.093  -5.736  1.00 20.00     0.089 C 
HETATM    2  C6  UNL     1     -34.703  13.287  -4.519  1.00 20.00     0.395 C 
HETATM    3  N8  UNL     1     -34.868  14.731  -6.703  1.00 20.00    -0.195 NA
ENDROOT
BRANCH   2   4
HETATM    4  N9  UNL     1     -34.198  14.090  -3.394  1.00 20.00     0.100 N 
HETATM    5  C5  UNL     1     -32.871  14.629  -3.734  1.00 20.00     0.311 C 
BRANCH   4   6
HETATM    6  C7  UNL     1     -35.117  15.137  -3.045  1.00 20.00     0.300 C 
BRANCH   6   7
HETATM    7  C3  UNL     1     -34.389  16.196  -2.282  1.00 20.00    -0.002 C 
HETATM    8  C2  UNL     1     -34.725  16.584  -1.044  1.00 20.00    -0.033 C 
HETATM    9  C4  UNL     1     -33.997  17.637  -0.276  1.00 20.00     0.036 C 
ENDBRANCH   6   7
ENDBRANCH   4   6
ENDBRANCH   2   4
TORSDOF 3
ENDMDL
MODEL 7
REMARK VINA RESULT:      -3.7     10.550     11.364
REMARK  3 active torsions:
REMARK  status: ('A' for Active; 'I' for Inactive)
REMARK    1  A    between atoms: C3_3  and  C7_7 
REMARK    2  A    between atoms: C6_6  and  N9_9 
REMARK    3  A    between atoms: C7_7  and  N9_9 
ROOT
HETATM    1  C1  UNL     1     -32.158   8.775   1.690  1.00 20.00     0.089 C 
HETATM    2  C6  UNL     1     -31.848   7.868   2.793  1.00 20.00     0.395 C 
HETATM    3  N8  UNL     1     -32.402   9.498   0.815  1.00 20.00    -0.195 NA
ENDROOT
BRANCH   2   4
HETATM    4  N9  UNL     1     -32.846   6.790   2.882  1.00 20.00     0.100 N 
HETATM    5  C5  UNL     1     -32.157   5.493   2.988  1.00 20.00     0.311 C 
BRANCH   4   6
HETATM    6  C7  UNL     1     -33.746   6.998   3.981  1.00 20.00     0.300 C 
BRANCH   6   7
HETATM    7  C3  UNL     1     -34.293   5.681   4.425  1.00 20.00    -0.002 C 
HETATM    8  C2  UNL     1     -34.618   5.401   5.696  1.00 20.00    -0.033 C 
HETATM    9  C4  UNL     1     -35.170   4.089   6.143  1.00 20.00     0.036 C 
ENDBRANCH   6   7
ENDBRANCH   4   6
ENDBRANCH   2   4
TORSDOF 3
ENDMDL
MODEL 8
REMARK VINA RESULT:      -3.6     10.985     11.991
REMARK  3 active torsions:
REMARK  status: ('A' for Active; 'I' for Inactive)
REMARK    1  A    between atoms: C3_3  and  C7_7 
REMARK    2  A    between atoms: C6_6  and  N9_9 
REMARK    3  A    between atoms: C7_7  and  N9_9 
ROOT
HETATM    1  C1  UNL     1     -34.072   6.422   6.352  1.00 20.00     0.089 C 
HETATM    2  C6  UNL     1     -34.539   5.265   5.591  1.00 20.00     0.395 C 
HETATM    3  N8  UNL     1     -33.703   7.341   6.958  1.00 20.00    -0.195 NA
ENDROOT
BRANCH   2   4
HETATM    4  N9  UNL     1     -34.010   5.290   4.219  1.00 20.00     0.100 N 
HETATM    5  C5  UNL     1     -35.063   5.745   3.296  1.00 20.00     0.311 C 
BRANCH   4   6
HETATM    6  C7  UNL     1     -32.838   6.114   4.125  1.00 20.00     0.300 C 
BRANCH   6   7
HETATM    7  C3  UNL     1     -32.870   6.871   2.838  1.00 20.00    -0.002 C 
HETATM    8  C2  UNL     1     -32.026   7.869   2.540  1.00 20.00    -0.033 C 
HETATM    9  C4  UNL     1     -32.051   8.625   1.253  1.00 20.00     0.036 C 
ENDBRANCH   6   7
ENDBRANCH   4   6
ENDBRANCH   2   4
TORSDOF 3
ENDMDL
MODEL 9
REMARK VINA RESULT:      -3.5      1.603      3.065
REMARK  3 active torsions:
REMARK  status: ('A' for Active; 'I' for Inactive)
REMARK    1  A    between atoms: C3_3  and  C7_7 
REMARK    2  A    between atoms: C6_6  and  N9_9 
REMARK    3  A    between atoms: C7_7  and  N9_9 
ROOT
HETATM    1  C1  UNL     1     -33.748  17.360  -5.691  1.00 20.00     0.089 C 
HETATM    2  C6  UNL     1     -33.976  15.968  -6.077  1.00 20.00     0.395 C 
HETATM    3  N8  UNL     1     -33.566  18.465  -5.387  1.00 20.00    -0.195 NA
ENDROOT
BRANCH   2   4
HETATM    4  N9  UNL     1     -34.522  15.194  -4.952  1.00 20.00     0.100 N 
HETATM    5  C5  UNL     1     -34.882  13.844  -5.415  1.00 20.00     0.311 C 
BRANCH   4   6
HETATM    6  C7  UNL     1     -33.600  15.144  -3.853  1.00 20.00     0.300 C 
BRANCH   6   7
HETATM    7  C3  UNL     1     -34.319  15.488  -2.590  1.00 20.00    -0.002 C 
HETATM    8  C2  UNL     1     -34.030  16.559  -1.838  1.00 20.00    -0.033 C 
HETATM    9  C4  UNL     1     -34.750  16.910  -0.578  1.00 20.00     0.036 C 
ENDBRANCH   6   7
ENDBRANCH   4   6
ENDBRANCH   2   4
TORSDOF 3
ENDMDL
