MODEL 1
REMARK VINA RESULT:      -5.1      0.000      0.000
REMARK  1 active torsions:
REMARK  status: ('A' for Active; 'I' for Inactive)
REMARK    1  A    between atoms: C3_3  and  C7_7 
ROOT
HETATM    1  C1  UNL     1     -34.027   6.393   6.036  1.00 20.00     0.259 C 
HETATM    2  C4  UNL     1     -34.845   5.144   5.836  1.00 20.00     0.111 C 
HETATM    3  C5  UNL     1     -35.338   4.934   4.419  1.00 20.00     0.013 C 
HETATM    4  C6  UNL     1     -34.183   5.111   3.453  1.00 20.00     0.037 C 
HETATM    5  C7  UNL     1     -33.641   6.522   3.612  1.00 20.00     0.154 C 
HETATM    6  O8  UNL     1     -33.932   6.921   7.141  1.00 20.00    -0.265 OA
HETATM    7  O9  UNL     1     -33.301   6.836   4.981  1.00 20.00    -0.312 OA
ENDROOT
BRANCH   5   8
HETATM    8  C3  UNL     1     -32.419   6.724   2.778  1.00 20.00    -0.005 C 
HETATM    9  C2  UNL     1     -32.035   7.907   2.287  1.00 20.00     0.009 C 
ENDBRANCH   5   8
TORSDOF 1
ENDMDL
MODEL 2
REMARK VINA RESULT:      -4.5     11.723     12.153
REMARK  1 active torsions:
REMARK  status: ('A' for Active; 'I' for Inactive)
REMARK    1  A    between atoms: C3_3  and  C7_7 
ROOT
HETATM    1  C1  UNL     1     -36.363  14.417  -3.729  1.00 20.00     0.259 C 
HETATM    2  C4  UNL     1     -35.436  13.452  -4.421  1.00 20.00     0.111 C 
HETATM    3  C5  UNL     1     -34.091  14.034  -4.801  1.00 20.00     0.013 C 
HETATM    4  C6  UNL     1     -33.497  14.753  -3.606  1.00 20.00     0.037 C 
HETATM    5  C7  UNL     1     -34.450  15.865  -3.199  1.00 20.00     0.154 C 
HETATM    6  O8  UNL     1     -37.581  14.257  -3.751  1.00 20.00    -0.265 OA
HETATM    7  O9  UNL     1     -35.797  15.392  -2.977  1.00 20.00    -0.312 OA
ENDROOT
BRANCH   5   8
HETATM    8  C3  UNL     1     -33.987  16.536  -1.947  1.00 20.00    -0.005 C 
HETATM    9  C2  UNL     1     -34.719  16.625  -0.831  1.00 20.00     0.009 C 
ENDBRANCH   5   8
TORSDOF 1
ENDMDL
MODEL 3
REMARK VINA RESULT:      -4.5      1.640      2.259
REMARK  1 active torsions:
REMARK  status: ('A' for Active; 'I' for Inactive)
REMARK    1  A    between atoms: C3_3  and  C7_7 
ROOT
HETATM    1  C1  UNL     1     -34.747   4.569   5.048  1.00 20.00     0.259 C 
HETATM    2  C4  UNL     1     -34.879   5.453   6.261  1.00 20.00     0.111 C 
HETATM    3  C5  UNL     1     -33.722   6.406   6.474  1.00 20.00     0.013 C 
HETATM    4  C6  UNL     1     -33.420   7.131   5.177  1.00 20.00     0.037 C 
HETATM    5  C7  UNL     1     -33.056   6.094   4.126  1.00 20.00     0.154 C 
HETATM    6  O8  UNL     1     -35.338   3.494   4.977  1.00 20.00    -0.265 OA
HETATM    7  O9  UNL     1     -34.057   5.062   3.991  1.00 20.00    -0.312 OA
ENDROOT
BRANCH   5   8
HETATM    8  C3  UNL     1     -32.869   6.731   2.788  1.00 20.00    -0.005 C 
HETATM    9  C2  UNL     1     -32.146   7.836   2.578  1.00 20.00     0.009 C 
ENDBRANCH   5   8
TORSDOF 1
ENDMDL
MODEL 4
REMARK VINA RESULT:      -4.4     11.662     12.678
REMARK  1 active torsions:
REMARK  status: ('A' for Active; 'I' for Inactive)
REMARK    1  A    between atoms: C3_3  and  C7_7 
ROOT
HETATM    1  C1  UNL     1     -34.792  13.771  -4.402  1.00 20.00     0.259 C 
HETATM    2  C4  UNL     1     -34.486  14.449  -5.712  1.00 20.00     0.111 C 
HETATM    3  C5  UNL     1     -34.730  15.944  -5.719  1.00 20.00     0.013 C 
HETATM    4  C6  UNL     1     -34.077  16.567  -4.501  1.00 20.00     0.037 C 
HETATM    5  C7  UNL     1     -34.693  15.944  -3.259  1.00 20.00     0.154 C 
HETATM    6  O8  UNL     1     -35.063  12.573  -4.354  1.00 20.00    -0.265 OA
HETATM    7  O9  UNL     1     -34.631  14.500  -3.272  1.00 20.00    -0.312 OA
ENDROOT
BRANCH   5   8
HETATM    8  C3  UNL     1     -34.005  16.421  -2.022  1.00 20.00    -0.005 C 
HETATM    9  C2  UNL     1     -34.627  16.652  -0.861  1.00 20.00     0.009 C 
ENDBRANCH   5   8
TORSDOF 1
ENDMDL
MODEL 5
REMARK VINA RESULT:      -4.2     11.997     13.115
REMARK  1 active torsions:
REMARK  status: ('A' for Active; 'I' for Inactive)
REMARK    1  A    between atoms: C3_3  and  C7_7 
ROOT
HETATM    1  C1  UNL     1     -34.297  15.477  -6.056  1.00 20.00     0.259 C 
HETATM    2  C4  UNL     1     -34.931  14.114  -5.946  1.00 20.00     0.111 C 
HETATM    3  C5  UNL     1     -34.443  13.285  -4.777  1.00 20.00     0.013 C 
HETATM    4  C6  UNL     1     -34.488  14.121  -3.513  1.00 20.00     0.037 C 
HETATM    5  C7  UNL     1     -33.586  15.328  -3.708  1.00 20.00     0.154 C 
HETATM    6  O8  UNL     1     -34.245  16.070  -7.130  1.00 20.00    -0.265 OA
HETATM    7  O9  UNL     1     -33.904  16.074  -4.904  1.00 20.00    -0.312 OA
ENDROOT
BRANCH   5   8
HETATM    8  C3  UNL     1     -33.682  16.263  -2.547  1.00 20.00    -0.005 C 
HETATM    9  C2  UNL     1     -34.679  16.248  -1.655  1.00 20.00     0.009 C 
ENDBRANCH   5   8
TORSDOF 1
ENDMDL
MODEL 6
REMARK VINA RESULT:      -4.1      9.661     10.759
REMARK  1 active torsions:
REMARK  status: ('A' for Active; 'I' for Inactive)
REMARK    1  A    between atoms: C3_3  and  C7_7 
ROOT
HETATM    1  C1  UNL     1     -41.979   6.815  -2.267  1.00 20.00     0.259 C 
HETATM    2  C4  UNL     1     -41.068   7.096  -1.100  1.00 20.00     0.111 C 
HETATM    3  C5  UNL     1     -40.934   5.953  -0.117  1.00 20.00     0.013 C 
HETATM    4  C6  UNL     1     -40.639   4.671  -0.872  1.00 20.00     0.037 C 
HETATM    5  C7  UNL     1     -41.791   4.405  -1.827  1.00 20.00     0.154 C 
HETATM    6  O8  UNL     1     -42.523   7.728  -2.884  1.00 20.00    -0.265 OA
HETATM    7  O9  UNL     1     -42.071   5.531  -2.688  1.00 20.00    -0.312 OA
ENDROOT
BRANCH   5   8
HETATM    8  C3  UNL     1     -41.506   3.224  -2.694  1.00 20.00    -0.005 C 
HETATM    9  C2  UNL     1     -42.423   2.319  -3.053  1.00 20.00     0.009 C 
ENDBRANCH   5   8
TORSDOF 1
ENDMDL
MODEL 7
REMARK VINA RESULT:      -4.0     11.383     12.422
REMARK  1 active torsions:
REMARK  status: ('A' for Active; 'I' for Inactive)
REMARK    1  A    between atoms: C3_3  and  C7_7 
ROOT
HETATM    1  C1  UNL     1     -34.925  13.441  -4.332  1.00 20.00     0.259 C 
HETATM    2  C4  UNL     1     -33.870  13.994  -3.411  1.00 20.00     0.111 C 
HETATM    3  C5  UNL     1     -34.009  15.471  -3.107  1.00 20.00     0.013 C 
HETATM    4  C6  UNL     1     -35.440  15.769  -2.702  1.00 20.00     0.037 C 
HETATM    5  C7  UNL     1     -36.351  15.386  -3.856  1.00 20.00     0.154 C 
HETATM    6  O8  UNL     1     -34.720  12.431  -5.001  1.00 20.00    -0.265 OA
HETATM    7  O9  UNL     1     -36.148  14.025  -4.298  1.00 20.00    -0.312 OA
ENDROOT
BRANCH   5   8
HETATM    8  C3  UNL     1     -37.788  15.535  -3.478  1.00 20.00    -0.005 C 
HETATM    9  C2  UNL     1     -38.775  14.783  -3.975  1.00 20.00     0.009 C 
ENDBRANCH   5   8
TORSDOF 1
ENDMDL
MODEL 8
REMARK VINA RESULT:      -4.0     11.537     13.409
REMARK  1 active torsions:
REMARK  status: ('A' for Active; 'I' for Inactive)
REMARK    1  A    between atoms: C3_3  and  C7_7 
ROOT
HETATM    1  C1  UNL     1     -34.477  13.693  -4.775  1.00 20.00     0.259 C 
HETATM    2  C4  UNL     1     -34.184  14.279  -3.418  1.00 20.00     0.111 C 
HETATM    3  C5  UNL     1     -33.292  15.503  -3.439  1.00 20.00     0.013 C 
HETATM    4  C6  UNL     1     -33.813  16.487  -4.468  1.00 20.00     0.037 C 
HETATM    5  C7  UNL     1     -33.798  15.808  -5.827  1.00 20.00     0.154 C 
HETATM    6  O8  UNL     1     -34.792  12.513  -4.904  1.00 20.00    -0.265 OA
HETATM    7  O9  UNL     1     -34.503  14.547  -5.827  1.00 20.00    -0.312 OA
ENDROOT
BRANCH   5   8
HETATM    8  C3  UNL     1     -34.418  16.680  -6.869  1.00 20.00    -0.005 C 
HETATM    9  C2  UNL     1     -35.212  16.229  -7.847  1.00 20.00     0.009 C 
ENDBRANCH   5   8
TORSDOF 1
ENDMDL
MODEL 9
REMARK VINA RESULT:      -4.0      9.930     10.737
REMARK  1 active torsions:
REMARK  status: ('A' for Active; 'I' for Inactive)
REMARK    1  A    between atoms: C3_3  and  C7_7 
ROOT
HETATM    1  C1  UNL     1     -41.607   4.514  -1.946  1.00 20.00     0.259 C 
HETATM    2  C4  UNL     1     -41.215   4.784  -0.517  1.00 20.00     0.111 C 
HETATM    3  C5  UNL     1     -40.704   6.186  -0.258  1.00 20.00     0.013 C 
HETATM    4  C6  UNL     1     -41.662   7.191  -0.866  1.00 20.00     0.037 C 
HETATM    5  C7  UNL     1     -41.739   6.932  -2.361  1.00 20.00     0.154 C 
HETATM    6  O8  UNL     1     -41.617   3.371  -2.398  1.00 20.00    -0.265 OA
HETATM    7  O9  UNL     1     -42.069   5.560  -2.672  1.00 20.00    -0.312 OA
ENDROOT
BRANCH   5   8
HETATM    8  C3  UNL     1     -42.764   7.807  -3.005  1.00 20.00    -0.005 C 
HETATM    9  C2  UNL     1     -42.733   8.177  -4.290  1.00 20.00     0.009 C 
ENDBRANCH   5   8
TORSDOF 1
ENDMDL
