MODEL 1
REMARK VINA RESULT:      -5.1      0.000      0.000
REMARK  1 active torsions:
REMARK  status: ('A' for Active; 'I' for Inactive)
REMARK    1  A    between atoms: C10_10  and  O12_12 
ROOT
HETATM    1  C1  UNL     1     -34.208  17.460  -5.126  1.00 20.00     0.011 A 
HETATM    2  C2  UNL     1     -34.754  15.909  -2.235  1.00 20.00     0.013 A 
HETATM    3  C3  UNL     1     -35.870  15.124  -6.811  1.00 20.00     0.013 A 
HETATM    4  C4  UNL     1     -33.298  16.512  -4.393  1.00 20.00    -0.005 A 
HETATM    5  C5  UNL     1     -33.652  16.261  -5.848  1.00 20.00    -0.005 A 
HETATM    6  C6  UNL     1     -33.705  15.570  -3.265  1.00 20.00    -0.003 A 
HETATM    7  C7  UNL     1     -34.448  15.047  -6.313  1.00 20.00    -0.003 A 
HETATM    8  C8  UNL     1     -34.984  14.763  -3.181  1.00 20.00     0.020 A 
HETATM    9  C9  UNL     1     -35.562  14.356  -5.556  1.00 20.00     0.020 A 
HETATM   10  C10 UNL     1     -36.052  14.852  -4.228  1.00 20.00     0.129 C 
ENDROOT
BRANCH  10  11
HETATM   11  O12 UNL     1     -37.158  14.048  -3.811  1.00 20.00    -0.390 OA
HETATM   12  C11 UNL     1     -38.365  14.793  -3.818  1.00 20.00     0.202 C 
ENDBRANCH  10  11
TORSDOF 1
ENDMDL
MODEL 2
REMARK VINA RESULT:      -5.0      1.422      1.813
REMARK  1 active torsions:
REMARK  status: ('A' for Active; 'I' for Inactive)
REMARK    1  A    between atoms: C10_10  and  O12_12 
ROOT
HETATM    1  C1  UNL     1     -33.313  16.350  -4.581  1.00 20.00     0.011 A 
HETATM    2  C2  UNL     1     -35.934  17.084  -2.670  1.00 20.00     0.013 A 
HETATM    3  C3  UNL     1     -34.413  13.250  -5.076  1.00 20.00     0.013 A 
HETATM    4  C4  UNL     1     -33.408  16.315  -3.080  1.00 20.00    -0.005 A 
HETATM    5  C5  UNL     1     -32.924  15.095  -3.844  1.00 20.00    -0.005 A 
HETATM    6  C6  UNL     1     -34.694  16.326  -2.262  1.00 20.00    -0.003 A 
HETATM    7  C7  UNL     1     -33.681  13.772  -3.865  1.00 20.00    -0.003 A 
HETATM    8  C8  UNL     1     -35.974  15.584  -2.585  1.00 20.00     0.020 A 
HETATM    9  C9  UNL     1     -35.184  13.594  -3.832  1.00 20.00     0.020 A 
HETATM   10  C10 UNL     1     -36.126  14.761  -3.828  1.00 20.00     0.129 C 
ENDROOT
BRANCH  10  11
HETATM   11  O12 UNL     1     -37.469  14.274  -3.882  1.00 20.00    -0.390 OA
HETATM   12  C11 UNL     1     -38.247  15.015  -4.808  1.00 20.00     0.202 C 
ENDBRANCH  10  11
TORSDOF 1
ENDMDL
MODEL 3
REMARK VINA RESULT:      -5.0      1.917      4.079
REMARK  1 active torsions:
REMARK  status: ('A' for Active; 'I' for Inactive)
REMARK    1  A    between atoms: C10_10  and  O12_12 
ROOT
HETATM    1  C1  UNL     1     -35.479  13.672  -4.097  1.00 20.00     0.011 A 
HETATM    2  C2  UNL     1     -35.751  15.413  -6.918  1.00 20.00     0.013 A 
HETATM    3  C3  UNL     1     -33.730  16.101  -2.647  1.00 20.00     0.013 A 
HETATM    4  C4  UNL     1     -34.627  13.578  -5.334  1.00 20.00    -0.005 A 
HETATM    5  C5  UNL     1     -33.983  13.796  -3.976  1.00 20.00    -0.005 A 
HETATM    6  C6  UNL     1     -34.562  14.605  -6.459  1.00 20.00    -0.003 A 
HETATM    7  C7  UNL     1     -33.215  15.063  -3.614  1.00 20.00    -0.003 A 
HETATM    8  C8  UNL     1     -34.569  16.111  -6.306  1.00 20.00     0.020 A 
HETATM    9  C9  UNL     1     -33.519  16.468  -4.090  1.00 20.00     0.020 A 
HETATM   10  C10 UNL     1     -34.695  16.776  -4.969  1.00 20.00     0.129 C 
ENDROOT
BRANCH  10  11
HETATM   11  O12 UNL     1     -34.764  18.189  -5.174  1.00 20.00    -0.390 OA
HETATM   12  C11 UNL     1     -33.632  18.659  -5.887  1.00 20.00     0.202 C 
ENDBRANCH  10  11
TORSDOF 1
ENDMDL
MODEL 4
REMARK VINA RESULT:      -4.9     11.988     13.562
REMARK  1 active torsions:
REMARK  status: ('A' for Active; 'I' for Inactive)
REMARK    1  A    between atoms: C10_10  and  O12_12 
ROOT
HETATM    1  C1  UNL     1     -34.401   3.902   5.617  1.00 20.00     0.011 A 
HETATM    2  C2  UNL     1     -33.068   6.708   6.807  1.00 20.00     0.013 A 
HETATM    3  C3  UNL     1     -33.910   4.880   2.476  1.00 20.00     0.013 A 
HETATM    4  C4  UNL     1     -35.110   5.151   6.064  1.00 20.00    -0.005 A 
HETATM    5  C5  UNL     1     -35.378   4.571   4.687  1.00 20.00    -0.005 A 
HETATM    6  C6  UNL     1     -34.470   6.518   6.280  1.00 20.00    -0.003 A 
HETATM    7  C7  UNL     1     -35.030   5.301   3.395  1.00 20.00    -0.003 A 
HETATM    8  C8  UNL     1     -33.406   7.162   5.414  1.00 20.00     0.020 A 
HETATM    9  C9  UNL     1     -33.844   6.214   3.167  1.00 20.00     0.020 A 
HETATM   10  C10 UNL     1     -32.814   6.464   4.228  1.00 20.00     0.129 C 
ENDROOT
BRANCH  10  11
HETATM   11  O12 UNL     1     -31.782   7.293   3.688  1.00 20.00    -0.390 OA
HETATM   12  C11 UNL     1     -32.181   7.872   2.456  1.00 20.00     0.202 C 
ENDBRANCH  10  11
TORSDOF 1
ENDMDL
MODEL 5
REMARK VINA RESULT:      -4.8      1.796      2.774
REMARK  1 active torsions:
REMARK  status: ('A' for Active; 'I' for Inactive)
REMARK    1  A    between atoms: C10_10  and  O12_12 
ROOT
HETATM    1  C1  UNL     1     -35.083  16.441  -3.177  1.00 20.00     0.011 A 
HETATM    2  C2  UNL     1     -35.283  13.260  -4.128  1.00 20.00     0.013 A 
HETATM    3  C3  UNL     1     -34.288  17.418  -6.255  1.00 20.00     0.013 A 
HETATM    4  C4  UNL     1     -34.030  15.371  -3.072  1.00 20.00    -0.005 A 
HETATM    5  C5  UNL     1     -33.712  16.693  -3.748  1.00 20.00    -0.005 A 
HETATM    6  C6  UNL     1     -34.028  14.038  -3.811  1.00 20.00    -0.003 A 
HETATM    7  C7  UNL     1     -33.366  16.808  -5.229  1.00 20.00    -0.003 A 
HETATM    8  C8  UNL     1     -34.443  13.805  -5.249  1.00 20.00     0.020 A 
HETATM    9  C9  UNL     1     -33.925  15.962  -6.353  1.00 20.00     0.020 A 
HETATM   10  C10 UNL     1     -34.966  14.908  -6.117  1.00 20.00     0.129 C 
ENDROOT
BRANCH  10  11
HETATM   11  O12 UNL     1     -35.352  14.347  -7.374  1.00 20.00    -0.390 OA
HETATM   12  C11 UNL     1     -36.582  14.890  -7.823  1.00 20.00     0.202 C 
ENDBRANCH  10  11
TORSDOF 1
ENDMDL
MODEL 6
REMARK VINA RESULT:      -4.8      1.876      3.129
REMARK  1 active torsions:
REMARK  status: ('A' for Active; 'I' for Inactive)
REMARK    1  A    between atoms: C10_10  and  O12_12 
ROOT
HETATM    1  C1  UNL     1     -34.416  15.072  -6.571  1.00 20.00     0.011 A 
HETATM    2  C2  UNL     1     -33.307  13.574  -3.816  1.00 20.00     0.013 A 
HETATM    3  C3  UNL     1     -35.564  17.659  -4.825  1.00 20.00     0.013 A 
HETATM    4  C4  UNL     1     -35.098  14.011  -5.751  1.00 20.00    -0.005 A 
HETATM    5  C5  UNL     1     -35.816  15.309  -6.072  1.00 20.00    -0.005 A 
HETATM    6  C6  UNL     1     -34.726  13.595  -4.332  1.00 20.00    -0.003 A 
HETATM    7  C7  UNL     1     -36.229  16.317  -5.004  1.00 20.00    -0.003 A 
HETATM    8  C8  UNL     1     -34.307  14.515  -3.204  1.00 20.00     0.020 A 
HETATM    9  C9  UNL     1     -35.479  16.634  -3.727  1.00 20.00     0.020 A 
HETATM   10  C10 UNL     1     -34.165  15.995  -3.394  1.00 20.00     0.129 C 
ENDROOT
BRANCH  10  11
HETATM   11  O12 UNL     1     -33.670  16.558  -2.176  1.00 20.00    -0.390 OA
HETATM   12  C11 UNL     1     -34.653  16.515  -1.155  1.00 20.00     0.202 C 
ENDBRANCH  10  11
TORSDOF 1
ENDMDL
MODEL 7
REMARK VINA RESULT:      -4.8      1.802      3.144
REMARK  1 active torsions:
REMARK  status: ('A' for Active; 'I' for Inactive)
REMARK    1  A    between atoms: C10_10  and  O12_12 
ROOT
HETATM    1  C1  UNL     1     -36.102  15.544  -6.410  1.00 20.00     0.011 A 
HETATM    2  C2  UNL     1     -33.869  17.765  -5.341  1.00 20.00     0.013 A 
HETATM    3  C3  UNL     1     -35.229  13.376  -4.043  1.00 20.00     0.013 A 
HETATM    4  C4  UNL     1     -34.710  15.785  -6.926  1.00 20.00    -0.005 A 
HETATM    5  C5  UNL     1     -35.141  14.389  -6.514  1.00 20.00    -0.005 A 
HETATM    6  C6  UNL     1     -33.608  16.560  -6.211  1.00 20.00    -0.003 A 
HETATM    7  C7  UNL     1     -34.515  13.636  -5.346  1.00 20.00    -0.003 A 
HETATM    8  C8  UNL     1     -33.294  16.518  -4.730  1.00 20.00     0.020 A 
HETATM    9  C9  UNL     1     -33.999  14.240  -4.057  1.00 20.00     0.020 A 
HETATM   10  C10 UNL     1     -34.105  15.707  -3.765  1.00 20.00     0.129 C 
ENDROOT
BRANCH  10  11
HETATM   11  O12 UNL     1     -33.613  15.955  -2.446  1.00 20.00    -0.390 OA
HETATM   12  C11 UNL     1     -34.661  16.340  -1.571  1.00 20.00     0.202 C 
ENDBRANCH  10  11
TORSDOF 1
ENDMDL
MODEL 8
REMARK VINA RESULT:      -4.8      2.149      3.262
REMARK  1 active torsions:
REMARK  status: ('A' for Active; 'I' for Inactive)
REMARK    1  A    between atoms: C10_10  and  O12_12 
ROOT
HETATM    1  C1  UNL     1     -33.679  13.490  -4.171  1.00 20.00     0.011 A 
HETATM    2  C2  UNL     1     -33.715  16.339  -2.455  1.00 20.00     0.013 A 
HETATM    3  C3  UNL     1     -34.209  15.090  -7.038  1.00 20.00     0.013 A 
HETATM    4  C4  UNL     1     -34.828  14.112  -3.426  1.00 20.00    -0.005 A 
HETATM    5  C5  UNL     1     -34.987  13.715  -4.883  1.00 20.00    -0.005 A 
HETATM    6  C6  UNL     1     -34.909  15.557  -2.945  1.00 20.00    -0.003 A 
HETATM    7  C7  UNL     1     -35.238  14.725  -5.998  1.00 20.00    -0.003 A 
HETATM    8  C8  UNL     1     -34.438  16.784  -3.696  1.00 20.00     0.020 A 
HETATM    9  C9  UNL     1     -34.695  16.136  -6.074  1.00 20.00     0.020 A 
HETATM   10  C10 UNL     1     -33.769  16.692  -5.034  1.00 20.00     0.129 C 
ENDROOT
BRANCH  10  11
HETATM   11  O12 UNL     1     -33.366  18.006  -5.426  1.00 20.00    -0.390 OA
HETATM   12  C11 UNL     1     -34.340  18.971  -5.064  1.00 20.00     0.202 C 
ENDBRANCH  10  11
TORSDOF 1
ENDMDL
MODEL 9
REMARK VINA RESULT:      -4.6      1.572      2.147
REMARK  1 active torsions:
REMARK  status: ('A' for Active; 'I' for Inactive)
REMARK    1  A    between atoms: C10_10  and  O12_12 
ROOT
HETATM    1  C1  UNL     1     -34.885  18.740  -3.757  1.00 20.00     0.011 A 
HETATM    2  C2  UNL     1     -34.892  16.305  -1.491  1.00 20.00     0.013 A 
HETATM    3  C3  UNL     1     -34.634  16.555  -6.252  1.00 20.00     0.013 A 
HETATM    4  C4  UNL     1     -33.725  18.207  -2.962  1.00 20.00    -0.005 A 
HETATM    5  C5  UNL     1     -33.641  18.286  -4.476  1.00 20.00    -0.005 A 
HETATM    6  C6  UNL     1     -33.691  16.889  -2.195  1.00 20.00    -0.003 A 
HETATM    7  C7  UNL     1     -33.520  17.055  -5.367  1.00 20.00    -0.003 A 
HETATM    8  C8  UNL     1     -34.277  15.568  -2.648  1.00 20.00     0.020 A 
HETATM    9  C9  UNL     1     -34.143  15.698  -5.119  1.00 20.00     0.020 A 
HETATM   10  C10 UNL     1     -35.028  15.430  -3.938  1.00 20.00     0.129 C 
ENDROOT
BRANCH  10  11
HETATM   11  O12 UNL     1     -35.527  14.093  -4.026  1.00 20.00    -0.390 OA
HETATM   12  C11 UNL     1     -34.595  13.238  -4.667  1.00 20.00     0.202 C 
ENDBRANCH  10  11
TORSDOF 1
ENDMDL
