MODEL 1
REMARK VINA RESULT:      -6.2      0.000      0.000
REMARK  0 active torsions:
REMARK  status: ('A' for Active; 'I' for Inactive)
ROOT
HETATM    1  C1  UNL     1     -35.296  14.526  -7.117  1.00 20.00    -0.017 C 
HETATM    2  C2  UNL     1     -35.182  15.890  -7.148  1.00 20.00    -0.019 C 
HETATM    3  C3  UNL     1     -34.487  13.609  -4.715  1.00 20.00     0.136 C 
HETATM    4  C4  UNL     1     -33.759  14.223  -3.517  1.00 20.00     0.083 C 
HETATM    5  C5  UNL     1     -36.140  16.966  -2.569  1.00 20.00     0.000 C 
HETATM    6  C6  UNL     1     -34.998  16.494  -1.677  1.00 20.00     0.000 C 
HETATM    7  C7  UNL     1     -36.672  15.889  -3.518  1.00 20.00     0.001 C 
HETATM    8  C8  UNL     1     -33.606  16.505  -2.309  1.00 20.00     0.005 C 
HETATM    9  C9  UNL     1     -36.453  16.173  -4.998  1.00 20.00     0.014 C 
HETATM   10  C10 UNL     1     -33.913  16.596  -4.867  1.00 20.00     0.019 C 
HETATM   11  C11 UNL     1     -34.392  14.509  -5.919  1.00 20.00     0.090 C 
HETATM   12  C12 UNL     1     -33.403  15.752  -3.639  1.00 20.00    -0.007 C 
HETATM   13  C13 UNL     1     -35.050  15.898  -5.597  1.00 20.00    -0.009 C 
HETATM   14  O14 UNL     1     -35.025  12.505  -4.663  1.00 20.00    -0.297 OA
ENDROOT
TORSDOF 0
ENDMDL
MODEL 2
REMARK VINA RESULT:      -5.6      1.204      3.881
REMARK  0 active torsions:
REMARK  status: ('A' for Active; 'I' for Inactive)
ROOT
HETATM    1  C1  UNL     1     -34.415  15.891  -2.016  1.00 20.00    -0.017 C 
HETATM    2  C2  UNL     1     -35.285  16.851  -2.459  1.00 20.00    -0.019 C 
HETATM    3  C3  UNL     1     -34.180  13.959  -3.880  1.00 20.00     0.136 C 
HETATM    4  C4  UNL     1     -34.933  13.604  -5.165  1.00 20.00     0.083 C 
HETATM    5  C5  UNL     1     -34.415  16.731  -7.178  1.00 20.00     0.000 C 
HETATM    6  C6  UNL     1     -34.934  15.424  -7.766  1.00 20.00     0.000 C 
HETATM    7  C7  UNL     1     -33.520  16.545  -5.950  1.00 20.00     0.001 C 
HETATM    8  C8  UNL     1     -36.164  14.824  -7.085  1.00 20.00     0.005 C 
HETATM    9  C9  UNL     1     -34.086  17.108  -4.653  1.00 20.00     0.014 C 
HETATM   10  C10 UNL     1     -36.361  15.899  -4.749  1.00 20.00     0.019 C 
HETATM   11  C11 UNL     1     -34.952  14.963  -3.066  1.00 20.00     0.090 C 
HETATM   12  C12 UNL     1     -36.106  14.575  -5.564  1.00 20.00    -0.007 C 
HETATM   13  C13 UNL     1     -35.158  16.278  -3.900  1.00 20.00    -0.009 C 
HETATM   14  O14 UNL     1     -33.111  13.434  -3.578  1.00 20.00    -0.297 OA
ENDROOT
TORSDOF 0
ENDMDL
MODEL 3
REMARK VINA RESULT:      -5.6      1.963      4.086
REMARK  0 active torsions:
REMARK  status: ('A' for Active; 'I' for Inactive)
ROOT
HETATM    1  C1  UNL     1     -34.163  17.477  -1.572  1.00 20.00    -0.017 C 
HETATM    2  C2  UNL     1     -34.768  16.303  -1.213  1.00 20.00    -0.019 C 
HETATM    3  C3  UNL     1     -33.552  17.409  -4.196  1.00 20.00     0.136 C 
HETATM    4  C4  UNL     1     -33.533  16.319  -5.270  1.00 20.00     0.083 C 
HETATM    5  C5  UNL     1     -37.131  15.246  -5.255  1.00 20.00     0.000 C 
HETATM    6  C6  UNL     1     -36.139  14.862  -6.348  1.00 20.00     0.000 C 
HETATM    7  C7  UNL     1     -36.802  16.568  -4.558  1.00 20.00     0.001 C 
HETATM    8  C8  UNL     1     -34.854  14.180  -5.878  1.00 20.00     0.005 C 
HETATM    9  C9  UNL     1     -36.441  16.443  -3.083  1.00 20.00     0.014 C 
HETATM   10  C10 UNL     1     -34.589  14.671  -3.361  1.00 20.00     0.019 C 
HETATM   11  C11 UNL     1     -33.672  16.806  -2.822  1.00 20.00     0.090 C 
HETATM   12  C12 UNL     1     -34.002  14.889  -4.806  1.00 20.00    -0.007 C 
HETATM   13  C13 UNL     1     -35.006  15.984  -2.717  1.00 20.00    -0.009 C 
HETATM   14  O14 UNL     1     -33.437  18.602  -4.468  1.00 20.00    -0.297 OA
ENDROOT
TORSDOF 0
ENDMDL
MODEL 4
REMARK VINA RESULT:      -5.5      1.457      1.530
REMARK  0 active torsions:
REMARK  status: ('A' for Active; 'I' for Inactive)
ROOT
HETATM    1  C1  UNL     1     -35.252  14.332  -6.636  1.00 20.00    -0.017 C 
HETATM    2  C2  UNL     1     -34.237  15.203  -6.925  1.00 20.00    -0.019 C 
HETATM    3  C3  UNL     1     -35.795  14.425  -3.998  1.00 20.00     0.136 C 
HETATM    4  C4  UNL     1     -35.107  15.043  -2.777  1.00 20.00     0.083 C 
HETATM    5  C5  UNL     1     -35.106  18.675  -3.726  1.00 20.00     0.000 C 
HETATM    6  C6  UNL     1     -34.804  18.169  -2.320  1.00 20.00     0.000 C 
HETATM    7  C7  UNL     1     -36.021  17.752  -4.534  1.00 20.00     0.001 C 
HETATM    8  C8  UNL     1     -33.690  17.129  -2.206  1.00 20.00     0.005 C 
HETATM    9  C9  UNL     1     -35.374  17.117  -5.758  1.00 20.00     0.014 C 
HETATM   10  C10 UNL     1     -33.325  16.120  -4.550  1.00 20.00     0.019 C 
HETATM   11  C11 UNL     1     -34.871  14.417  -5.187  1.00 20.00     0.090 C 
HETATM   12  C12 UNL     1     -33.790  15.855  -3.069  1.00 20.00    -0.007 C 
HETATM   13  C13 UNL     1     -34.452  15.888  -5.544  1.00 20.00    -0.009 C 
HETATM   14  O14 UNL     1     -36.935  13.970  -3.950  1.00 20.00    -0.297 OA
ENDROOT
TORSDOF 0
ENDMDL
MODEL 5
REMARK VINA RESULT:      -5.4      1.837      4.238
REMARK  0 active torsions:
REMARK  status: ('A' for Active; 'I' for Inactive)
ROOT
HETATM    1  C1  UNL     1     -34.926  17.349  -1.676  1.00 20.00    -0.017 C 
HETATM    2  C2  UNL     1     -33.713  16.731  -1.827  1.00 20.00    -0.019 C 
HETATM    3  C3  UNL     1     -36.184  17.457  -4.056  1.00 20.00     0.136 C 
HETATM    4  C4  UNL     1     -35.772  17.192  -5.506  1.00 20.00     0.083 C 
HETATM    5  C5  UNL     1     -34.744  13.587  -5.304  1.00 20.00     0.000 C 
HETATM    6  C6  UNL     1     -34.978  14.326  -6.617  1.00 20.00     0.000 C 
HETATM    7  C7  UNL     1     -35.553  14.140  -4.129  1.00 20.00     0.001 C 
HETATM    8  C8  UNL     1     -34.185  15.618  -6.809  1.00 20.00     0.005 C 
HETATM    9  C9  UNL     1     -34.722  14.757  -3.011  1.00 20.00     0.014 C 
HETATM   10  C10 UNL     1     -33.368  16.382  -4.486  1.00 20.00     0.019 C 
HETATM   11  C11 UNL     1     -34.976  17.547  -3.163  1.00 20.00     0.090 C 
HETATM   12  C12 UNL     1     -34.289  16.707  -5.721  1.00 20.00    -0.007 C 
HETATM   13  C13 UNL     1     -34.177  16.195  -3.212  1.00 20.00    -0.009 C 
HETATM   14  O14 UNL     1     -37.357  17.612  -3.724  1.00 20.00    -0.297 OA
ENDROOT
TORSDOF 0
ENDMDL
MODEL 6
REMARK VINA RESULT:      -5.4      2.107      3.801
REMARK  0 active torsions:
REMARK  status: ('A' for Active; 'I' for Inactive)
ROOT
HETATM    1  C1  UNL     1     -34.984  19.074  -3.123  1.00 20.00    -0.017 C 
HETATM    2  C2  UNL     1     -35.377  18.314  -2.055  1.00 20.00    -0.019 C 
HETATM    3  C3  UNL     1     -33.612  17.540  -4.863  1.00 20.00     0.136 C 
HETATM    4  C4  UNL     1     -33.017  16.130  -4.820  1.00 20.00     0.083 C 
HETATM    5  C5  UNL     1     -36.098  14.078  -4.194  1.00 20.00     0.000 C 
HETATM    6  C6  UNL     1     -34.763  13.486  -4.630  1.00 20.00     0.000 C 
HETATM    7  C7  UNL     1     -36.313  15.524  -4.650  1.00 20.00     0.001 C 
HETATM    8  C8  UNL     1     -33.558  13.835  -3.758  1.00 20.00     0.005 C 
HETATM    9  C9  UNL     1     -36.394  16.546  -3.523  1.00 20.00     0.014 C 
HETATM   10  C10 UNL     1     -34.185  15.907  -2.357  1.00 20.00     0.019 C 
HETATM   11  C11 UNL     1     -33.997  18.002  -3.482  1.00 20.00     0.090 C 
HETATM   12  C12 UNL     1     -33.258  15.323  -3.489  1.00 20.00    -0.007 C 
HETATM   13  C13 UNL     1     -35.070  17.029  -2.876  1.00 20.00    -0.009 C 
HETATM   14  O14 UNL     1     -33.702  18.184  -5.905  1.00 20.00    -0.297 OA
ENDROOT
TORSDOF 0
ENDMDL
MODEL 7
REMARK VINA RESULT:      -5.4      1.977      3.369
REMARK  0 active torsions:
REMARK  status: ('A' for Active; 'I' for Inactive)
ROOT
HETATM    1  C1  UNL     1     -35.528  18.161  -7.025  1.00 20.00    -0.017 C 
HETATM    2  C2  UNL     1     -34.397  17.597  -7.551  1.00 20.00    -0.019 C 
HETATM    3  C3  UNL     1     -36.672  16.440  -5.296  1.00 20.00     0.136 C 
HETATM    4  C4  UNL     1     -36.469  14.961  -4.954  1.00 20.00     0.083 C 
HETATM    5  C5  UNL     1     -32.891  14.980  -3.819  1.00 20.00     0.000 C 
HETATM    6  C6  UNL     1     -33.844  13.813  -3.588  1.00 20.00     0.000 C 
HETATM    7  C7  UNL     1     -33.588  16.338  -3.923  1.00 20.00     0.001 C 
HETATM    8  C8  UNL     1     -34.531  13.253  -4.833  1.00 20.00     0.005 C 
HETATM    9  C9  UNL     1     -33.480  17.014  -5.285  1.00 20.00     0.014 C 
HETATM   10  C10 UNL     1     -34.356  15.036  -6.688  1.00 20.00     0.019 C 
HETATM   11  C11 UNL     1     -35.962  16.797  -6.574  1.00 20.00     0.090 C 
HETATM   12  C12 UNL     1     -35.316  14.228  -5.735  1.00 20.00    -0.007 C 
HETATM   13  C13 UNL     1     -34.421  16.530  -6.418  1.00 20.00    -0.009 C 
HETATM   14  O14 UNL     1     -37.369  17.184  -4.609  1.00 20.00    -0.297 OA
ENDROOT
TORSDOF 0
ENDMDL
MODEL 8
REMARK VINA RESULT:      -5.4      1.694      3.081
REMARK  0 active torsions:
REMARK  status: ('A' for Active; 'I' for Inactive)
ROOT
HETATM    1  C1  UNL     1     -34.407  13.385  -4.524  1.00 20.00    -0.017 C 
HETATM    2  C2  UNL     1     -33.362  13.761  -3.723  1.00 20.00    -0.019 C 
HETATM    3  C3  UNL     1     -36.374  15.219  -4.354  1.00 20.00     0.136 C 
HETATM    4  C4  UNL     1     -36.659  16.413  -3.440  1.00 20.00     0.083 C 
HETATM    5  C5  UNL     1     -33.633  18.539  -4.089  1.00 20.00     0.000 C 
HETATM    6  C6  UNL     1     -34.881  19.042  -3.372  1.00 20.00     0.000 C 
HETATM    7  C7  UNL     1     -33.903  17.403  -5.078  1.00 20.00     0.001 C 
HETATM    8  C8  UNL     1     -35.332  18.228  -2.160  1.00 20.00     0.005 C 
HETATM    9  C9  UNL     1     -33.265  16.069  -4.713  1.00 20.00     0.014 C 
HETATM   10  C10 UNL     1     -34.215  15.909  -2.321  1.00 20.00     0.019 C 
HETATM   11  C11 UNL     1     -35.281  14.355  -3.784  1.00 20.00     0.090 C 
HETATM   12  C12 UNL     1     -35.568  16.715  -2.345  1.00 20.00    -0.007 C 
HETATM   13  C13 UNL     1     -33.962  15.194  -3.639  1.00 20.00    -0.009 C 
HETATM   14  O14 UNL     1     -37.012  15.013  -5.384  1.00 20.00    -0.297 OA
ENDROOT
TORSDOF 0
ENDMDL
MODEL 9
REMARK VINA RESULT:      -5.3      1.427      3.695
REMARK  0 active torsions:
REMARK  status: ('A' for Active; 'I' for Inactive)
ROOT
HETATM    1  C1  UNL     1     -32.939  15.060  -3.969  1.00 20.00    -0.017 C 
HETATM    2  C2  UNL     1     -33.068  16.324  -4.479  1.00 20.00    -0.019 C 
HETATM    3  C3  UNL     1     -35.307  13.782  -4.127  1.00 20.00     0.136 C 
HETATM    4  C4  UNL     1     -36.743  14.208  -4.442  1.00 20.00     0.083 C 
HETATM    5  C5  UNL     1     -36.332  15.570  -7.916  1.00 20.00     0.000 C 
HETATM    6  C6  UNL     1     -37.685  15.260  -7.285  1.00 20.00     0.000 C 
HETATM    7  C7  UNL     1     -35.183  14.720  -7.369  1.00 20.00     0.001 C 
HETATM    8  C8  UNL     1     -37.966  15.927  -5.939  1.00 20.00     0.005 C 
HETATM    9  C9  UNL     1     -34.116  15.497  -6.609  1.00 20.00     0.014 C 
HETATM   10  C10 UNL     1     -35.703  16.684  -4.960  1.00 20.00     0.019 C 
HETATM   11  C11 UNL     1     -34.435  14.982  -3.870  1.00 20.00     0.090 C 
HETATM   12  C12 UNL     1     -36.945  15.728  -4.800  1.00 20.00    -0.007 C 
HETATM   13  C13 UNL     1     -34.411  15.903  -5.142  1.00 20.00    -0.009 C 
HETATM   14  O14 UNL     1     -34.971  12.601  -4.061  1.00 20.00    -0.297 OA
ENDROOT
TORSDOF 0
ENDMDL
