MODEL 1
REMARK VINA RESULT:      -5.0      0.000      0.000
REMARK  0 active torsions:
REMARK  status: ('A' for Active; 'I' for Inactive)
ROOT
HETATM    1  C1  UNL     1     -33.888  17.184  -5.658  1.00 20.00    -0.029 C 
HETATM    2  C2  UNL     1     -33.778  16.604  -4.444  1.00 20.00    -0.014 C 
HETATM    3  C3  UNL     1     -34.753  14.140  -4.765  1.00 20.00     0.143 C 
HETATM    4  C4  UNL     1     -34.245  16.581  -6.998  1.00 20.00     0.032 C 
HETATM    5  C5  UNL     1     -35.432  14.166  -7.366  1.00 20.00     0.018 A 
HETATM    6  C6  UNL     1     -35.401  14.677  -5.966  1.00 20.00     0.061 A 
HETATM    7  C7  UNL     1     -34.338  15.103  -6.959  1.00 20.00     0.001 A 
HETATM    8  C8  UNL     1     -33.963  15.173  -3.916  1.00 20.00     0.031 C 
HETATM    9  C9  UNL     1     -32.564  14.588  -3.660  1.00 20.00     0.027 C 
HETATM   10  C10 UNL     1     -34.725  15.268  -2.578  1.00 20.00     0.027 C 
HETATM   11  O11 UNL     1     -34.871  12.957  -4.473  1.00 20.00    -0.296 OA
ENDROOT
TORSDOF 0
ENDMDL
MODEL 2
REMARK VINA RESULT:      -4.8      1.527      2.913
REMARK  0 active torsions:
REMARK  status: ('A' for Active; 'I' for Inactive)
ROOT
HETATM    1  C1  UNL     1     -34.642  15.054  -7.076  1.00 20.00    -0.029 C 
HETATM    2  C2  UNL     1     -34.612  14.330  -5.938  1.00 20.00    -0.014 C 
HETATM    3  C3  UNL     1     -33.841  16.049  -4.046  1.00 20.00     0.143 C 
HETATM    4  C4  UNL     1     -34.517  16.547  -7.286  1.00 20.00     0.032 C 
HETATM    5  C5  UNL     1     -33.541  18.312  -5.467  1.00 20.00     0.018 A 
HETATM    6  C6  UNL     1     -33.340  16.868  -5.155  1.00 20.00     0.061 A 
HETATM    7  C7  UNL     1     -34.508  17.309  -6.016  1.00 20.00     0.001 A 
HETATM    8  C8  UNL     1     -34.438  14.673  -4.450  1.00 20.00     0.031 C 
HETATM    9  C9  UNL     1     -35.819  14.555  -3.782  1.00 20.00     0.027 C 
HETATM   10  C10 UNL     1     -33.488  13.622  -3.840  1.00 20.00     0.027 C 
HETATM   11  O11 UNL     1     -33.753  16.448  -2.892  1.00 20.00    -0.296 OA
ENDROOT
TORSDOF 0
ENDMDL
MODEL 3
REMARK VINA RESULT:      -4.7      1.291      1.336
REMARK  0 active torsions:
REMARK  status: ('A' for Active; 'I' for Inactive)
ROOT
HETATM    1  C1  UNL     1     -33.516  16.394  -5.715  1.00 20.00    -0.029 C 
HETATM    2  C2  UNL     1     -33.618  15.938  -4.449  1.00 20.00    -0.014 C 
HETATM    3  C3  UNL     1     -36.027  14.797  -4.318  1.00 20.00     0.143 C 
HETATM    4  C4  UNL     1     -34.406  16.152  -6.913  1.00 20.00     0.032 C 
HETATM    5  C5  UNL     1     -36.944  15.190  -6.815  1.00 20.00     0.018 A 
HETATM    6  C6  UNL     1     -36.341  15.589  -5.512  1.00 20.00     0.061 A 
HETATM    7  C7  UNL     1     -35.456  15.139  -6.657  1.00 20.00     0.001 A 
HETATM    8  C8  UNL     1     -34.620  15.040  -3.708  1.00 20.00     0.031 C 
HETATM    9  C9  UNL     1     -33.957  13.665  -3.515  1.00 20.00     0.027 C 
HETATM   10  C10 UNL     1     -34.880  15.676  -2.327  1.00 20.00     0.027 C 
HETATM   11  O11 UNL     1     -36.856  14.025  -3.852  1.00 20.00    -0.296 OA
ENDROOT
TORSDOF 0
ENDMDL
MODEL 4
REMARK VINA RESULT:      -4.7      1.852      3.942
REMARK  0 active torsions:
REMARK  status: ('A' for Active; 'I' for Inactive)
ROOT
HETATM    1  C1  UNL     1     -34.424  13.277  -4.821  1.00 20.00    -0.029 C 
HETATM    2  C2  UNL     1     -35.002  14.007  -5.798  1.00 20.00    -0.014 C 
HETATM    3  C3  UNL     1     -35.637  16.328  -4.644  1.00 20.00     0.143 C 
HETATM    4  C4  UNL     1     -33.982  13.684  -3.433  1.00 20.00     0.032 C 
HETATM    5  C5  UNL     1     -34.767  15.935  -2.131  1.00 20.00     0.018 A 
HETATM    6  C6  UNL     1     -35.515  15.601  -3.377  1.00 20.00     0.061 A 
HETATM    7  C7  UNL     1     -34.080  15.143  -3.201  1.00 20.00     0.001 A 
HETATM    8  C8  UNL     1     -35.448  15.472  -5.925  1.00 20.00     0.031 C 
HETATM    9  C9  UNL     1     -34.422  16.193  -6.816  1.00 20.00     0.027 C 
HETATM   10  C10 UNL     1     -36.822  15.479  -6.626  1.00 20.00     0.027 C 
HETATM   11  O11 UNL     1     -35.897  17.525  -4.649  1.00 20.00    -0.296 OA
ENDROOT
TORSDOF 0
ENDMDL
MODEL 5
REMARK VINA RESULT:      -4.7      2.404      4.111
REMARK  0 active torsions:
REMARK  status: ('A' for Active; 'I' for Inactive)
ROOT
HETATM    1  C1  UNL     1     -34.345  13.636  -4.136  1.00 20.00    -0.029 C 
HETATM    2  C2  UNL     1     -35.616  13.956  -4.457  1.00 20.00    -0.014 C 
HETATM    3  C3  UNL     1     -36.093  16.251  -3.179  1.00 20.00     0.143 C 
HETATM    4  C4  UNL     1     -33.286  14.445  -3.422  1.00 20.00     0.032 C 
HETATM    5  C5  UNL     1     -33.748  16.670  -1.934  1.00 20.00     0.018 A 
HETATM    6  C6  UNL     1     -34.951  15.886  -2.335  1.00 20.00     0.061 A 
HETATM    7  C7  UNL     1     -33.695  15.849  -3.185  1.00 20.00     0.001 A 
HETATM    8  C8  UNL     1     -36.498  15.197  -4.245  1.00 20.00     0.031 C 
HETATM    9  C9  UNL     1     -36.606  15.925  -5.597  1.00 20.00     0.027 C 
HETATM   10  C10 UNL     1     -37.897  14.705  -3.822  1.00 20.00     0.027 C 
HETATM   11  O11 UNL     1     -36.677  17.313  -3.005  1.00 20.00    -0.296 OA
ENDROOT
TORSDOF 0
ENDMDL
MODEL 6
REMARK VINA RESULT:      -4.6      1.984      2.871
REMARK  0 active torsions:
REMARK  status: ('A' for Active; 'I' for Inactive)
ROOT
HETATM    1  C1  UNL     1     -36.858  15.977  -3.589  1.00 20.00    -0.029 C 
HETATM    2  C2  UNL     1     -35.843  16.677  -3.042  1.00 20.00    -0.014 C 
HETATM    3  C3  UNL     1     -33.672  15.179  -3.451  1.00 20.00     0.143 C 
HETATM    4  C4  UNL     1     -36.833  14.741  -4.460  1.00 20.00     0.032 C 
HETATM    5  C5  UNL     1     -34.714  13.065  -4.745  1.00 20.00     0.018 A 
HETATM    6  C6  UNL     1     -34.613  14.072  -3.651  1.00 20.00     0.061 A 
HETATM    7  C7  UNL     1     -35.464  14.355  -4.873  1.00 20.00     0.001 A 
HETATM    8  C8  UNL     1     -34.313  16.535  -3.049  1.00 20.00     0.031 C 
HETATM    9  C9  UNL     1     -33.752  17.609  -3.997  1.00 20.00     0.027 C 
HETATM   10  C10 UNL     1     -33.814  16.812  -1.616  1.00 20.00     0.027 C 
HETATM   11  O11 UNL     1     -32.467  14.998  -3.578  1.00 20.00    -0.296 OA
ENDROOT
TORSDOF 0
ENDMDL
MODEL 7
REMARK VINA RESULT:      -4.6      2.628      3.324
REMARK  0 active torsions:
REMARK  status: ('A' for Active; 'I' for Inactive)
ROOT
HETATM    1  C1  UNL     1     -33.564  14.365  -3.767  1.00 20.00    -0.029 C 
HETATM    2  C2  UNL     1     -33.435  15.538  -3.112  1.00 20.00    -0.014 C 
HETATM    3  C3  UNL     1     -35.844  16.678  -3.259  1.00 20.00     0.143 C 
HETATM    4  C4  UNL     1     -34.802  13.668  -4.286  1.00 20.00     0.032 C 
HETATM    5  C5  UNL     1     -37.225  14.840  -4.653  1.00 20.00     0.018 A 
HETATM    6  C6  UNL     1     -36.085  15.760  -4.377  1.00 20.00     0.061 A 
HETATM    7  C7  UNL     1     -36.057  14.333  -3.865  1.00 20.00     0.001 A 
HETATM    8  C8  UNL     1     -34.420  16.620  -2.643  1.00 20.00     0.031 C 
HETATM    9  C9  UNL     1     -34.581  16.472  -1.120  1.00 20.00     0.027 C 
HETATM   10  C10 UNL     1     -33.786  17.991  -2.956  1.00 20.00     0.027 C 
HETATM   11  O11 UNL     1     -36.726  17.440  -2.883  1.00 20.00    -0.296 OA
ENDROOT
TORSDOF 0
ENDMDL
MODEL 8
REMARK VINA RESULT:      -4.6      1.867      2.971
REMARK  0 active torsions:
REMARK  status: ('A' for Active; 'I' for Inactive)
ROOT
HETATM    1  C1  UNL     1     -34.408  13.695  -3.674  1.00 20.00    -0.029 C 
HETATM    2  C2  UNL     1     -34.497  14.924  -3.122  1.00 20.00    -0.014 C 
HETATM    3  C3  UNL     1     -34.701  16.599  -5.190  1.00 20.00     0.143 C 
HETATM    4  C4  UNL     1     -34.608  13.254  -5.107  1.00 20.00     0.032 C 
HETATM    5  C5  UNL     1     -34.612  14.897  -7.270  1.00 20.00     0.018 A 
HETATM    6  C6  UNL     1     -34.148  15.499  -5.988  1.00 20.00     0.061 A 
HETATM    7  C7  UNL     1     -35.121  14.337  -5.978  1.00 20.00     0.001 A 
HETATM    8  C8  UNL     1     -34.809  16.327  -3.665  1.00 20.00     0.031 C 
HETATM    9  C9  UNL     1     -36.242  16.683  -3.233  1.00 20.00     0.027 C 
HETATM   10  C10 UNL     1     -33.821  17.310  -3.005  1.00 20.00     0.027 C 
HETATM   11  O11 UNL     1     -35.020  17.653  -5.725  1.00 20.00    -0.296 OA
ENDROOT
TORSDOF 0
ENDMDL
MODEL 9
REMARK VINA RESULT:      -4.6      1.791      3.861
REMARK  0 active torsions:
REMARK  status: ('A' for Active; 'I' for Inactive)
ROOT
HETATM    1  C1  UNL     1     -36.735  16.401  -3.793  1.00 20.00    -0.029 C 
HETATM    2  C2  UNL     1     -36.127  15.553  -4.649  1.00 20.00    -0.014 C 
HETATM    3  C3  UNL     1     -33.624  15.338  -3.746  1.00 20.00     0.143 C 
HETATM    4  C4  UNL     1     -36.259  16.959  -2.471  1.00 20.00     0.032 C 
HETATM    5  C5  UNL     1     -33.687  16.954  -1.599  1.00 20.00     0.018 A 
HETATM    6  C6  UNL     1     -33.897  16.587  -3.028  1.00 20.00     0.061 A 
HETATM    7  C7  UNL     1     -34.993  16.347  -2.008  1.00 20.00     0.001 A 
HETATM    8  C8  UNL     1     -34.769  14.834  -4.666  1.00 20.00     0.031 C 
HETATM    9  C9  UNL     1     -35.022  13.356  -4.321  1.00 20.00     0.027 C 
HETATM   10  C10 UNL     1     -34.211  14.931  -6.101  1.00 20.00     0.027 C 
HETATM   11  O11 UNL     1     -32.544  14.775  -3.621  1.00 20.00    -0.296 OA
ENDROOT
TORSDOF 0
ENDMDL
