MODEL 1
REMARK VINA RESULT:      -5.5      0.000      0.000
REMARK  1 active torsions:
REMARK  status: ('A' for Active; 'I' for Inactive)
REMARK    1  A    between atoms: C4_4  and  C11_11 
ROOT
HETATM    1  C1  UNL     1     -34.052  14.389  -3.402  1.00 20.00     0.027 A 
HETATM    2  C2  UNL     1     -36.083  15.629  -3.053  1.00 20.00     0.034 A 
HETATM    3  C3  UNL     1     -34.796  13.478  -4.134  1.00 20.00     0.117 A 
HETATM    4  C4  UNL     1     -34.715  15.482  -2.855  1.00 20.00    -0.047 A 
HETATM    5  C5  UNL     1     -36.737  14.662  -3.801  1.00 20.00     0.030 A 
HETATM    6  C12 UNL     1     -38.206  14.787  -4.035  1.00 20.00     0.070 C 
HETATM    7  N13 UNL     1     -36.127  13.587  -4.348  1.00 20.00    -0.266 NA
ENDROOT
BRANCH   4   8
HETATM    8  C11 UNL     1     -33.946  16.512  -2.043  1.00 20.00     0.041 C 
HETATM    9  C7  UNL     1     -33.735  17.803  -2.799  1.00 20.00    -0.021 C 
HETATM   10  C6  UNL     1     -33.859  19.013  -2.233  1.00 20.00    -0.030 C 
HETATM   11  C8  UNL     1     -34.180  19.212  -0.783  1.00 20.00     0.027 C 
HETATM   12  C9  UNL     1     -34.012  17.939   0.049  1.00 20.00     0.005 C 
HETATM   13  C10 UNL     1     -34.610  16.730  -0.668  1.00 20.00     0.013 C 
ENDBRANCH   4   8
TORSDOF 1
ENDMDL
MODEL 2
REMARK VINA RESULT:      -5.4      2.092      5.075
REMARK  1 active torsions:
REMARK  status: ('A' for Active; 'I' for Inactive)
REMARK    1  A    between atoms: C4_4  and  C11_11 
ROOT
HETATM    1  C1  UNL     1     -33.775  17.554  -2.669  1.00 20.00     0.027 A 
HETATM    2  C2  UNL     1     -34.631  16.723  -0.580  1.00 20.00     0.034 A 
HETATM    3  C3  UNL     1     -33.486  18.742  -2.017  1.00 20.00     0.117 A 
HETATM    4  C4  UNL     1     -34.359  16.531  -1.930  1.00 20.00    -0.047 A 
HETATM    5  C5  UNL     1     -34.303  17.949  -0.021  1.00 20.00     0.030 A 
HETATM    6  C12 UNL     1     -34.581  18.191   1.425  1.00 20.00     0.070 C 
HETATM    7  N13 UNL     1     -33.736  18.966  -0.707  1.00 20.00    -0.266 NA
ENDROOT
BRANCH   4   8
HETATM    8  C11 UNL     1     -34.696  15.207  -2.596  1.00 20.00     0.041 C 
HETATM    9  C7  UNL     1     -36.044  15.232  -3.281  1.00 20.00    -0.021 C 
HETATM   10  C6  UNL     1     -36.266  14.678  -4.482  1.00 20.00    -0.030 C 
HETATM   11  C8  UNL     1     -35.214  13.941  -5.254  1.00 20.00     0.027 C 
HETATM   12  C9  UNL     1     -33.989  13.585  -4.410  1.00 20.00     0.005 C 
HETATM   13  C10 UNL     1     -33.558  14.765  -3.540  1.00 20.00     0.013 C 
ENDBRANCH   4   8
TORSDOF 1
ENDMDL
MODEL 3
REMARK VINA RESULT:      -5.4      2.228      5.013
REMARK  1 active torsions:
REMARK  status: ('A' for Active; 'I' for Inactive)
REMARK    1  A    between atoms: C4_4  and  C11_11 
ROOT
HETATM    1  C1  UNL     1     -33.489  18.288  -2.154  1.00 20.00     0.027 A 
HETATM    2  C2  UNL     1     -34.840  16.836  -0.794  1.00 20.00     0.034 A 
HETATM    3  C3  UNL     1     -33.335  19.100  -1.042  1.00 20.00     0.117 A 
HETATM    4  C4  UNL     1     -34.257  17.137  -2.020  1.00 20.00    -0.047 A 
HETATM    5  C5  UNL     1     -34.626  17.713   0.258  1.00 20.00     0.030 A 
HETATM    6  C12 UNL     1     -35.236  17.421   1.589  1.00 20.00     0.070 C 
HETATM    7  N13 UNL     1     -33.887  18.840   0.165  1.00 20.00    -0.266 NA
ENDROOT
BRANCH   4   8
HETATM    8  C11 UNL     1     -34.458  16.212  -3.209  1.00 20.00     0.041 C 
HETATM    9  C7  UNL     1     -33.266  15.314  -3.450  1.00 20.00    -0.021 C 
HETATM   10  C6  UNL     1     -33.380  14.017  -3.775  1.00 20.00    -0.030 C 
HETATM   11  C8  UNL     1     -34.698  13.333  -3.975  1.00 20.00     0.027 C 
HETATM   12  C9  UNL     1     -35.866  14.310  -4.113  1.00 20.00     0.005 C 
HETATM   13  C10 UNL     1     -35.778  15.425  -3.072  1.00 20.00     0.013 C 
ENDBRANCH   4   8
TORSDOF 1
ENDMDL
MODEL 4
REMARK VINA RESULT:      -5.4      1.545      1.955
REMARK  1 active torsions:
REMARK  status: ('A' for Active; 'I' for Inactive)
REMARK    1  A    between atoms: C4_4  and  C11_11 
ROOT
HETATM    1  C1  UNL     1     -34.542  14.151  -3.330  1.00 20.00     0.027 A 
HETATM    2  C2  UNL     1     -34.150  15.809  -5.027  1.00 20.00     0.034 A 
HETATM    3  C3  UNL     1     -34.898  13.274  -4.343  1.00 20.00     0.117 A 
HETATM    4  C4  UNL     1     -34.162  15.439  -3.687  1.00 20.00    -0.047 A 
HETATM    5  C5  UNL     1     -34.523  14.858  -5.965  1.00 20.00     0.030 A 
HETATM    6  C12 UNL     1     -34.521  15.219  -7.413  1.00 20.00     0.070 C 
HETATM    7  N13 UNL     1     -34.898  13.597  -5.656  1.00 20.00    -0.266 NA
ENDROOT
BRANCH   4   8
HETATM    8  C11 UNL     1     -33.763  16.440  -2.615  1.00 20.00     0.041 C 
HETATM    9  C7  UNL     1     -33.758  17.863  -3.126  1.00 20.00    -0.021 C 
HETATM   10  C6  UNL     1     -34.230  18.898  -2.415  1.00 20.00    -0.030 C 
HETATM   11  C8  UNL     1     -34.774  18.761  -1.025  1.00 20.00     0.027 C 
HETATM   12  C9  UNL     1     -34.426  17.420  -0.375  1.00 20.00     0.005 C 
HETATM   13  C10 UNL     1     -34.632  16.265  -1.353  1.00 20.00     0.013 C 
ENDBRANCH   4   8
TORSDOF 1
ENDMDL
MODEL 5
REMARK VINA RESULT:      -5.1      2.315      5.074
REMARK  1 active torsions:
REMARK  status: ('A' for Active; 'I' for Inactive)
REMARK    1  A    between atoms: C4_4  and  C11_11 
ROOT
HETATM    1  C1  UNL     1     -33.672  18.272  -2.804  1.00 20.00     0.027 A 
HETATM    2  C2  UNL     1     -34.428  16.639  -1.209  1.00 20.00     0.034 A 
HETATM    3  C3  UNL     1     -33.917  19.244  -1.846  1.00 20.00     0.117 A 
HETATM    4  C4  UNL     1     -33.935  16.948  -2.471  1.00 20.00    -0.047 A 
HETATM    5  C5  UNL     1     -34.639  17.683  -0.322  1.00 20.00     0.030 A 
HETATM    6  C12 UNL     1     -35.167  17.388   1.043  1.00 20.00     0.070 C 
HETATM    7  N13 UNL     1     -34.396  18.981  -0.609  1.00 20.00    -0.266 NA
ENDROOT
BRANCH   4   8
HETATM    8  C11 UNL     1     -33.684  15.844  -3.485  1.00 20.00     0.041 C 
HETATM    9  C7  UNL     1     -34.374  14.551  -3.115  1.00 20.00    -0.021 C 
HETATM   10  C6  UNL     1     -35.001  13.773  -4.009  1.00 20.00    -0.030 C 
HETATM   11  C8  UNL     1     -35.048  14.080  -5.475  1.00 20.00     0.027 C 
HETATM   12  C9  UNL     1     -34.043  15.153  -5.896  1.00 20.00     0.005 C 
HETATM   13  C10 UNL     1     -34.038  16.320  -4.910  1.00 20.00     0.013 C 
ENDBRANCH   4   8
TORSDOF 1
ENDMDL
MODEL 6
REMARK VINA RESULT:      -5.1      2.174      3.108
REMARK  1 active torsions:
REMARK  status: ('A' for Active; 'I' for Inactive)
REMARK    1  A    between atoms: C4_4  and  C11_11 
ROOT
HETATM    1  C1  UNL     1     -33.735  18.007  -3.951  1.00 20.00     0.027 A 
HETATM    2  C2  UNL     1     -33.851  15.994  -2.641  1.00 20.00     0.034 A 
HETATM    3  C3  UNL     1     -33.448  17.212  -5.050  1.00 20.00     0.117 A 
HETATM    4  C4  UNL     1     -33.940  17.378  -2.728  1.00 20.00    -0.047 A 
HETATM    5  C5  UNL     1     -33.558  15.288  -3.798  1.00 20.00     0.030 A 
HETATM    6  C12 UNL     1     -33.456  13.800  -3.741  1.00 20.00     0.070 C 
HETATM    7  N13 UNL     1     -33.353  15.864  -5.003  1.00 20.00    -0.266 NA
ENDROOT
BRANCH   4   8
HETATM    8  C11 UNL     1     -34.258  18.203  -1.492  1.00 20.00     0.041 C 
HETATM    9  C7  UNL     1     -35.205  17.493  -0.552  1.00 20.00    -0.021 C 
HETATM   10  C6  UNL     1     -35.059  17.503   0.781  1.00 20.00    -0.030 C 
HETATM   11  C8  UNL     1     -33.965  18.250   1.483  1.00 20.00     0.027 C 
HETATM   12  C9  UNL     1     -33.258  19.262   0.580  1.00 20.00     0.005 C 
HETATM   13  C10 UNL     1     -32.962  18.664  -0.793  1.00 20.00     0.013 C 
ENDBRANCH   4   8
TORSDOF 1
ENDMDL
MODEL 7
REMARK VINA RESULT:      -5.0      1.168      2.030
REMARK  1 active torsions:
REMARK  status: ('A' for Active; 'I' for Inactive)
REMARK    1  A    between atoms: C4_4  and  C11_11 
ROOT
HETATM    1  C1  UNL     1     -35.955  16.761  -2.898  1.00 20.00     0.027 A 
HETATM    2  C2  UNL     1     -34.282  15.038  -3.031  1.00 20.00     0.034 A 
HETATM    3  C3  UNL     1     -36.598  16.144  -3.959  1.00 20.00     0.117 A 
HETATM    4  C4  UNL     1     -34.776  16.191  -2.431  1.00 20.00    -0.047 A 
HETATM    5  C5  UNL     1     -35.000  14.498  -4.086  1.00 20.00     0.030 A 
HETATM    6  C12 UNL     1     -34.500  13.260  -4.754  1.00 20.00     0.070 C 
HETATM    7  N13 UNL     1     -36.149  15.024  -4.567  1.00 20.00    -0.266 NA
ENDROOT
BRANCH   4   8
HETATM    8  C11 UNL     1     -34.030  16.827  -1.269  1.00 20.00     0.041 C 
HETATM    9  C7  UNL     1     -33.325  18.104  -1.664  1.00 20.00    -0.021 C 
HETATM   10  C6  UNL     1     -33.306  19.200  -0.892  1.00 20.00    -0.030 C 
HETATM   11  C8  UNL     1     -33.947  19.263   0.462  1.00 20.00     0.027 C 
HETATM   12  C9  UNL     1     -34.313  17.885   1.015  1.00 20.00     0.005 C 
HETATM   13  C10 UNL     1     -34.967  17.016  -0.057  1.00 20.00     0.013 C 
ENDBRANCH   4   8
TORSDOF 1
ENDMDL
MODEL 8
REMARK VINA RESULT:      -4.9      2.826      5.308
REMARK  1 active torsions:
REMARK  status: ('A' for Active; 'I' for Inactive)
REMARK    1  A    between atoms: C4_4  and  C11_11 
ROOT
HETATM    1  C1  UNL     1     -32.755  18.556  -0.223  1.00 20.00     0.027 A 
HETATM    2  C2  UNL     1     -34.780  17.400   0.364  1.00 20.00     0.034 A 
HETATM    3  C3  UNL     1     -32.810  19.173   1.017  1.00 20.00     0.117 A 
HETATM    4  C4  UNL     1     -33.762  17.655  -0.548  1.00 20.00    -0.047 A 
HETATM    5  C5  UNL     1     -34.745  18.069   1.578  1.00 20.00     0.030 A 
HETATM    6  C12 UNL     1     -35.822  17.820   2.581  1.00 20.00     0.070 C 
HETATM    7  N13 UNL     1     -33.784  18.951   1.928  1.00 20.00    -0.266 NA
ENDROOT
BRANCH   4   8
HETATM    8  C11 UNL     1     -33.749  16.950  -1.895  1.00 20.00     0.041 C 
HETATM    9  C7  UNL     1     -34.813  15.882  -1.999  1.00 20.00    -0.021 C 
HETATM   10  C6  UNL     1     -35.553  15.691  -3.101  1.00 20.00    -0.030 C 
HETATM   11  C8  UNL     1     -35.377  16.487  -4.358  1.00 20.00     0.027 C 
HETATM   12  C9  UNL     1     -34.071  17.283  -4.385  1.00 20.00     0.005 C 
HETATM   13  C10 UNL     1     -33.819  17.975  -3.047  1.00 20.00     0.013 C 
ENDBRANCH   4   8
TORSDOF 1
ENDMDL
MODEL 9
REMARK VINA RESULT:      -4.8      2.352      4.712
REMARK  1 active torsions:
REMARK  status: ('A' for Active; 'I' for Inactive)
REMARK    1  A    between atoms: C4_4  and  C11_11 
ROOT
HETATM    1  C1  UNL     1     -34.471  16.516  -1.093  1.00 20.00     0.027 A 
HETATM    2  C2  UNL     1     -36.214  17.636  -2.315  1.00 20.00     0.034 A 
HETATM    3  C3  UNL     1     -34.879  17.219   0.029  1.00 20.00     0.117 A 
HETATM    4  C4  UNL     1     -35.156  16.734  -2.283  1.00 20.00    -0.047 A 
HETATM    5  C5  UNL     1     -36.545  18.288  -1.138  1.00 20.00     0.030 A 
HETATM    6  C12 UNL     1     -37.675  19.263  -1.134  1.00 20.00     0.070 C 
HETATM    7  N13 UNL     1     -35.902  18.102   0.037  1.00 20.00    -0.266 NA
ENDROOT
BRANCH   4   8
HETATM    8  C11 UNL     1     -34.749  15.989  -3.544  1.00 20.00     0.041 C 
HETATM    9  C7  UNL     1     -33.580  15.059  -3.314  1.00 20.00    -0.021 C 
HETATM   10  C6  UNL     1     -33.509  13.827  -3.839  1.00 20.00    -0.030 C 
HETATM   11  C8  UNL     1     -34.560  13.257  -4.743  1.00 20.00     0.027 C 
HETATM   12  C9  UNL     1     -35.528  14.315  -5.278  1.00 20.00     0.005 C 
HETATM   13  C10 UNL     1     -35.963  15.274  -4.172  1.00 20.00     0.013 C 
ENDBRANCH   4   8
TORSDOF 1
ENDMDL
