MODEL 1
REMARK VINA RESULT:      -5.2      0.000      0.000
REMARK  0 active torsions:
REMARK  status: ('A' for Active; 'I' for Inactive)
ROOT
HETATM    1  C1  UNL     1     -35.711  15.711  -5.061  1.00 20.00    -0.002 C 
HETATM    2  C2  UNL     1     -35.015  13.575  -3.943  1.00 20.00    -0.002 C 
HETATM    3  C3  UNL     1     -34.542  16.345  -5.246  1.00 20.00    -0.022 C 
HETATM    4  C4  UNL     1     -33.682  13.700  -3.862  1.00 20.00    -0.022 C 
HETATM    5  C5  UNL     1     -34.707  16.080  -2.165  1.00 20.00     0.079 C 
HETATM    6  C6  UNL     1     -35.945  14.751  -3.933  1.00 20.00     0.128 C 
HETATM    7  C7  UNL     1     -33.334  16.234  -4.418  1.00 20.00     0.028 A 
HETATM    8  C8  UNL     1     -32.915  14.947  -3.744  1.00 20.00     0.028 A 
HETATM    9  C9  UNL     1     -33.415  16.108  -2.912  1.00 20.00     0.063 A 
HETATM   10  N10 UNL     1     -35.831  15.455  -2.659  1.00 20.00    -0.373 N 
HETATM   11  S11 UNL     1     -34.723  16.851  -0.681  1.00 20.00    -0.065 SA
HETATM   12  H20 UNL     1     -36.665  15.488  -2.080  1.00 20.00     0.161 HD
ENDROOT
TORSDOF 0
ENDMDL
MODEL 2
REMARK VINA RESULT:      -5.1      2.286      3.362
REMARK  0 active torsions:
REMARK  status: ('A' for Active; 'I' for Inactive)
ROOT
HETATM    1  C1  UNL     1     -33.682  15.940  -2.661  1.00 20.00    -0.002 C 
HETATM    2  C2  UNL     1     -33.330  13.733  -3.801  1.00 20.00    -0.002 C 
HETATM    3  C3  UNL     1     -35.020  16.027  -2.586  1.00 20.00    -0.022 C 
HETATM    4  C4  UNL     1     -34.582  13.294  -3.997  1.00 20.00    -0.022 C 
HETATM    5  C5  UNL     1     -34.500  15.921  -5.638  1.00 20.00     0.079 C 
HETATM    6  C6  UNL     1     -32.976  15.189  -3.750  1.00 20.00     0.128 C 
HETATM    7  C7  UNL     1     -35.998  15.443  -3.513  1.00 20.00     0.028 A 
HETATM    8  C8  UNL     1     -35.785  14.112  -4.199  1.00 20.00     0.028 A 
HETATM    9  C9  UNL     1     -35.745  15.394  -5.004  1.00 20.00     0.063 A 
HETATM   10  N10 UNL     1     -33.264  15.809  -5.039  1.00 20.00    -0.373 N 
HETATM   11  S11 UNL     1     -34.681  16.660  -7.127  1.00 20.00    -0.065 SA
HETATM   12  H20 UNL     1     -32.475  16.197  -5.546  1.00 20.00     0.161 HD
ENDROOT
TORSDOF 0
ENDMDL
MODEL 3
REMARK VINA RESULT:      -5.0      2.635      3.560
REMARK  0 active torsions:
REMARK  status: ('A' for Active; 'I' for Inactive)
ROOT
HETATM    1  C1  UNL     1     -34.441  16.433  -3.365  1.00 20.00    -0.002 C 
HETATM    2  C2  UNL     1     -32.628  14.729  -3.693  1.00 20.00    -0.002 C 
HETATM    3  C3  UNL     1     -35.546  15.677  -3.263  1.00 20.00    -0.022 C 
HETATM    4  C4  UNL     1     -33.300  13.568  -3.669  1.00 20.00    -0.022 C 
HETATM    5  C5  UNL     1     -34.522  15.028  -6.113  1.00 20.00     0.079 C 
HETATM    6  C6  UNL     1     -33.241  16.014  -4.162  1.00 20.00     0.128 C 
HETATM    7  C7  UNL     1     -35.784  14.369  -3.886  1.00 20.00     0.028 A 
HETATM    8  C8  UNL     1     -34.691  13.342  -4.083  1.00 20.00     0.028 A 
HETATM    9  C9  UNL     1     -35.287  14.053  -5.280  1.00 20.00     0.063 A 
HETATM   10  N10 UNL     1     -33.604  15.900  -5.571  1.00 20.00    -0.373 N 
HETATM   11  S11 UNL     1     -34.838  15.008  -7.755  1.00 20.00    -0.065 SA
HETATM   12  H20 UNL     1     -33.133  16.527  -6.216  1.00 20.00     0.161 HD
ENDROOT
TORSDOF 0
ENDMDL
MODEL 4
REMARK VINA RESULT:      -4.9      2.076      2.917
REMARK  0 active torsions:
REMARK  status: ('A' for Active; 'I' for Inactive)
ROOT
HETATM    1  C1  UNL     1     -34.869  13.431  -4.183  1.00 20.00    -0.002 C 
HETATM    2  C2  UNL     1     -36.057  15.281  -2.973  1.00 20.00    -0.002 C 
HETATM    3  C3  UNL     1     -33.577  13.686  -3.924  1.00 20.00    -0.022 C 
HETATM    4  C4  UNL     1     -35.048  15.977  -2.427  1.00 20.00    -0.022 C 
HETATM    5  C5  UNL     1     -34.491  16.213  -5.466  1.00 20.00     0.079 C 
HETATM    6  C6  UNL     1     -35.913  14.506  -4.248  1.00 20.00     0.128 C 
HETATM    7  C7  UNL     1     -32.967  15.000  -3.679  1.00 20.00     0.028 A 
HETATM    8  C8  UNL     1     -33.682  16.115  -2.950  1.00 20.00     0.028 A 
HETATM    9  C9  UNL     1     -33.411  16.233  -4.435  1.00 20.00     0.063 A 
HETATM   10  N10 UNL     1     -35.609  15.417  -5.346  1.00 20.00    -0.373 N 
HETATM   11  S11 UNL     1     -34.274  17.216  -6.787  1.00 20.00    -0.065 SA
HETATM   12  H20 UNL     1     -36.290  15.470  -6.098  1.00 20.00     0.161 HD
ENDROOT
TORSDOF 0
ENDMDL
MODEL 5
REMARK VINA RESULT:      -4.8      1.707      3.126
REMARK  0 active torsions:
REMARK  status: ('A' for Active; 'I' for Inactive)
ROOT
HETATM    1  C1  UNL     1     -33.071  15.149  -3.680  1.00 20.00    -0.002 C 
HETATM    2  C2  UNL     1     -33.717  16.185  -5.873  1.00 20.00    -0.002 C 
HETATM    3  C3  UNL     1     -33.475  13.877  -3.821  1.00 20.00    -0.022 C 
HETATM    4  C4  UNL     1     -34.274  15.160  -6.536  1.00 20.00    -0.022 C 
HETATM    5  C5  UNL     1     -36.118  15.474  -4.066  1.00 20.00     0.079 C 
HETATM    6  C6  UNL     1     -33.741  16.296  -4.378  1.00 20.00     0.128 C 
HETATM    7  C7  UNL     1     -34.596  13.389  -4.635  1.00 20.00     0.028 A 
HETATM    8  C8  UNL     1     -34.985  14.013  -5.956  1.00 20.00     0.028 A 
HETATM    9  C9  UNL     1     -35.888  14.168  -4.751  1.00 20.00     0.063 A 
HETATM   10  N10 UNL     1     -35.120  16.413  -3.916  1.00 20.00    -0.373 N 
HETATM   11  S11 UNL     1     -37.662  15.745  -3.483  1.00 20.00    -0.065 SA
HETATM   12  H20 UNL     1     -35.370  17.272  -3.436  1.00 20.00     0.161 HD
ENDROOT
TORSDOF 0
ENDMDL
MODEL 6
REMARK VINA RESULT:      -4.8      1.467      1.854
REMARK  0 active torsions:
REMARK  status: ('A' for Active; 'I' for Inactive)
ROOT
HETATM    1  C1  UNL     1     -34.980  13.922  -5.914  1.00 20.00    -0.002 C 
HETATM    2  C2  UNL     1     -33.787  13.728  -3.714  1.00 20.00    -0.002 C 
HETATM    3  C3  UNL     1     -34.440  15.028  -6.449  1.00 20.00    -0.022 C 
HETATM    4  C4  UNL     1     -32.964  14.787  -3.726  1.00 20.00    -0.022 C 
HETATM    5  C5  UNL     1     -35.772  16.088  -3.861  1.00 20.00     0.079 C 
HETATM    6  C6  UNL     1     -35.102  13.712  -4.434  1.00 20.00     0.128 C 
HETATM    7  C7  UNL     1     -33.903  16.189  -5.727  1.00 20.00     0.028 A 
HETATM    8  C8  UNL     1     -33.184  16.072  -4.402  1.00 20.00     0.028 A 
HETATM    9  C9  UNL     1     -34.556  16.709  -4.465  1.00 20.00     0.063 A 
HETATM   10  N10 UNL     1     -35.985  14.727  -3.867  1.00 20.00    -0.373 N 
HETATM   11  S11 UNL     1     -36.876  17.137  -3.170  1.00 20.00    -0.065 SA
HETATM   12  H20 UNL     1     -36.841  14.396  -3.432  1.00 20.00     0.161 HD
ENDROOT
TORSDOF 0
ENDMDL
MODEL 7
REMARK VINA RESULT:      -4.7      0.942      2.717
REMARK  0 active torsions:
REMARK  status: ('A' for Active; 'I' for Inactive)
ROOT
HETATM    1  C1  UNL     1     -33.551  13.874  -3.934  1.00 20.00    -0.002 C 
HETATM    2  C2  UNL     1     -33.501  16.107  -5.078  1.00 20.00    -0.002 C 
HETATM    3  C3  UNL     1     -34.864  13.606  -3.859  1.00 20.00    -0.022 C 
HETATM    4  C4  UNL     1     -34.801  16.371  -5.276  1.00 20.00    -0.022 C 
HETATM    5  C5  UNL     1     -34.590  16.201  -2.190  1.00 20.00     0.079 C 
HETATM    6  C6  UNL     1     -33.006  15.272  -3.936  1.00 20.00     0.128 C 
HETATM    7  C7  UNL     1     -35.962  14.578  -3.761  1.00 20.00     0.028 A 
HETATM    8  C8  UNL     1     -35.931  15.923  -4.451  1.00 20.00     0.028 A 
HETATM    9  C9  UNL     1     -35.828  15.844  -2.943  1.00 20.00     0.063 A 
HETATM   10  N10 UNL     1     -33.329  15.926  -2.672  1.00 20.00    -0.373 N 
HETATM   11  S11 UNL     1     -34.810  16.962  -0.717  1.00 20.00    -0.065 SA
HETATM   12  H20 UNL     1     -32.545  16.206  -2.090  1.00 20.00     0.161 HD
ENDROOT
TORSDOF 0
ENDMDL
MODEL 8
REMARK VINA RESULT:      -4.7      1.769      2.844
REMARK  0 active torsions:
REMARK  status: ('A' for Active; 'I' for Inactive)
ROOT
HETATM    1  C1  UNL     1     -33.157  16.137  -4.514  1.00 20.00    -0.002 C 
HETATM    2  C2  UNL     1     -34.395  15.210  -6.490  1.00 20.00    -0.002 C 
HETATM    3  C3  UNL     1     -33.275  15.159  -3.602  1.00 20.00    -0.022 C 
HETATM    4  C4  UNL     1     -34.809  14.012  -6.049  1.00 20.00    -0.022 C 
HETATM    5  C5  UNL     1     -36.215  15.986  -4.120  1.00 20.00     0.079 C 
HETATM    6  C6  UNL     1     -34.182  16.382  -5.581  1.00 20.00     0.128 C 
HETATM    7  C7  UNL     1     -34.379  14.199  -3.473  1.00 20.00     0.028 A 
HETATM    8  C8  UNL     1     -35.125  13.640  -4.663  1.00 20.00     0.028 A 
HETATM    9  C9  UNL     1     -35.815  14.604  -3.723  1.00 20.00     0.063 A 
HETATM   10  N10 UNL     1     -35.449  16.761  -4.963  1.00 20.00    -0.373 N 
HETATM   11  S11 UNL     1     -37.654  16.554  -3.484  1.00 20.00    -0.065 SA
HETATM   12  H20 UNL     1     -35.802  17.689  -5.177  1.00 20.00     0.161 HD
ENDROOT
TORSDOF 0
ENDMDL
MODEL 9
REMARK VINA RESULT:      -4.6      1.809      3.022
REMARK  0 active torsions:
REMARK  status: ('A' for Active; 'I' for Inactive)
ROOT
HETATM    1  C1  UNL     1     -34.271  13.658  -3.629  1.00 20.00    -0.002 C 
HETATM    2  C2  UNL     1     -33.344  15.988  -3.722  1.00 20.00    -0.002 C 
HETATM    3  C3  UNL     1     -34.476  13.366  -4.923  1.00 20.00    -0.022 C 
HETATM    4  C4  UNL     1     -33.328  16.251  -5.038  1.00 20.00    -0.022 C 
HETATM    5  C5  UNL     1     -36.337  15.798  -4.456  1.00 20.00     0.079 C 
HETATM    6  C6  UNL     1     -34.335  15.057  -3.091  1.00 20.00     0.128 C 
HETATM    7  C7  UNL     1     -34.796  14.309  -6.003  1.00 20.00     0.028 A 
HETATM    8  C8  UNL     1     -34.236  15.713  -6.059  1.00 20.00     0.028 A 
HETATM    9  C9  UNL     1     -35.707  15.495  -5.775  1.00 20.00     0.063 A 
HETATM   10  N10 UNL     1     -35.684  15.586  -3.261  1.00 20.00    -0.373 N 
HETATM   11  S11 UNL     1     -37.891  16.415  -4.500  1.00 20.00    -0.065 SA
HETATM   12  H20 UNL     1     -36.192  15.822  -2.415  1.00 20.00     0.161 HD
ENDROOT
TORSDOF 0
ENDMDL
