MODEL 1
REMARK VINA RESULT:      -5.5      0.000      0.000
REMARK  3 active torsions:
REMARK  status: ('A' for Active; 'I' for Inactive)
REMARK    1  A    between atoms: C6_6  and  C7_7 
REMARK    2  A    between atoms: C8_8  and  C10_10 
REMARK    3  A    between atoms: C9_9  and  C11_11 
ROOT
HETATM    1  C1  UNL     1     -34.497  17.289  -5.483  1.00 20.00    -0.021 C 
HETATM    2  C2  UNL     1     -33.325  16.911  -4.915  1.00 20.00    -0.020 C 
HETATM    3  C5  UNL     1     -35.661  15.346  -4.566  1.00 20.00    -0.003 C 
HETATM    4  C6  UNL     1     -34.449  14.875  -4.193  1.00 20.00     0.024 C 
HETATM    5  C8  UNL     1     -35.742  16.874  -4.644  1.00 20.00     0.039 C 
HETATM    6  C9  UNL     1     -33.469  15.977  -3.711  1.00 20.00     0.056 C 
ENDROOT
BRANCH   4   7
HETATM    7  C7  UNL     1     -34.125  13.407  -4.127  1.00 20.00     0.205 C 
HETATM    8  O12 UNL     1     -32.945  13.126  -3.762  1.00 20.00    -0.644 OA
HETATM    9  O13 UNL     1     -35.070  12.626  -4.445  1.00 20.00    -0.644 OA
ENDBRANCH   4   7
BRANCH   6  10
HETATM   10  C11 UNL     1     -34.361  16.563  -2.595  1.00 20.00     0.029 C 
HETATM   11  C4  UNL     1     -34.739  16.389  -1.147  1.00 20.00    -0.024 C 
HETATM   12  C3  UNL     1     -34.732  17.778  -1.067  1.00 20.00    -0.024 C 
HETATM   13  C10 UNL     1     -33.506  17.730  -1.941  1.00 20.00     0.028 C 
ENDBRANCH   6  10
TORSDOF 3
ENDMDL
MODEL 2
REMARK VINA RESULT:      -5.3      1.099      2.836
REMARK  3 active torsions:
REMARK  status: ('A' for Active; 'I' for Inactive)
REMARK    1  A    between atoms: C6_6  and  C7_7 
REMARK    2  A    between atoms: C8_8  and  C10_10 
REMARK    3  A    between atoms: C9_9  and  C11_11 
ROOT
HETATM    1  C1  UNL     1     -33.794  17.094  -1.924  1.00 20.00    -0.021 C 
HETATM    2  C2  UNL     1     -34.769  16.222  -1.564  1.00 20.00    -0.020 C 
HETATM    3  C5  UNL     1     -33.355  15.871  -3.994  1.00 20.00    -0.003 C 
HETATM    4  C6  UNL     1     -34.170  14.901  -3.519  1.00 20.00     0.024 C 
HETATM    5  C8  UNL     1     -33.678  17.273  -3.467  1.00 20.00     0.039 C 
HETATM    6  C9  UNL     1     -35.389  15.439  -2.724  1.00 20.00     0.056 C 
ENDROOT
BRANCH   4   7
HETATM    7  C7  UNL     1     -33.985  13.443  -3.845  1.00 20.00     0.205 C 
HETATM    8  O12 UNL     1     -32.811  12.995  -3.686  1.00 20.00    -0.644 OA
HETATM    9  O13 UNL     1     -35.026  12.837  -4.240  1.00 20.00    -0.644 OA
ENDBRANCH   4   7
BRANCH   6  10
HETATM   10  C11 UNL     1     -35.962  16.351  -3.830  1.00 20.00     0.029 C 
HETATM   11  C4  UNL     1     -36.819  16.339  -5.069  1.00 20.00    -0.024 C 
HETATM   12  C3  UNL     1     -37.345  17.543  -4.614  1.00 20.00    -0.024 C 
HETATM   13  C10 UNL     1     -37.317  16.930  -3.239  1.00 20.00     0.028 C 
ENDBRANCH   6  10
TORSDOF 3
ENDMDL
MODEL 3
REMARK VINA RESULT:      -4.8      1.282      3.077
REMARK  3 active torsions:
REMARK  status: ('A' for Active; 'I' for Inactive)
REMARK    1  A    between atoms: C6_6  and  C7_7 
REMARK    2  A    between atoms: C8_8  and  C10_10 
REMARK    3  A    between atoms: C9_9  and  C11_11 
ROOT
HETATM    1  C1  UNL     1     -34.782  16.142  -1.957  1.00 20.00    -0.021 C 
HETATM    2  C2  UNL     1     -35.836  16.245  -2.804  1.00 20.00    -0.020 C 
HETATM    3  C5  UNL     1     -33.464  14.925  -3.616  1.00 20.00    -0.003 C 
HETATM    4  C6  UNL     1     -34.590  14.847  -4.360  1.00 20.00     0.024 C 
HETATM    5  C8  UNL     1     -33.408  16.145  -2.691  1.00 20.00     0.039 C 
HETATM    6  C9  UNL     1     -35.480  16.115  -4.287  1.00 20.00     0.056 C 
ENDROOT
BRANCH   4   7
HETATM    7  C7  UNL     1     -34.887  13.691  -5.278  1.00 20.00     0.205 C 
HETATM    8  O12 UNL     1     -35.171  14.004  -6.472  1.00 20.00    -0.644 OA
HETATM    9  O13 UNL     1     -34.819  12.543  -4.748  1.00 20.00    -0.644 OA
ENDBRANCH   4   7
BRANCH   6  10
HETATM   10  C11 UNL     1     -34.413  17.134  -4.743  1.00 20.00     0.029 C 
HETATM   11  C4  UNL     1     -33.765  17.722  -5.969  1.00 20.00    -0.024 C 
HETATM   12  C3  UNL     1     -33.802  18.941  -5.300  1.00 20.00    -0.024 C 
HETATM   13  C10 UNL     1     -35.168  18.529  -4.817  1.00 20.00     0.028 C 
ENDBRANCH   6  10
TORSDOF 3
ENDMDL
MODEL 4
REMARK VINA RESULT:      -4.8      0.992      3.208
REMARK  3 active torsions:
REMARK  status: ('A' for Active; 'I' for Inactive)
REMARK    1  A    between atoms: C6_6  and  C7_7 
REMARK    2  A    between atoms: C8_8  and  C10_10 
REMARK    3  A    between atoms: C9_9  and  C11_11 
ROOT
HETATM    1  C1  UNL     1     -35.235  16.875  -2.343  1.00 20.00    -0.021 C 
HETATM    2  C2  UNL     1     -36.127  16.149  -3.062  1.00 20.00    -0.020 C 
HETATM    3  C5  UNL     1     -33.351  15.624  -3.267  1.00 20.00    -0.003 C 
HETATM    4  C6  UNL     1     -34.258  14.777  -3.804  1.00 20.00     0.024 C 
HETATM    5  C8  UNL     1     -33.868  17.052  -3.069  1.00 20.00     0.039 C 
HETATM    6  C9  UNL     1     -35.548  15.475  -4.308  1.00 20.00     0.056 C 
ENDROOT
BRANCH   4   7
HETATM    7  C7  UNL     1     -33.987  13.310  -4.013  1.00 20.00     0.205 C 
HETATM    8  O12 UNL     1     -32.822  12.922  -3.701  1.00 20.00    -0.644 OA
HETATM    9  O13 UNL     1     -34.956  12.639  -4.478  1.00 20.00    -0.644 OA
ENDBRANCH   4   7
BRANCH   6  10
HETATM   10  C11 UNL     1     -34.871  16.472  -5.273  1.00 20.00     0.029 C 
HETATM   11  C4  UNL     1     -34.302  16.597  -6.663  1.00 20.00    -0.024 C 
HETATM   12  C3  UNL     1     -34.884  17.859  -6.696  1.00 20.00    -0.024 C 
HETATM   13  C10 UNL     1     -36.061  17.234  -5.996  1.00 20.00     0.028 C 
ENDBRANCH   6  10
TORSDOF 3
ENDMDL
MODEL 5
REMARK VINA RESULT:      -4.8      2.362      3.944
REMARK  3 active torsions:
REMARK  status: ('A' for Active; 'I' for Inactive)
REMARK    1  A    between atoms: C6_6  and  C7_7 
REMARK    2  A    between atoms: C8_8  and  C10_10 
REMARK    3  A    between atoms: C9_9  and  C11_11 
ROOT
HETATM    1  C1  UNL     1     -34.443  13.643  -3.747  1.00 20.00    -0.021 C 
HETATM    2  C2  UNL     1     -33.296  14.368  -3.765  1.00 20.00    -0.020 C 
HETATM    3  C5  UNL     1     -35.662  15.452  -2.646  1.00 20.00    -0.003 C 
HETATM    4  C6  UNL     1     -34.470  16.068  -2.479  1.00 20.00     0.024 C 
HETATM    5  C8  UNL     1     -35.721  14.525  -3.865  1.00 20.00     0.039 C 
HETATM    6  C9  UNL     1     -33.494  15.882  -3.670  1.00 20.00     0.056 C 
ENDROOT
BRANCH   4   7
HETATM    7  C7  UNL     1     -34.168  16.962  -1.305  1.00 20.00     0.205 C 
HETATM    8  O12 UNL     1     -34.749  16.654  -0.223  1.00 20.00    -0.644 OA
HETATM    9  O13 UNL     1     -33.368  17.916  -1.539  1.00 20.00    -0.644 OA
ENDBRANCH   4   7
BRANCH   6  10
HETATM   10  C11 UNL     1     -34.418  16.441  -4.774  1.00 20.00     0.029 C 
HETATM   11  C4  UNL     1     -34.855  17.722  -5.435  1.00 20.00    -0.024 C 
HETATM   12  C3  UNL     1     -34.823  17.015  -6.632  1.00 20.00    -0.024 C 
HETATM   13  C10 UNL     1     -33.565  16.371  -6.111  1.00 20.00     0.028 C 
ENDBRANCH   6  10
TORSDOF 3
ENDMDL
MODEL 6
REMARK VINA RESULT:      -4.8      2.274      3.235
REMARK  3 active torsions:
REMARK  status: ('A' for Active; 'I' for Inactive)
REMARK    1  A    between atoms: C6_6  and  C7_7 
REMARK    2  A    between atoms: C8_8  and  C10_10 
REMARK    3  A    between atoms: C9_9  and  C11_11 
ROOT
HETATM    1  C1  UNL     1     -33.632  14.015  -3.678  1.00 20.00    -0.021 C 
HETATM    2  C2  UNL     1     -34.899  14.415  -3.406  1.00 20.00    -0.020 C 
HETATM    3  C5  UNL     1     -33.161  16.075  -4.906  1.00 20.00    -0.003 C 
HETATM    4  C6  UNL     1     -34.480  16.357  -4.813  1.00 20.00     0.024 C 
HETATM    5  C8  UNL     1     -32.626  15.201  -3.766  1.00 20.00     0.039 C 
HETATM    6  C9  UNL     1     -35.120  15.929  -3.466  1.00 20.00     0.056 C 
ENDROOT
BRANCH   4   7
HETATM    7  C7  UNL     1     -35.228  17.135  -5.863  1.00 20.00     0.205 C 
HETATM    8  O12 UNL     1     -34.578  17.382  -6.922  1.00 20.00    -0.644 OA
HETATM    9  O13 UNL     1     -36.418  17.450  -5.563  1.00 20.00    -0.644 OA
ENDBRANCH   4   7
BRANCH   6  10
HETATM   10  C11 UNL     1     -34.172  16.715  -2.535  1.00 20.00     0.029 C 
HETATM   11  C4  UNL     1     -33.915  18.086  -1.968  1.00 20.00    -0.024 C 
HETATM   12  C3  UNL     1     -33.608  17.443  -0.775  1.00 20.00    -0.024 C 
HETATM   13  C10 UNL     1     -34.768  16.531  -1.075  1.00 20.00     0.028 C 
ENDBRANCH   6  10
TORSDOF 3
ENDMDL
MODEL 7
REMARK VINA RESULT:      -4.8      2.453      4.311
REMARK  3 active torsions:
REMARK  status: ('A' for Active; 'I' for Inactive)
REMARK    1  A    between atoms: C6_6  and  C7_7 
REMARK    2  A    between atoms: C8_8  and  C10_10 
REMARK    3  A    between atoms: C9_9  and  C11_11 
ROOT
HETATM    1  C1  UNL     1     -33.390  15.026  -3.488  1.00 20.00    -0.021 C 
HETATM    2  C2  UNL     1     -33.974  16.195  -3.853  1.00 20.00    -0.020 C 
HETATM    3  C5  UNL     1     -35.471  13.789  -3.823  1.00 20.00    -0.003 C 
HETATM    4  C6  UNL     1     -36.084  14.986  -3.972  1.00 20.00     0.024 C 
HETATM    5  C8  UNL     1     -33.992  13.790  -4.221  1.00 20.00     0.039 C 
HETATM    6  C9  UNL     1     -35.227  16.041  -4.719  1.00 20.00     0.056 C 
ENDROOT
BRANCH   4   7
HETATM    7  C7  UNL     1     -37.514  15.230  -3.570  1.00 20.00     0.205 C 
HETATM    8  O12 UNL     1     -38.274  14.218  -3.620  1.00 20.00    -0.644 OA
HETATM    9  O13 UNL     1     -37.788  16.419  -3.229  1.00 20.00    -0.644 OA
ENDBRANCH   4   7
BRANCH   6  10
HETATM   10  C11 UNL     1     -34.976  15.223  -6.004  1.00 20.00     0.029 C 
HETATM   11  C4  UNL     1     -35.654  14.703  -7.245  1.00 20.00    -0.024 C 
HETATM   12  C3  UNL     1     -34.479  15.022  -7.917  1.00 20.00    -0.024 C 
HETATM   13  C10 UNL     1     -34.443  16.268  -7.072  1.00 20.00     0.028 C 
ENDBRANCH   6  10
TORSDOF 3
ENDMDL
MODEL 8
REMARK VINA RESULT:      -4.7      1.750      2.726
REMARK  3 active torsions:
REMARK  status: ('A' for Active; 'I' for Inactive)
REMARK    1  A    between atoms: C6_6  and  C7_7 
REMARK    2  A    between atoms: C8_8  and  C10_10 
REMARK    3  A    between atoms: C9_9  and  C11_11 
ROOT
HETATM    1  C1  UNL     1     -33.608  17.236  -5.867  1.00 20.00    -0.021 C 
HETATM    2  C2  UNL     1     -33.900  17.101  -4.549  1.00 20.00    -0.020 C 
HETATM    3  C5  UNL     1     -34.346  14.956  -6.345  1.00 20.00    -0.003 C 
HETATM    4  C6  UNL     1     -34.426  14.769  -5.008  1.00 20.00     0.024 C 
HETATM    5  C8  UNL     1     -34.554  16.408  -6.787  1.00 20.00     0.039 C 
HETATM    6  C9  UNL     1     -34.927  16.013  -4.229  1.00 20.00     0.056 C 
ENDROOT
BRANCH   4   7
HETATM    7  C7  UNL     1     -34.177  13.437  -4.351  1.00 20.00     0.205 C 
HETATM    8  O12 UNL     1     -33.074  13.330  -3.739  1.00 20.00    -0.644 OA
HETATM    9  O13 UNL     1     -35.102  12.582  -4.488  1.00 20.00    -0.644 OA
ENDBRANCH   4   7
BRANCH   6  10
HETATM   10  C11 UNL     1     -36.260  16.199  -4.986  1.00 20.00     0.029 C 
HETATM   11  C4  UNL     1     -37.679  15.698  -5.055  1.00 20.00    -0.024 C 
HETATM   12  C3  UNL     1     -38.046  17.022  -5.268  1.00 20.00    -0.024 C 
HETATM   13  C10 UNL     1     -37.010  17.379  -4.236  1.00 20.00     0.028 C 
ENDBRANCH   6  10
TORSDOF 3
ENDMDL
MODEL 9
REMARK VINA RESULT:      -4.7      2.366      4.023
REMARK  3 active torsions:
REMARK  status: ('A' for Active; 'I' for Inactive)
REMARK    1  A    between atoms: C6_6  and  C7_7 
REMARK    2  A    between atoms: C8_8  and  C10_10 
REMARK    3  A    between atoms: C9_9  and  C11_11 
ROOT
HETATM    1  C1  UNL     1     -35.876  17.456  -4.745  1.00 20.00    -0.021 C 
HETATM    2  C2  UNL     1     -36.494  16.732  -3.779  1.00 20.00    -0.020 C 
HETATM    3  C5  UNL     1     -33.759  17.425  -3.527  1.00 20.00    -0.003 C 
HETATM    4  C6  UNL     1     -34.439  16.898  -2.484  1.00 20.00     0.024 C 
HETATM    5  C8  UNL     1     -34.366  17.106  -4.896  1.00 20.00     0.039 C 
HETATM    6  C9  UNL     1     -35.554  15.903  -2.901  1.00 20.00     0.056 C 
ENDROOT
BRANCH   4   7
HETATM    7  C7  UNL     1     -34.063  17.150  -1.048  1.00 20.00     0.205 C 
HETATM    8  O12 UNL     1     -34.821  16.615  -0.185  1.00 20.00    -0.644 OA
HETATM    9  O13 UNL     1     -33.034  17.868  -0.873  1.00 20.00    -0.644 OA
ENDBRANCH   4   7
BRANCH   6  10
HETATM   10  C11 UNL     1     -34.665  14.936  -3.713  1.00 20.00     0.029 C 
HETATM   11  C4  UNL     1     -33.749  13.748  -3.574  1.00 20.00    -0.024 C 
HETATM   12  C3  UNL     1     -34.328  13.273  -4.746  1.00 20.00    -0.024 C 
HETATM   13  C10 UNL     1     -35.636  13.776  -4.195  1.00 20.00     0.028 C 
ENDBRANCH   6  10
TORSDOF 3
ENDMDL
