MODEL 1
REMARK VINA RESULT:      -5.2      0.000      0.000
REMARK  0 active torsions:
REMARK  status: ('A' for Active; 'I' for Inactive)
ROOT
HETATM    1  C1  UNL     1     -33.781  16.611  -2.900  1.00 20.00    -0.021 C 
HETATM    2  C2  UNL     1     -33.612  17.560  -5.510  1.00 20.00    -0.021 C 
HETATM    3  C3  UNL     1     -34.469  15.481  -2.598  1.00 20.00    -0.018 C 
HETATM    4  C4  UNL     1     -34.074  16.831  -6.572  1.00 20.00    -0.024 C 
HETATM    5  C5  UNL     1     -35.100  13.715  -4.762  1.00 20.00     0.135 C 
HETATM    6  C6  UNL     1     -35.265  14.242  -6.220  1.00 20.00     0.087 C 
HETATM    7  C7  UNL     1     -33.489  16.623  -4.345  1.00 20.00     0.036 C 
HETATM    8  C8  UNL     1     -35.181  14.876  -3.770  1.00 20.00     0.083 C 
HETATM    9  C9  UNL     1     -34.308  15.407  -6.109  1.00 20.00     0.021 C 
HETATM   10  C10 UNL     1     -34.755  15.915  -4.758  1.00 20.00     0.020 C 
HETATM   11  O11 UNL     1     -35.002  12.537  -4.451  1.00 20.00    -0.297 OA
ENDROOT
TORSDOF 0
ENDMDL
MODEL 2
REMARK VINA RESULT:      -5.1     12.042     13.651
REMARK  0 active torsions:
REMARK  status: ('A' for Active; 'I' for Inactive)
ROOT
HETATM    1  C1  UNL     1     -33.815   6.770   6.772  1.00 20.00    -0.021 C 
HETATM    2  C2  UNL     1     -35.217   4.499   5.988  1.00 20.00    -0.021 C 
HETATM    3  C3  UNL     1     -32.942   7.390   5.937  1.00 20.00    -0.018 C 
HETATM    4  C4  UNL     1     -35.189   4.046   4.696  1.00 20.00    -0.024 C 
HETATM    5  C5  UNL     1     -33.131   6.768   3.148  1.00 20.00     0.135 C 
HETATM    6  C6  UNL     1     -33.683   5.395   2.658  1.00 20.00     0.087 C 
HETATM    7  C7  UNL     1     -34.711   5.910   5.977  1.00 20.00     0.036 C 
HETATM    8  C8  UNL     1     -32.754   6.685   4.628  1.00 20.00     0.083 C 
HETATM    9  C9  UNL     1     -34.618   5.141   3.818  1.00 20.00     0.021 C 
HETATM   10  C10 UNL     1     -33.684   5.553   4.932  1.00 20.00     0.020 C 
HETATM   11  O11 UNL     1     -32.951   7.745   2.436  1.00 20.00    -0.297 OA
ENDROOT
TORSDOF 0
ENDMDL
MODEL 3
REMARK VINA RESULT:      -5.0     11.623     13.136
REMARK  0 active torsions:
REMARK  status: ('A' for Active; 'I' for Inactive)
ROOT
HETATM    1  C1  UNL     1     -42.162   3.398  -2.516  1.00 20.00    -0.021 C 
HETATM    2  C2  UNL     1     -40.714   4.766  -0.574  1.00 20.00    -0.021 C 
HETATM    3  C3  UNL     1     -43.099   4.022  -3.274  1.00 20.00    -0.018 C 
HETATM    4  C4  UNL     1     -40.790   6.127  -0.444  1.00 20.00    -0.024 C 
HETATM    5  C5  UNL     1     -43.027   6.884  -3.352  1.00 20.00     0.135 C 
HETATM    6  C6  UNL     1     -42.449   7.714  -2.167  1.00 20.00     0.087 C 
HETATM    7  C7  UNL     1     -41.275   4.413  -1.919  1.00 20.00     0.036 C 
HETATM    8  C8  UNL     1     -43.326   5.455  -2.897  1.00 20.00     0.083 C 
HETATM    9  C9  UNL     1     -41.446   6.689  -1.688  1.00 20.00     0.021 C 
HETATM   10  C10 UNL     1     -42.338   5.472  -1.773  1.00 20.00     0.020 C 
HETATM   11  O11 UNL     1     -43.281   7.330  -4.462  1.00 20.00    -0.297 OA
ENDROOT
TORSDOF 0
ENDMDL
MODEL 4
REMARK VINA RESULT:      -5.0      1.826      3.064
REMARK  0 active torsions:
REMARK  status: ('A' for Active; 'I' for Inactive)
ROOT
HETATM    1  C1  UNL     1     -34.921  13.264  -4.598  1.00 20.00    -0.021 C 
HETATM    2  C2  UNL     1     -35.149  14.445  -7.106  1.00 20.00    -0.021 C 
HETATM    3  C3  UNL     1     -34.212  13.848  -3.599  1.00 20.00    -0.018 C 
HETATM    4  C4  UNL     1     -34.694  15.714  -7.349  1.00 20.00    -0.024 C 
HETATM    5  C5  UNL     1     -33.594  16.630  -3.886  1.00 20.00     0.135 C 
HETATM    6  C6  UNL     1     -33.462  17.292  -5.291  1.00 20.00     0.087 C 
HETATM    7  C7  UNL     1     -35.238  14.279  -5.619  1.00 20.00     0.036 C 
HETATM    8  C8  UNL     1     -33.512  15.108  -4.011  1.00 20.00     0.083 C 
HETATM    9  C9  UNL     1     -34.433  16.390  -6.018  1.00 20.00     0.021 C 
HETATM   10  C10 UNL     1     -33.970  15.074  -5.436  1.00 20.00     0.020 C 
HETATM   11  O11 UNL     1     -33.671  17.240  -2.829  1.00 20.00    -0.297 OA
ENDROOT
TORSDOF 0
ENDMDL
MODEL 5
REMARK VINA RESULT:      -5.0      1.184      2.127
REMARK  0 active torsions:
REMARK  status: ('A' for Active; 'I' for Inactive)
ROOT
HETATM    1  C1  UNL     1     -33.572  17.144  -5.492  1.00 20.00    -0.021 C 
HETATM    2  C2  UNL     1     -35.320  15.958  -7.301  1.00 20.00    -0.021 C 
HETATM    3  C3  UNL     1     -33.248  16.543  -4.319  1.00 20.00    -0.018 C 
HETATM    4  C4  UNL     1     -35.768  14.674  -7.134  1.00 20.00    -0.024 C 
HETATM    5  C5  UNL     1     -33.800  13.742  -4.085  1.00 20.00     0.135 C 
HETATM    6  C6  UNL     1     -34.946  13.070  -4.900  1.00 20.00     0.087 C 
HETATM    7  C7  UNL     1     -34.127  16.133  -6.411  1.00 20.00     0.036 C 
HETATM    8  C8  UNL     1     -33.984  15.261  -4.072  1.00 20.00     0.083 C 
HETATM    9  C9  UNL     1     -34.901  13.997  -6.093  1.00 20.00     0.021 C 
HETATM   10  C10 UNL     1     -34.782  15.301  -5.337  1.00 20.00     0.020 C 
HETATM   11  O11 UNL     1     -32.926  13.141  -3.478  1.00 20.00    -0.297 OA
ENDROOT
TORSDOF 0
ENDMDL
MODEL 6
REMARK VINA RESULT:      -4.9      1.066      2.672
REMARK  0 active torsions:
REMARK  status: ('A' for Active; 'I' for Inactive)
ROOT
HETATM    1  C1  UNL     1     -35.615  15.903  -7.424  1.00 20.00    -0.021 C 
HETATM    2  C2  UNL     1     -34.003  17.524  -5.839  1.00 20.00    -0.021 C 
HETATM    3  C3  UNL     1     -35.666  14.559  -7.244  1.00 20.00    -0.018 C 
HETATM    4  C4  UNL     1     -33.350  17.035  -4.739  1.00 20.00    -0.024 C 
HETATM    5  C5  UNL     1     -34.678  13.531  -4.761  1.00 20.00     0.135 C 
HETATM    6  C6  UNL     1     -33.580  14.284  -3.950  1.00 20.00     0.087 C 
HETATM    7  C7  UNL     1     -35.061  16.529  -6.209  1.00 20.00     0.036 C 
HETATM    8  C8  UNL     1     -34.720  14.052  -6.198  1.00 20.00     0.083 C 
HETATM    9  C9  UNL     1     -33.941  15.683  -4.395  1.00 20.00     0.021 C 
HETATM   10  C10 UNL     1     -34.136  15.389  -5.865  1.00 20.00     0.020 C 
HETATM   11  O11 UNL     1     -35.351  12.604  -4.334  1.00 20.00    -0.297 OA
ENDROOT
TORSDOF 0
ENDMDL
MODEL 7
REMARK VINA RESULT:      -4.9      1.909      3.055
REMARK  0 active torsions:
REMARK  status: ('A' for Active; 'I' for Inactive)
ROOT
HETATM    1  C1  UNL     1     -33.887  16.289  -2.907  1.00 20.00    -0.021 C 
HETATM    2  C2  UNL     1     -34.396  13.637  -3.574  1.00 20.00    -0.021 C 
HETATM    3  C3  UNL     1     -33.614  17.220  -3.855  1.00 20.00    -0.018 C 
HETATM    4  C4  UNL     1     -34.546  13.238  -4.875  1.00 20.00    -0.024 C 
HETATM    5  C5  UNL     1     -34.301  16.575  -6.560  1.00 20.00     0.135 C 
HETATM    6  C6  UNL     1     -34.356  15.098  -7.054  1.00 20.00     0.087 C 
HETATM    7  C7  UNL     1     -34.536  15.129  -3.546  1.00 20.00     0.036 C 
HETATM    8  C8  UNL     1     -33.527  16.662  -5.244  1.00 20.00     0.083 C 
HETATM    9  C9  UNL     1     -34.742  14.471  -5.734  1.00 20.00     0.021 C 
HETATM   10  C10 UNL     1     -33.788  15.242  -4.851  1.00 20.00     0.020 C 
HETATM   11  O11 UNL     1     -34.742  17.536  -7.174  1.00 20.00    -0.297 OA
ENDROOT
TORSDOF 0
ENDMDL
MODEL 8
REMARK VINA RESULT:      -4.8     12.438     13.913
REMARK  0 active torsions:
REMARK  status: ('A' for Active; 'I' for Inactive)
ROOT
HETATM    1  C1  UNL     1     -35.459   4.237   4.893  1.00 20.00    -0.021 C 
HETATM    2  C2  UNL     1     -34.001   5.178   2.718  1.00 20.00    -0.021 C 
HETATM    3  C3  UNL     1     -35.192   4.648   6.158  1.00 20.00    -0.018 C 
HETATM    4  C4  UNL     1     -33.094   6.195   2.846  1.00 20.00    -0.024 C 
HETATM    5  C5  UNL     1     -33.626   7.027   6.460  1.00 20.00     0.135 C 
HETATM    6  C6  UNL     1     -32.601   7.468   5.371  1.00 20.00     0.087 C 
HETATM    7  C7  UNL     1     -34.867   5.196   3.942  1.00 20.00     0.036 C 
HETATM    8  C8  UNL     1     -34.006   5.559   6.261  1.00 20.00     0.083 C 
HETATM    9  C9  UNL     1     -33.319   6.872   4.182  1.00 20.00     0.021 C 
HETATM   10  C10 UNL     1     -33.677   5.541   4.801  1.00 20.00     0.020 C 
HETATM   11  O11 UNL     1     -34.009   7.728   7.386  1.00 20.00    -0.297 OA
ENDROOT
TORSDOF 0
ENDMDL
MODEL 9
REMARK VINA RESULT:      -4.8      1.246      2.914
REMARK  0 active torsions:
REMARK  status: ('A' for Active; 'I' for Inactive)
ROOT
HETATM    1  C1  UNL     1     -33.681  18.247  -4.573  1.00 20.00    -0.021 C 
HETATM    2  C2  UNL     1     -34.237  17.560  -1.936  1.00 20.00    -0.021 C 
HETATM    3  C3  UNL     1     -33.455  17.303  -5.521  1.00 20.00    -0.018 C 
HETATM    4  C4  UNL     1     -34.458  16.261  -1.562  1.00 20.00    -0.024 C 
HETATM    5  C5  UNL     1     -34.288  14.627  -4.929  1.00 20.00     0.135 C 
HETATM    6  C6  UNL     1     -34.376  14.110  -3.461  1.00 20.00     0.087 C 
HETATM    7  C7  UNL     1     -34.368  17.623  -3.428  1.00 20.00     0.036 C 
HETATM    8  C8  UNL     1     -33.444  15.902  -4.989  1.00 20.00     0.083 C 
HETATM    9  C9  UNL     1     -34.694  15.437  -2.811  1.00 20.00     0.021 C 
HETATM   10  C10 UNL     1     -33.691  16.282  -3.563  1.00 20.00     0.020 C 
HETATM   11  O11 UNL     1     -34.757  14.055  -5.903  1.00 20.00    -0.297 OA
ENDROOT
TORSDOF 0
ENDMDL
