MODEL 1
REMARK VINA RESULT:      -5.3      0.000      0.000
REMARK  0 active torsions:
REMARK  status: ('A' for Active; 'I' for Inactive)
ROOT
HETATM    1  C1  UNL     1     -33.421  13.958  -3.873  1.00 20.00    -0.023 C 
HETATM    2  C2  UNL     1     -34.460  13.162  -4.311  1.00 20.00    -0.013 C 
HETATM    3  C3  UNL     1     -36.686  14.769  -3.750  1.00 20.00     0.140 C 
HETATM    4  C4  UNL     1     -36.434  16.044  -2.903  1.00 20.00     0.088 C 
HETATM    5  C5  UNL     1     -34.435  14.734  -3.092  1.00 20.00     0.035 C 
HETATM    6  C6  UNL     1     -35.323  14.425  -4.404  1.00 20.00     0.042 C 
HETATM    7  C7  UNL     1     -34.856  16.162  -2.785  1.00 20.00    -0.033 C 
HETATM    8  C8  UNL     1     -35.271  15.001  -5.828  1.00 20.00     0.029 C 
HETATM    9  C9  UNL     1     -34.229  17.220  -3.690  1.00 20.00     0.016 C 
HETATM   10  C10 UNL     1     -34.467  16.501  -1.334  1.00 20.00     0.016 C 
HETATM   11  O11 UNL     1     -37.774  14.222  -3.864  1.00 20.00    -0.297 OA
ENDROOT
TORSDOF 0
ENDMDL
MODEL 2
REMARK VINA RESULT:      -5.0      1.743      3.230
REMARK  0 active torsions:
REMARK  status: ('A' for Active; 'I' for Inactive)
ROOT
HETATM    1  C1  UNL     1     -35.047  16.899  -2.500  1.00 20.00    -0.023 C 
HETATM    2  C2  UNL     1     -33.876  16.246  -2.170  1.00 20.00    -0.013 C 
HETATM    3  C3  UNL     1     -34.026  13.955  -3.778  1.00 20.00     0.140 C 
HETATM    4  C4  UNL     1     -35.371  13.700  -4.510  1.00 20.00     0.088 C 
HETATM    5  C5  UNL     1     -35.537  15.597  -3.052  1.00 20.00     0.035 C 
HETATM    6  C6  UNL     1     -33.989  15.479  -3.493  1.00 20.00     0.042 C 
HETATM    7  C7  UNL     1     -36.231  15.011  -4.271  1.00 20.00    -0.033 C 
HETATM    8  C8  UNL     1     -33.185  16.193  -4.591  1.00 20.00     0.029 C 
HETATM    9  C9  UNL     1     -36.306  15.949  -5.474  1.00 20.00     0.016 C 
HETATM   10  C10 UNL     1     -37.673  14.624  -3.892  1.00 20.00     0.016 C 
HETATM   11  O11 UNL     1     -33.196  13.090  -3.542  1.00 20.00    -0.297 OA
ENDROOT
TORSDOF 0
ENDMDL
MODEL 3
REMARK VINA RESULT:      -4.8      1.325      2.204
REMARK  0 active torsions:
REMARK  status: ('A' for Active; 'I' for Inactive)
ROOT
HETATM    1  C1  UNL     1     -34.415  14.983  -6.939  1.00 20.00    -0.023 C 
HETATM    2  C2  UNL     1     -35.711  14.510  -6.913  1.00 20.00    -0.013 C 
HETATM    3  C3  UNL     1     -36.320  14.658  -4.182  1.00 20.00     0.140 C 
HETATM    4  C4  UNL     1     -35.146  14.976  -3.219  1.00 20.00     0.088 C 
HETATM    5  C5  UNL     1     -34.359  14.711  -5.469  1.00 20.00     0.035 C 
HETATM    6  C6  UNL     1     -35.889  15.214  -5.564  1.00 20.00     0.042 C 
HETATM    7  C7  UNL     1     -33.924  15.350  -4.160  1.00 20.00    -0.033 C 
HETATM    8  C8  UNL     1     -36.490  16.614  -5.770  1.00 20.00     0.029 C 
HETATM    9  C9  UNL     1     -33.624  16.845  -4.248  1.00 20.00     0.016 C 
HETATM   10  C10 UNL     1     -32.648  14.649  -3.656  1.00 20.00     0.016 C 
HETATM   11  O11 UNL     1     -37.360  14.112  -3.843  1.00 20.00    -0.297 OA
ENDROOT
TORSDOF 0
ENDMDL
MODEL 4
REMARK VINA RESULT:      -4.8      1.632      2.423
REMARK  0 active torsions:
REMARK  status: ('A' for Active; 'I' for Inactive)
ROOT
HETATM    1  C1  UNL     1     -34.133  16.644  -6.228  1.00 20.00    -0.023 C 
HETATM    2  C2  UNL     1     -34.135  15.418  -6.861  1.00 20.00    -0.013 C 
HETATM    3  C3  UNL     1     -34.833  13.694  -4.764  1.00 20.00     0.140 C 
HETATM    4  C4  UNL     1     -34.858  14.301  -3.337  1.00 20.00     0.088 C 
HETATM    5  C5  UNL     1     -34.052  15.899  -4.933  1.00 20.00     0.035 C 
HETATM    6  C6  UNL     1     -35.027  14.891  -5.731  1.00 20.00     0.042 C 
HETATM    7  C7  UNL     1     -34.670  15.863  -3.544  1.00 20.00    -0.033 C 
HETATM    8  C8  UNL     1     -36.508  15.005  -6.127  1.00 20.00     0.029 C 
HETATM    9  C9  UNL     1     -35.951  16.682  -3.395  1.00 20.00     0.016 C 
HETATM   10  C10 UNL     1     -33.651  16.404  -2.524  1.00 20.00     0.016 C 
HETATM   11  O11 UNL     1     -34.720  12.500  -5.003  1.00 20.00    -0.297 OA
ENDROOT
TORSDOF 0
ENDMDL
MODEL 5
REMARK VINA RESULT:      -4.8      2.145      3.826
REMARK  0 active torsions:
REMARK  status: ('A' for Active; 'I' for Inactive)
ROOT
HETATM    1  C1  UNL     1     -34.896  13.097  -4.498  1.00 20.00    -0.023 C 
HETATM    2  C2  UNL     1     -33.846  13.730  -3.865  1.00 20.00    -0.013 C 
HETATM    3  C3  UNL     1     -33.799  16.208  -5.173  1.00 20.00     0.140 C 
HETATM    4  C4  UNL     1     -34.700  16.356  -6.427  1.00 20.00     0.088 C 
HETATM    5  C5  UNL     1     -34.755  14.108  -5.593  1.00 20.00     0.035 C 
HETATM    6  C6  UNL     1     -34.431  15.066  -4.336  1.00 20.00     0.042 C 
HETATM    7  C7  UNL     1     -35.585  15.039  -6.462  1.00 20.00    -0.033 C 
HETATM    8  C8  UNL     1     -35.339  15.661  -3.247  1.00 20.00     0.029 C 
HETATM    9  C9  UNL     1     -37.027  15.231  -5.995  1.00 20.00     0.016 C 
HETATM   10  C10 UNL     1     -35.631  14.482  -7.897  1.00 20.00     0.016 C 
HETATM   11  O11 UNL     1     -32.826  16.910  -4.938  1.00 20.00    -0.297 OA
ENDROOT
TORSDOF 0
ENDMDL
MODEL 6
REMARK VINA RESULT:      -4.8      1.222      2.822
REMARK  0 active torsions:
REMARK  status: ('A' for Active; 'I' for Inactive)
ROOT
HETATM    1  C1  UNL     1     -33.713  15.929  -3.692  1.00 20.00    -0.023 C 
HETATM    2  C2  UNL     1     -34.547  15.344  -2.760  1.00 20.00    -0.013 C 
HETATM    3  C3  UNL     1     -36.762  14.649  -4.330  1.00 20.00     0.140 C 
HETATM    4  C4  UNL     1     -36.792  15.197  -5.781  1.00 20.00     0.088 C 
HETATM    5  C5  UNL     1     -34.914  16.073  -4.574  1.00 20.00     0.035 C 
HETATM    6  C6  UNL     1     -35.267  14.642  -3.916  1.00 20.00     0.042 C 
HETATM    7  C7  UNL     1     -35.365  15.853  -6.009  1.00 20.00    -0.033 C 
HETATM    8  C8  UNL     1     -34.672  13.243  -4.142  1.00 20.00     0.029 C 
HETATM    9  C9  UNL     1     -34.410  15.016  -6.857  1.00 20.00     0.016 C 
HETATM   10  C10 UNL     1     -35.526  17.219  -6.702  1.00 20.00     0.016 C 
HETATM   11  O11 UNL     1     -37.750  14.279  -3.713  1.00 20.00    -0.297 OA
ENDROOT
TORSDOF 0
ENDMDL
MODEL 7
REMARK VINA RESULT:      -4.7     10.899     12.337
REMARK  0 active torsions:
REMARK  status: ('A' for Active; 'I' for Inactive)
ROOT
HETATM    1  C1  UNL     1     -40.751   5.887  -0.263  1.00 20.00    -0.023 C 
HETATM    2  C2  UNL     1     -40.931   7.145  -0.801  1.00 20.00    -0.013 C 
HETATM    3  C3  UNL     1     -42.765   6.632  -2.857  1.00 20.00     0.140 C 
HETATM    4  C4  UNL     1     -43.055   5.143  -3.180  1.00 20.00     0.088 C 
HETATM    5  C5  UNL     1     -41.325   5.338  -1.531  1.00 20.00     0.035 C 
HETATM    6  C6  UNL     1     -42.255   6.650  -1.392  1.00 20.00     0.042 C 
HETATM    7  C7  UNL     1     -42.335   4.318  -2.032  1.00 20.00    -0.033 C 
HETATM    8  C8  UNL     1     -43.417   6.979  -0.442  1.00 20.00     0.029 C 
HETATM    9  C9  UNL     1     -43.274   3.770  -0.959  1.00 20.00     0.016 C 
HETATM   10  C10 UNL     1     -41.582   3.122  -2.645  1.00 20.00     0.016 C 
HETATM   11  O11 UNL     1     -42.958   7.556  -3.634  1.00 20.00    -0.297 OA
ENDROOT
TORSDOF 0
ENDMDL
MODEL 8
REMARK VINA RESULT:      -4.7      1.557      3.203
REMARK  0 active torsions:
REMARK  status: ('A' for Active; 'I' for Inactive)
ROOT
HETATM    1  C1  UNL     1     -34.982  16.773  -3.057  1.00 20.00    -0.023 C 
HETATM    2  C2  UNL     1     -34.903  15.555  -2.412  1.00 20.00    -0.013 C 
HETATM    3  C3  UNL     1     -34.869  13.768  -4.570  1.00 20.00     0.140 C 
HETATM    4  C4  UNL     1     -35.164  14.359  -5.974  1.00 20.00     0.088 C 
HETATM    5  C5  UNL     1     -35.436  16.024  -4.270  1.00 20.00     0.035 C 
HETATM    6  C6  UNL     1     -34.360  14.957  -3.715  1.00 20.00     0.042 C 
HETATM    7  C7  UNL     1     -35.190  15.932  -5.768  1.00 20.00    -0.033 C 
HETATM    8  C8  UNL     1     -32.823  14.970  -3.706  1.00 20.00     0.029 C 
HETATM    9  C9  UNL     1     -33.937  16.657  -6.255  1.00 20.00     0.016 C 
HETATM   10  C10 UNL     1     -36.396  16.534  -6.514  1.00 20.00     0.016 C 
HETATM   11  O11 UNL     1     -34.997  12.587  -4.279  1.00 20.00    -0.297 OA
ENDROOT
TORSDOF 0
ENDMDL
MODEL 9
REMARK VINA RESULT:      -4.7      2.125      3.790
REMARK  0 active torsions:
REMARK  status: ('A' for Active; 'I' for Inactive)
ROOT
HETATM    1  C1  UNL     1     -34.495  16.389  -1.368  1.00 20.00    -0.023 C 
HETATM    2  C2  UNL     1     -34.118  17.655  -1.767  1.00 20.00    -0.013 C 
HETATM    3  C3  UNL     1     -33.802  17.313  -4.530  1.00 20.00     0.140 C 
HETATM    4  C4  UNL     1     -33.853  15.858  -5.066  1.00 20.00     0.088 C 
HETATM    5  C5  UNL     1     -33.953  15.891  -2.671  1.00 20.00     0.035 C 
HETATM    6  C6  UNL     1     -34.572  17.290  -3.185  1.00 20.00     0.042 C 
HETATM    7  C7  UNL     1     -34.307  14.973  -3.830  1.00 20.00    -0.033 C 
HETATM    8  C8  UNL     1     -36.025  17.740  -3.410  1.00 20.00     0.029 C 
HETATM    9  C9  UNL     1     -35.768  14.529  -3.869  1.00 20.00     0.016 C 
HETATM   10  C10 UNL     1     -33.437  13.705  -3.752  1.00 20.00     0.016 C 
HETATM   11  O11 UNL     1     -33.277  18.246  -5.121  1.00 20.00    -0.297 OA
ENDROOT
TORSDOF 0
ENDMDL
