MODEL 1
REMARK VINA RESULT:      -4.8      0.000      0.000
REMARK  0 active torsions:
REMARK  status: ('A' for Active; 'I' for Inactive)
ROOT
HETATM    1  C1  UNL     1     -33.412  17.199  -4.700  1.00 20.00    -0.029 C 
HETATM    2  C2  UNL     1     -33.562  15.903  -5.013  1.00 20.00    -0.014 C 
HETATM    3  C3  UNL     1     -35.208  15.290  -3.151  1.00 20.00     0.143 C 
HETATM    4  C4  UNL     1     -33.960  17.932  -3.512  1.00 20.00     0.032 C 
HETATM    5  C5  UNL     1     -35.027  17.106  -1.296  1.00 20.00     0.018 A 
HETATM    6  C6  UNL     1     -34.489  15.886  -1.997  1.00 20.00     0.061 A 
HETATM    7  C7  UNL     1     -33.831  17.226  -2.197  1.00 20.00     0.001 A 
HETATM    8  C8  UNL     1     -34.335  14.796  -4.319  1.00 20.00     0.031 C 
HETATM    9  C9  UNL     1     -35.255  14.133  -5.363  1.00 20.00     0.027 C 
HETATM   10  C10 UNL     1     -33.347  13.737  -3.803  1.00 20.00     0.027 C 
HETATM   11  O11 UNL     1     -36.432  15.213  -3.130  1.00 20.00    -0.296 OA
ENDROOT
TORSDOF 0
ENDMDL
MODEL 2
REMARK VINA RESULT:      -4.8      1.891      3.148
REMARK  0 active torsions:
REMARK  status: ('A' for Active; 'I' for Inactive)
ROOT
HETATM    1  C1  UNL     1     -34.738  13.293  -4.616  1.00 20.00    -0.029 C 
HETATM    2  C2  UNL     1     -35.100  13.967  -5.719  1.00 20.00    -0.014 C 
HETATM    3  C3  UNL     1     -34.106  16.235  -5.073  1.00 20.00     0.143 C 
HETATM    4  C4  UNL     1     -34.091  13.830  -3.375  1.00 20.00     0.032 C 
HETATM    5  C5  UNL     1     -33.752  16.247  -2.495  1.00 20.00     0.018 A 
HETATM    6  C6  UNL     1     -34.653  16.349  -3.698  1.00 20.00     0.061 A 
HETATM    7  C7  UNL     1     -34.667  15.108  -2.844  1.00 20.00     0.001 A 
HETATM    8  C8  UNL     1     -34.949  15.433  -6.080  1.00 20.00     0.031 C 
HETATM    9  C9  UNL     1     -34.263  15.514  -7.458  1.00 20.00     0.027 C 
HETATM   10  C10 UNL     1     -36.344  16.071  -6.197  1.00 20.00     0.027 C 
HETATM   11  O11 UNL     1     -33.037  16.771  -5.346  1.00 20.00    -0.296 OA
ENDROOT
TORSDOF 0
ENDMDL
MODEL 3
REMARK VINA RESULT:      -4.8      1.705      3.670
REMARK  0 active torsions:
REMARK  status: ('A' for Active; 'I' for Inactive)
ROOT
HETATM    1  C1  UNL     1     -36.623  16.104  -4.327  1.00 20.00    -0.029 C 
HETATM    2  C2  UNL     1     -35.945  16.834  -3.427  1.00 20.00    -0.014 C 
HETATM    3  C3  UNL     1     -33.709  15.600  -3.604  1.00 20.00     0.143 C 
HETATM    4  C4  UNL     1     -36.169  14.870  -5.046  1.00 20.00     0.032 C 
HETATM    5  C5  UNL     1     -34.166  13.267  -4.661  1.00 20.00     0.018 A 
HETATM    6  C6  UNL     1     -34.200  14.205  -3.483  1.00 20.00     0.061 A 
HETATM    7  C7  UNL     1     -35.474  13.845  -4.202  1.00 20.00     0.001 A 
HETATM    8  C8  UNL     1     -34.536  16.681  -2.884  1.00 20.00     0.031 C 
HETATM    9  C9  UNL     1     -33.814  18.033  -3.051  1.00 20.00     0.027 C 
HETATM   10  C10 UNL     1     -34.605  16.353  -1.384  1.00 20.00     0.027 C 
HETATM   11  O11 UNL     1     -32.693  15.832  -4.251  1.00 20.00    -0.296 OA
ENDROOT
TORSDOF 0
ENDMDL
MODEL 4
REMARK VINA RESULT:      -4.7      1.882      3.978
REMARK  0 active torsions:
REMARK  status: ('A' for Active; 'I' for Inactive)
ROOT
HETATM    1  C1  UNL     1     -36.777  14.902  -4.410  1.00 20.00    -0.029 C 
HETATM    2  C2  UNL     1     -35.709  14.786  -3.604  1.00 20.00    -0.014 C 
HETATM    3  C3  UNL     1     -33.958  15.714  -5.224  1.00 20.00     0.143 C 
HETATM    4  C4  UNL     1     -36.806  15.313  -5.851  1.00 20.00     0.032 C 
HETATM    5  C5  UNL     1     -34.934  15.558  -7.631  1.00 20.00     0.018 A 
HETATM    6  C6  UNL     1     -34.302  14.913  -6.426  1.00 20.00     0.061 A 
HETATM    7  C7  UNL     1     -35.761  14.689  -6.726  1.00 20.00     0.001 A 
HETATM    8  C8  UNL     1     -34.238  15.056  -3.861  1.00 20.00     0.031 C 
HETATM    9  C9  UNL     1     -33.729  16.001  -2.754  1.00 20.00     0.027 C 
HETATM   10  C10 UNL     1     -33.457  13.734  -3.765  1.00 20.00     0.027 C 
HETATM   11  O11 UNL     1     -33.476  16.834  -5.359  1.00 20.00    -0.296 OA
ENDROOT
TORSDOF 0
ENDMDL
MODEL 5
REMARK VINA RESULT:      -4.7     11.817     13.163
REMARK  0 active torsions:
REMARK  status: ('A' for Active; 'I' for Inactive)
ROOT
HETATM    1  C1  UNL     1     -40.455   5.838  -0.498  1.00 20.00    -0.029 C 
HETATM    2  C2  UNL     1     -40.972   4.641  -0.819  1.00 20.00    -0.014 C 
HETATM    3  C3  UNL     1     -42.844   5.479  -2.351  1.00 20.00     0.143 C 
HETATM    4  C4  UNL     1     -40.979   7.196  -0.854  1.00 20.00     0.032 C 
HETATM    5  C5  UNL     1     -43.259   7.990  -1.805  1.00 20.00     0.018 A 
HETATM    6  C6  UNL     1     -43.415   6.529  -1.470  1.00 20.00     0.061 A 
HETATM    7  C7  UNL     1     -42.456   7.387  -0.687  1.00 20.00     0.001 A 
HETATM    8  C8  UNL     1     -42.192   4.276  -1.644  1.00 20.00     0.031 C 
HETATM    9  C9  UNL     1     -41.750   3.265  -2.721  1.00 20.00     0.027 C 
HETATM   10  C10 UNL     1     -43.231   3.594  -0.738  1.00 20.00     0.027 C 
HETATM   11  O11 UNL     1     -42.913   5.605  -3.568  1.00 20.00    -0.296 OA
ENDROOT
TORSDOF 0
ENDMDL
MODEL 6
REMARK VINA RESULT:      -4.7     12.111     13.427
REMARK  0 active torsions:
REMARK  status: ('A' for Active; 'I' for Inactive)
ROOT
HETATM    1  C1  UNL     1     -34.821   3.851   5.646  1.00 20.00    -0.029 C 
HETATM    2  C2  UNL     1     -35.110   4.166   4.374  1.00 20.00    -0.014 C 
HETATM    3  C3  UNL     1     -33.729   6.318   4.235  1.00 20.00     0.143 C 
HETATM    4  C4  UNL     1     -34.045   4.656   6.645  1.00 20.00     0.032 C 
HETATM    5  C5  UNL     1     -33.277   7.135   6.664  1.00 20.00     0.018 A 
HETATM    6  C6  UNL     1     -34.196   6.977   5.480  1.00 20.00     0.061 A 
HETATM    7  C7  UNL     1     -34.381   6.116   6.703  1.00 20.00     0.001 A 
HETATM    8  C8  UNL     1     -34.734   5.378   3.542  1.00 20.00     0.031 C 
HETATM    9  C9  UNL     1     -34.098   4.874   2.231  1.00 20.00     0.027 C 
HETATM   10  C10 UNL     1     -36.007   6.165   3.190  1.00 20.00     0.027 C 
HETATM   11  O11 UNL     1     -32.599   6.541   3.817  1.00 20.00    -0.296 OA
ENDROOT
TORSDOF 0
ENDMDL
MODEL 7
REMARK VINA RESULT:      -4.6      1.095      3.566
REMARK  0 active torsions:
REMARK  status: ('A' for Active; 'I' for Inactive)
ROOT
HETATM    1  C1  UNL     1     -33.526  13.840  -3.917  1.00 20.00    -0.029 C 
HETATM    2  C2  UNL     1     -33.458  14.933  -3.140  1.00 20.00    -0.014 C 
HETATM    3  C3  UNL     1     -35.715  15.953  -3.787  1.00 20.00     0.143 C 
HETATM    4  C4  UNL     1     -34.572  13.493  -4.933  1.00 20.00     0.032 C 
HETATM    5  C5  UNL     1     -36.451  14.894  -6.048  1.00 20.00     0.018 A 
HETATM    6  C6  UNL     1     -35.599  15.859  -5.264  1.00 20.00     0.061 A 
HETATM    7  C7  UNL     1     -34.990  14.609  -5.842  1.00 20.00     0.001 A 
HETATM    8  C8  UNL     1     -34.397  16.118  -3.008  1.00 20.00     0.031 C 
HETATM    9  C9  UNL     1     -34.737  16.290  -1.514  1.00 20.00     0.027 C 
HETATM   10  C10 UNL     1     -33.677  17.389  -3.490  1.00 20.00     0.027 C 
HETATM   11  O11 UNL     1     -36.820  15.900  -3.260  1.00 20.00    -0.296 OA
ENDROOT
TORSDOF 0
ENDMDL
MODEL 8
REMARK VINA RESULT:      -4.6      1.686      3.315
REMARK  0 active torsions:
REMARK  status: ('A' for Active; 'I' for Inactive)
ROOT
HETATM    1  C1  UNL     1     -33.361  16.577  -5.688  1.00 20.00    -0.029 C 
HETATM    2  C2  UNL     1     -33.236  15.961  -4.501  1.00 20.00    -0.014 C 
HETATM    3  C3  UNL     1     -34.987  14.133  -4.879  1.00 20.00     0.143 C 
HETATM    4  C4  UNL     1     -34.359  16.299  -6.772  1.00 20.00     0.032 C 
HETATM    5  C5  UNL     1     -36.551  14.912  -6.807  1.00 20.00     0.018 A 
HETATM    6  C6  UNL     1     -36.105  14.977  -5.370  1.00 20.00     0.061 A 
HETATM    7  C7  UNL     1     -35.773  16.100  -6.317  1.00 20.00     0.001 A 
HETATM    8  C8  UNL     1     -34.006  14.801  -3.898  1.00 20.00     0.031 C 
HETATM    9  C9  UNL     1     -32.985  13.741  -3.439  1.00 20.00     0.027 C 
HETATM   10  C10 UNL     1     -34.779  15.295  -2.664  1.00 20.00     0.027 C 
HETATM   11  O11 UNL     1     -34.891  12.971  -5.259  1.00 20.00    -0.296 OA
ENDROOT
TORSDOF 0
ENDMDL
MODEL 9
REMARK VINA RESULT:      -4.5      1.625      2.935
REMARK  0 active torsions:
REMARK  status: ('A' for Active; 'I' for Inactive)
ROOT
HETATM    1  C1  UNL     1     -34.137  17.037  -1.249  1.00 20.00    -0.029 C 
HETATM    2  C2  UNL     1     -34.563  15.946  -1.906  1.00 20.00    -0.014 C 
HETATM    3  C3  UNL     1     -33.817  16.648  -4.252  1.00 20.00     0.143 C 
HETATM    4  C4  UNL     1     -33.558  18.294  -1.824  1.00 20.00     0.032 C 
HETATM    5  C5  UNL     1     -33.481  19.229  -4.243  1.00 20.00     0.018 A 
HETATM    6  C6  UNL     1     -34.381  18.021  -4.276  1.00 20.00     0.061 A 
HETATM    7  C7  UNL     1     -34.269  18.848  -3.021  1.00 20.00     0.001 A 
HETATM    8  C8  UNL     1     -34.566  15.617  -3.387  1.00 20.00     0.031 C 
HETATM    9  C9  UNL     1     -33.884  14.247  -3.571  1.00 20.00     0.027 C 
HETATM   10  C10 UNL     1     -36.019  15.503  -3.876  1.00 20.00     0.027 C 
HETATM   11  O11 UNL     1     -32.810  16.395  -4.903  1.00 20.00    -0.296 OA
ENDROOT
TORSDOF 0
ENDMDL
