MODEL 1
REMARK VINA RESULT:      -3.6      0.000      0.000
REMARK  0 active torsions:
REMARK  status: ('A' for Active; 'I' for Inactive)
ROOT
HETATM    1  C1  UNL     1     -34.996  15.658  -4.436  1.00 20.00     0.005 A 
HETATM    2  C2  UNL     1     -34.953  14.747  -3.445  1.00 20.00     0.107 A 
HETATM    3  C3  UNL     1     -34.376  14.802  -5.550  1.00 20.00     0.132 A 
HETATM    4  C4  UNL     1     -35.255  14.599  -6.775  1.00 20.00     0.031 C 
HETATM    5  O5  UNL     1     -35.383  12.555  -4.349  1.00 20.00    -0.223 OA
HETATM    6  O6  UNL     1     -33.014  13.336  -3.692  1.00 20.00    -0.223 OA
HETATM    7  S7  UNL     1     -34.248  13.443  -4.436  1.00 20.00     0.172 S 
ENDROOT
TORSDOF 0
ENDMDL
MODEL 2
REMARK VINA RESULT:      -3.6      0.828      2.612
REMARK  0 active torsions:
REMARK  status: ('A' for Active; 'I' for Inactive)
ROOT
HETATM    1  C1  UNL     1     -35.142  15.820  -4.659  1.00 20.00     0.005 A 
HETATM    2  C2  UNL     1     -34.435  14.846  -5.263  1.00 20.00     0.107 A 
HETATM    3  C3  UNL     1     -35.264  15.177  -3.269  1.00 20.00     0.132 A 
HETATM    4  C4  UNL     1     -34.676  15.990  -2.126  1.00 20.00     0.031 C 
HETATM    5  O5  UNL     1     -32.884  13.886  -3.688  1.00 20.00    -0.223 OA
HETATM    6  O6  UNL     1     -35.062  12.691  -4.383  1.00 20.00    -0.223 OA
HETATM    7  S7  UNL     1     -34.319  13.798  -3.825  1.00 20.00     0.172 S 
ENDROOT
TORSDOF 0
ENDMDL
MODEL 3
REMARK VINA RESULT:      -3.6      1.351      2.465
REMARK  0 active torsions:
REMARK  status: ('A' for Active; 'I' for Inactive)
ROOT
HETATM    1  C1  UNL     1     -34.632  15.474  -5.611  1.00 20.00     0.005 A 
HETATM    2  C2  UNL     1     -35.477  14.453  -5.852  1.00 20.00     0.107 A 
HETATM    3  C3  UNL     1     -34.430  15.245  -4.105  1.00 20.00     0.132 A 
HETATM    4  C4  UNL     1     -32.992  14.998  -3.675  1.00 20.00     0.031 C 
HETATM    5  O5  UNL     1     -34.868  12.567  -4.482  1.00 20.00    -0.223 OA
HETATM    6  O6  UNL     1     -36.891  14.072  -3.936  1.00 20.00    -0.223 OA
HETATM    7  S7  UNL     1     -35.486  13.836  -4.178  1.00 20.00     0.172 S 
ENDROOT
TORSDOF 0
ENDMDL
MODEL 4
REMARK VINA RESULT:      -3.5     12.169     12.935
REMARK  0 active torsions:
REMARK  status: ('A' for Active; 'I' for Inactive)
ROOT
HETATM    1  C1  UNL     1     -33.741   6.288   5.851  1.00 20.00     0.005 A 
HETATM    2  C2  UNL     1     -34.932   5.684   6.034  1.00 20.00     0.107 A 
HETATM    3  C3  UNL     1     -33.396   5.687   4.480  1.00 20.00     0.132 A 
HETATM    4  C4  UNL     1     -33.184   6.700   3.365  1.00 20.00     0.031 C 
HETATM    5  O5  UNL     1     -36.071   5.500   3.918  1.00 20.00    -0.223 OA
HETATM    6  O6  UNL     1     -34.913   3.487   5.042  1.00 20.00    -0.223 OA
HETATM    7  S7  UNL     1     -34.927   4.816   4.476  1.00 20.00     0.172 S 
ENDROOT
TORSDOF 0
ENDMDL
MODEL 5
REMARK VINA RESULT:      -3.5      1.721      2.122
REMARK  0 active torsions:
REMARK  status: ('A' for Active; 'I' for Inactive)
ROOT
HETATM    1  C1  UNL     1     -35.200  15.327  -3.136  1.00 20.00     0.005 A 
HETATM    2  C2  UNL     1     -36.042  14.570  -3.866  1.00 20.00     0.107 A 
HETATM    3  C3  UNL     1     -33.887  14.929  -3.828  1.00 20.00     0.132 A 
HETATM    4  C4  UNL     1     -33.112  16.079  -4.453  1.00 20.00     0.031 C 
HETATM    5  O5  UNL     1     -35.275  14.491  -6.149  1.00 20.00    -0.223 OA
HETATM    6  O6  UNL     1     -34.962  12.516  -4.519  1.00 20.00    -0.223 OA
HETATM    7  S7  UNL     1     -34.784  13.889  -4.931  1.00 20.00     0.172 S 
ENDROOT
TORSDOF 0
ENDMDL
MODEL 6
REMARK VINA RESULT:      -3.4      2.393      2.957
REMARK  0 active torsions:
REMARK  status: ('A' for Active; 'I' for Inactive)
ROOT
HETATM    1  C1  UNL     1     -34.058  13.843  -3.802  1.00 20.00     0.005 A 
HETATM    2  C2  UNL     1     -35.058  13.235  -4.469  1.00 20.00     0.107 A 
HETATM    3  C3  UNL     1     -34.676  15.247  -3.709  1.00 20.00     0.132 A 
HETATM    4  C4  UNL     1     -34.872  15.775  -2.296  1.00 20.00     0.031 C 
HETATM    5  O5  UNL     1     -37.173  14.120  -3.727  1.00 20.00    -0.223 OA
HETATM    6  O6  UNL     1     -36.115  14.784  -5.983  1.00 20.00    -0.223 OA
HETATM    7  S7  UNL     1     -36.116  14.669  -4.543  1.00 20.00     0.172 S 
ENDROOT
TORSDOF 0
ENDMDL
MODEL 7
REMARK VINA RESULT:      -3.3      1.376      1.634
REMARK  0 active torsions:
REMARK  status: ('A' for Active; 'I' for Inactive)
ROOT
HETATM    1  C1  UNL     1     -33.493  15.343  -4.125  1.00 20.00     0.005 A 
HETATM    2  C2  UNL     1     -34.172  14.555  -3.270  1.00 20.00     0.107 A 
HETATM    3  C3  UNL     1     -34.305  15.044  -5.394  1.00 20.00     0.132 A 
HETATM    4  C4  UNL     1     -34.957  16.255  -6.045  1.00 20.00     0.031 C 
HETATM    5  O5  UNL     1     -36.513  14.582  -3.840  1.00 20.00    -0.223 OA
HETATM    6  O6  UNL     1     -34.978  12.588  -4.408  1.00 20.00    -0.223 OA
HETATM    7  S7  UNL     1     -35.361  13.981  -4.469  1.00 20.00     0.172 S 
ENDROOT
TORSDOF 0
ENDMDL
MODEL 8
REMARK VINA RESULT:      -3.3      2.181      2.661
REMARK  0 active torsions:
REMARK  status: ('A' for Active; 'I' for Inactive)
ROOT
HETATM    1  C1  UNL     1     -35.157  15.455  -2.945  1.00 20.00     0.005 A 
HETATM    2  C2  UNL     1     -33.988  16.098  -2.757  1.00 20.00     0.107 A 
HETATM    3  C3  UNL     1     -34.824  14.776  -4.282  1.00 20.00     0.132 A 
HETATM    4  C4  UNL     1     -34.903  13.257  -4.273  1.00 20.00     0.031 C 
HETATM    5  O5  UNL     1     -32.180  14.728  -3.568  1.00 20.00    -0.223 OA
HETATM    6  O6  UNL     1     -33.057  16.772  -4.876  1.00 20.00    -0.223 OA
HETATM    7  S7  UNL     1     -33.211  15.483  -4.240  1.00 20.00     0.172 S 
ENDROOT
TORSDOF 0
ENDMDL
MODEL 9
REMARK VINA RESULT:      -3.2     11.724     12.599
REMARK  0 active torsions:
REMARK  status: ('A' for Active; 'I' for Inactive)
ROOT
HETATM    1  C1  UNL     1     -35.109   4.741   4.523  1.00 20.00     0.005 A 
HETATM    2  C2  UNL     1     -34.859   5.338   3.341  1.00 20.00     0.107 A 
HETATM    3  C3  UNL     1     -33.939   5.335   5.323  1.00 20.00     0.132 A 
HETATM    4  C4  UNL     1     -34.338   6.141   6.549  1.00 20.00     0.031 C 
HETATM    5  O5  UNL     1     -34.014   7.561   3.729  1.00 20.00    -0.223 OA
HETATM    6  O6  UNL     1     -32.484   5.606   3.028  1.00 20.00    -0.223 OA
HETATM    7  S7  UNL     1     -33.434   6.251   3.905  1.00 20.00     0.172 S 
ENDROOT
TORSDOF 0
ENDMDL
