MODEL 1
REMARK VINA RESULT:      -5.1      0.000      0.000
REMARK  1 active torsions:
REMARK  status: ('A' for Active; 'I' for Inactive)
REMARK    1  A    between atoms: C10_10  and  O11_11 
ROOT
HETATM    1  C1  UNL     1     -34.229  17.423  -3.342  1.00 20.00    -0.021 C 
HETATM    2  C2  UNL     1     -36.218  16.445  -4.730  1.00 20.00    -0.021 C 
HETATM    3  C3  UNL     1     -33.616  16.423  -2.672  1.00 20.00    -0.025 C 
HETATM    4  C4  UNL     1     -36.261  15.169  -5.169  1.00 20.00    -0.022 C 
HETATM    5  C5  UNL     1     -33.389  13.798  -3.605  1.00 20.00     0.041 C 
HETATM    6  C6  UNL     1     -34.811  16.975  -4.667  1.00 20.00     0.035 C 
HETATM    7  C7  UNL     1     -33.989  15.154  -3.335  1.00 20.00     0.016 C 
HETATM    8  C8  UNL     1     -34.889  14.600  -5.466  1.00 20.00     0.042 C 
HETATM    9  C9  UNL     1     -34.065  15.669  -4.787  1.00 20.00     0.015 C 
HETATM   10  C10 UNL     1     -34.338  13.319  -4.760  1.00 20.00     0.127 C 
ENDROOT
BRANCH  10  11
HETATM   11  O11 UNL     1     -35.395  12.533  -4.228  1.00 20.00    -0.395 OA
HETATM   12  H23 UNL     1     -35.057  11.626  -4.148  1.00 20.00     0.210 HD
ENDBRANCH  10  11
TORSDOF 1
ENDMDL
MODEL 2
REMARK VINA RESULT:      -5.0      1.601      2.872
REMARK  1 active torsions:
REMARK  status: ('A' for Active; 'I' for Inactive)
REMARK    1  A    between atoms: C10_10  and  O11_11 
ROOT
HETATM    1  C1  UNL     1     -32.681  14.656  -3.491  1.00 20.00    -0.021 C 
HETATM    2  C2  UNL     1     -34.030  16.401  -2.086  1.00 20.00    -0.021 C 
HETATM    3  C3  UNL     1     -33.507  13.661  -3.884  1.00 20.00    -0.025 C 
HETATM    4  C4  UNL     1     -35.359  16.598  -2.224  1.00 20.00    -0.022 C 
HETATM    5  C5  UNL     1     -36.218  13.996  -4.475  1.00 20.00     0.041 C 
HETATM    6  C6  UNL     1     -33.381  15.995  -3.382  1.00 20.00     0.035 C 
HETATM    7  C7  UNL     1     -34.892  14.172  -3.781  1.00 20.00     0.016 C 
HETATM    8  C8  UNL     1     -35.851  16.343  -3.634  1.00 20.00     0.042 C 
HETATM    9  C9  UNL     1     -34.622  15.641  -4.163  1.00 20.00     0.015 C 
HETATM   10  C10 UNL     1     -36.953  15.286  -3.964  1.00 20.00     0.127 C 
ENDROOT
BRANCH  10  11
HETATM   11  O11 UNL     1     -37.730  14.981  -2.815  1.00 20.00    -0.395 OA
HETATM   12  H23 UNL     1     -37.189  15.210  -2.041  1.00 20.00     0.210 HD
ENDBRANCH  10  11
TORSDOF 1
ENDMDL
MODEL 3
REMARK VINA RESULT:      -4.9      1.141      2.246
REMARK  1 active torsions:
REMARK  status: ('A' for Active; 'I' for Inactive)
REMARK    1  A    between atoms: C10_10  and  O11_11 
ROOT
HETATM    1  C1  UNL     1     -33.522  17.525  -4.976  1.00 20.00    -0.021 C 
HETATM    2  C2  UNL     1     -33.937  16.443  -2.632  1.00 20.00    -0.021 C 
HETATM    3  C3  UNL     1     -33.528  16.560  -5.922  1.00 20.00    -0.025 C 
HETATM    4  C4  UNL     1     -34.608  15.284  -2.456  1.00 20.00    -0.022 C 
HETATM    5  C5  UNL     1     -35.089  14.244  -5.812  1.00 20.00     0.041 C 
HETATM    6  C6  UNL     1     -34.447  17.219  -3.816  1.00 20.00     0.035 C 
HETATM    7  C7  UNL     1     -34.218  15.384  -5.348  1.00 20.00     0.016 C 
HETATM    8  C8  UNL     1     -35.681  15.059  -3.501  1.00 20.00     0.042 C 
HETATM    9  C9  UNL     1     -35.252  16.128  -4.479  1.00 20.00     0.015 C 
HETATM   10  C10 UNL     1     -35.698  13.805  -4.434  1.00 20.00     0.127 C 
ENDROOT
BRANCH  10  11
HETATM   11  O11 UNL     1     -34.934  12.744  -3.879  1.00 20.00    -0.395 OA
HETATM   12  H23 UNL     1     -34.404  13.126  -3.160  1.00 20.00     0.210 HD
ENDBRANCH  10  11
TORSDOF 1
ENDMDL
MODEL 4
REMARK VINA RESULT:      -4.9      1.490      2.825
REMARK  1 active torsions:
REMARK  status: ('A' for Active; 'I' for Inactive)
REMARK    1  A    between atoms: C10_10  and  O11_11 
ROOT
HETATM    1  C1  UNL     1     -34.693  16.429  -7.189  1.00 20.00    -0.021 C 
HETATM    2  C2  UNL     1     -33.278  16.901  -5.041  1.00 20.00    -0.021 C 
HETATM    3  C3  UNL     1     -34.819  15.094  -7.358  1.00 20.00    -0.025 C 
HETATM    4  C4  UNL     1     -33.200  16.045  -3.999  1.00 20.00    -0.022 C 
HETATM    5  C5  UNL     1     -34.956  13.240  -5.272  1.00 20.00     0.041 C 
HETATM    6  C6  UNL     1     -34.614  16.833  -5.731  1.00 20.00     0.035 C 
HETATM    7  C7  UNL     1     -34.531  14.455  -6.056  1.00 20.00     0.016 C 
HETATM    8  C8  UNL     1     -34.464  15.231  -3.808  1.00 20.00     0.042 C 
HETATM    9  C9  UNL     1     -35.119  15.543  -5.133  1.00 20.00     0.015 C 
HETATM   10  C10 UNL     1     -34.472  13.669  -3.842  1.00 20.00     0.127 C 
ENDROOT
BRANCH  10  11
HETATM   11  O11 UNL     1     -33.178  13.145  -3.588  1.00 20.00    -0.395 OA
HETATM   12  H23 UNL     1     -33.045  13.178  -2.626  1.00 20.00     0.210 HD
ENDBRANCH  10  11
TORSDOF 1
ENDMDL
MODEL 5
REMARK VINA RESULT:      -4.7     11.035     12.306
REMARK  1 active torsions:
REMARK  status: ('A' for Active; 'I' for Inactive)
REMARK    1  A    between atoms: C10_10  and  O11_11 
ROOT
HETATM    1  C1  UNL     1     -43.087   7.951  -2.624  1.00 20.00    -0.021 C 
HETATM    2  C2  UNL     1     -41.201   7.724  -0.828  1.00 20.00    -0.021 C 
HETATM    3  C3  UNL     1     -43.082   6.859  -3.421  1.00 20.00    -0.025 C 
HETATM    4  C4  UNL     1     -40.724   6.536  -0.397  1.00 20.00    -0.022 C 
HETATM    5  C5  UNL     1     -42.387   4.287  -2.577  1.00 20.00     0.041 C 
HETATM    6  C6  UNL     1     -42.656   7.646  -1.204  1.00 20.00     0.035 C 
HETATM    7  C7  UNL     1     -42.360   5.790  -2.698  1.00 20.00     0.016 C 
HETATM    8  C8  UNL     1     -41.767   5.437  -0.421  1.00 20.00     0.042 C 
HETATM    9  C9  UNL     1     -42.801   6.146  -1.264  1.00 20.00     0.015 C 
HETATM   10  C10 UNL     1     -41.581   4.119  -1.240  1.00 20.00     0.127 C 
ENDROOT
BRANCH  10  11
HETATM   11  O11 UNL     1     -40.211   3.881  -1.523  1.00 20.00    -0.395 OA
HETATM   12  H23 UNL     1     -40.092   2.917  -1.547  1.00 20.00     0.210 HD
ENDBRANCH  10  11
TORSDOF 1
ENDMDL
MODEL 6
REMARK VINA RESULT:      -4.7      2.112      3.361
REMARK  1 active torsions:
REMARK  status: ('A' for Active; 'I' for Inactive)
REMARK    1  A    between atoms: C10_10  and  O11_11 
ROOT
HETATM    1  C1  UNL     1     -34.425  13.217  -4.795  1.00 20.00    -0.021 C 
HETATM    2  C2  UNL     1     -34.531  14.752  -6.910  1.00 20.00    -0.021 C 
HETATM    3  C3  UNL     1     -33.716  13.838  -3.826  1.00 20.00    -0.025 C 
HETATM    4  C4  UNL     1     -34.431  16.098  -6.857  1.00 20.00    -0.022 C 
HETATM    5  C5  UNL     1     -33.654  16.604  -3.435  1.00 20.00     0.041 C 
HETATM    6  C6  UNL     1     -35.185  14.184  -5.680  1.00 20.00     0.035 C 
HETATM    7  C7  UNL     1     -33.689  15.280  -4.154  1.00 20.00     0.016 C 
HETATM    8  C8  UNL     1     -34.985  16.681  -5.574  1.00 20.00     0.042 C 
HETATM    9  C9  UNL     1     -35.091  15.396  -4.786  1.00 20.00     0.015 C 
HETATM   10  C10 UNL     1     -34.121  17.546  -4.600  1.00 20.00     0.127 C 
ENDROOT
BRANCH  10  11
HETATM   11  O11 UNL     1     -32.994  18.094  -5.267  1.00 20.00    -0.395 OA
HETATM   12  H23 UNL     1     -33.269  18.953  -5.626  1.00 20.00     0.210 HD
ENDBRANCH  10  11
TORSDOF 1
ENDMDL
MODEL 7
REMARK VINA RESULT:      -4.6      1.561      2.695
REMARK  1 active torsions:
REMARK  status: ('A' for Active; 'I' for Inactive)
REMARK    1  A    between atoms: C10_10  and  O11_11 
ROOT
HETATM    1  C1  UNL     1     -33.662  16.117  -2.931  1.00 20.00    -0.021 C 
HETATM    2  C2  UNL     1     -33.995  13.664  -3.774  1.00 20.00    -0.021 C 
HETATM    3  C3  UNL     1     -33.534  16.942  -3.993  1.00 20.00    -0.025 C 
HETATM    4  C4  UNL     1     -34.527  13.357  -4.977  1.00 20.00    -0.022 C 
HETATM    5  C5  UNL     1     -34.810  16.570  -6.451  1.00 20.00     0.041 C 
HETATM    6  C6  UNL     1     -34.569  14.935  -3.209  1.00 20.00     0.035 C 
HETATM    7  C7  UNL     1     -34.091  16.238  -5.168  1.00 20.00     0.016 C 
HETATM    8  C8  UNL     1     -35.544  14.376  -5.450  1.00 20.00     0.042 C 
HETATM    9  C9  UNL     1     -35.224  15.470  -4.458  1.00 20.00     0.015 C 
HETATM   10  C10 UNL     1     -35.392  15.154  -6.797  1.00 20.00     0.127 C 
ENDROOT
BRANCH  10  11
HETATM   11  O11 UNL     1     -34.519  14.472  -7.686  1.00 20.00    -0.395 OA
HETATM   12  H23 UNL     1     -34.929  14.510  -8.566  1.00 20.00     0.210 HD
ENDBRANCH  10  11
TORSDOF 1
ENDMDL
MODEL 8
REMARK VINA RESULT:      -4.6      1.804      2.903
REMARK  1 active torsions:
REMARK  status: ('A' for Active; 'I' for Inactive)
REMARK    1  A    between atoms: C10_10  and  O11_11 
ROOT
HETATM    1  C1  UNL     1     -37.275  15.454  -3.632  1.00 20.00    -0.021 C 
HETATM    2  C2  UNL     1     -35.722  17.555  -3.727  1.00 20.00    -0.021 C 
HETATM    3  C3  UNL     1     -36.614  14.385  -4.129  1.00 20.00    -0.025 C 
HETATM    4  C4  UNL     1     -34.374  17.484  -3.705  1.00 20.00    -0.022 C 
HETATM    5  C5  UNL     1     -33.858  13.982  -3.901  1.00 20.00     0.041 C 
HETATM    6  C6  UNL     1     -36.360  16.443  -2.940  1.00 20.00     0.035 C 
HETATM    7  C7  UNL     1     -35.170  14.701  -4.087  1.00 20.00     0.016 C 
HETATM    8  C8  UNL     1     -33.857  16.301  -2.913  1.00 20.00     0.042 C 
HETATM    9  C9  UNL     1     -35.159  15.543  -2.794  1.00 20.00     0.015 C 
HETATM   10  C10 UNL     1     -32.940  15.203  -3.542  1.00 20.00     0.127 C 
ENDROOT
BRANCH  10  11
HETATM   11  O11 UNL     1     -32.291  15.685  -4.709  1.00 20.00    -0.395 OA
HETATM   12  H23 UNL     1     -31.658  15.001  -4.982  1.00 20.00     0.210 HD
ENDBRANCH  10  11
TORSDOF 1
ENDMDL
MODEL 9
REMARK VINA RESULT:      -4.6      2.124      3.584
REMARK  1 active torsions:
REMARK  status: ('A' for Active; 'I' for Inactive)
REMARK    1  A    between atoms: C10_10  and  O11_11 
ROOT
HETATM    1  C1  UNL     1     -34.832  13.361  -4.165  1.00 20.00    -0.021 C 
HETATM    2  C2  UNL     1     -34.858  15.469  -2.618  1.00 20.00    -0.021 C 
HETATM    3  C3  UNL     1     -34.990  13.746  -5.451  1.00 20.00    -0.025 C 
HETATM    4  C4  UNL     1     -34.500  16.702  -3.037  1.00 20.00    -0.022 C 
HETATM    5  C5  UNL     1     -34.044  16.153  -6.510  1.00 20.00     0.041 C 
HETATM    6  C6  UNL     1     -34.093  14.386  -3.329  1.00 20.00     0.035 C 
HETATM    7  C7  UNL     1     -34.646  15.182  -5.526  1.00 20.00     0.016 C 
HETATM    8  C8  UNL     1     -33.440  16.674  -4.119  1.00 20.00     0.042 C 
HETATM    9  C9  UNL     1     -33.529  15.206  -4.463  1.00 20.00     0.015 C 
HETATM   10  C10 UNL     1     -33.658  17.315  -5.528  1.00 20.00     0.127 C 
ENDROOT
BRANCH  10  11
HETATM   11  O11 UNL     1     -34.692  18.287  -5.493  1.00 20.00    -0.395 OA
HETATM   12  H23 UNL     1     -34.342  19.053  -5.009  1.00 20.00     0.210 HD
ENDBRANCH  10  11
TORSDOF 1
ENDMDL
