MODEL 1
REMARK VINA RESULT:      -4.5      0.000      0.000
REMARK  2 active torsions:
REMARK  status: ('A' for Active; 'I' for Inactive)
REMARK    1  A    between atoms: C6_6  and  N9_9 
REMARK    2  A    between atoms: C7_7  and  N9_9 
ROOT
HETATM    1  C1  UNL     1     -32.161   8.606   1.811  1.00 20.00     0.013 C 
HETATM    2  C2  UNL     1     -32.226   7.670   2.558  1.00 20.00    -0.087 C 
HETATM    3  C6  UNL     1     -32.300   6.525   3.470  1.00 20.00     0.366 C 
ENDROOT
BRANCH   3   4
HETATM    4  N9  UNL     1     -33.653   6.373   4.000  1.00 20.00     0.112 N 
HETATM    5  C5  UNL     1     -34.473   5.576   3.089  1.00 20.00     0.312 C 
BRANCH   4   6
HETATM    6  C7  UNL     1     -33.617   5.759   5.326  1.00 20.00     0.325 C 
HETATM    7  C3  UNL     1     -34.544   4.620   5.375  1.00 20.00     0.095 C 
HETATM    8  N8  UNL     1     -35.273   3.718   5.416  1.00 20.00    -0.195 NA
HETATM    9  C4  UNL     1     -33.954   6.782   6.403  1.00 20.00     0.059 C 
ENDBRANCH   4   6
ENDBRANCH   3   4
TORSDOF 2
ENDMDL
MODEL 2
REMARK VINA RESULT:      -4.5     11.717     12.579
REMARK  2 active torsions:
REMARK  status: ('A' for Active; 'I' for Inactive)
REMARK    1  A    between atoms: C6_6  and  N9_9 
REMARK    2  A    between atoms: C7_7  and  N9_9 
ROOT
HETATM    1  C1  UNL     1     -34.405  17.016  -0.646  1.00 20.00     0.013 C 
HETATM    2  C2  UNL     1     -34.733  16.342  -1.584  1.00 20.00    -0.087 C 
HETATM    3  C6  UNL     1     -35.136  15.517  -2.725  1.00 20.00     0.366 C 
ENDROOT
BRANCH   3   4
HETATM    4  N9  UNL     1     -34.372  15.876  -3.918  1.00 20.00     0.112 N 
HETATM    5  C5  UNL     1     -32.963  15.520  -3.750  1.00 20.00     0.312 C 
BRANCH   4   6
HETATM    6  C7  UNL     1     -34.928  15.218  -5.099  1.00 20.00     0.325 C 
HETATM    7  C3  UNL     1     -34.875  13.760  -4.931  1.00 20.00     0.095 C 
HETATM    8  N8  UNL     1     -34.836  12.607  -4.800  1.00 20.00    -0.195 NA
HETATM    9  C4  UNL     1     -34.185  15.650  -6.357  1.00 20.00     0.059 C 
ENDBRANCH   4   6
ENDBRANCH   3   4
TORSDOF 2
ENDMDL
MODEL 3
REMARK VINA RESULT:      -4.4     11.558     12.389
REMARK  2 active torsions:
REMARK  status: ('A' for Active; 'I' for Inactive)
REMARK    1  A    between atoms: C6_6  and  N9_9 
REMARK    2  A    between atoms: C7_7  and  N9_9 
ROOT
HETATM    1  C1  UNL     1     -34.759  16.733  -0.846  1.00 20.00     0.013 C 
HETATM    2  C2  UNL     1     -34.467  16.139  -1.847  1.00 20.00    -0.087 C 
HETATM    3  C6  UNL     1     -34.105  15.413  -3.067  1.00 20.00     0.366 C 
ENDROOT
BRANCH   3   4
HETATM    4  N9  UNL     1     -35.011  15.757  -4.162  1.00 20.00     0.112 N 
HETATM    5  C5  UNL     1     -34.274  16.384  -5.258  1.00 20.00     0.312 C 
BRANCH   4   6
HETATM    6  C7  UNL     1     -35.716  14.567  -4.635  1.00 20.00     0.325 C 
HETATM    7  C3  UNL     1     -37.062  14.516  -4.048  1.00 20.00     0.095 C 
HETATM    8  N8  UNL     1     -38.126  14.474  -3.587  1.00 20.00    -0.195 NA
HETATM    9  C4  UNL     1     -34.928  13.306  -4.303  1.00 20.00     0.059 C 
ENDBRANCH   4   6
ENDBRANCH   3   4
TORSDOF 2
ENDMDL
MODEL 4
REMARK VINA RESULT:      -4.4      1.246      2.002
REMARK  2 active torsions:
REMARK  status: ('A' for Active; 'I' for Inactive)
REMARK    1  A    between atoms: C6_6  and  N9_9 
REMARK    2  A    between atoms: C7_7  and  N9_9 
ROOT
HETATM    1  C1  UNL     1     -32.070   8.058   2.108  1.00 20.00     0.013 C 
HETATM    2  C2  UNL     1     -32.400   7.238   2.920  1.00 20.00    -0.087 C 
HETATM    3  C6  UNL     1     -32.798   6.236   3.911  1.00 20.00     0.366 C 
ENDROOT
BRANCH   3   4
HETATM    4  N9  UNL     1     -34.252   6.210   4.065  1.00 20.00     0.112 N 
HETATM    5  C5  UNL     1     -34.843   5.213   3.172  1.00 20.00     0.312 C 
BRANCH   4   6
HETATM    6  C7  UNL     1     -34.614   5.931   5.454  1.00 20.00     0.325 C 
HETATM    7  C3  UNL     1     -33.819   6.774   6.357  1.00 20.00     0.095 C 
HETATM    8  N8  UNL     1     -33.194   7.440   7.073  1.00 20.00    -0.195 NA
HETATM    9  C4  UNL     1     -34.422   4.454   5.775  1.00 20.00     0.059 C 
ENDBRANCH   4   6
ENDBRANCH   3   4
TORSDOF 2
ENDMDL
MODEL 5
REMARK VINA RESULT:      -4.2     11.149     12.171
REMARK  2 active torsions:
REMARK  status: ('A' for Active; 'I' for Inactive)
REMARK    1  A    between atoms: C6_6  and  N9_9 
REMARK    2  A    between atoms: C7_7  and  N9_9 
ROOT
HETATM    1  C1  UNL     1     -34.606  16.482  -1.073  1.00 20.00     0.013 C 
HETATM    2  C2  UNL     1     -34.991  16.249  -2.186  1.00 20.00    -0.087 C 
HETATM    3  C6  UNL     1     -35.459  15.970  -3.546  1.00 20.00     0.366 C 
ENDROOT
BRANCH   3   4
HETATM    4  N9  UNL     1     -36.109  14.662  -3.611  1.00 20.00     0.112 N 
HETATM    5  C5  UNL     1     -37.536  14.814  -3.893  1.00 20.00     0.312 C 
BRANCH   4   6
HETATM    6  C7  UNL     1     -35.474  13.825  -4.627  1.00 20.00     0.325 C 
HETATM    7  C3  UNL     1     -34.143  13.404  -4.168  1.00 20.00     0.095 C 
HETATM    8  N8  UNL     1     -33.092  13.069  -3.807  1.00 20.00    -0.195 NA
HETATM    9  C4  UNL     1     -35.384  14.564  -5.956  1.00 20.00     0.059 C 
ENDBRANCH   4   6
ENDBRANCH   3   4
TORSDOF 2
ENDMDL
MODEL 6
REMARK VINA RESULT:      -4.0     11.558     13.388
REMARK  2 active torsions:
REMARK  status: ('A' for Active; 'I' for Inactive)
REMARK    1  A    between atoms: C6_6  and  N9_9 
REMARK    2  A    between atoms: C7_7  and  N9_9 
ROOT
HETATM    1  C1  UNL     1     -34.612  16.728  -0.648  1.00 20.00     0.013 C 
HETATM    2  C2  UNL     1     -34.701  16.263  -1.751  1.00 20.00    -0.087 C 
HETATM    3  C6  UNL     1     -34.814  15.695  -3.096  1.00 20.00     0.366 C 
ENDROOT
BRANCH   3   4
HETATM    4  N9  UNL     1     -33.491  15.441  -3.663  1.00 20.00     0.112 N 
HETATM    5  C5  UNL     1     -33.215  14.005  -3.696  1.00 20.00     0.312 C 
BRANCH   4   6
HETATM    6  C7  UNL     1     -33.392  16.011  -5.006  1.00 20.00     0.325 C 
HETATM    7  C3  UNL     1     -33.461  17.476  -4.933  1.00 20.00     0.095 C 
HETATM    8  N8  UNL     1     -33.514  18.635  -4.879  1.00 20.00    -0.195 NA
HETATM    9  C4  UNL     1     -34.486  15.457  -5.909  1.00 20.00     0.059 C 
ENDBRANCH   4   6
ENDBRANCH   3   4
TORSDOF 2
ENDMDL
MODEL 7
REMARK VINA RESULT:      -4.0     11.402     13.104
REMARK  2 active torsions:
REMARK  status: ('A' for Active; 'I' for Inactive)
REMARK    1  A    between atoms: C6_6  and  N9_9 
REMARK    2  A    between atoms: C7_7  and  N9_9 
ROOT
HETATM    1  C1  UNL     1     -33.574  18.640  -5.053  1.00 20.00     0.013 C 
HETATM    2  C2  UNL     1     -33.522  17.443  -4.970  1.00 20.00    -0.087 C 
HETATM    3  C6  UNL     1     -33.454  15.983  -4.867  1.00 20.00     0.366 C 
ENDROOT
BRANCH   3   4
HETATM    4  N9  UNL     1     -34.605  15.365  -5.522  1.00 20.00     0.112 N 
HETATM    5  C5  UNL     1     -34.322  15.127  -6.937  1.00 20.00     0.312 C 
BRANCH   4   6
HETATM    6  C7  UNL     1     -34.962  14.114  -4.855  1.00 20.00     0.325 C 
HETATM    7  C3  UNL     1     -36.294  14.233  -4.248  1.00 20.00     0.095 C 
HETATM    8  N8  UNL     1     -37.347  14.323  -3.768  1.00 20.00    -0.195 NA
HETATM    9  C4  UNL     1     -33.916  13.743  -3.810  1.00 20.00     0.059 C 
ENDBRANCH   4   6
ENDBRANCH   3   4
TORSDOF 2
ENDMDL
MODEL 8
REMARK VINA RESULT:      -3.9      1.379      4.425
REMARK  2 active torsions:
REMARK  status: ('A' for Active; 'I' for Inactive)
REMARK    1  A    between atoms: C6_6  and  N9_9 
REMARK    2  A    between atoms: C7_7  and  N9_9 
ROOT
HETATM    1  C1  UNL     1     -35.219   4.140   5.943  1.00 20.00     0.013 C 
HETATM    2  C2  UNL     1     -34.919   4.778   4.972  1.00 20.00    -0.087 C 
HETATM    3  C6  UNL     1     -34.553   5.554   3.784  1.00 20.00     0.366 C 
ENDROOT
BRANCH   3   4
HETATM    4  N9  UNL     1     -33.747   6.716   4.153  1.00 20.00     0.112 N 
HETATM    5  C5  UNL     1     -33.594   6.792   5.606  1.00 20.00     0.312 C 
BRANCH   4   6
HETATM    6  C7  UNL     1     -32.438   6.657   3.504  1.00 20.00     0.325 C 
HETATM    7  C3  UNL     1     -32.290   7.784   2.573  1.00 20.00     0.095 C 
HETATM    8  N8  UNL     1     -32.169   8.674   1.838  1.00 20.00    -0.195 NA
HETATM    9  C4  UNL     1     -32.253   5.327   2.785  1.00 20.00     0.059 C 
ENDBRANCH   4   6
ENDBRANCH   3   4
TORSDOF 2
ENDMDL
MODEL 9
REMARK VINA RESULT:      -3.9     11.522     12.278
REMARK  2 active torsions:
REMARK  status: ('A' for Active; 'I' for Inactive)
REMARK    1  A    between atoms: C6_6  and  N9_9 
REMARK    2  A    between atoms: C7_7  and  N9_9 
ROOT
HETATM    1  C1  UNL     1     -34.417  15.087  -7.043  1.00 20.00     0.013 C 
HETATM    2  C2  UNL     1     -34.634  14.347  -6.123  1.00 20.00    -0.087 C 
HETATM    3  C6  UNL     1     -34.902  13.439  -5.005  1.00 20.00     0.366 C 
ENDROOT
BRANCH   3   4
HETATM    4  N9  UNL     1     -34.528  14.060  -3.735  1.00 20.00     0.112 N 
HETATM    5  C5  UNL     1     -33.100  14.374  -3.720  1.00 20.00     0.312 C 
BRANCH   4   6
HETATM    6  C7  UNL     1     -35.320  15.267  -3.503  1.00 20.00     0.325 C 
HETATM    7  C3  UNL     1     -34.935  15.879  -2.225  1.00 20.00     0.095 C 
HETATM    8  N8  UNL     1     -34.633  16.366  -1.216  1.00 20.00    -0.195 NA
HETATM    9  C4  UNL     1     -36.809  14.948  -3.530  1.00 20.00     0.059 C 
ENDBRANCH   4   6
ENDBRANCH   3   4
TORSDOF 2
ENDMDL
