MODEL 1
REMARK VINA RESULT:      -4.7      0.000      0.000
REMARK  1 active torsions:
REMARK  status: ('A' for Active; 'I' for Inactive)
REMARK    1  A    between atoms: C6_6  and  N10_10 
ROOT
HETATM    1  C1  UNL     1     -34.831  13.727  -3.946  1.00 20.00     0.156 C 
HETATM    2  C2  UNL     1     -33.346  13.535  -3.835  1.00 20.00     0.110 C 
HETATM    3  C3  UNL     1     -35.236  15.105  -3.490  1.00 20.00     0.350 C 
HETATM    4  C5  UNL     1     -32.897  14.972  -3.611  1.00 20.00     0.281 C 
HETATM    5  N10 UNL     1     -34.002  15.572  -2.857  1.00 20.00     0.101 N 
HETATM    6  O11 UNL     1     -35.610  12.877  -4.352  1.00 20.00    -0.296 OA
ENDROOT
BRANCH   5   7
HETATM    7  C6  UNL     1     -33.918  17.025  -2.806  1.00 20.00     0.232 A 
HETATM    8  C4  UNL     1     -35.165  17.858  -2.670  1.00 20.00     0.047 A 
HETATM    9  C7  UNL     1     -34.169  17.810  -1.532  1.00 20.00    -0.015 A 
HETATM   10  C8  UNL     1     -34.577  17.093  -0.270  1.00 20.00     0.017 C 
HETATM   11  C9  UNL     1     -33.314  19.027  -1.292  1.00 20.00     0.017 C 
ENDBRANCH   5   7
TORSDOF 1
ENDMDL
MODEL 2
REMARK VINA RESULT:      -4.3      1.630      2.101
REMARK  1 active torsions:
REMARK  status: ('A' for Active; 'I' for Inactive)
REMARK    1  A    between atoms: C6_6  and  N10_10 
ROOT
HETATM    1  C1  UNL     1     -34.478  14.643  -5.878  1.00 20.00     0.156 C 
HETATM    2  C2  UNL     1     -34.813  13.390  -5.122  1.00 20.00     0.110 C 
HETATM    3  C3  UNL     1     -34.253  15.800  -4.941  1.00 20.00     0.350 C 
HETATM    4  C5  UNL     1     -34.442  13.814  -3.707  1.00 20.00     0.281 C 
HETATM    5  N10 UNL     1     -34.747  15.247  -3.678  1.00 20.00     0.101 N 
HETATM    6  O11 UNL     1     -34.400  14.715  -7.097  1.00 20.00    -0.296 OA
ENDROOT
BRANCH   5   7
HETATM    7  C6  UNL     1     -34.176  15.916  -2.518  1.00 20.00     0.232 A 
HETATM    8  C4  UNL     1     -33.746  17.356  -2.599  1.00 20.00     0.047 A 
HETATM    9  C7  UNL     1     -34.930  16.977  -1.738  1.00 20.00    -0.015 A 
HETATM   10  C8  UNL     1     -36.298  17.418  -2.189  1.00 20.00     0.017 C 
HETATM   11  C9  UNL     1     -34.747  16.993  -0.242  1.00 20.00     0.017 C 
ENDBRANCH   5   7
TORSDOF 1
ENDMDL
MODEL 3
REMARK VINA RESULT:      -4.1      1.344      2.112
REMARK  1 active torsions:
REMARK  status: ('A' for Active; 'I' for Inactive)
REMARK    1  A    between atoms: C6_6  and  N10_10 
ROOT
HETATM    1  C1  UNL     1     -34.907  13.691  -4.666  1.00 20.00     0.156 C 
HETATM    2  C2  UNL     1     -35.665  14.601  -5.589  1.00 20.00     0.110 C 
HETATM    3  C3  UNL     1     -34.689  14.338  -3.324  1.00 20.00     0.350 C 
HETATM    4  C5  UNL     1     -36.151  15.654  -4.602  1.00 20.00     0.281 C 
HETATM    5  N10 UNL     1     -35.079  15.721  -3.604  1.00 20.00     0.101 N 
HETATM    6  O11 UNL     1     -34.518  12.571  -4.965  1.00 20.00    -0.296 OA
ENDROOT
BRANCH   5   7
HETATM    7  C6  UNL     1     -35.479  16.440  -2.403  1.00 20.00     0.232 A 
HETATM    8  C4  UNL     1     -34.571  16.490  -1.203  1.00 20.00     0.047 A 
HETATM    9  C7  UNL     1     -34.839  17.753  -1.991  1.00 20.00    -0.015 A 
HETATM   10  C8  UNL     1     -33.707  18.330  -2.801  1.00 20.00     0.017 C 
HETATM   11  C9  UNL     1     -35.737  18.793  -1.371  1.00 20.00     0.017 C 
ENDBRANCH   5   7
TORSDOF 1
ENDMDL
MODEL 4
REMARK VINA RESULT:      -4.1      2.535      4.642
REMARK  1 active torsions:
REMARK  status: ('A' for Active; 'I' for Inactive)
REMARK    1  A    between atoms: C6_6  and  N10_10 
ROOT
HETATM    1  C1  UNL     1     -34.431  16.576  -1.779  1.00 20.00     0.156 C 
HETATM    2  C2  UNL     1     -34.111  17.854  -2.499  1.00 20.00     0.110 C 
HETATM    3  C3  UNL     1     -34.596  15.434  -2.746  1.00 20.00     0.350 C 
HETATM    4  C5  UNL     1     -33.776  17.315  -3.883  1.00 20.00     0.281 C 
HETATM    5  N10 UNL     1     -34.649  16.145  -4.024  1.00 20.00     0.101 N 
HETATM    6  O11 UNL     1     -34.544  16.476  -0.565  1.00 20.00    -0.296 OA
ENDROOT
BRANCH   5   7
HETATM    7  C6  UNL     1     -34.270  15.299  -5.147  1.00 20.00     0.232 A 
HETATM    8  C4  UNL     1     -34.712  13.861  -5.205  1.00 20.00     0.047 A 
HETATM    9  C7  UNL     1     -35.266  14.855  -6.203  1.00 20.00    -0.015 A 
HETATM   10  C8  UNL     1     -36.718  15.238  -6.081  1.00 20.00     0.017 C 
HETATM   11  C9  UNL     1     -34.774  14.774  -7.625  1.00 20.00     0.017 C 
ENDBRANCH   5   7
TORSDOF 1
ENDMDL
MODEL 5
REMARK VINA RESULT:      -4.0      2.198      3.149
REMARK  1 active torsions:
REMARK  status: ('A' for Active; 'I' for Inactive)
REMARK    1  A    between atoms: C6_6  and  N10_10 
ROOT
HETATM    1  C1  UNL     1     -35.747  14.677  -6.803  1.00 20.00     0.156 C 
HETATM    2  C2  UNL     1     -37.052  15.279  -6.367  1.00 20.00     0.110 C 
HETATM    3  C3  UNL     1     -34.736  14.707  -5.687  1.00 20.00     0.350 C 
HETATM    4  C5  UNL     1     -36.836  15.347  -4.862  1.00 20.00     0.281 C 
HETATM    5  N10 UNL     1     -35.397  15.589  -4.724  1.00 20.00     0.101 N 
HETATM    6  O11 UNL     1     -35.533  14.223  -7.918  1.00 20.00    -0.296 OA
ENDROOT
BRANCH   5   7
HETATM    7  C6  UNL     1     -34.924  15.380  -3.363  1.00 20.00     0.232 A 
HETATM    8  C4  UNL     1     -33.449  15.314  -3.067  1.00 20.00     0.047 A 
HETATM    9  C7  UNL     1     -34.264  16.480  -2.553  1.00 20.00    -0.015 A 
HETATM   10  C8  UNL     1     -34.022  17.833  -3.171  1.00 20.00     0.017 C 
HETATM   11  C9  UNL     1     -34.570  16.530  -1.078  1.00 20.00     0.017 C 
ENDBRANCH   5   7
TORSDOF 1
ENDMDL
MODEL 6
REMARK VINA RESULT:      -4.0      2.881      3.599
REMARK  1 active torsions:
REMARK  status: ('A' for Active; 'I' for Inactive)
REMARK    1  A    between atoms: C6_6  and  N10_10 
ROOT
HETATM    1  C1  UNL     1     -34.632  13.653  -4.528  1.00 20.00     0.156 C 
HETATM    2  C2  UNL     1     -33.880  14.355  -3.434  1.00 20.00     0.110 C 
HETATM    3  C3  UNL     1     -34.771  14.532  -5.742  1.00 20.00     0.350 C 
HETATM    4  C5  UNL     1     -33.316  15.541  -4.204  1.00 20.00     0.281 C 
HETATM    5  N10 UNL     1     -34.342  15.827  -5.211  1.00 20.00     0.101 N 
HETATM    6  O11 UNL     1     -35.074  12.516  -4.443  1.00 20.00    -0.296 OA
ENDROOT
BRANCH   5   7
HETATM    7  C6  UNL     1     -33.866  16.726  -6.253  1.00 20.00     0.232 A 
HETATM    8  C4  UNL     1     -34.641  16.892  -7.533  1.00 20.00     0.047 A 
HETATM    9  C7  UNL     1     -34.548  18.046  -6.560  1.00 20.00    -0.015 A 
HETATM   10  C8  UNL     1     -35.798  18.444  -5.818  1.00 20.00     0.017 C 
HETATM   11  C9  UNL     1     -33.663  19.209  -6.931  1.00 20.00     0.017 C 
ENDBRANCH   5   7
TORSDOF 1
ENDMDL
MODEL 7
REMARK VINA RESULT:      -4.0      2.629      4.667
REMARK  1 active torsions:
REMARK  status: ('A' for Active; 'I' for Inactive)
REMARK    1  A    between atoms: C6_6  and  N10_10 
ROOT
HETATM    1  C1  UNL     1     -33.819  18.243  -1.108  1.00 20.00     0.156 C 
HETATM    2  C2  UNL     1     -34.456  17.062  -0.433  1.00 20.00     0.110 C 
HETATM    3  C3  UNL     1     -33.669  18.008  -2.587  1.00 20.00     0.350 C 
HETATM    4  C5  UNL     1     -34.958  16.290  -1.645  1.00 20.00     0.281 C 
HETATM    5  N10 UNL     1     -33.963  16.577  -2.683  1.00 20.00     0.101 N 
HETATM    6  O11 UNL     1     -33.468  19.262  -0.530  1.00 20.00    -0.296 OA
ENDROOT
BRANCH   5   7
HETATM    7  C6  UNL     1     -34.414  16.189  -4.011  1.00 20.00     0.232 A 
HETATM    8  C4  UNL     1     -33.430  16.046  -5.142  1.00 20.00     0.047 A 
HETATM    9  C7  UNL     1     -34.129  14.819  -4.599  1.00 20.00    -0.015 A 
HETATM   10  C8  UNL     1     -33.303  13.822  -3.828  1.00 20.00     0.017 C 
HETATM   11  C9  UNL     1     -35.209  14.193  -5.443  1.00 20.00     0.017 C 
ENDBRANCH   5   7
TORSDOF 1
ENDMDL
MODEL 8
REMARK VINA RESULT:      -3.9     12.415     14.756
REMARK  1 active torsions:
REMARK  status: ('A' for Active; 'I' for Inactive)
REMARK    1  A    between atoms: C6_6  and  N10_10 
ROOT
HETATM    1  C1  UNL     1     -41.553   6.595  -1.438  1.00 20.00     0.156 C 
HETATM    2  C2  UNL     1     -40.705   5.746  -0.535  1.00 20.00     0.110 C 
HETATM    3  C3  UNL     1     -42.434   5.744  -2.315  1.00 20.00     0.350 C 
HETATM    4  C5  UNL     1     -41.386   4.395  -0.707  1.00 20.00     0.281 C 
HETATM    5  N10 UNL     1     -41.861   4.415  -2.094  1.00 20.00     0.101 N 
HETATM    6  O11 UNL     1     -41.530   7.818  -1.460  1.00 20.00    -0.296 OA
ENDROOT
BRANCH   5   7
HETATM    7  C6  UNL     1     -42.811   3.348  -2.374  1.00 20.00     0.232 A 
HETATM    8  C4  UNL     1     -43.393   3.183  -3.752  1.00 20.00     0.047 A 
HETATM    9  C7  UNL     1     -42.447   2.135  -3.210  1.00 20.00    -0.015 A 
HETATM   10  C8  UNL     1     -41.080   2.030  -3.836  1.00 20.00     0.017 C 
HETATM   11  C9  UNL     1     -43.029   0.809  -2.792  1.00 20.00     0.017 C 
ENDBRANCH   5   7
TORSDOF 1
ENDMDL
MODEL 9
REMARK VINA RESULT:      -3.9      2.512      3.544
REMARK  1 active torsions:
REMARK  status: ('A' for Active; 'I' for Inactive)
REMARK    1  A    between atoms: C6_6  and  N10_10 
ROOT
HETATM    1  C1  UNL     1     -33.596  13.761  -3.926  1.00 20.00     0.156 C 
HETATM    2  C2  UNL     1     -35.031  13.451  -4.239  1.00 20.00     0.110 C 
HETATM    3  C3  UNL     1     -33.295  15.221  -4.144  1.00 20.00     0.350 C 
HETATM    4  C5  UNL     1     -35.605  14.858  -4.324  1.00 20.00     0.281 C 
HETATM    5  N10 UNL     1     -34.497  15.659  -4.854  1.00 20.00     0.101 N 
HETATM    6  O11 UNL     1     -32.778  12.936  -3.544  1.00 20.00    -0.296 OA
ENDROOT
BRANCH   5   7
HETATM    7  C6  UNL     1     -34.730  17.090  -4.723  1.00 20.00     0.232 A 
HETATM    8  C4  UNL     1     -33.618  18.072  -4.975  1.00 20.00     0.047 A 
HETATM    9  C7  UNL     1     -34.795  18.017  -5.923  1.00 20.00    -0.015 A 
HETATM   10  C8  UNL     1     -34.556  17.476  -7.309  1.00 20.00     0.017 C 
HETATM   11  C9  UNL     1     -35.795  19.143  -5.872  1.00 20.00     0.017 C 
ENDBRANCH   5   7
TORSDOF 1
ENDMDL
