MODEL 1
REMARK VINA RESULT:      -4.7      0.000      0.000
REMARK  2 active torsions:
REMARK  status: ('A' for Active; 'I' for Inactive)
REMARK    1  A    between atoms: C3_3  and  N10_10 
REMARK    2  A    between atoms: C8_8  and  N10_10 
ROOT
HETATM    1  C1  UNL     1     -32.109   7.950   2.201  1.00 20.00     0.094 C 
HETATM    2  C7  UNL     1     -31.941   5.568   2.817  1.00 20.00     0.059 C 
HETATM    3  C8  UNL     1     -32.261   6.979   3.292  1.00 20.00     0.322 C 
HETATM    4  N9  UNL     1     -31.986   8.719   1.340  1.00 20.00    -0.195 NA
ENDROOT
BRANCH   3   5
HETATM    5  N10 UNL     1     -33.609   7.045   3.830  1.00 20.00     0.106 N 
HETATM    6  H24 UNL     1     -34.181   7.649   3.246  1.00 20.00     0.318 HD
BRANCH   5   7
HETATM    7  C3  UNL     1     -34.217   5.711   3.864  1.00 20.00     0.230 A 
HETATM    8  C2  UNL     1     -35.692   5.562   4.124  1.00 20.00     0.047 A 
HETATM    9  C4  UNL     1     -34.699   5.089   5.162  1.00 20.00    -0.015 A 
HETATM   10  C5  UNL     1     -34.511   3.605   5.332  1.00 20.00     0.017 C 
HETATM   11  C6  UNL     1     -34.602   5.870   6.447  1.00 20.00     0.017 C 
ENDBRANCH   5   7
ENDBRANCH   3   5
TORSDOF 2
ENDMDL
MODEL 2
REMARK VINA RESULT:      -4.3     11.312     12.467
REMARK  2 active torsions:
REMARK  status: ('A' for Active; 'I' for Inactive)
REMARK    1  A    between atoms: C3_3  and  N10_10 
REMARK    2  A    between atoms: C8_8  and  N10_10 
ROOT
HETATM    1  C1  UNL     1     -35.602  13.670  -4.222  1.00 20.00     0.094 C 
HETATM    2  C7  UNL     1     -36.509  15.771  -5.142  1.00 20.00     0.059 C 
HETATM    3  C8  UNL     1     -36.492  14.809  -3.961  1.00 20.00     0.322 C 
HETATM    4  N9  UNL     1     -34.902  12.768  -4.429  1.00 20.00    -0.195 NA
ENDROOT
BRANCH   3   5
HETATM    5  N10 UNL     1     -36.077  15.494  -2.748  1.00 20.00     0.106 N 
HETATM    6  H24 UNL     1     -35.763  14.814  -2.062  1.00 20.00     0.318 HD
BRANCH   5   7
HETATM    7  C3  UNL     1     -34.977  16.421  -3.030  1.00 20.00     0.230 A 
HETATM    8  C2  UNL     1     -33.563  16.038  -2.686  1.00 20.00     0.047 A 
HETATM    9  C4  UNL     1     -34.243  17.147  -1.916  1.00 20.00    -0.015 A 
HETATM   10  C5  UNL     1     -33.804  18.563  -2.183  1.00 20.00     0.017 C 
HETATM   11  C6  UNL     1     -34.612  16.879  -0.480  1.00 20.00     0.017 C 
ENDBRANCH   5   7
ENDBRANCH   3   5
TORSDOF 2
ENDMDL
MODEL 3
REMARK VINA RESULT:      -4.2     11.316     12.164
REMARK  2 active torsions:
REMARK  status: ('A' for Active; 'I' for Inactive)
REMARK    1  A    between atoms: C3_3  and  N10_10 
REMARK    2  A    between atoms: C8_8  and  N10_10 
ROOT
HETATM    1  C1  UNL     1     -34.610  14.014  -4.128  1.00 20.00     0.094 C 
HETATM    2  C7  UNL     1     -33.515  16.027  -5.040  1.00 20.00     0.059 C 
HETATM    3  C8  UNL     1     -34.390  15.453  -3.933  1.00 20.00     0.322 C 
HETATM    4  N9  UNL     1     -34.788  12.878  -4.283  1.00 20.00    -0.195 NA
ENDROOT
BRANCH   3   5
HETATM    5  N10 UNL     1     -33.790  15.690  -2.631  1.00 20.00     0.106 N 
HETATM    6  H24 UNL     1     -33.047  16.378  -2.717  1.00 20.00     0.318 HD
BRANCH   5   7
HETATM    7  C3  UNL     1     -34.791  16.195  -1.686  1.00 20.00     0.230 A 
HETATM    8  C2  UNL     1     -35.449  17.527  -1.927  1.00 20.00     0.047 A 
HETATM    9  C4  UNL     1     -34.496  17.364  -0.763  1.00 20.00    -0.015 A 
HETATM   10  C5  UNL     1     -35.080  17.317   0.624  1.00 20.00     0.017 C 
HETATM   11  C6  UNL     1     -33.165  18.064  -0.845  1.00 20.00     0.017 C 
ENDBRANCH   5   7
ENDBRANCH   3   5
TORSDOF 2
ENDMDL
MODEL 4
REMARK VINA RESULT:      -4.1     11.119     13.798
REMARK  2 active torsions:
REMARK  status: ('A' for Active; 'I' for Inactive)
REMARK    1  A    between atoms: C3_3  and  N10_10 
REMARK    2  A    between atoms: C8_8  and  N10_10 
ROOT
HETATM    1  C1  UNL     1     -34.108  13.766  -4.000  1.00 20.00     0.094 C 
HETATM    2  C7  UNL     1     -33.939  15.849  -2.692  1.00 20.00     0.059 C 
HETATM    3  C8  UNL     1     -33.287  14.955  -3.738  1.00 20.00     0.322 C 
HETATM    4  N9  UNL     1     -34.755  12.824  -4.206  1.00 20.00    -0.195 NA
ENDROOT
BRANCH   3   5
HETATM    5  N10 UNL     1     -33.067  15.687  -4.974  1.00 20.00     0.106 N 
HETATM    6  H24 UNL     1     -32.509  15.125  -5.610  1.00 20.00     0.318 HD
BRANCH   5   7
HETATM    7  C3  UNL     1     -34.345  16.002  -5.621  1.00 20.00     0.230 A 
HETATM    8  C2  UNL     1     -34.389  16.293  -7.097  1.00 20.00     0.047 A 
HETATM    9  C4  UNL     1     -34.667  17.403  -6.109  1.00 20.00    -0.015 A 
HETATM   10  C5  UNL     1     -36.088  17.879  -5.963  1.00 20.00     0.017 C 
HETATM   11  C6  UNL     1     -33.637  18.496  -5.975  1.00 20.00     0.017 C 
ENDBRANCH   5   7
ENDBRANCH   3   5
TORSDOF 2
ENDMDL
MODEL 5
REMARK VINA RESULT:      -4.0     11.635     12.997
REMARK  2 active torsions:
REMARK  status: ('A' for Active; 'I' for Inactive)
REMARK    1  A    between atoms: C3_3  and  N10_10 
REMARK    2  A    between atoms: C8_8  and  N10_10 
ROOT
HETATM    1  C1  UNL     1     -35.099  13.592  -5.362  1.00 20.00     0.094 C 
HETATM    2  C7  UNL     1     -35.409  14.461  -7.649  1.00 20.00     0.059 C 
HETATM    3  C8  UNL     1     -35.381  14.791  -6.162  1.00 20.00     0.322 C 
HETATM    4  N9  UNL     1     -34.880  12.645  -4.728  1.00 20.00    -0.195 NA
ENDROOT
BRANCH   3   5
HETATM    5  N10 UNL     1     -34.391  15.816  -5.883  1.00 20.00     0.106 N 
HETATM    6  H24 UNL     1     -34.425  16.530  -6.605  1.00 20.00     0.318 HD
BRANCH   5   7
HETATM    7  C3  UNL     1     -34.651  16.446  -4.585  1.00 20.00     0.230 A 
HETATM    8  C2  UNL     1     -33.721  17.507  -4.063  1.00 20.00     0.047 A 
HETATM    9  C4  UNL     1     -33.781  16.163  -3.373  1.00 20.00    -0.015 A 
HETATM   10  C5  UNL     1     -34.462  16.088  -2.032  1.00 20.00     0.017 C 
HETATM   11  C6  UNL     1     -32.587  15.253  -3.507  1.00 20.00     0.017 C 
ENDBRANCH   5   7
ENDBRANCH   3   5
TORSDOF 2
ENDMDL
MODEL 6
REMARK VINA RESULT:      -3.9      9.312     10.793
REMARK  2 active torsions:
REMARK  status: ('A' for Active; 'I' for Inactive)
REMARK    1  A    between atoms: C3_3  and  N10_10 
REMARK    2  A    between atoms: C8_8  and  N10_10 
ROOT
HETATM    1  C1  UNL     1     -41.710   2.404  -3.296  1.00 20.00     0.094 C 
HETATM    2  C7  UNL     1     -43.125   4.421  -3.187  1.00 20.00     0.059 C 
HETATM    3  C8  UNL     1     -42.501   3.268  -2.410  1.00 20.00     0.322 C 
HETATM    4  N9  UNL     1     -41.087   1.719  -3.995  1.00 20.00    -0.195 NA
ENDROOT
BRANCH   3   5
HETATM    5  N10 UNL     1     -41.666   3.769  -1.332  1.00 20.00     0.106 N 
HETATM    6  H24 UNL     1     -40.729   3.386  -1.419  1.00 20.00     0.318 HD
BRANCH   5   7
HETATM    7  C3  UNL     1     -41.584   5.232  -1.380  1.00 20.00     0.230 A 
HETATM    8  C2  UNL     1     -40.707   5.969  -0.403  1.00 20.00     0.047 A 
HETATM    9  C4  UNL     1     -42.210   6.100  -0.303  1.00 20.00    -0.015 A 
HETATM   10  C5  UNL     1     -42.835   7.400  -0.737  1.00 20.00     0.017 C 
HETATM   11  C6  UNL     1     -42.893   5.455   0.875  1.00 20.00     0.017 C 
ENDBRANCH   5   7
ENDBRANCH   3   5
TORSDOF 2
ENDMDL
MODEL 7
REMARK VINA RESULT:      -3.8     11.475     12.596
REMARK  2 active torsions:
REMARK  status: ('A' for Active; 'I' for Inactive)
REMARK    1  A    between atoms: C3_3  and  N10_10 
REMARK    2  A    between atoms: C8_8  and  N10_10 
ROOT
HETATM    1  C1  UNL     1     -34.488  16.746  -0.958  1.00 20.00     0.094 C 
HETATM    2  C7  UNL     1     -33.822  17.499  -3.210  1.00 20.00     0.059 C 
HETATM    3  C8  UNL     1     -34.009  16.310  -2.276  1.00 20.00     0.322 C 
HETATM    4  N9  UNL     1     -34.864  17.090   0.085  1.00 20.00    -0.195 NA
ENDROOT
BRANCH   3   5
HETATM    5  N10 UNL     1     -34.937  15.350  -2.848  1.00 20.00     0.106 N 
HETATM    6  H24 UNL     1     -35.825  15.399  -2.357  1.00 20.00     0.318 HD
BRANCH   5   7
HETATM    7  C3  UNL     1     -35.168  15.637  -4.267  1.00 20.00     0.230 A 
HETATM    8  C2  UNL     1     -36.384  15.083  -4.960  1.00 20.00     0.047 A 
HETATM    9  C4  UNL     1     -35.012  14.566  -5.332  1.00 20.00    -0.015 A 
HETATM   10  C5  UNL     1     -34.437  14.985  -6.659  1.00 20.00     0.017 C 
HETATM   11  C6  UNL     1     -34.662  13.157  -4.929  1.00 20.00     0.017 C 
ENDBRANCH   5   7
ENDBRANCH   3   5
TORSDOF 2
ENDMDL
MODEL 8
REMARK VINA RESULT:      -3.8     11.107     13.461
REMARK  2 active torsions:
REMARK  status: ('A' for Active; 'I' for Inactive)
REMARK    1  A    between atoms: C3_3  and  N10_10 
REMARK    2  A    between atoms: C8_8  and  N10_10 
ROOT
HETATM    1  C1  UNL     1     -34.139  14.416  -3.366  1.00 20.00     0.094 C 
HETATM    2  C7  UNL     1     -34.551  16.177  -1.690  1.00 20.00     0.059 C 
HETATM    3  C8  UNL     1     -33.989  15.846  -3.066  1.00 20.00     0.322 C 
HETATM    4  N9  UNL     1     -34.254  13.286  -3.602  1.00 20.00    -0.195 NA
ENDROOT
BRANCH   3   5
HETATM    5  N10 UNL     1     -34.646  16.638  -4.092  1.00 20.00     0.106 N 
HETATM    6  H24 UNL     1     -34.473  17.625  -3.924  1.00 20.00     0.318 HD
BRANCH   5   7
HETATM    7  C3  UNL     1     -34.133  16.289  -5.420  1.00 20.00     0.230 A 
HETATM    8  C2  UNL     1     -34.317  17.241  -6.572  1.00 20.00     0.047 A 
HETATM    9  C4  UNL     1     -35.065  15.926  -6.563  1.00 20.00    -0.015 A 
HETATM   10  C5  UNL     1     -34.610  14.850  -7.514  1.00 20.00     0.017 C 
HETATM   11  C6  UNL     1     -36.556  15.970  -6.354  1.00 20.00     0.017 C 
ENDBRANCH   5   7
ENDBRANCH   3   5
TORSDOF 2
ENDMDL
MODEL 9
REMARK VINA RESULT:      -3.7     11.119     12.389
REMARK  2 active torsions:
REMARK  status: ('A' for Active; 'I' for Inactive)
REMARK    1  A    between atoms: C3_3  and  N10_10 
REMARK    2  A    between atoms: C8_8  and  N10_10 
ROOT
HETATM    1  C1  UNL     1     -34.333  17.686  -2.725  1.00 20.00     0.094 C 
HETATM    2  C7  UNL     1     -34.686  17.095  -0.357  1.00 20.00     0.059 C 
HETATM    3  C8  UNL     1     -35.185  16.943  -1.788  1.00 20.00     0.322 C 
HETATM    4  N9  UNL     1     -33.662  18.275  -3.466  1.00 20.00    -0.195 NA
ENDROOT
BRANCH   3   5
HETATM    5  N10 UNL     1     -35.234  15.541  -2.168  1.00 20.00     0.106 N 
HETATM    6  H24 UNL     1     -35.963  15.069  -1.641  1.00 20.00     0.318 HD
BRANCH   5   7
HETATM    7  C3  UNL     1     -35.523  15.404  -3.599  1.00 20.00     0.230 A 
HETATM    8  C2  UNL     1     -36.119  14.126  -4.127  1.00 20.00     0.047 A 
HETATM    9  C4  UNL     1     -34.699  14.495  -4.494  1.00 20.00    -0.015 A 
HETATM   10  C5  UNL     1     -34.434  14.963  -5.901  1.00 20.00     0.017 C 
HETATM   11  C6  UNL     1     -33.585  13.672  -3.901  1.00 20.00     0.017 C 
ENDBRANCH   5   7
ENDBRANCH   3   5
TORSDOF 2
ENDMDL
