MODEL 1
REMARK VINA RESULT:      -4.6      0.000      0.000
REMARK  3 active torsions:
REMARK  status: ('A' for Active; 'I' for Inactive)
REMARK    1  A    between atoms: C2_2  and  C8_8 
REMARK    2  A    between atoms: C4_4  and  N9_9 
REMARK    3  A    between atoms: C8_8  and  N9_9 
ROOT
HETATM    1  N9  UNL     1     -32.923   6.493   2.940  1.00 20.00     0.093 N 
HETATM    2  H24 UNL     1     -32.567   5.762   2.330  1.00 20.00     0.316 HD
ENDROOT
BRANCH   1   3
HETATM    3  C4  UNL     1     -33.147   5.922   4.273  1.00 20.00     0.229 A 
HETATM    4  C3  UNL     1     -33.935   6.681   5.307  1.00 20.00     0.047 A 
HETATM    5  C5  UNL     1     -34.504   5.409   4.721  1.00 20.00    -0.015 A 
HETATM    6  C6  UNL     1     -35.696   5.528   3.808  1.00 20.00     0.017 C 
HETATM    7  C7  UNL     1     -34.522   4.179   5.591  1.00 20.00     0.017 C 
ENDBRANCH   1   3
BRANCH   1   8
HETATM    8  C8  UNL     1     -31.969   7.585   3.006  1.00 20.00     0.320 C 
BRANCH   8   9
HETATM    9  C2  UNL     1     -32.094   8.531   1.848  1.00 20.00     0.030 C 
HETATM   10  C1  UNL     1     -31.626   8.278   0.619  1.00 20.00     0.034 C 
HETATM   11 CL10 UNL     1     -32.843  10.057   2.186  1.00 20.00    -0.088 Cl
ENDBRANCH   8   9
ENDBRANCH   1   8
TORSDOF 3
ENDMDL
MODEL 2
REMARK VINA RESULT:      -4.2      1.452      1.924
REMARK  3 active torsions:
REMARK  status: ('A' for Active; 'I' for Inactive)
REMARK    1  A    between atoms: C2_2  and  C8_8 
REMARK    2  A    between atoms: C4_4  and  N9_9 
REMARK    3  A    between atoms: C8_8  and  N9_9 
ROOT
HETATM    1  N9  UNL     1     -33.510   5.558   2.825  1.00 20.00     0.093 N 
HETATM    2  H24 UNL     1     -33.603   4.548   2.771  1.00 20.00     0.316 HD
ENDROOT
BRANCH   1   3
HETATM    3  C4  UNL     1     -34.272   6.038   3.983  1.00 20.00     0.229 A 
HETATM    4  C3  UNL     1     -35.743   5.741   4.107  1.00 20.00     0.047 A 
HETATM    5  C5  UNL     1     -34.769   5.104   5.073  1.00 20.00    -0.015 A 
HETATM    6  C6  UNL     1     -34.538   3.619   4.960  1.00 20.00     0.017 C 
HETATM    7  C7  UNL     1     -34.742   5.620   6.488  1.00 20.00     0.017 C 
ENDBRANCH   1   3
BRANCH   1   8
HETATM    8  C8  UNL     1     -32.108   5.915   2.953  1.00 20.00     0.320 C 
BRANCH   8   9
HETATM    9  C2  UNL     1     -31.893   7.399   2.989  1.00 20.00     0.030 C 
HETATM   10  C1  UNL     1     -32.137   8.218   1.957  1.00 20.00     0.034 C 
HETATM   11 CL10 UNL     1     -31.227   8.040   4.455  1.00 20.00    -0.088 Cl
ENDBRANCH   8   9
ENDBRANCH   1   8
TORSDOF 3
ENDMDL
MODEL 3
REMARK VINA RESULT:      -4.1      2.084      4.603
REMARK  3 active torsions:
REMARK  status: ('A' for Active; 'I' for Inactive)
REMARK    1  A    between atoms: C2_2  and  C8_8 
REMARK    2  A    between atoms: C4_4  and  N9_9 
REMARK    3  A    between atoms: C8_8  and  N9_9 
ROOT
HETATM    1  N9  UNL     1     -34.503   6.418   3.389  1.00 20.00     0.093 N 
HETATM    2  H24 UNL     1     -34.874   7.348   3.559  1.00 20.00     0.316 HD
ENDROOT
BRANCH   1   3
HETATM    3  C4  UNL     1     -33.108   6.380   3.841  1.00 20.00     0.229 A 
HETATM    4  C3  UNL     1     -32.038   5.775   2.971  1.00 20.00     0.047 A 
HETATM    5  C5  UNL     1     -32.032   7.264   3.235  1.00 20.00    -0.015 A 
HETATM    6  C6  UNL     1     -32.365   8.182   2.087  1.00 20.00     0.017 C 
HETATM    7  C7  UNL     1     -30.982   7.810   4.168  1.00 20.00     0.017 C 
ENDBRANCH   1   3
BRANCH   1   8
HETATM    8  C8  UNL     1     -35.298   5.435   4.103  1.00 20.00     0.320 C 
BRANCH   8   9
HETATM    9  C2  UNL     1     -34.738   5.116   5.458  1.00 20.00     0.030 C 
HETATM   10  C1  UNL     1     -34.608   3.875   5.943  1.00 20.00     0.034 C 
HETATM   11 CL10 UNL     1     -34.305   6.474   6.444  1.00 20.00    -0.088 Cl
ENDBRANCH   8   9
ENDBRANCH   1   8
TORSDOF 3
ENDMDL
MODEL 4
REMARK VINA RESULT:      -3.9     11.059     12.031
REMARK  3 active torsions:
REMARK  status: ('A' for Active; 'I' for Inactive)
REMARK    1  A    between atoms: C2_2  and  C8_8 
REMARK    2  A    between atoms: C4_4  and  N9_9 
REMARK    3  A    between atoms: C8_8  and  N9_9 
ROOT
HETATM    1  N9  UNL     1     -35.430  14.434  -4.261  1.00 20.00     0.093 N 
HETATM    2  H24 UNL     1     -36.012  13.640  -4.008  1.00 20.00     0.316 HD
ENDROOT
BRANCH   1   3
HETATM    3  C4  UNL     1     -34.656  14.843  -3.084  1.00 20.00     0.229 A 
HETATM    4  C3  UNL     1     -33.419  15.687  -3.237  1.00 20.00     0.047 A 
HETATM    5  C5  UNL     1     -34.645  16.274  -2.575  1.00 20.00    -0.015 A 
HETATM    6  C6  UNL     1     -35.398  17.347  -3.317  1.00 20.00     0.017 C 
HETATM    7  C7  UNL     1     -34.611  16.475  -1.082  1.00 20.00     0.017 C 
ENDBRANCH   1   3
BRANCH   1   8
HETATM    8  C8  UNL     1     -34.544  14.065  -5.351  1.00 20.00     0.320 C 
BRANCH   8   9
HETATM    9  C2  UNL     1     -34.803  14.856  -6.598  1.00 20.00     0.030 C 
HETATM   10  C1  UNL     1     -35.477  14.388  -7.657  1.00 20.00     0.034 C 
HETATM   11 CL10 UNL     1     -34.117  16.447  -6.650  1.00 20.00    -0.088 Cl
ENDBRANCH   8   9
ENDBRANCH   1   8
TORSDOF 3
ENDMDL
MODEL 5
REMARK VINA RESULT:      -3.9     10.443     11.501
REMARK  3 active torsions:
REMARK  status: ('A' for Active; 'I' for Inactive)
REMARK    1  A    between atoms: C2_2  and  C8_8 
REMARK    2  A    between atoms: C4_4  and  N9_9 
REMARK    3  A    between atoms: C8_8  and  N9_9 
ROOT
HETATM    1  N9  UNL     1     -34.441  15.781  -2.356  1.00 20.00     0.093 N 
HETATM    2  H24 UNL     1     -35.440  15.951  -2.434  1.00 20.00     0.316 HD
ENDROOT
BRANCH   1   3
HETATM    3  C4  UNL     1     -33.974  15.157  -3.599  1.00 20.00     0.229 A 
HETATM    4  C3  UNL     1     -33.896  13.658  -3.721  1.00 20.00     0.047 A 
HETATM    5  C5  UNL     1     -34.910  14.422  -4.542  1.00 20.00    -0.015 A 
HETATM    6  C6  UNL     1     -36.365  14.260  -4.189  1.00 20.00     0.017 C 
HETATM    7  C7  UNL     1     -34.653  14.566  -6.020  1.00 20.00     0.017 C 
ENDBRANCH   1   3
BRANCH   1   8
HETATM    8  C8  UNL     1     -33.748  17.036  -2.124  1.00 20.00     0.320 C 
BRANCH   8   9
HETATM    9  C2  UNL     1     -33.871  17.507  -0.705  1.00 20.00     0.030 C 
HETATM   10  C1  UNL     1     -34.903  17.214   0.096  1.00 20.00     0.034 C 
HETATM   11 CL10 UNL     1     -32.606  18.544  -0.132  1.00 20.00    -0.088 Cl
ENDBRANCH   8   9
ENDBRANCH   1   8
TORSDOF 3
ENDMDL
MODEL 6
REMARK VINA RESULT:      -3.9     10.743     11.940
REMARK  3 active torsions:
REMARK  status: ('A' for Active; 'I' for Inactive)
REMARK    1  A    between atoms: C2_2  and  C8_8 
REMARK    2  A    between atoms: C4_4  and  N9_9 
REMARK    3  A    between atoms: C8_8  and  N9_9 
ROOT
HETATM    1  N9  UNL     1     -33.459  16.903  -3.971  1.00 20.00     0.093 N 
HETATM    2  H24 UNL     1     -32.812  16.306  -3.463  1.00 20.00     0.316 HD
ENDROOT
BRANCH   1   3
HETATM    3  C4  UNL     1     -34.512  16.064  -4.554  1.00 20.00     0.229 A 
HETATM    4  C3  UNL     1     -34.229  15.211  -5.762  1.00 20.00     0.047 A 
HETATM    5  C5  UNL     1     -34.506  14.550  -4.430  1.00 20.00    -0.015 A 
HETATM    6  C6  UNL     1     -33.364  13.851  -3.741  1.00 20.00     0.017 C 
HETATM    7  C7  UNL     1     -35.838  13.869  -4.247  1.00 20.00     0.017 C 
ENDBRANCH   1   3
BRANCH   1   8
HETATM    8  C8  UNL     1     -34.031  17.886  -3.068  1.00 20.00     0.320 C 
BRANCH   8   9
HETATM    9  C2  UNL     1     -33.925  17.476  -1.629  1.00 20.00     0.030 C 
HETATM   10  C1  UNL     1     -34.623  16.473  -1.081  1.00 20.00     0.034 C 
HETATM   11 CL10 UNL     1     -32.869  18.429  -0.639  1.00 20.00    -0.088 Cl
ENDBRANCH   8   9
ENDBRANCH   1   8
TORSDOF 3
ENDMDL
MODEL 7
REMARK VINA RESULT:      -3.8     10.593     12.926
REMARK  3 active torsions:
REMARK  status: ('A' for Active; 'I' for Inactive)
REMARK    1  A    between atoms: C2_2  and  C8_8 
REMARK    2  A    between atoms: C4_4  and  N9_9 
REMARK    3  A    between atoms: C8_8  and  N9_9 
ROOT
HETATM    1  N9  UNL     1     -32.971  15.888  -5.274  1.00 20.00     0.093 N 
HETATM    2  H24 UNL     1     -32.894  15.038  -5.824  1.00 20.00     0.316 HD
ENDROOT
BRANCH   1   3
HETATM    3  C4  UNL     1     -34.240  16.547  -5.603  1.00 20.00     0.229 A 
HETATM    4  C3  UNL     1     -34.412  17.261  -6.918  1.00 20.00     0.047 A 
HETATM    5  C5  UNL     1     -35.195  15.996  -6.648  1.00 20.00    -0.015 A 
HETATM    6  C6  UNL     1     -34.829  14.763  -7.431  1.00 20.00     0.017 C 
HETATM    7  C7  UNL     1     -36.670  16.127  -6.370  1.00 20.00     0.017 C 
ENDBRANCH   1   3
BRANCH   1   8
HETATM    8  C8  UNL     1     -32.918  15.563  -3.859  1.00 20.00     0.320 C 
BRANCH   8   9
HETATM    9  C2  UNL     1     -34.149  14.849  -3.386  1.00 20.00     0.030 C 
HETATM   10  C1  UNL     1     -34.509  13.625  -3.793  1.00 20.00     0.034 C 
HETATM   11 CL10 UNL     1     -35.168  15.726  -2.293  1.00 20.00    -0.088 Cl
ENDBRANCH   8   9
ENDBRANCH   1   8
TORSDOF 3
ENDMDL
MODEL 8
REMARK VINA RESULT:      -3.8     10.586     11.692
REMARK  3 active torsions:
REMARK  status: ('A' for Active; 'I' for Inactive)
REMARK    1  A    between atoms: C2_2  and  C8_8 
REMARK    2  A    between atoms: C4_4  and  N9_9 
REMARK    3  A    between atoms: C8_8  and  N9_9 
ROOT
HETATM    1  N9  UNL     1     -34.853  15.890  -1.653  1.00 20.00     0.093 N 
HETATM    2  H24 UNL     1     -34.366  15.084  -1.271  1.00 20.00     0.316 HD
ENDROOT
BRANCH   1   3
HETATM    3  C4  UNL     1     -33.993  17.070  -1.505  1.00 20.00     0.229 A 
HETATM    4  C3  UNL     1     -34.577  18.456  -1.574  1.00 20.00     0.047 A 
HETATM    5  C5  UNL     1     -34.018  17.946  -0.265  1.00 20.00    -0.015 A 
HETATM    6  C6  UNL     1     -34.991  17.652   0.848  1.00 20.00     0.017 C 
HETATM    7  C7  UNL     1     -32.703  18.510   0.207  1.00 20.00     0.017 C 
ENDBRANCH   1   3
BRANCH   1   8
HETATM    8  C8  UNL     1     -35.165  15.658  -3.052  1.00 20.00     0.320 C 
BRANCH   8   9
HETATM    9  C2  UNL     1     -33.994  15.123  -3.822  1.00 20.00     0.030 C 
HETATM   10  C1  UNL     1     -33.548  13.863  -3.729  1.00 20.00     0.034 C 
HETATM   11 CL10 UNL     1     -33.161  16.257  -4.833  1.00 20.00    -0.088 Cl
ENDBRANCH   8   9
ENDBRANCH   1   8
TORSDOF 3
ENDMDL
MODEL 9
REMARK VINA RESULT:      -3.8     11.120     12.633
REMARK  3 active torsions:
REMARK  status: ('A' for Active; 'I' for Inactive)
REMARK    1  A    between atoms: C2_2  and  C8_8 
REMARK    2  A    between atoms: C4_4  and  N9_9 
REMARK    3  A    between atoms: C8_8  and  N9_9 
ROOT
HETATM    1  N9  UNL     1     -33.232  15.836  -5.074  1.00 20.00     0.093 N 
HETATM    2  H24 UNL     1     -32.237  15.803  -5.278  1.00 20.00     0.316 HD
ENDROOT
BRANCH   1   3
HETATM    3  C4  UNL     1     -33.497  17.009  -4.232  1.00 20.00     0.229 A 
HETATM    4  C3  UNL     1     -34.900  17.530  -4.067  1.00 20.00     0.047 A 
HETATM    5  C5  UNL     1     -34.193  16.903  -2.887  1.00 20.00    -0.015 A 
HETATM    6  C6  UNL     1     -34.693  15.569  -2.396  1.00 20.00     0.017 C 
HETATM    7  C7  UNL     1     -33.712  17.816  -1.788  1.00 20.00     0.017 C 
ENDBRANCH   1   3
BRANCH   1   8
HETATM    8  C8  UNL     1     -33.985  15.917  -6.312  1.00 20.00     0.320 C 
BRANCH   8   9
HETATM    9  C2  UNL     1     -34.780  14.674  -6.585  1.00 20.00     0.030 C 
HETATM   10  C1  UNL     1     -35.485  14.465  -7.704  1.00 20.00     0.034 C 
HETATM   11 CL10 UNL     1     -34.809  13.492  -5.318  1.00 20.00    -0.088 Cl
ENDBRANCH   8   9
ENDBRANCH   1   8
TORSDOF 3
ENDMDL
