MODEL 1
REMARK VINA RESULT:      -5.2      0.000      0.000
REMARK  3 active torsions:
REMARK  status: ('A' for Active; 'I' for Inactive)
REMARK    1  A    between atoms: C2_2  and  N8_8 
REMARK    2  A    between atoms: C6_6  and  C7_7 
REMARK    3  A    between atoms: C6_6  and  N8_8 
ROOT
HETATM    1  N8  UNL     1     -32.635   6.309   3.652  1.00 20.00     0.097 N 
HETATM    2  H23 UNL     1     -31.750   5.809   3.627  1.00 20.00     0.316 HD
ENDROOT
BRANCH   1   3
HETATM    3  C2  UNL     1     -33.706   5.351   3.949  1.00 20.00     0.229 A 
HETATM    4  C1  UNL     1     -35.137   5.815   3.997  1.00 20.00     0.047 A 
HETATM    5  C3  UNL     1     -34.452   5.379   5.272  1.00 20.00    -0.015 A 
HETATM    6  C4  UNL     1     -34.852   4.055   5.868  1.00 20.00     0.017 C 
HETATM    7  C5  UNL     1     -34.129   6.439   6.292  1.00 20.00     0.017 C 
ENDBRANCH   1   3
BRANCH   1   8
HETATM    8  C6  UNL     1     -32.868   6.955   2.372  1.00 20.00     0.386 C 
BRANCH   8   9
HETATM    9  C7  UNL     1     -32.051   8.215   2.228  1.00 20.00     0.413 C 
HETATM   10  F9  UNL     1     -31.216   8.360   3.280  1.00 20.00    -0.169 F 
HETATM   11  F10 UNL     1     -31.298   8.188   1.108  1.00 20.00    -0.169 F 
HETATM   12  F11 UNL     1     -32.839   9.310   2.178  1.00 20.00    -0.169 F 
ENDBRANCH   8   9
ENDBRANCH   1   8
TORSDOF 3
ENDMDL
MODEL 2
REMARK VINA RESULT:      -5.1      3.505      5.038
REMARK  3 active torsions:
REMARK  status: ('A' for Active; 'I' for Inactive)
REMARK    1  A    between atoms: C2_2  and  N8_8 
REMARK    2  A    between atoms: C6_6  and  C7_7 
REMARK    3  A    between atoms: C6_6  and  N8_8 
ROOT
HETATM    1  N8  UNL     1     -33.956   6.403   4.736  1.00 20.00     0.097 N 
HETATM    2  H23 UNL     1     -34.358   7.280   5.058  1.00 20.00     0.316 HD
ENDROOT
BRANCH   1   3
HETATM    3  C2  UNL     1     -33.448   6.593   3.372  1.00 20.00     0.229 A 
HETATM    4  C1  UNL     1     -32.247   5.816   2.903  1.00 20.00     0.047 A 
HETATM    5  C3  UNL     1     -32.136   7.310   3.106  1.00 20.00    -0.015 A 
HETATM    6  C4  UNL     1     -32.061   8.183   1.881  1.00 20.00     0.017 C 
HETATM    7  C5  UNL     1     -31.303   7.800   4.261  1.00 20.00     0.017 C 
ENDBRANCH   1   3
BRANCH   1   8
HETATM    8  C6  UNL     1     -34.969   5.362   4.763  1.00 20.00     0.386 C 
BRANCH   8   9
HETATM    9  C7  UNL     1     -34.745   4.398   5.902  1.00 20.00     0.413 C 
HETATM   10  F9  UNL     1     -33.725   4.818   6.683  1.00 20.00    -0.169 F 
HETATM   11  F10 UNL     1     -35.842   4.295   6.683  1.00 20.00    -0.169 F 
HETATM   12  F11 UNL     1     -34.433   3.165   5.450  1.00 20.00    -0.169 F 
ENDBRANCH   8   9
ENDBRANCH   1   8
TORSDOF 3
ENDMDL
MODEL 3
REMARK VINA RESULT:      -5.1      3.507      5.005
REMARK  3 active torsions:
REMARK  status: ('A' for Active; 'I' for Inactive)
REMARK    1  A    between atoms: C2_2  and  N8_8 
REMARK    2  A    between atoms: C6_6  and  C7_7 
REMARK    3  A    between atoms: C6_6  and  N8_8 
ROOT
HETATM    1  N8  UNL     1     -33.975   6.407   4.725  1.00 20.00     0.097 N 
HETATM    2  H23 UNL     1     -34.388   7.282   5.037  1.00 20.00     0.316 HD
ENDROOT
BRANCH   1   3
HETATM    3  C2  UNL     1     -33.459   6.590   3.364  1.00 20.00     0.229 A 
HETATM    4  C1  UNL     1     -32.256   5.811   2.904  1.00 20.00     0.047 A 
HETATM    5  C3  UNL     1     -32.145   7.305   3.101  1.00 20.00    -0.015 A 
HETATM    6  C4  UNL     1     -32.063   8.174   1.874  1.00 20.00     0.017 C 
HETATM    7  C5  UNL     1     -31.318   7.800   4.259  1.00 20.00     0.017 C 
ENDBRANCH   1   3
BRANCH   1   8
HETATM    8  C6  UNL     1     -34.977   5.355   4.754  1.00 20.00     0.386 C 
BRANCH   8   9
HETATM    9  C7  UNL     1     -34.748   4.401   5.899  1.00 20.00     0.413 C 
HETATM   10  F9  UNL     1     -34.439   3.170   5.434  1.00 20.00    -0.169 F 
HETATM   11  F10 UNL     1     -33.729   4.809   6.685  1.00 20.00    -0.169 F 
HETATM   12  F11 UNL     1     -35.850   4.281   6.669  1.00 20.00    -0.169 F 
ENDBRANCH   8   9
ENDBRANCH   1   8
TORSDOF 3
ENDMDL
MODEL 4
REMARK VINA RESULT:      -5.0      3.500      5.003
REMARK  3 active torsions:
REMARK  status: ('A' for Active; 'I' for Inactive)
REMARK    1  A    between atoms: C2_2  and  N8_8 
REMARK    2  A    between atoms: C6_6  and  C7_7 
REMARK    3  A    between atoms: C6_6  and  N8_8 
ROOT
HETATM    1  N8  UNL     1     -33.960   6.417   4.725  1.00 20.00     0.097 N 
HETATM    2  H23 UNL     1     -34.376   7.290   5.040  1.00 20.00     0.316 HD
ENDROOT
BRANCH   1   3
HETATM    3  C2  UNL     1     -33.449   6.606   3.363  1.00 20.00     0.229 A 
HETATM    4  C1  UNL     1     -32.251   5.825   2.895  1.00 20.00     0.047 A 
HETATM    5  C3  UNL     1     -32.134   7.318   3.099  1.00 20.00    -0.015 A 
HETATM    6  C4  UNL     1     -32.053   8.192   1.876  1.00 20.00     0.017 C 
HETATM    7  C5  UNL     1     -31.300   7.803   4.257  1.00 20.00     0.017 C 
ENDBRANCH   1   3
BRANCH   1   8
HETATM    8  C6  UNL     1     -34.958   5.362   4.754  1.00 20.00     0.386 C 
BRANCH   8   9
HETATM    9  C7  UNL     1     -34.729   4.411   5.902  1.00 20.00     0.413 C 
HETATM   10  F9  UNL     1     -35.838   4.319   6.668  1.00 20.00    -0.169 F 
HETATM   11  F10 UNL     1     -34.432   3.169   5.462  1.00 20.00    -0.169 F 
HETATM   12  F11 UNL     1     -33.718   4.828   6.694  1.00 20.00    -0.169 F 
ENDBRANCH   8   9
ENDBRANCH   1   8
TORSDOF 3
ENDMDL
MODEL 5
REMARK VINA RESULT:      -4.5      3.187      4.994
REMARK  3 active torsions:
REMARK  status: ('A' for Active; 'I' for Inactive)
REMARK    1  A    between atoms: C2_2  and  N8_8 
REMARK    2  A    between atoms: C6_6  and  C7_7 
REMARK    3  A    between atoms: C6_6  and  N8_8 
ROOT
HETATM    1  N8  UNL     1     -33.875   6.715   3.529  1.00 20.00     0.097 N 
HETATM    2  H23 UNL     1     -34.619   6.452   2.888  1.00 20.00     0.316 HD
ENDROOT
BRANCH   1   3
HETATM    3  C2  UNL     1     -32.631   6.872   2.766  1.00 20.00     0.229 A 
HETATM    4  C1  UNL     1     -31.485   7.652   3.350  1.00 20.00     0.047 A 
HETATM    5  C3  UNL     1     -32.233   8.206   2.160  1.00 20.00    -0.015 A 
HETATM    6  C4  UNL     1     -31.546   8.180   0.820  1.00 20.00     0.017 C 
HETATM    7  C5  UNL     1     -33.102   9.417   2.380  1.00 20.00     0.017 C 
ENDBRANCH   1   3
BRANCH   1   8
HETATM    8  C6  UNL     1     -33.723   5.692   4.549  1.00 20.00     0.386 C 
BRANCH   8   9
HETATM    9  C7  UNL     1     -35.023   4.973   4.813  1.00 20.00     0.413 C 
HETATM   10  F9  UNL     1     -35.425   5.177   6.086  1.00 20.00    -0.169 F 
HETATM   11  F10 UNL     1     -36.005   5.415   3.998  1.00 20.00    -0.169 F 
HETATM   12  F11 UNL     1     -34.895   3.641   4.633  1.00 20.00    -0.169 F 
ENDBRANCH   8   9
ENDBRANCH   1   8
TORSDOF 3
ENDMDL
MODEL 6
REMARK VINA RESULT:      -4.4     10.850     11.822
REMARK  3 active torsions:
REMARK  status: ('A' for Active; 'I' for Inactive)
REMARK    1  A    between atoms: C2_2  and  N8_8 
REMARK    2  A    between atoms: C6_6  and  C7_7 
REMARK    3  A    between atoms: C6_6  and  N8_8 
ROOT
HETATM    1  N8  UNL     1     -34.198  16.422  -3.361  1.00 20.00     0.097 N 
HETATM    2  H23 UNL     1     -34.267  17.325  -3.823  1.00 20.00     0.316 HD
ENDROOT
BRANCH   1   3
HETATM    3  C2  UNL     1     -33.709  16.632  -1.993  1.00 20.00     0.229 A 
HETATM    4  C1  UNL     1     -34.672  16.602  -0.838  1.00 20.00     0.047 A 
HETATM    5  C3  UNL     1     -34.014  17.906  -1.226  1.00 20.00    -0.015 A 
HETATM    6  C4  UNL     1     -32.936  18.447  -0.325  1.00 20.00     0.017 C 
HETATM    7  C5  UNL     1     -34.880  18.968  -1.853  1.00 20.00     0.017 C 
ENDBRANCH   1   3
BRANCH   1   8
HETATM    8  C6  UNL     1     -33.292  15.562  -4.101  1.00 20.00     0.386 C 
BRANCH   8   9
HETATM    9  C7  UNL     1     -33.734  14.121  -4.060  1.00 20.00     0.413 C 
HETATM   10  F9  UNL     1     -32.738  13.334  -3.595  1.00 20.00    -0.169 F 
HETATM   11  F10 UNL     1     -34.799  13.956  -3.246  1.00 20.00    -0.169 F 
HETATM   12  F11 UNL     1     -34.070  13.672  -5.288  1.00 20.00    -0.169 F 
ENDBRANCH   8   9
ENDBRANCH   1   8
TORSDOF 3
ENDMDL
MODEL 7
REMARK VINA RESULT:      -4.4     10.868     13.182
REMARK  3 active torsions:
REMARK  status: ('A' for Active; 'I' for Inactive)
REMARK    1  A    between atoms: C2_2  and  N8_8 
REMARK    2  A    between atoms: C6_6  and  C7_7 
REMARK    3  A    between atoms: C6_6  and  N8_8 
ROOT
HETATM    1  N8  UNL     1     -32.848  15.827  -5.245  1.00 20.00     0.097 N 
HETATM    2  H23 UNL     1     -31.904  16.205  -5.240  1.00 20.00     0.316 HD
ENDROOT
BRANCH   1   3
HETATM    3  C2  UNL     1     -33.765  16.863  -5.732  1.00 20.00     0.229 A 
HETATM    4  C1  UNL     1     -35.249  16.705  -5.537  1.00 20.00     0.047 A 
HETATM    5  C3  UNL     1     -34.668  16.626  -6.930  1.00 20.00    -0.015 A 
HETATM    6  C4  UNL     1     -34.904  17.787  -7.859  1.00 20.00     0.017 C 
HETATM    7  C5  UNL     1     -34.666  15.283  -7.614  1.00 20.00     0.017 C 
ENDBRANCH   1   3
BRANCH   1   8
HETATM    8  C6  UNL     1     -33.215  15.410  -3.903  1.00 20.00     0.386 C 
BRANCH   8   9
HETATM    9  C7  UNL     1     -33.539  13.938  -3.847  1.00 20.00     0.413 C 
HETATM   10  F9  UNL     1     -34.542  13.708  -2.971  1.00 20.00    -0.169 F 
HETATM   11  F10 UNL     1     -33.935  13.475  -5.052  1.00 20.00    -0.169 F 
HETATM   12  F11 UNL     1     -32.473  13.213  -3.447  1.00 20.00    -0.169 F 
ENDBRANCH   8   9
ENDBRANCH   1   8
TORSDOF 3
ENDMDL
MODEL 8
REMARK VINA RESULT:      -4.4     11.664     12.349
REMARK  3 active torsions:
REMARK  status: ('A' for Active; 'I' for Inactive)
REMARK    1  A    between atoms: C2_2  and  N8_8 
REMARK    2  A    between atoms: C6_6  and  C7_7 
REMARK    3  A    between atoms: C6_6  and  N8_8 
ROOT
HETATM    1  N8  UNL     1     -33.751  14.358  -4.577  1.00 20.00     0.097 N 
HETATM    2  H23 UNL     1     -32.993  13.697  -4.431  1.00 20.00     0.316 HD
ENDROOT
BRANCH   1   3
HETATM    3  C2  UNL     1     -34.367  14.660  -3.280  1.00 20.00     0.229 A 
HETATM    4  C1  UNL     1     -35.784  15.165  -3.220  1.00 20.00     0.047 A 
HETATM    5  C3  UNL     1     -34.647  16.088  -2.846  1.00 20.00    -0.015 A 
HETATM    6  C4  UNL     1     -34.458  16.418  -1.389  1.00 20.00     0.017 C 
HETATM    7  C5  UNL     1     -34.335  17.229  -3.779  1.00 20.00     0.017 C 
ENDBRANCH   1   3
BRANCH   1   8
HETATM    8  C6  UNL     1     -34.729  13.788  -5.487  1.00 20.00     0.386 C 
BRANCH   8   9
HETATM    9  C7  UNL     1     -34.931  14.658  -6.703  1.00 20.00     0.413 C 
HETATM   10  F9  UNL     1     -35.876  15.593  -6.463  1.00 20.00    -0.169 F 
HETATM   11  F10 UNL     1     -33.794  15.303  -7.042  1.00 20.00    -0.169 F 
HETATM   12  F11 UNL     1     -35.335  13.931  -7.767  1.00 20.00    -0.169 F 
ENDBRANCH   8   9
ENDBRANCH   1   8
TORSDOF 3
ENDMDL
MODEL 9
REMARK VINA RESULT:      -4.3     11.600     12.771
REMARK  3 active torsions:
REMARK  status: ('A' for Active; 'I' for Inactive)
REMARK    1  A    between atoms: C2_2  and  N8_8 
REMARK    2  A    between atoms: C6_6  and  C7_7 
REMARK    3  A    between atoms: C6_6  and  N8_8 
ROOT
HETATM    1  N8  UNL     1     -33.161  16.177  -5.306  1.00 20.00     0.097 N 
HETATM    2  H23 UNL     1     -32.360  16.668  -5.696  1.00 20.00     0.316 HD
ENDROOT
BRANCH   1   3
HETATM    3  C2  UNL     1     -34.213  16.110  -6.326  1.00 20.00     0.229 A 
HETATM    4  C1  UNL     1     -35.660  16.119  -5.915  1.00 20.00     0.047 A 
HETATM    5  C3  UNL     1     -35.062  14.865  -6.511  1.00 20.00    -0.015 A 
HETATM    6  C4  UNL     1     -35.455  14.497  -7.918  1.00 20.00     0.017 C 
HETATM    7  C5  UNL     1     -34.864  13.682  -5.600  1.00 20.00     0.017 C 
ENDBRANCH   1   3
BRANCH   1   8
HETATM    8  C6  UNL     1     -33.637  16.879  -4.127  1.00 20.00     0.386 C 
BRANCH   8   9
HETATM    9  C7  UNL     1     -33.628  15.989  -2.909  1.00 20.00     0.413 C 
HETATM   10  F9  UNL     1     -32.700  15.016  -3.041  1.00 20.00    -0.169 F 
HETATM   11  F10 UNL     1     -33.331  16.687  -1.791  1.00 20.00    -0.169 F 
HETATM   12  F11 UNL     1     -34.824  15.391  -2.726  1.00 20.00    -0.169 F 
ENDBRANCH   8   9
ENDBRANCH   1   8
TORSDOF 3
ENDMDL
