MODEL 1
REMARK VINA RESULT:      -4.6      0.000      0.000
REMARK  0 active torsions:
REMARK  status: ('A' for Active; 'I' for Inactive)
ROOT
HETATM    1  C1  UNL     1     -33.642  17.558  -4.249  1.00 20.00     0.035 A 
HETATM    2  C2  UNL     1     -33.829  17.621  -2.865  1.00 20.00     0.026 A 
HETATM    3  C3  UNL     1     -34.818  15.407  -2.860  1.00 20.00     0.045 A 
HETATM    4  C4  UNL     1     -34.044  16.406  -4.959  1.00 20.00     0.077 A 
HETATM    5  C5  UNL     1     -34.626  15.350  -4.250  1.00 20.00     0.039 A 
HETATM    6  C6  UNL     1     -34.409  16.558  -2.181  1.00 20.00     0.035 A 
HETATM    7  C7  UNL     1     -34.401  15.021  -6.638  1.00 20.00     0.253 A 
HETATM    8  N8  UNL     1     -33.922  16.201  -6.326  1.00 20.00    -0.213 NA
HETATM    9  F9  UNL     1     -34.403  14.573  -7.902  1.00 20.00    -0.176 F 
HETATM   10  S10 UNL     1     -35.020  14.083  -5.350  1.00 20.00    -0.037 SA
HETATM   11 CL11 UNL     1     -34.628  16.658  -0.475  1.00 20.00    -0.084 Cl
ENDROOT
TORSDOF 0
ENDMDL
MODEL 2
REMARK VINA RESULT:      -4.4      1.416      1.442
REMARK  0 active torsions:
REMARK  status: ('A' for Active; 'I' for Inactive)
ROOT
HETATM    1  C1  UNL     1     -33.235  15.448  -4.147  1.00 20.00     0.035 A 
HETATM    2  C2  UNL     1     -33.365  15.880  -2.824  1.00 20.00     0.026 A 
HETATM    3  C3  UNL     1     -35.782  15.858  -3.014  1.00 20.00     0.045 A 
HETATM    4  C4  UNL     1     -34.390  15.213  -4.924  1.00 20.00     0.077 A 
HETATM    5  C5  UNL     1     -35.644  15.423  -4.342  1.00 20.00     0.039 A 
HETATM    6  C6  UNL     1     -34.623  16.082  -2.266  1.00 20.00     0.035 A 
HETATM    7  C7  UNL     1     -35.661  14.674  -6.644  1.00 20.00     0.253 A 
HETATM    8  N8  UNL     1     -34.417  14.783  -6.243  1.00 20.00    -0.213 NA
HETATM    9  F9  UNL     1     -35.968  14.274  -7.886  1.00 20.00    -0.176 F 
HETATM   10  S10 UNL     1     -36.870  15.066  -5.500  1.00 20.00    -0.037 SA
HETATM   11 CL11 UNL     1     -34.757  16.614  -0.633  1.00 20.00    -0.084 Cl
ENDROOT
TORSDOF 0
ENDMDL
MODEL 3
REMARK VINA RESULT:      -4.3      3.933      4.793
REMARK  0 active torsions:
REMARK  status: ('A' for Active; 'I' for Inactive)
ROOT
HETATM    1  C1  UNL     1     -34.640  14.278  -3.567  1.00 20.00     0.035 A 
HETATM    2  C2  UNL     1     -34.652  14.063  -4.949  1.00 20.00     0.026 A 
HETATM    3  C3  UNL     1     -34.181  16.407  -5.355  1.00 20.00     0.045 A 
HETATM    4  C4  UNL     1     -34.395  15.573  -3.062  1.00 20.00     0.077 A 
HETATM    5  C5  UNL     1     -34.170  16.615  -3.966  1.00 20.00     0.039 A 
HETATM    6  C6  UNL     1     -34.425  15.115  -5.829  1.00 20.00     0.035 A 
HETATM    7  C7  UNL     1     -34.102  17.219  -1.623  1.00 20.00     0.253 A 
HETATM    8  N8  UNL     1     -34.352  15.935  -1.723  1.00 20.00    -0.213 NA
HETATM    9  F9  UNL     1     -34.007  17.827  -0.432  1.00 20.00    -0.176 F 
HETATM   10  S10 UNL     1     -33.901  18.075  -3.089  1.00 20.00    -0.037 SA
HETATM   11 CL11 UNL     1     -34.443  14.826  -7.528  1.00 20.00    -0.084 Cl
ENDROOT
TORSDOF 0
ENDMDL
MODEL 4
REMARK VINA RESULT:      -4.2      1.268      1.268
REMARK  0 active torsions:
REMARK  status: ('A' for Active; 'I' for Inactive)
ROOT
HETATM    1  C1  UNL     1     -35.831  17.266  -4.284  1.00 20.00     0.035 A 
HETATM    2  C2  UNL     1     -35.551  17.453  -2.927  1.00 20.00     0.026 A 
HETATM    3  C3  UNL     1     -34.671  15.200  -2.758  1.00 20.00     0.045 A 
HETATM    4  C4  UNL     1     -35.529  16.030  -4.897  1.00 20.00     0.077 A 
HETATM    5  C5  UNL     1     -34.954  15.019  -4.122  1.00 20.00     0.039 A 
HETATM    6  C6  UNL     1     -34.978  16.432  -2.176  1.00 20.00     0.035 A 
HETATM    7  C7  UNL     1     -35.349  14.471  -6.447  1.00 20.00     0.253 A 
HETATM    8  N8  UNL     1     -35.748  15.701  -6.227  1.00 20.00    -0.213 NA
HETATM    9  F9  UNL     1     -35.449  13.904  -7.658  1.00 20.00    -0.176 F 
HETATM   10  S10 UNL     1     -34.692  13.631  -5.110  1.00 20.00    -0.037 SA
HETATM   11 CL11 UNL     1     -34.641  16.688  -0.505  1.00 20.00    -0.084 Cl
ENDROOT
TORSDOF 0
ENDMDL
MODEL 5
REMARK VINA RESULT:      -4.2      1.768      2.384
REMARK  0 active torsions:
REMARK  status: ('A' for Active; 'I' for Inactive)
ROOT
HETATM    1  C1  UNL     1     -34.539  15.703  -2.224  1.00 20.00     0.035 A 
HETATM    2  C2  UNL     1     -34.468  16.602  -1.156  1.00 20.00     0.026 A 
HETATM    3  C3  UNL     1     -33.791  18.385  -2.653  1.00 20.00     0.045 A 
HETATM    4  C4  UNL     1     -34.235  16.141  -3.531  1.00 20.00     0.077 A 
HETATM    5  C5  UNL     1     -33.865  17.477  -3.721  1.00 20.00     0.039 A 
HETATM    6  C6  UNL     1     -34.098  17.926  -1.370  1.00 20.00     0.035 A 
HETATM    7  C7  UNL     1     -33.922  16.102  -5.714  1.00 20.00     0.253 A 
HETATM    8  N8  UNL     1     -34.263  15.367  -4.682  1.00 20.00    -0.213 NA
HETATM    9  F9  UNL     1     -33.869  15.594  -6.953  1.00 20.00    -0.176 F 
HETATM   10  S10 UNL     1     -33.550  17.740  -5.396  1.00 20.00    -0.037 SA
HETATM   11 CL11 UNL     1     -34.019  19.016  -0.038  1.00 20.00    -0.084 Cl
ENDROOT
TORSDOF 0
ENDMDL
MODEL 6
REMARK VINA RESULT:      -4.2      1.473      2.064
REMARK  0 active torsions:
REMARK  status: ('A' for Active; 'I' for Inactive)
ROOT
HETATM    1  C1  UNL     1     -34.479  15.113  -3.038  1.00 20.00     0.035 A 
HETATM    2  C2  UNL     1     -34.093  16.222  -2.279  1.00 20.00     0.026 A 
HETATM    3  C3  UNL     1     -33.881  17.569  -4.284  1.00 20.00     0.045 A 
HETATM    4  C4  UNL     1     -34.572  15.224  -4.443  1.00 20.00     0.077 A 
HETATM    5  C5  UNL     1     -34.271  16.452  -5.040  1.00 20.00     0.039 A 
HETATM    6  C6  UNL     1     -33.798  17.433  -2.895  1.00 20.00     0.035 A 
HETATM    7  C7  UNL     1     -34.917  14.674  -6.550  1.00 20.00     0.253 A 
HETATM    8  N8  UNL     1     -34.941  14.216  -5.321  1.00 20.00    -0.213 NA
HETATM    9  F9  UNL     1     -35.234  13.898  -7.597  1.00 20.00    -0.176 F 
HETATM   10  S10 UNL     1     -34.463  16.310  -6.748  1.00 20.00    -0.037 SA
HETATM   11 CL11 UNL     1     -33.325  18.786  -1.938  1.00 20.00    -0.084 Cl
ENDROOT
TORSDOF 0
ENDMDL
MODEL 7
REMARK VINA RESULT:      -4.1      1.766      2.255
REMARK  0 active torsions:
REMARK  status: ('A' for Active; 'I' for Inactive)
ROOT
HETATM    1  C1  UNL     1     -33.503  18.723  -2.345  1.00 20.00     0.035 A 
HETATM    2  C2  UNL     1     -33.822  18.802  -0.986  1.00 20.00     0.026 A 
HETATM    3  C3  UNL     1     -34.483  16.469  -0.966  1.00 20.00     0.045 A 
HETATM    4  C4  UNL     1     -33.673  17.503  -3.034  1.00 20.00     0.077 A 
HETATM    5  C5  UNL     1     -34.160  16.397  -2.331  1.00 20.00     0.039 A 
HETATM    6  C6  UNL     1     -34.305  17.689  -0.308  1.00 20.00     0.035 A 
HETATM    7  C7  UNL     1     -33.676  16.027  -4.674  1.00 20.00     0.253 A 
HETATM    8  N8  UNL     1     -33.399  17.275  -4.375  1.00 20.00    -0.213 NA
HETATM    9  F9  UNL     1     -33.500  15.544  -5.912  1.00 20.00    -0.176 F 
HETATM   10  S10 UNL     1     -34.270  15.051  -3.403  1.00 20.00    -0.037 SA
HETATM   11 CL11 UNL     1     -34.689  17.811   1.368  1.00 20.00    -0.084 Cl
ENDROOT
TORSDOF 0
ENDMDL
MODEL 8
REMARK VINA RESULT:      -4.1     13.063     13.744
REMARK  0 active torsions:
REMARK  status: ('A' for Active; 'I' for Inactive)
ROOT
HETATM    1  C1  UNL     1     -40.780   5.620  -0.835  1.00 20.00     0.035 A 
HETATM    2  C2  UNL     1     -41.405   6.820  -0.483  1.00 20.00     0.026 A 
HETATM    3  C3  UNL     1     -43.334   6.256  -1.840  1.00 20.00     0.045 A 
HETATM    4  C4  UNL     1     -41.434   4.716  -1.701  1.00 20.00     0.077 A 
HETATM    5  C5  UNL     1     -42.701   5.052  -2.188  1.00 20.00     0.039 A 
HETATM    6  C6  UNL     1     -42.666   7.132  -0.980  1.00 20.00     0.035 A 
HETATM    7  C7  UNL     1     -41.814   2.924  -2.929  1.00 20.00     0.253 A 
HETATM    8  N8  UNL     1     -40.940   3.494  -2.134  1.00 20.00    -0.213 NA
HETATM    9  F9  UNL     1     -41.583   1.728  -3.488  1.00 20.00    -0.176 F 
HETATM   10  S10 UNL     1     -43.264   3.786  -3.213  1.00 20.00    -0.037 SA
HETATM   11 CL11 UNL     1     -43.417   8.616  -0.531  1.00 20.00    -0.084 Cl
ENDROOT
TORSDOF 0
ENDMDL
MODEL 9
REMARK VINA RESULT:      -4.0      3.870      4.722
REMARK  0 active torsions:
REMARK  status: ('A' for Active; 'I' for Inactive)
ROOT
HETATM    1  C1  UNL     1     -34.434  14.221  -5.089  1.00 20.00     0.035 A 
HETATM    2  C2  UNL     1     -35.159  14.245  -6.284  1.00 20.00     0.026 A 
HETATM    3  C3  UNL     1     -36.642  15.945  -5.396  1.00 20.00     0.045 A 
HETATM    4  C4  UNL     1     -34.810  15.069  -4.025  1.00 20.00     0.077 A 
HETATM    5  C5  UNL     1     -35.909  15.916  -4.199  1.00 20.00     0.039 A 
HETATM    6  C6  UNL     1     -36.248  15.096  -6.434  1.00 20.00     0.035 A 
HETATM    7  C7  UNL     1     -34.806  16.046  -2.048  1.00 20.00     0.253 A 
HETATM    8  N8  UNL     1     -34.189  15.156  -2.788  1.00 20.00    -0.213 NA
HETATM    9  F9  UNL     1     -34.404  16.325  -0.799  1.00 20.00    -0.176 F 
HETATM   10  S10 UNL     1     -36.147  16.833  -2.758  1.00 20.00    -0.037 SA
HETATM   11 CL11 UNL     1     -37.124  15.108  -7.918  1.00 20.00    -0.084 Cl
ENDROOT
TORSDOF 0
ENDMDL
