MODEL 1
REMARK VINA RESULT:      -4.2      0.000      0.000
REMARK  1 active torsions:
REMARK  status: ('A' for Active; 'I' for Inactive)
REMARK    1  A    between atoms: C6_6  and  N7_7 
ROOT
HETATM    1  C1  UNL     1     -33.898   6.951   6.686  1.00 20.00     0.015 C 
HETATM    2  C2  UNL     1     -34.163   6.196   5.790  1.00 20.00    -0.084 C 
HETATM    3  C4  UNL     1     -34.768   3.869   5.231  1.00 20.00     0.055 C 
HETATM    4  C5  UNL     1     -35.670   5.785   3.874  1.00 20.00     0.055 C 
HETATM    5  C6  UNL     1     -34.491   5.270   4.694  1.00 20.00     0.112 C 
ENDROOT
BRANCH   5   6
HETATM    6  N7  UNL     1     -33.305   5.205   3.834  1.00 20.00    -0.224 NA
HETATM    7  C3  UNL     1     -32.999   6.231   3.356  1.00 20.00     0.333 C 
HETATM    8  O8  UNL     1     -32.688   7.258   2.875  1.00 20.00    -0.260 OA
ENDBRANCH   5   6
TORSDOF 1
ENDMDL
MODEL 2
REMARK VINA RESULT:      -4.1     11.786     12.427
REMARK  1 active torsions:
REMARK  status: ('A' for Active; 'I' for Inactive)
REMARK    1  A    between atoms: C6_6  and  N7_7 
ROOT
HETATM    1  C1  UNL     1     -34.468  16.680  -1.102  1.00 20.00     0.015 C 
HETATM    2  C2  UNL     1     -34.353  16.125  -2.161  1.00 20.00    -0.084 C 
HETATM    3  C4  UNL     1     -34.477  16.414  -4.609  1.00 20.00     0.055 C 
HETATM    4  C5  UNL     1     -32.834  14.803  -3.593  1.00 20.00     0.055 C 
HETATM    5  C6  UNL     1     -34.210  15.448  -3.459  1.00 20.00     0.112 C 
ENDROOT
BRANCH   5   6
HETATM    6  N7  UNL     1     -35.234  14.398  -3.497  1.00 20.00    -0.224 NA
HETATM    7  C3  UNL     1     -34.971  13.494  -4.196  1.00 20.00     0.333 C 
HETATM    8  O8  UNL     1     -34.713  12.585  -4.896  1.00 20.00    -0.260 OA
ENDBRANCH   5   6
TORSDOF 1
ENDMDL
MODEL 3
REMARK VINA RESULT:      -4.1     11.603     12.230
REMARK  1 active torsions:
REMARK  status: ('A' for Active; 'I' for Inactive)
REMARK    1  A    between atoms: C6_6  and  N7_7 
ROOT
HETATM    1  C1  UNL     1     -34.498  16.702  -0.956  1.00 20.00     0.015 C 
HETATM    2  C2  UNL     1     -34.714  16.128  -1.989  1.00 20.00    -0.084 C 
HETATM    3  C4  UNL     1     -36.468  15.120  -3.403  1.00 20.00     0.055 C 
HETATM    4  C5  UNL     1     -34.467  16.231  -4.446  1.00 20.00     0.055 C 
HETATM    5  C6  UNL     1     -34.981  15.428  -3.255  1.00 20.00     0.112 C 
ENDROOT
BRANCH   5   6
HETATM    6  N7  UNL     1     -34.254  14.155  -3.189  1.00 20.00    -0.224 NA
HETATM    7  C3  UNL     1     -34.524  13.402  -4.046  1.00 20.00     0.333 C 
HETATM    8  O8  UNL     1     -34.789  12.642  -4.904  1.00 20.00    -0.260 OA
ENDBRANCH   5   6
TORSDOF 1
ENDMDL
MODEL 4
REMARK VINA RESULT:      -4.0     11.960     12.689
REMARK  1 active torsions:
REMARK  status: ('A' for Active; 'I' for Inactive)
REMARK    1  A    between atoms: C6_6  and  N7_7 
ROOT
HETATM    1  C1  UNL     1     -34.704  16.369  -1.279  1.00 20.00     0.015 C 
HETATM    2  C2  UNL     1     -34.550  15.896  -2.373  1.00 20.00    -0.084 C 
HETATM    3  C4  UNL     1     -33.249  16.046  -4.465  1.00 20.00     0.055 C 
HETATM    4  C5  UNL     1     -34.072  13.821  -3.628  1.00 20.00     0.055 C 
HETATM    5  C6  UNL     1     -34.358  15.317  -3.712  1.00 20.00     0.112 C 
ENDROOT
BRANCH   5   6
HETATM    6  N7  UNL     1     -35.616  15.522  -4.439  1.00 20.00    -0.224 NA
HETATM    7  C3  UNL     1     -36.495  14.833  -4.083  1.00 20.00     0.333 C 
HETATM    8  O8  UNL     1     -37.382  14.146  -3.730  1.00 20.00    -0.260 OA
ENDBRANCH   5   6
TORSDOF 1
ENDMDL
MODEL 5
REMARK VINA RESULT:      -3.8     11.811     12.905
REMARK  1 active torsions:
REMARK  status: ('A' for Active; 'I' for Inactive)
REMARK    1  A    between atoms: C6_6  and  N7_7 
ROOT
HETATM    1  C1  UNL     1     -33.908  16.663  -5.914  1.00 20.00     0.015 C 
HETATM    2  C2  UNL     1     -33.853  16.085  -4.862  1.00 20.00    -0.084 C 
HETATM    3  C4  UNL     1     -32.544  14.489  -3.509  1.00 20.00     0.055 C 
HETATM    4  C5  UNL     1     -33.811  16.361  -2.406  1.00 20.00     0.055 C 
HETATM    5  C6  UNL     1     -33.782  15.379  -3.574  1.00 20.00     0.112 C 
ENDROOT
BRANCH   5   6
HETATM    6  N7  UNL     1     -34.968  14.519  -3.503  1.00 20.00    -0.224 NA
HETATM    7  C3  UNL     1     -34.892  13.540  -4.145  1.00 20.00     0.333 C 
HETATM    8  O8  UNL     1     -34.822  12.557  -4.786  1.00 20.00    -0.260 OA
ENDBRANCH   5   6
TORSDOF 1
ENDMDL
MODEL 6
REMARK VINA RESULT:      -3.7     12.332     12.820
REMARK  1 active torsions:
REMARK  status: ('A' for Active; 'I' for Inactive)
REMARK    1  A    between atoms: C6_6  and  N7_7 
ROOT
HETATM    1  C1  UNL     1     -34.596  16.297  -1.509  1.00 20.00     0.015 C 
HETATM    2  C2  UNL     1     -34.604  15.668  -2.533  1.00 20.00    -0.084 C 
HETATM    3  C4  UNL     1     -33.530  13.822  -3.769  1.00 20.00     0.055 C 
HETATM    4  C5  UNL     1     -35.987  14.283  -4.042  1.00 20.00     0.055 C 
HETATM    5  C6  UNL     1     -34.614  14.896  -3.785  1.00 20.00     0.112 C 
ENDROOT
BRANCH   5   6
HETATM    6  N7  UNL     1     -34.306  15.843  -4.862  1.00 20.00    -0.224 NA
HETATM    7  C3  UNL     1     -34.285  15.364  -5.932  1.00 20.00     0.333 C 
HETATM    8  O8  UNL     1     -34.264  14.890  -7.009  1.00 20.00    -0.260 OA
ENDBRANCH   5   6
TORSDOF 1
ENDMDL
MODEL 7
REMARK VINA RESULT:      -3.7     12.478     13.754
REMARK  1 active torsions:
REMARK  status: ('A' for Active; 'I' for Inactive)
REMARK    1  A    between atoms: C6_6  and  N7_7 
ROOT
HETATM    1  C1  UNL     1     -34.742  14.827  -7.664  1.00 20.00     0.015 C 
HETATM    2  C2  UNL     1     -34.550  15.190  -6.534  1.00 20.00    -0.084 C 
HETATM    3  C4  UNL     1     -33.319  16.792  -5.117  1.00 20.00     0.055 C 
HETATM    4  C5  UNL     1     -35.625  16.023  -4.470  1.00 20.00     0.055 C 
HETATM    5  C6  UNL     1     -34.315  15.637  -5.153  1.00 20.00     0.112 C 
ENDROOT
BRANCH   5   6
HETATM    6  N7  UNL     1     -33.724  14.500  -4.440  1.00 20.00    -0.224 NA
HETATM    7  C3  UNL     1     -34.417  13.557  -4.379  1.00 20.00     0.333 C 
HETATM    8  O8  UNL     1     -35.108  12.607  -4.315  1.00 20.00    -0.260 OA
ENDBRANCH   5   6
TORSDOF 1
ENDMDL
MODEL 8
REMARK VINA RESULT:      -3.7     12.080     13.298
REMARK  1 active torsions:
REMARK  status: ('A' for Active; 'I' for Inactive)
REMARK    1  A    between atoms: C6_6  and  N7_7 
ROOT
HETATM    1  C1  UNL     1     -34.833  14.740  -7.090  1.00 20.00     0.015 C 
HETATM    2  C2  UNL     1     -34.620  14.838  -5.912  1.00 20.00    -0.084 C 
HETATM    3  C4  UNL     1     -34.137  13.583  -3.842  1.00 20.00     0.055 C 
HETATM    4  C5  UNL     1     -33.169  15.877  -4.202  1.00 20.00     0.055 C 
HETATM    5  C6  UNL     1     -34.356  14.957  -4.469  1.00 20.00     0.112 C 
ENDROOT
BRANCH   5   6
HETATM    6  N7  UNL     1     -35.559  15.547  -3.872  1.00 20.00    -0.224 NA
HETATM    7  C3  UNL     1     -36.485  14.827  -3.844  1.00 20.00     0.333 C 
HETATM    8  O8  UNL     1     -37.417  14.110  -3.812  1.00 20.00    -0.260 OA
ENDBRANCH   5   6
TORSDOF 1
ENDMDL
MODEL 9
REMARK VINA RESULT:      -3.6      8.949     10.414
REMARK  1 active torsions:
REMARK  status: ('A' for Active; 'I' for Inactive)
REMARK    1  A    between atoms: C6_6  and  N7_7 
ROOT
HETATM    1  C1  UNL     1     -41.668   2.067  -3.542  1.00 20.00     0.015 C 
HETATM    2  C2  UNL     1     -41.816   3.020  -2.825  1.00 20.00    -0.084 C 
HETATM    3  C4  UNL     1     -42.490   5.393  -2.744  1.00 20.00     0.055 C 
HETATM    4  C5  UNL     1     -42.951   3.866  -0.799  1.00 20.00     0.055 C 
HETATM    5  C6  UNL     1     -42.000   4.186  -1.948  1.00 20.00     0.112 C 
ENDROOT
BRANCH   5   6
HETATM    6  N7  UNL     1     -40.679   4.507  -1.398  1.00 20.00    -0.224 NA
HETATM    7  C3  UNL     1     -40.678   5.398  -0.636  1.00 20.00     0.333 C 
HETATM    8  O8  UNL     1     -40.672   6.292   0.130  1.00 20.00    -0.260 OA
ENDBRANCH   5   6
TORSDOF 1
ENDMDL
