MODEL 1
REMARK VINA RESULT:      -5.3      0.000      0.000
REMARK  0 active torsions:
REMARK  status: ('A' for Active; 'I' for Inactive)
ROOT
HETATM    1  C1  UNL     1     -34.762  15.436  -2.998  1.00 20.00     0.042 C 
HETATM    2  C2  UNL     1     -34.185  17.863  -0.069  1.00 20.00    -0.026 A 
HETATM    3  C3  UNL     1     -33.668  18.921  -0.709  1.00 20.00    -0.026 A 
HETATM    4  C4  UNL     1     -34.337  16.612  -2.255  1.00 20.00    -0.050 A 
HETATM    5  C5  UNL     1     -33.814  17.677  -2.903  1.00 20.00    -0.067 A 
HETATM    6  C6  UNL     1     -34.363  15.271  -4.264  1.00 20.00     0.079 C 
HETATM    7  C7  UNL     1     -34.580  16.594  -0.767  1.00 20.00     0.065 A 
HETATM    8  C8  UNL     1     -33.426  18.949  -2.189  1.00 20.00     0.061 A 
HETATM    9  C9  UNL     1     -33.597  17.661  -4.406  1.00 20.00     0.074 C 
HETATM   10  C10 UNL     1     -34.453  14.807  -6.400  1.00 20.00     0.345 C 
HETATM   11  C11 UNL     1     -33.488  16.240  -4.965  1.00 20.00     0.184 C 
HETATM   12  O12 UNL     1     -34.849  14.305  -5.115  1.00 20.00    -0.328 OA
HETATM   13  O13 UNL     1     -33.953  16.148  -6.305  1.00 20.00    -0.354 OA
ENDROOT
TORSDOF 0
ENDMDL
MODEL 2
REMARK VINA RESULT:      -5.2      0.355      2.128
REMARK  0 active torsions:
REMARK  status: ('A' for Active; 'I' for Inactive)
ROOT
HETATM    1  C1  UNL     1     -33.660  17.465  -4.452  1.00 20.00     0.042 C 
HETATM    2  C2  UNL     1     -33.642  18.861  -0.868  1.00 20.00    -0.026 A 
HETATM    3  C3  UNL     1     -34.150  17.826  -0.185  1.00 20.00    -0.026 A 
HETATM    4  C4  UNL     1     -33.885  17.565  -3.018  1.00 20.00    -0.050 A 
HETATM    5  C5  UNL     1     -34.400  16.520  -2.333  1.00 20.00    -0.067 A 
HETATM    6  C6  UNL     1     -34.237  16.477  -5.147  1.00 20.00     0.079 C 
HETATM    7  C7  UNL     1     -33.448  18.847  -2.355  1.00 20.00     0.065 A 
HETATM    8  C8  UNL     1     -34.584  16.546  -0.835  1.00 20.00     0.061 A 
HETATM    9  C9  UNL     1     -34.816  15.240  -3.036  1.00 20.00     0.074 C 
HETATM   10  C10 UNL     1     -34.470  14.844  -6.583  1.00 20.00     0.345 C 
HETATM   11  C11 UNL     1     -35.115  15.460  -4.521  1.00 20.00     0.184 C 
HETATM   12  O12 UNL     1     -33.949  16.175  -6.458  1.00 20.00    -0.328 OA
HETATM   13  O13 UNL     1     -34.842  14.306  -5.305  1.00 20.00    -0.354 OA
ENDROOT
TORSDOF 0
ENDMDL
MODEL 3
REMARK VINA RESULT:      -5.2      2.263      4.542
REMARK  0 active torsions:
REMARK  status: ('A' for Active; 'I' for Inactive)
ROOT
HETATM    1  C1  UNL     1     -34.043  15.928  -2.257  1.00 20.00     0.042 C 
HETATM    2  C2  UNL     1     -34.847  13.524  -5.150  1.00 20.00    -0.026 A 
HETATM    3  C3  UNL     1     -34.654  14.321  -6.209  1.00 20.00    -0.026 A 
HETATM    4  C4  UNL     1     -34.284  15.436  -3.605  1.00 20.00    -0.050 A 
HETATM    5  C5  UNL     1     -34.091  16.244  -4.672  1.00 20.00    -0.067 A 
HETATM    6  C6  UNL     1     -33.931  17.244  -2.041  1.00 20.00     0.079 C 
HETATM    7  C7  UNL     1     -34.681  13.987  -3.732  1.00 20.00     0.065 A 
HETATM    8  C8  UNL     1     -34.256  15.762  -6.092  1.00 20.00     0.061 A 
HETATM    9  C9  UNL     1     -33.679  17.696  -4.501  1.00 20.00     0.074 C 
HETATM   10  C10 UNL     1     -33.164  19.137  -1.259  1.00 20.00     0.345 C 
HETATM   11  C11 UNL     1     -34.049  18.250  -3.123  1.00 20.00     0.184 C 
HETATM   12  O12 UNL     1     -33.521  17.807  -0.855  1.00 20.00    -0.328 OA
HETATM   13  O13 UNL     1     -33.152  19.263  -2.688  1.00 20.00    -0.354 OA
ENDROOT
TORSDOF 0
ENDMDL
MODEL 4
REMARK VINA RESULT:      -4.9      2.046      5.099
REMARK  0 active torsions:
REMARK  status: ('A' for Active; 'I' for Inactive)
ROOT
HETATM    1  C1  UNL     1     -33.995  17.584  -4.370  1.00 20.00     0.042 C 
HETATM    2  C2  UNL     1     -34.728  15.471  -7.500  1.00 20.00    -0.026 A 
HETATM    3  C3  UNL     1     -35.148  14.325  -6.946  1.00 20.00    -0.026 A 
HETATM    4  C4  UNL     1     -34.348  16.445  -5.205  1.00 20.00    -0.050 A 
HETATM    5  C5  UNL     1     -34.769  15.290  -4.642  1.00 20.00    -0.067 A 
HETATM    6  C6  UNL     1     -33.787  17.406  -3.060  1.00 20.00     0.079 C 
HETATM    7  C7  UNL     1     -34.286  16.658  -6.696  1.00 20.00     0.065 A 
HETATM    8  C8  UNL     1     -35.217  14.106  -5.464  1.00 20.00     0.061 A 
HETATM    9  C9  UNL     1     -34.830  15.120  -3.135  1.00 20.00     0.074 C 
HETATM   10  C10 UNL     1     -33.874  17.759  -0.903  1.00 20.00     0.345 C 
HETATM   11  C11 UNL     1     -33.895  16.084  -2.400  1.00 20.00     0.184 C 
HETATM   12  O12 UNL     1     -33.635  18.427  -2.150  1.00 20.00    -0.328 OA
HETATM   13  O13 UNL     1     -34.380  16.432  -1.110  1.00 20.00    -0.354 OA
ENDROOT
TORSDOF 0
ENDMDL
MODEL 5
REMARK VINA RESULT:      -4.8      5.426      7.783
REMARK  0 active torsions:
REMARK  status: ('A' for Active; 'I' for Inactive)
ROOT
HETATM    1  C1  UNL     1     -32.001  19.007   2.386  1.00 20.00     0.042 C 
HETATM    2  C2  UNL     1     -33.523  18.249  -1.065  1.00 20.00    -0.026 A 
HETATM    3  C3  UNL     1     -34.762  17.868  -0.723  1.00 20.00    -0.026 A 
HETATM    4  C4  UNL     1     -32.947  18.570   1.370  1.00 20.00    -0.050 A 
HETATM    5  C5  UNL     1     -34.195  18.184   1.719  1.00 20.00    -0.067 A 
HETATM    6  C6  UNL     1     -32.243  18.741   3.675  1.00 20.00     0.079 C 
HETATM    7  C7  UNL     1     -32.480  18.646  -0.062  1.00 20.00     0.065 A 
HETATM    8  C8  UNL     1     -35.235  17.793   0.698  1.00 20.00     0.061 A 
HETATM    9  C9  UNL     1     -34.631  18.133   3.172  1.00 20.00     0.074 C 
HETATM   10  C10 UNL     1     -32.408  19.040   5.836  1.00 20.00     0.345 C 
HETATM   11  C11 UNL     1     -33.446  18.005   4.133  1.00 20.00     0.184 C 
HETATM   12  O12 UNL     1     -31.525  19.262   4.726  1.00 20.00    -0.328 OA
HETATM   13  O13 UNL     1     -33.703  18.610   5.394  1.00 20.00    -0.354 OA
ENDROOT
TORSDOF 0
ENDMDL
MODEL 6
REMARK VINA RESULT:      -4.8      1.794      2.279
REMARK  0 active torsions:
REMARK  status: ('A' for Active; 'I' for Inactive)
ROOT
HETATM    1  C1  UNL     1     -36.432  16.589  -4.117  1.00 20.00     0.042 C 
HETATM    2  C2  UNL     1     -36.365  18.345  -0.695  1.00 20.00    -0.026 A 
HETATM    3  C3  UNL     1     -35.324  17.735  -0.112  1.00 20.00    -0.026 A 
HETATM    4  C4  UNL     1     -36.057  16.914  -2.749  1.00 20.00    -0.050 A 
HETATM    5  C5  UNL     1     -35.007  16.295  -2.163  1.00 20.00    -0.067 A 
HETATM    6  C6  UNL     1     -35.954  15.477  -4.690  1.00 20.00     0.079 C 
HETATM    7  C7  UNL     1     -36.845  18.009  -2.076  1.00 20.00     0.065 A 
HETATM    8  C8  UNL     1     -34.532  16.648  -0.775  1.00 20.00     0.061 A 
HETATM    9  C9  UNL     1     -34.230  15.205  -2.880  1.00 20.00     0.074 C 
HETATM   10  C10 UNL     1     -35.081  14.163  -6.204  1.00 20.00     0.345 C 
HETATM   11  C11 UNL     1     -35.047  14.537  -3.989  1.00 20.00     0.184 C 
HETATM   12  O12 UNL     1     -36.088  15.169  -6.023  1.00 20.00    -0.328 OA
HETATM   13  O13 UNL     1     -34.232  14.062  -5.052  1.00 20.00    -0.354 OA
ENDROOT
TORSDOF 0
ENDMDL
MODEL 7
REMARK VINA RESULT:      -4.7     13.147     14.632
REMARK  0 active torsions:
REMARK  status: ('A' for Active; 'I' for Inactive)
ROOT
HETATM    1  C1  UNL     1     -43.264   4.894  -3.398  1.00 20.00     0.042 C 
HETATM    2  C2  UNL     1     -42.397   7.847  -1.089  1.00 20.00    -0.026 A 
HETATM    3  C3  UNL     1     -41.332   7.360  -0.437  1.00 20.00    -0.026 A 
HETATM    4  C4  UNL     1     -42.614   5.678  -2.359  1.00 20.00    -0.050 A 
HETATM    5  C5  UNL     1     -41.541   5.183  -1.701  1.00 20.00    -0.067 A 
HETATM    6  C6  UNL     1     -43.011   3.584  -3.498  1.00 20.00     0.079 C 
HETATM    7  C7  UNL     1     -43.154   7.066  -2.123  1.00 20.00     0.065 A 
HETATM    8  C8  UNL     1     -40.786   5.983  -0.668  1.00 20.00     0.061 A 
HETATM    9  C9  UNL     1     -41.019   3.784  -1.977  1.00 20.00     0.074 C 
HETATM   10  C10 UNL     1     -42.564   1.644  -4.403  1.00 20.00     0.345 C 
HETATM   11  C11 UNL     1     -42.088   2.871  -2.583  1.00 20.00     0.184 C 
HETATM   12  O12 UNL     1     -43.417   2.790  -4.544  1.00 20.00    -0.328 OA
HETATM   13  O13 UNL     1     -41.532   1.878  -3.435  1.00 20.00    -0.354 OA
ENDROOT
TORSDOF 0
ENDMDL
MODEL 8
REMARK VINA RESULT:      -4.7      1.642      1.946
REMARK  0 active torsions:
REMARK  status: ('A' for Active; 'I' for Inactive)
ROOT
HETATM    1  C1  UNL     1     -34.368  15.320  -2.911  1.00 20.00     0.042 C 
HETATM    2  C2  UNL     1     -35.281  17.706  -0.035  1.00 20.00    -0.026 A 
HETATM    3  C3  UNL     1     -36.347  18.335  -0.550  1.00 20.00    -0.026 A 
HETATM    4  C4  UNL     1     -35.034  16.376  -2.164  1.00 20.00    -0.050 A 
HETATM    5  C5  UNL     1     -36.107  17.010  -2.688  1.00 20.00    -0.067 A 
HETATM    6  C6  UNL     1     -34.608  15.180  -4.220  1.00 20.00     0.079 C 
HETATM    7  C7  UNL     1     -34.509  16.657  -0.779  1.00 20.00     0.065 A 
HETATM    8  C8  UNL     1     -36.878  18.060  -1.925  1.00 20.00     0.061 A 
HETATM    9  C9  UNL     1     -36.614  16.689  -4.083  1.00 20.00     0.074 C 
HETATM   10  C10 UNL     1     -35.029  14.215  -6.137  1.00 20.00     0.345 C 
HETATM   11  C11 UNL     1     -35.532  16.066  -4.968  1.00 20.00     0.184 C 
HETATM   12  O12 UNL     1     -34.185  14.114  -4.980  1.00 20.00    -0.328 OA
HETATM   13  O13 UNL     1     -36.071  15.181  -5.941  1.00 20.00    -0.354 OA
ENDROOT
TORSDOF 0
ENDMDL
MODEL 9
REMARK VINA RESULT:      -4.6      3.150      4.557
REMARK  0 active torsions:
REMARK  status: ('A' for Active; 'I' for Inactive)
ROOT
HETATM    1  C1  UNL     1     -37.354  14.727  -3.761  1.00 20.00     0.042 C 
HETATM    2  C2  UNL     1     -33.722  13.520  -4.144  1.00 20.00    -0.026 A 
HETATM    3  C3  UNL     1     -33.053  14.527  -3.567  1.00 20.00    -0.026 A 
HETATM    4  C4  UNL     1     -35.900  14.718  -3.718  1.00 20.00    -0.050 A 
HETATM    5  C5  UNL     1     -35.228  15.738  -3.137  1.00 20.00    -0.067 A 
HETATM    6  C6  UNL     1     -38.019  15.862  -3.513  1.00 20.00     0.079 C 
HETATM    7  C7  UNL     1     -35.216  13.498  -4.281  1.00 20.00     0.065 A 
HETATM    8  C8  UNL     1     -33.725  15.742  -3.001  1.00 20.00     0.061 A 
HETATM    9  C9  UNL     1     -35.955  16.944  -2.569  1.00 20.00     0.074 C 
HETATM   10  C10 UNL     1     -39.528  17.219  -2.698  1.00 20.00     0.345 C 
HETATM   11  C11 UNL     1     -37.339  17.139  -3.195  1.00 20.00     0.184 C 
HETATM   12  O12 UNL     1     -39.381  15.945  -3.342  1.00 20.00    -0.328 OA
HETATM   13  O13 UNL     1     -38.257  17.751  -2.299  1.00 20.00    -0.354 OA
ENDROOT
TORSDOF 0
ENDMDL
