MODEL 1
REMARK VINA RESULT:      -4.4      0.000      0.000
REMARK  0 active torsions:
REMARK  status: ('A' for Active; 'I' for Inactive)
ROOT
HETATM    1  C1  UNL     1     -33.668  17.407  -4.174  1.00 20.00     0.060 A 
HETATM    2  C2  UNL     1     -34.682  15.138  -2.847  1.00 20.00     0.065 A 
HETATM    3  C3  UNL     1     -34.419  14.958  -6.655  1.00 20.00     0.167 A 
HETATM    4  C4  UNL     1     -34.050  16.274  -4.923  1.00 20.00     0.076 A 
HETATM    5  C5  UNL     1     -34.296  16.273  -2.129  1.00 20.00     0.139 A 
HETATM    6  C6  UNL     1     -34.552  15.159  -4.245  1.00 20.00     0.038 A 
HETATM    7  C7  UNL     1     -33.795  17.393  -2.781  1.00 20.00     0.074 A 
HETATM    8  N8  UNL     1     -33.981  16.144  -6.302  1.00 20.00    -0.253 NA
HETATM    9  F9  UNL     1     -34.417  16.263  -0.793  1.00 20.00    -0.204 F 
HETATM   10  S10 UNL     1     -34.937  13.929  -5.390  1.00 20.00    -0.080 SA
HETATM   11 CL11 UNL     1     -33.326  18.783  -1.877  1.00 20.00    -0.081 Cl
ENDROOT
TORSDOF 0
ENDMDL
MODEL 2
REMARK VINA RESULT:      -4.4      3.600      4.550
REMARK  0 active torsions:
REMARK  status: ('A' for Active; 'I' for Inactive)
ROOT
HETATM    1  C1  UNL     1     -34.518  14.978  -2.962  1.00 20.00     0.060 A 
HETATM    2  C2  UNL     1     -33.606  17.159  -4.494  1.00 20.00     0.065 A 
HETATM    3  C3  UNL     1     -34.171  17.765  -0.763  1.00 20.00     0.167 A 
HETATM    4  C4  UNL     1     -34.292  16.223  -2.337  1.00 20.00     0.076 A 
HETATM    5  C5  UNL     1     -33.837  15.916  -5.087  1.00 20.00     0.139 A 
HETATM    6  C6  UNL     1     -33.840  17.293  -3.116  1.00 20.00     0.038 A 
HETATM    7  C7  UNL     1     -34.286  14.839  -4.334  1.00 20.00     0.074 A 
HETATM    8  N8  UNL     1     -34.477  16.510  -0.992  1.00 20.00    -0.253 NA
HETATM    9  F9  UNL     1     -33.616  15.778  -6.403  1.00 20.00    -0.204 F 
HETATM   10  S10 UNL     1     -33.649  18.681  -2.111  1.00 20.00    -0.080 SA
HETATM   11 CL11 UNL     1     -34.566  13.313  -5.086  1.00 20.00    -0.081 Cl
ENDROOT
TORSDOF 0
ENDMDL
MODEL 3
REMARK VINA RESULT:      -4.3      1.706      2.244
REMARK  0 active torsions:
REMARK  status: ('A' for Active; 'I' for Inactive)
ROOT
HETATM    1  C1  UNL     1     -34.964  15.280  -2.965  1.00 20.00     0.060 A 
HETATM    2  C2  UNL     1     -33.699  17.252  -4.530  1.00 20.00     0.065 A 
HETATM    3  C3  UNL     1     -35.101  14.206  -6.363  1.00 20.00     0.167 A 
HETATM    4  C4  UNL     1     -34.875  15.109  -4.363  1.00 20.00     0.076 A 
HETATM    5  C5  UNL     1     -33.802  17.396  -3.144  1.00 20.00     0.139 A 
HETATM    6  C6  UNL     1     -34.242  16.099  -5.121  1.00 20.00     0.038 A 
HETATM    7  C7  UNL     1     -34.426  16.426  -2.370  1.00 20.00     0.074 A 
HETATM    8  N8  UNL     1     -35.360  14.031  -5.088  1.00 20.00    -0.253 NA
HETATM    9  F9  UNL     1     -33.285  18.493  -2.570  1.00 20.00    -0.204 F 
HETATM   10  S10 UNL     1     -34.272  15.642  -6.783  1.00 20.00    -0.080 SA
HETATM   11 CL11 UNL     1     -34.541  16.623  -0.662  1.00 20.00    -0.081 Cl
ENDROOT
TORSDOF 0
ENDMDL
MODEL 4
REMARK VINA RESULT:      -4.3      3.273      3.980
REMARK  0 active torsions:
REMARK  status: ('A' for Active; 'I' for Inactive)
ROOT
HETATM    1  C1  UNL     1     -34.103  16.537  -5.439  1.00 20.00     0.060 A 
HETATM    2  C2  UNL     1     -34.467  14.579  -3.446  1.00 20.00     0.065 A 
HETATM    3  C3  UNL     1     -33.821  18.159  -2.275  1.00 20.00     0.167 A 
HETATM    4  C4  UNL     1     -34.041  16.907  -4.079  1.00 20.00     0.076 A 
HETATM    5  C5  UNL     1     -34.524  14.240  -4.800  1.00 20.00     0.139 A 
HETATM    6  C6  UNL     1     -34.224  15.919  -3.106  1.00 20.00     0.038 A 
HETATM    7  C7  UNL     1     -34.345  15.203  -5.785  1.00 20.00     0.074 A 
HETATM    8  N8  UNL     1     -33.811  18.184  -3.588  1.00 20.00    -0.253 NA
HETATM    9  F9  UNL     1     -34.754  12.962  -5.135  1.00 20.00    -0.204 F 
HETATM   10  S10 UNL     1     -34.100  16.638  -1.543  1.00 20.00    -0.080 SA
HETATM   11 CL11 UNL     1     -34.417  14.763  -7.449  1.00 20.00    -0.081 Cl
ENDROOT
TORSDOF 0
ENDMDL
MODEL 5
REMARK VINA RESULT:      -4.2      3.553      4.189
REMARK  0 active torsions:
REMARK  status: ('A' for Active; 'I' for Inactive)
ROOT
HETATM    1  C1  UNL     1     -35.671  14.527  -3.693  1.00 20.00     0.060 A 
HETATM    2  C2  UNL     1     -35.938  15.644  -6.265  1.00 20.00     0.065 A 
HETATM    3  C3  UNL     1     -39.155  14.688  -4.439  1.00 20.00     0.167 A 
HETATM    4  C4  UNL     1     -36.958  14.708  -4.245  1.00 20.00     0.076 A 
HETATM    5  C5  UNL     1     -34.676  15.454  -5.696  1.00 20.00     0.139 A 
HETATM    6  C6  UNL     1     -37.067  15.263  -5.523  1.00 20.00     0.038 A 
HETATM    7  C7  UNL     1     -34.542  14.904  -4.427  1.00 20.00     0.074 A 
HETATM    8  N8  UNL     1     -38.162  14.383  -3.637  1.00 20.00    -0.253 NA
HETATM    9  F9  UNL     1     -33.591  15.813  -6.397  1.00 20.00    -0.204 F 
HETATM   10  S10 UNL     1     -38.734  15.371  -5.950  1.00 20.00    -0.080 SA
HETATM   11 CL11 UNL     1     -32.977  14.677  -3.743  1.00 20.00    -0.081 Cl
ENDROOT
TORSDOF 0
ENDMDL
MODEL 6
REMARK VINA RESULT:      -4.1      3.420      3.955
REMARK  0 active torsions:
REMARK  status: ('A' for Active; 'I' for Inactive)
ROOT
HETATM    1  C1  UNL     1     -35.646  14.017  -3.773  1.00 20.00     0.060 A 
HETATM    2  C2  UNL     1     -35.479  16.724  -4.537  1.00 20.00     0.065 A 
HETATM    3  C3  UNL     1     -38.976  15.258  -4.069  1.00 20.00     0.167 A 
HETATM    4  C4  UNL     1     -36.829  14.763  -3.964  1.00 20.00     0.076 A 
HETATM    5  C5  UNL     1     -34.323  15.964  -4.342  1.00 20.00     0.139 A 
HETATM    6  C6  UNL     1     -36.724  16.104  -4.344  1.00 20.00     0.038 A 
HETATM    7  C7  UNL     1     -34.403  14.629  -3.964  1.00 20.00     0.074 A 
HETATM    8  N8  UNL     1     -38.125  14.293  -3.811  1.00 20.00    -0.253 NA
HETATM    9  F9  UNL     1     -33.129  16.547  -4.525  1.00 20.00    -0.204 F 
HETATM   10  S10 UNL     1     -38.306  16.770  -4.506  1.00 20.00    -0.080 SA
HETATM   11 CL11 UNL     1     -32.965  13.709  -3.729  1.00 20.00    -0.081 Cl
ENDROOT
TORSDOF 0
ENDMDL
MODEL 7
REMARK VINA RESULT:      -4.0      1.690      2.010
REMARK  0 active torsions:
REMARK  status: ('A' for Active; 'I' for Inactive)
ROOT
HETATM    1  C1  UNL     1     -33.591  18.655  -2.295  1.00 20.00     0.060 A 
HETATM    2  C2  UNL     1     -34.670  16.075  -1.954  1.00 20.00     0.065 A 
HETATM    3  C3  UNL     1     -33.638  17.078  -5.494  1.00 20.00     0.167 A 
HETATM    4  C4  UNL     1     -33.727  17.803  -3.412  1.00 20.00     0.076 A 
HETATM    5  C5  UNL     1     -34.525  16.939  -0.866  1.00 20.00     0.139 A 
HETATM    6  C6  UNL     1     -34.266  16.527  -3.220  1.00 20.00     0.038 A 
HETATM    7  C7  UNL     1     -33.993  18.212  -1.031  1.00 20.00     0.074 A 
HETATM    8  N8  UNL     1     -33.373  18.104  -4.719  1.00 20.00    -0.253 NA
HETATM    9  F9  UNL     1     -34.910  16.518   0.348  1.00 20.00    -0.204 F 
HETATM   10  S10 UNL     1     -34.318  15.703  -4.735  1.00 20.00    -0.080 SA
HETATM   11 CL11 UNL     1     -33.823  19.262   0.325  1.00 20.00    -0.081 Cl
ENDROOT
TORSDOF 0
ENDMDL
MODEL 8
REMARK VINA RESULT:      -4.0      2.693      3.216
REMARK  0 active torsions:
REMARK  status: ('A' for Active; 'I' for Inactive)
ROOT
HETATM    1  C1  UNL     1     -34.468  16.322  -6.762  1.00 20.00     0.060 A 
HETATM    2  C2  UNL     1     -33.507  16.754  -4.149  1.00 20.00     0.065 A 
HETATM    3  C3  UNL     1     -34.765  13.244  -4.985  1.00 20.00     0.167 A 
HETATM    4  C4  UNL     1     -34.469  15.259  -5.834  1.00 20.00     0.076 A 
HETATM    5  C5  UNL     1     -33.516  17.789  -5.088  1.00 20.00     0.139 A 
HETATM    6  C6  UNL     1     -33.989  15.495  -4.542  1.00 20.00     0.038 A 
HETATM    7  C7  UNL     1     -33.989  17.578  -6.377  1.00 20.00     0.074 A 
HETATM    8  N8  UNL     1     -34.911  13.965  -6.072  1.00 20.00    -0.253 NA
HETATM    9  F9  UNL     1     -33.059  18.996  -4.722  1.00 20.00    -0.204 F 
HETATM   10  S10 UNL     1     -34.103  14.041  -3.623  1.00 20.00    -0.080 SA
HETATM   11 CL11 UNL     1     -33.993  18.869  -7.519  1.00 20.00    -0.081 Cl
ENDROOT
TORSDOF 0
ENDMDL
MODEL 9
REMARK VINA RESULT:      -4.0      3.451      4.076
REMARK  0 active torsions:
REMARK  status: ('A' for Active; 'I' for Inactive)
ROOT
HETATM    1  C1  UNL     1     -34.488  15.708  -2.802  1.00 20.00     0.060 A 
HETATM    2  C2  UNL     1     -36.634  14.490  -4.161  1.00 20.00     0.065 A 
HETATM    3  C3  UNL     1     -37.345  17.803  -2.395  1.00 20.00     0.167 A 
HETATM    4  C4  UNL     1     -35.754  16.330  -2.805  1.00 20.00     0.076 A 
HETATM    5  C5  UNL     1     -35.370  13.895  -4.143  1.00 20.00     0.139 A 
HETATM    6  C6  UNL     1     -36.806  15.708  -3.484  1.00 20.00     0.038 A 
HETATM    7  C7  UNL     1     -34.310  14.494  -3.475  1.00 20.00     0.074 A 
HETATM    8  N8  UNL     1     -36.078  17.528  -2.185  1.00 20.00    -0.253 NA
HETATM    9  F9  UNL     1     -35.196  12.731  -4.786  1.00 20.00    -0.204 F 
HETATM   10  S10 UNL     1     -38.227  16.673  -3.328  1.00 20.00    -0.080 SA
HETATM   11 CL11 UNL     1     -32.759  13.743  -3.465  1.00 20.00    -0.081 Cl
ENDROOT
TORSDOF 0
ENDMDL
