MODEL 1
REMARK VINA RESULT:      -3.5      0.000      0.000
REMARK  0 active torsions:
REMARK  status: ('A' for Active; 'I' for Inactive)
ROOT
HETATM    1  C1  UNL     1     -34.708   3.770   5.207  1.00 20.00     0.089 C 
HETATM    2  C2  UNL     1     -34.698   5.254   4.885  1.00 20.00     0.251 C 
HETATM    3  F3  UNL     1     -35.911   5.592   4.372  1.00 20.00    -0.208 F 
HETATM    4 CL4  UNL     1     -33.446   5.616   3.677  1.00 20.00    -0.066 Cl
HETATM    5 CL5  UNL     1     -34.414   6.205   6.360  1.00 20.00    -0.066 Cl
ENDROOT
TORSDOF 0
ENDMDL
MODEL 2
REMARK VINA RESULT:      -3.4      1.603      2.179
REMARK  0 active torsions:
REMARK  status: ('A' for Active; 'I' for Inactive)
ROOT
HETATM    1  C1  UNL     1     -34.725   3.949   5.605  1.00 20.00     0.089 C 
HETATM    2  C2  UNL     1     -34.443   5.305   4.982  1.00 20.00     0.251 C 
HETATM    3  F3  UNL     1     -33.275   5.226   4.289  1.00 20.00    -0.208 F 
HETATM    4 CL4  UNL     1     -34.275   6.543   6.245  1.00 20.00    -0.066 Cl
HETATM    5 CL5  UNL     1     -35.747   5.753   3.859  1.00 20.00    -0.066 Cl
ENDROOT
TORSDOF 0
ENDMDL
MODEL 3
REMARK VINA RESULT:      -3.3      1.466      2.136
REMARK  0 active torsions:
REMARK  status: ('A' for Active; 'I' for Inactive)
ROOT
HETATM    1  C1  UNL     1     -33.596   5.635   3.757  1.00 20.00     0.089 C 
HETATM    2  C2  UNL     1     -34.656   5.386   4.815  1.00 20.00     0.251 C 
HETATM    3  F3  UNL     1     -35.860   5.779   4.321  1.00 20.00    -0.208 F 
HETATM    4 CL4  UNL     1     -34.303   6.331   6.279  1.00 20.00    -0.066 Cl
HETATM    5 CL5  UNL     1     -34.737   3.655   5.213  1.00 20.00    -0.066 Cl
ENDROOT
TORSDOF 0
ENDMDL
MODEL 4
REMARK VINA RESULT:      -3.3      1.463      2.147
REMARK  0 active torsions:
REMARK  status: ('A' for Active; 'I' for Inactive)
ROOT
HETATM    1  C1  UNL     1     -34.365   6.142   6.223  1.00 20.00     0.089 C 
HETATM    2  C2  UNL     1     -34.586   5.356   4.942  1.00 20.00     0.251 C 
HETATM    3  F3  UNL     1     -35.783   5.726   4.411  1.00 20.00    -0.208 F 
HETATM    4 CL4  UNL     1     -34.627   3.613   5.285  1.00 20.00    -0.066 Cl
HETATM    5 CL5  UNL     1     -33.302   5.716   3.766  1.00 20.00    -0.066 Cl
ENDROOT
TORSDOF 0
ENDMDL
MODEL 5
REMARK VINA RESULT:      -3.3      1.915      2.113
REMARK  0 active torsions:
REMARK  status: ('A' for Active; 'I' for Inactive)
ROOT
HETATM    1  C1  UNL     1     -35.518   5.751   3.997  1.00 20.00     0.089 C 
HETATM    2  C2  UNL     1     -34.386   5.356   4.928  1.00 20.00     0.251 C 
HETATM    3  F3  UNL     1     -33.227   5.340   4.215  1.00 20.00    -0.208 F 
HETATM    4 CL4  UNL     1     -34.670   3.732   5.593  1.00 20.00    -0.066 Cl
HETATM    5 CL5  UNL     1     -34.230   6.537   6.248  1.00 20.00    -0.066 Cl
ENDROOT
TORSDOF 0
ENDMDL
MODEL 6
REMARK VINA RESULT:      -3.3      1.929      2.158
REMARK  0 active torsions:
REMARK  status: ('A' for Active; 'I' for Inactive)
ROOT
HETATM    1  C1  UNL     1     -34.251   6.358   6.185  1.00 20.00     0.089 C 
HETATM    2  C2  UNL     1     -34.168   5.451   4.970  1.00 20.00     0.251 C 
HETATM    3  F3  UNL     1     -33.841   4.199   5.388  1.00 20.00    -0.208 F 
HETATM    4 CL4  UNL     1     -32.911   6.027   3.853  1.00 20.00    -0.066 Cl
HETATM    5 CL5  UNL     1     -35.739   5.386   4.139  1.00 20.00    -0.066 Cl
ENDROOT
TORSDOF 0
ENDMDL
MODEL 7
REMARK VINA RESULT:      -3.2      2.099      2.326
REMARK  0 active torsions:
REMARK  status: ('A' for Active; 'I' for Inactive)
ROOT
HETATM    1  C1  UNL     1     -34.258   6.417   6.022  1.00 20.00     0.089 C 
HETATM    2  C2  UNL     1     -34.376   5.360   4.938  1.00 20.00     0.251 C 
HETATM    3  F3  UNL     1     -33.217   5.340   4.227  1.00 20.00    -0.208 F 
HETATM    4 CL4  UNL     1     -35.716   5.749   3.837  1.00 20.00    -0.066 Cl
HETATM    5 CL5  UNL     1     -34.629   3.756   5.664  1.00 20.00    -0.066 Cl
ENDROOT
TORSDOF 0
ENDMDL
MODEL 8
REMARK VINA RESULT:      -3.2      1.684      1.977
REMARK  0 active torsions:
REMARK  status: ('A' for Active; 'I' for Inactive)
ROOT
HETATM    1  C1  UNL     1     -34.371   4.271   5.614  1.00 20.00     0.089 C 
HETATM    2  C2  UNL     1     -34.426   5.597   4.877  1.00 20.00     0.251 C 
HETATM    3  F3  UNL     1     -34.540   6.595   5.794  1.00 20.00    -0.208 F 
HETATM    4 CL4  UNL     1     -35.838   5.648   3.799  1.00 20.00    -0.066 Cl
HETATM    5 CL5  UNL     1     -32.935   5.847   3.942  1.00 20.00    -0.066 Cl
ENDROOT
TORSDOF 0
ENDMDL
MODEL 9
REMARK VINA RESULT:      -3.1      1.974      2.442
REMARK  0 active torsions:
REMARK  status: ('A' for Active; 'I' for Inactive)
ROOT
HETATM    1  C1  UNL     1     -33.120   5.827   3.888  1.00 20.00     0.089 C 
HETATM    2  C2  UNL     1     -34.358   5.672   4.754  1.00 20.00     0.251 C 
HETATM    3  F3  UNL     1     -34.425   6.733   5.603  1.00 20.00    -0.208 F 
HETATM    4 CL4  UNL     1     -34.260   4.179   5.712  1.00 20.00    -0.066 Cl
HETATM    5 CL5  UNL     1     -35.821   5.654   3.743  1.00 20.00    -0.066 Cl
ENDROOT
TORSDOF 0
ENDMDL
