MODEL 1
REMARK VINA RESULT:      -4.8      0.000      0.000
REMARK  1 active torsions:
REMARK  status: ('A' for Active; 'I' for Inactive)
REMARK    1  A    between atoms: C1_1  and  C2_2 
ROOT
HETATM    1  C2  UNL     1     -34.987   4.877   4.648  1.00 20.00     0.447 C 
HETATM    2  F5  UNL     1     -36.110   5.394   4.110  1.00 20.00    -0.166 F 
HETATM    3  F6  UNL     1     -33.935   5.323   3.928  1.00 20.00    -0.166 F 
HETATM    4  F7  UNL     1     -35.039   3.535   4.514  1.00 20.00    -0.166 F 
ENDROOT
BRANCH   1   5
HETATM    5  C1  UNL     1     -34.850   5.265   6.091  1.00 20.00     0.459 C 
HETATM    6  F3  UNL     1     -34.276   6.490   6.179  1.00 20.00    -0.205 F 
HETATM    7  F4  UNL     1     -34.022   4.396   6.720  1.00 20.00    -0.205 F 
ENDBRANCH   1   5
TORSDOF 1
ENDMDL
MODEL 2
REMARK VINA RESULT:      -4.8      0.004      1.429
REMARK  1 active torsions:
REMARK  status: ('A' for Active; 'I' for Inactive)
REMARK    1  A    between atoms: C1_1  and  C2_2 
ROOT
HETATM    1  C2  UNL     1     -34.985   4.874   4.650  1.00 20.00     0.447 C 
HETATM    2  F5  UNL     1     -35.039   3.533   4.514  1.00 20.00    -0.166 F 
HETATM    3  F6  UNL     1     -36.109   5.394   4.113  1.00 20.00    -0.166 F 
HETATM    4  F7  UNL     1     -33.937   5.324   3.927  1.00 20.00    -0.166 F 
ENDROOT
BRANCH   1   5
HETATM    5  C1  UNL     1     -34.848   5.268   6.091  1.00 20.00     0.459 C 
HETATM    6  F3  UNL     1     -34.273   6.492   6.174  1.00 20.00    -0.205 F 
HETATM    7  F4  UNL     1     -34.022   4.400   6.724  1.00 20.00    -0.205 F 
ENDBRANCH   1   5
TORSDOF 1
ENDMDL
MODEL 3
REMARK VINA RESULT:      -4.6      1.047      1.811
REMARK  1 active torsions:
REMARK  status: ('A' for Active; 'I' for Inactive)
REMARK    1  A    between atoms: C1_1  and  C2_2 
ROOT
HETATM    1  C2  UNL     1     -34.839   5.572   3.912  1.00 20.00     0.447 C 
HETATM    2  F5  UNL     1     -36.167   5.590   3.682  1.00 20.00    -0.166 F 
HETATM    3  F6  UNL     1     -34.409   6.851   3.977  1.00 20.00    -0.166 F 
HETATM    4  F7  UNL     1     -34.239   4.990   2.852  1.00 20.00    -0.166 F 
ENDROOT
BRANCH   1   5
HETATM    5  C1  UNL     1     -34.518   4.836   5.179  1.00 20.00     0.459 C 
HETATM    6  F3  UNL     1     -35.109   3.616   5.157  1.00 20.00    -0.205 F 
HETATM    7  F4  UNL     1     -35.034   5.505   6.238  1.00 20.00    -0.205 F 
ENDBRANCH   1   5
TORSDOF 1
ENDMDL
MODEL 4
REMARK VINA RESULT:      -4.6      1.053      2.288
REMARK  1 active torsions:
REMARK  status: ('A' for Active; 'I' for Inactive)
REMARK    1  A    between atoms: C1_1  and  C2_2 
ROOT
HETATM    1  C2  UNL     1     -34.833   5.557   3.918  1.00 20.00     0.447 C 
HETATM    2  F5  UNL     1     -34.246   4.970   2.856  1.00 20.00    -0.166 F 
HETATM    3  F6  UNL     1     -36.165   5.587   3.695  1.00 20.00    -0.166 F 
HETATM    4  F7  UNL     1     -34.398   6.832   3.985  1.00 20.00    -0.166 F 
ENDROOT
BRANCH   1   5
HETATM    5  C1  UNL     1     -34.521   4.818   5.186  1.00 20.00     0.459 C 
HETATM    6  F3  UNL     1     -35.092   3.590   5.149  1.00 20.00    -0.205 F 
HETATM    7  F4  UNL     1     -35.062   5.474   6.241  1.00 20.00    -0.205 F 
ENDBRANCH   1   5
TORSDOF 1
ENDMDL
MODEL 5
REMARK VINA RESULT:      -4.6      1.160      1.920
REMARK  1 active torsions:
REMARK  status: ('A' for Active; 'I' for Inactive)
REMARK    1  A    between atoms: C1_1  and  C2_2 
ROOT
HETATM    1  C2  UNL     1     -34.976   4.802   5.559  1.00 20.00     0.447 C 
HETATM    2  F5  UNL     1     -35.820   4.883   4.511  1.00 20.00    -0.166 F 
HETATM    3  F6  UNL     1     -34.329   3.619   5.484  1.00 20.00    -0.166 F 
HETATM    4  F7  UNL     1     -35.713   4.797   6.690  1.00 20.00    -0.166 F 
ENDROOT
BRANCH   1   5
HETATM    5  C1  UNL     1     -34.003   5.944   5.561  1.00 20.00     0.459 C 
HETATM    6  F3  UNL     1     -34.252   6.751   6.620  1.00 20.00    -0.205 F 
HETATM    7  F4  UNL     1     -34.177   6.693   4.445  1.00 20.00    -0.205 F 
ENDBRANCH   1   5
TORSDOF 1
ENDMDL
MODEL 6
REMARK VINA RESULT:      -4.6      1.158      2.226
REMARK  1 active torsions:
REMARK  status: ('A' for Active; 'I' for Inactive)
REMARK    1  A    between atoms: C1_1  and  C2_2 
ROOT
HETATM    1  C2  UNL     1     -34.975   4.796   5.560  1.00 20.00     0.447 C 
HETATM    2  F5  UNL     1     -34.334   3.612   5.479  1.00 20.00    -0.166 F 
HETATM    3  F6  UNL     1     -35.717   4.793   6.688  1.00 20.00    -0.166 F 
HETATM    4  F7  UNL     1     -35.820   4.886   4.512  1.00 20.00    -0.166 F 
ENDROOT
BRANCH   1   5
HETATM    5  C1  UNL     1     -34.003   5.939   5.563  1.00 20.00     0.459 C 
HETATM    6  F3  UNL     1     -34.252   6.744   6.624  1.00 20.00    -0.205 F 
HETATM    7  F4  UNL     1     -34.178   6.688   4.448  1.00 20.00    -0.205 F 
ENDBRANCH   1   5
TORSDOF 1
ENDMDL
MODEL 7
REMARK VINA RESULT:      -4.5      0.963      2.553
REMARK  1 active torsions:
REMARK  status: ('A' for Active; 'I' for Inactive)
REMARK    1  A    between atoms: C1_1  and  C2_2 
ROOT
HETATM    1  C2  UNL     1     -34.622   5.081   6.069  1.00 20.00     0.447 C 
HETATM    2  F5  UNL     1     -35.775   4.544   6.517  1.00 20.00    -0.166 F 
HETATM    3  F6  UNL     1     -33.613   4.251   6.410  1.00 20.00    -0.166 F 
HETATM    4  F7  UNL     1     -34.428   6.251   6.714  1.00 20.00    -0.166 F 
ENDROOT
BRANCH   1   5
HETATM    5  C1  UNL     1     -34.663   5.290   4.584  1.00 20.00     0.459 C 
HETATM    6  F3  UNL     1     -34.243   6.545   4.291  1.00 20.00    -0.205 F 
HETATM    7  F4  UNL     1     -35.940   5.189   4.145  1.00 20.00    -0.205 F 
ENDBRANCH   1   5
TORSDOF 1
ENDMDL
MODEL 8
REMARK VINA RESULT:      -4.5      0.818      1.893
REMARK  1 active torsions:
REMARK  status: ('A' for Active; 'I' for Inactive)
REMARK    1  A    between atoms: C1_1  and  C2_2 
ROOT
HETATM    1  C2  UNL     1     -34.983   4.863   4.357  1.00 20.00     0.447 C 
HETATM    2  F5  UNL     1     -34.239   5.023   3.244  1.00 20.00    -0.166 F 
HETATM    3  F6  UNL     1     -35.162   3.539   4.553  1.00 20.00    -0.166 F 
HETATM    4  F7  UNL     1     -36.195   5.412   4.132  1.00 20.00    -0.166 F 
ENDROOT
BRANCH   1   5
HETATM    5  C1  UNL     1     -34.322   5.495   5.546  1.00 20.00     0.459 C 
HETATM    6  F3  UNL     1     -35.157   5.438   6.613  1.00 20.00    -0.205 F 
HETATM    7  F4  UNL     1     -34.091   6.806   5.296  1.00 20.00    -0.205 F 
ENDBRANCH   1   5
TORSDOF 1
ENDMDL
MODEL 9
REMARK VINA RESULT:      -4.5      0.804      2.604
REMARK  1 active torsions:
REMARK  status: ('A' for Active; 'I' for Inactive)
REMARK    1  A    between atoms: C1_1  and  C2_2 
ROOT
HETATM    1  C2  UNL     1     -34.722   5.096   6.118  1.00 20.00     0.447 C 
HETATM    2  F5  UNL     1     -34.447   6.408   6.262  1.00 20.00    -0.166 F 
HETATM    3  F6  UNL     1     -35.849   4.827   6.811  1.00 20.00    -0.166 F 
HETATM    4  F7  UNL     1     -33.715   4.395   6.681  1.00 20.00    -0.166 F 
ENDROOT
BRANCH   1   5
HETATM    5  C1  UNL     1     -34.884   4.731   4.672  1.00 20.00     0.459 C 
HETATM    6  F3  UNL     1     -35.986   5.340   4.171  1.00 20.00    -0.205 F 
HETATM    7  F4  UNL     1     -35.085   3.396   4.559  1.00 20.00    -0.205 F 
ENDBRANCH   1   5
TORSDOF 1
ENDMDL
