MODEL 1
REMARK VINA RESULT:      -4.4      0.000      0.000
REMARK  0 active torsions:
REMARK  status: ('A' for Active; 'I' for Inactive)
ROOT
HETATM    1  C1  UNL     1     -34.043   6.319   6.132  1.00 20.00     0.317 C 
HETATM    2  C2  UNL     1     -33.910   6.151   4.816  1.00 20.00     0.253 C 
HETATM    3  F3  UNL     1     -35.044   5.718   6.810  1.00 20.00    -0.169 F 
HETATM    4  F4  UNL     1     -33.167   7.102   6.795  1.00 20.00    -0.169 F 
HETATM    5  F5  UNL     1     -32.895   6.771   4.174  1.00 20.00    -0.187 F 
HETATM    6 CL6  UNL     1     -34.993   5.167   3.910  1.00 20.00    -0.046 Cl
ENDROOT
TORSDOF 0
ENDMDL
MODEL 2
REMARK VINA RESULT:      -4.4      1.885      2.579
REMARK  0 active torsions:
REMARK  status: ('A' for Active; 'I' for Inactive)
ROOT
HETATM    1  C1  UNL     1     -35.005   4.608   5.544  1.00 20.00     0.317 C 
HETATM    2  C2  UNL     1     -34.333   5.760   5.520  1.00 20.00     0.253 C 
HETATM    3  F3  UNL     1     -35.115   3.847   4.434  1.00 20.00    -0.169 F 
HETATM    4  F4  UNL     1     -35.582   4.197   6.692  1.00 20.00    -0.169 F 
HETATM    5  F5  UNL     1     -34.246   6.492   6.652  1.00 20.00    -0.187 F 
HETATM    6 CL6  UNL     1     -33.575   6.341   4.089  1.00 20.00    -0.046 Cl
ENDROOT
TORSDOF 0
ENDMDL
MODEL 3
REMARK VINA RESULT:      -4.3      1.689      2.152
REMARK  0 active torsions:
REMARK  status: ('A' for Active; 'I' for Inactive)
ROOT
HETATM    1  C1  UNL     1     -34.462   5.658   5.922  1.00 20.00     0.317 C 
HETATM    2  C2  UNL     1     -34.245   5.546   4.610  1.00 20.00     0.253 C 
HETATM    3  F3  UNL     1     -33.789   6.566   6.660  1.00 20.00    -0.169 F 
HETATM    4  F4  UNL     1     -35.365   4.853   6.518  1.00 20.00    -0.169 F 
HETATM    5  F5  UNL     1     -34.939   4.625   3.907  1.00 20.00    -0.187 F 
HETATM    6 CL6  UNL     1     -33.107   6.541   3.789  1.00 20.00    -0.046 Cl
ENDROOT
TORSDOF 0
ENDMDL
MODEL 4
REMARK VINA RESULT:      -4.3      2.070      2.721
REMARK  0 active torsions:
REMARK  status: ('A' for Active; 'I' for Inactive)
ROOT
HETATM    1  C1  UNL     1     -34.686   5.463   3.870  1.00 20.00     0.317 C 
HETATM    2  C2  UNL     1     -33.797   6.112   4.624  1.00 20.00     0.253 C 
HETATM    3  F3  UNL     1     -35.853   5.029   4.393  1.00 20.00    -0.169 F 
HETATM    4  F4  UNL     1     -34.415   5.235   2.568  1.00 20.00    -0.169 F 
HETATM    5  F5  UNL     1     -32.641   6.529   4.063  1.00 20.00    -0.187 F 
HETATM    6 CL6  UNL     1     -34.081   6.433   6.290  1.00 20.00    -0.046 Cl
ENDROOT
TORSDOF 0
ENDMDL
MODEL 5
REMARK VINA RESULT:      -4.3      2.234      3.281
REMARK  0 active torsions:
REMARK  status: ('A' for Active; 'I' for Inactive)
ROOT
HETATM    1  C1  UNL     1     -34.293   5.688   3.771  1.00 20.00     0.317 C 
HETATM    2  C2  UNL     1     -34.693   5.027   4.858  1.00 20.00     0.253 C 
HETATM    3  F3  UNL     1     -33.763   6.926   3.869  1.00 20.00    -0.169 F 
HETATM    4  F4  UNL     1     -34.420   5.112   2.557  1.00 20.00    -0.169 F 
HETATM    5  F5  UNL     1     -35.219   3.790   4.718  1.00 20.00    -0.187 F 
HETATM    6 CL6  UNL     1     -34.561   5.704   6.434  1.00 20.00    -0.046 Cl
ENDROOT
TORSDOF 0
ENDMDL
MODEL 6
REMARK VINA RESULT:      -4.3      1.650      2.586
REMARK  0 active torsions:
REMARK  status: ('A' for Active; 'I' for Inactive)
ROOT
HETATM    1  C1  UNL     1     -34.238   5.867   4.087  1.00 20.00     0.317 C 
HETATM    2  C2  UNL     1     -34.372   5.634   5.394  1.00 20.00     0.253 C 
HETATM    3  F3  UNL     1     -34.638   4.954   3.176  1.00 20.00    -0.169 F 
HETATM    4  F4  UNL     1     -33.695   7.030   3.671  1.00 20.00    -0.169 F 
HETATM    5  F5  UNL     1     -33.959   6.573   6.274  1.00 20.00    -0.187 F 
HETATM    6 CL6  UNL     1     -35.054   4.172   5.991  1.00 20.00    -0.046 Cl
ENDROOT
TORSDOF 0
ENDMDL
MODEL 7
REMARK VINA RESULT:      -4.2      2.232      3.093
REMARK  0 active torsions:
REMARK  status: ('A' for Active; 'I' for Inactive)
ROOT
HETATM    1  C1  UNL     1     -34.668   5.486   3.711  1.00 20.00     0.317 C 
HETATM    2  C2  UNL     1     -33.782   6.234   4.370  1.00 20.00     0.253 C 
HETATM    3  F3  UNL     1     -34.442   5.106   2.435  1.00 20.00    -0.169 F 
HETATM    4  F4  UNL     1     -35.806   5.104   4.327  1.00 20.00    -0.169 F 
HETATM    5  F5  UNL     1     -34.046   6.592   5.646  1.00 20.00    -0.187 F 
HETATM    6 CL6  UNL     1     -32.313   6.755   3.643  1.00 20.00    -0.046 Cl
ENDROOT
TORSDOF 0
ENDMDL
MODEL 8
REMARK VINA RESULT:      -4.1      1.668      2.220
REMARK  0 active torsions:
REMARK  status: ('A' for Active; 'I' for Inactive)
ROOT
HETATM    1  C1  UNL     1     -33.883   6.280   4.893  1.00 20.00     0.317 C 
HETATM    2  C2  UNL     1     -34.582   5.157   4.718  1.00 20.00     0.253 C 
HETATM    3  F3  UNL     1     -33.579   6.721   6.133  1.00 20.00    -0.169 F 
HETATM    4  F4  UNL     1     -33.475   6.984   3.817  1.00 20.00    -0.169 F 
HETATM    5  F5  UNL     1     -34.865   4.750   3.462  1.00 20.00    -0.187 F 
HETATM    6 CL6  UNL     1     -35.133   4.213   6.047  1.00 20.00    -0.046 Cl
ENDROOT
TORSDOF 0
ENDMDL
MODEL 9
REMARK VINA RESULT:      -4.1      0.785      2.220
REMARK  0 active torsions:
REMARK  status: ('A' for Active; 'I' for Inactive)
ROOT
HETATM    1  C1  UNL     1     -33.881   6.351   5.743  1.00 20.00     0.317 C 
HETATM    2  C2  UNL     1     -34.760   5.350   5.819  1.00 20.00     0.253 C 
HETATM    3  F3  UNL     1     -33.268   6.648   4.577  1.00 20.00    -0.169 F 
HETATM    4  F4  UNL     1     -33.601   7.076   6.846  1.00 20.00    -0.169 F 
HETATM    5  F5  UNL     1     -35.352   5.084   7.004  1.00 20.00    -0.187 F 
HETATM    6 CL6  UNL     1     -35.161   4.386   4.451  1.00 20.00    -0.046 Cl
ENDROOT
TORSDOF 0
ENDMDL
