MODEL 1
REMARK VINA RESULT:      -4.0      0.000      0.000
REMARK  1 active torsions:
REMARK  status: ('A' for Active; 'I' for Inactive)
REMARK    1  A    between atoms: C5_5  and  C6_6 
ROOT
HETATM    1  C1  UNL     1     -34.377  13.749  -3.974  1.00 20.00     0.080 C 
HETATM    2  C6  UNL     1     -33.766  14.919  -3.333  1.00 20.00     0.195 C 
HETATM    3  N7  UNL     1     -34.857  12.824  -4.484  1.00 20.00    -0.196 NA
HETATM    4 CL9  UNL     1     -33.209  16.023  -4.620  1.00 20.00    -0.109 Cl
ENDROOT
BRANCH   2   5
HETATM    5  C5  UNL     1     -34.745  15.637  -2.425  1.00 20.00     0.044 C 
HETATM    6  C2  UNL     1     -34.116  16.697  -1.548  1.00 20.00     0.035 C 
HETATM    7  C3  UNL     1     -35.320  17.531  -1.162  1.00 20.00     0.168 C 
HETATM    8  O8  UNL     1     -36.240  17.466  -2.262  1.00 20.00    -0.391 OA
HETATM    9  C4  UNL     1     -35.791  16.448  -3.170  1.00 20.00     0.174 C 
ENDBRANCH   2   5
TORSDOF 1
ENDMDL
MODEL 2
REMARK VINA RESULT:      -4.0      3.039      3.839
REMARK  1 active torsions:
REMARK  status: ('A' for Active; 'I' for Inactive)
REMARK    1  A    between atoms: C5_5  and  C6_6 
ROOT
HETATM    1  C1  UNL     1     -33.599  16.903  -3.882  1.00 20.00     0.080 C 
HETATM    2  C6  UNL     1     -33.582  15.962  -2.756  1.00 20.00     0.195 C 
HETATM    3  N7  UNL     1     -33.612  17.649  -4.770  1.00 20.00    -0.196 NA
HETATM    4 CL9  UNL     1     -34.322  16.775  -1.350  1.00 20.00    -0.109 Cl
ENDROOT
BRANCH   2   5
HETATM    5  C5  UNL     1     -34.341  14.690  -3.076  1.00 20.00     0.044 C 
HETATM    6  C2  UNL     1     -35.542  14.892  -3.974  1.00 20.00     0.035 C 
HETATM    7  C3  UNL     1     -35.774  13.490  -4.498  1.00 20.00     0.168 C 
HETATM    8  O8  UNL     1     -34.489  12.854  -4.564  1.00 20.00    -0.391 OA
HETATM    9  C4  UNL     1     -33.536  13.680  -3.877  1.00 20.00     0.174 C 
ENDBRANCH   2   5
TORSDOF 1
ENDMDL
MODEL 3
REMARK VINA RESULT:      -4.0     10.940     11.556
REMARK  1 active torsions:
REMARK  status: ('A' for Active; 'I' for Inactive)
REMARK    1  A    between atoms: C5_5  and  C6_6 
ROOT
HETATM    1  C1  UNL     1     -32.135   8.092   1.986  1.00 20.00     0.080 C 
HETATM    2  C6  UNL     1     -32.081   7.096   3.063  1.00 20.00     0.195 C 
HETATM    3  N7  UNL     1     -32.175   8.879   1.135  1.00 20.00    -0.196 NA
HETATM    4 CL9  UNL     1     -31.096   7.775   4.388  1.00 20.00    -0.109 Cl
ENDROOT
BRANCH   2   5
HETATM    5  C5  UNL     1     -33.464   6.746   3.574  1.00 20.00     0.044 C 
HETATM    6  C2  UNL     1     -34.053   5.493   2.963  1.00 20.00     0.035 C 
HETATM    7  C3  UNL     1     -35.130   5.139   3.967  1.00 20.00     0.168 C 
HETATM    8  O8  UNL     1     -34.663   5.580   5.250  1.00 20.00    -0.391 OA
HETATM    9  C4  UNL     1     -33.502   6.402   5.053  1.00 20.00     0.174 C 
ENDBRANCH   2   5
TORSDOF 1
ENDMDL
MODEL 4
REMARK VINA RESULT:      -3.9      3.057      3.733
REMARK  1 active torsions:
REMARK  status: ('A' for Active; 'I' for Inactive)
REMARK    1  A    between atoms: C5_5  and  C6_6 
ROOT
HETATM    1  C1  UNL     1     -37.231  14.733  -4.421  1.00 20.00     0.080 C 
HETATM    2  C6  UNL     1     -36.290  15.185  -5.453  1.00 20.00     0.195 C 
HETATM    3  N7  UNL     1     -37.977  14.379  -3.606  1.00 20.00    -0.196 NA
HETATM    4 CL9  UNL     1     -36.339  16.968  -5.498  1.00 20.00    -0.109 Cl
ENDROOT
BRANCH   2   5
HETATM    5  C5  UNL     1     -34.877  14.714  -5.169  1.00 20.00     0.044 C 
HETATM    6  C2  UNL     1     -34.250  15.337  -3.941  1.00 20.00     0.035 C 
HETATM    7  C3  UNL     1     -33.128  14.364  -3.642  1.00 20.00     0.168 C 
HETATM    8  O8  UNL     1     -33.576  13.069  -4.069  1.00 20.00    -0.391 OA
HETATM    9  C4  UNL     1     -34.779  13.235  -4.836  1.00 20.00     0.174 C 
ENDBRANCH   2   5
TORSDOF 1
ENDMDL
MODEL 5
REMARK VINA RESULT:      -3.8      2.724      3.329
REMARK  1 active torsions:
REMARK  status: ('A' for Active; 'I' for Inactive)
REMARK    1  A    between atoms: C5_5  and  C6_6 
ROOT
HETATM    1  C1  UNL     1     -33.366  16.535  -4.174  1.00 20.00     0.080 C 
HETATM    2  C6  UNL     1     -33.603  15.821  -2.914  1.00 20.00     0.195 C 
HETATM    3  N7  UNL     1     -33.176  17.103  -5.168  1.00 20.00    -0.196 NA
HETATM    4 CL9  UNL     1     -33.737  17.034  -1.611  1.00 20.00    -0.109 Cl
ENDROOT
BRANCH   2   5
HETATM    5  C5  UNL     1     -34.867  14.985  -2.973  1.00 20.00     0.044 C 
HETATM    6  C2  UNL     1     -36.059  15.702  -3.569  1.00 20.00     0.035 C 
HETATM    7  C3  UNL     1     -36.959  14.543  -3.944  1.00 20.00     0.168 C 
HETATM    8  O8  UNL     1     -36.100  13.442  -4.278  1.00 20.00    -0.391 OA
HETATM    9  C4  UNL     1     -34.760  13.775  -3.885  1.00 20.00     0.174 C 
ENDBRANCH   2   5
TORSDOF 1
ENDMDL
MODEL 6
REMARK VINA RESULT:      -3.8      2.794      3.591
REMARK  1 active torsions:
REMARK  status: ('A' for Active; 'I' for Inactive)
REMARK    1  A    between atoms: C5_5  and  C6_6 
ROOT
HETATM    1  C1  UNL     1     -37.339  14.988  -3.762  1.00 20.00     0.080 C 
HETATM    2  C6  UNL     1     -36.179  15.885  -3.714  1.00 20.00     0.195 C 
HETATM    3  N7  UNL     1     -38.259  14.282  -3.801  1.00 20.00    -0.196 NA
HETATM    4 CL9  UNL     1     -36.562  17.219  -2.591  1.00 20.00    -0.109 Cl
ENDROOT
BRANCH   2   5
HETATM    5  C5  UNL     1     -34.930  15.162  -3.249  1.00 20.00     0.044 C 
HETATM    6  C2  UNL     1     -34.690  13.834  -3.935  1.00 20.00     0.035 C 
HETATM    7  C3  UNL     1     -33.216  13.611  -3.663  1.00 20.00     0.168 C 
HETATM    8  O8  UNL     1     -32.603  14.907  -3.605  1.00 20.00    -0.391 OA
HETATM    9  C4  UNL     1     -33.640  15.899  -3.566  1.00 20.00     0.174 C 
ENDBRANCH   2   5
TORSDOF 1
ENDMDL
MODEL 7
REMARK VINA RESULT:      -3.8      3.014      3.974
REMARK  1 active torsions:
REMARK  status: ('A' for Active; 'I' for Inactive)
REMARK    1  A    between atoms: C5_5  and  C6_6 
ROOT
HETATM    1  C1  UNL     1     -35.272  17.174  -3.276  1.00 20.00     0.080 C 
HETATM    2  C6  UNL     1     -34.298  16.337  -2.567  1.00 20.00     0.195 C 
HETATM    3  N7  UNL     1     -36.042  17.839  -3.835  1.00 20.00    -0.196 NA
HETATM    4 CL9  UNL     1     -34.547  16.568  -0.815  1.00 20.00    -0.109 Cl
ENDROOT
BRANCH   2   5
HETATM    5  C5  UNL     1     -34.454  14.871  -2.921  1.00 20.00     0.044 C 
HETATM    6  C2  UNL     1     -35.590  14.581  -3.878  1.00 20.00     0.035 C 
HETATM    7  C3  UNL     1     -35.203  13.216  -4.410  1.00 20.00     0.168 C 
HETATM    8  O8  UNL     1     -33.768  13.162  -4.410  1.00 20.00    -0.391 OA
HETATM    9  C4  UNL     1     -33.271  14.293  -3.679  1.00 20.00     0.174 C 
ENDBRANCH   2   5
TORSDOF 1
ENDMDL
MODEL 8
REMARK VINA RESULT:      -3.7      1.845      1.989
REMARK  1 active torsions:
REMARK  status: ('A' for Active; 'I' for Inactive)
REMARK    1  A    between atoms: C5_5  and  C6_6 
ROOT
HETATM    1  C1  UNL     1     -34.552  13.729  -4.801  1.00 20.00     0.080 C 
HETATM    2  C6  UNL     1     -34.021  15.034  -5.213  1.00 20.00     0.195 C 
HETATM    3  N7  UNL     1     -34.971  12.696  -4.479  1.00 20.00    -0.196 NA
HETATM    4 CL9  UNL     1     -34.682  15.411  -6.828  1.00 20.00    -0.109 Cl
ENDROOT
BRANCH   2   5
HETATM    5  C5  UNL     1     -34.398  16.127  -4.233  1.00 20.00     0.044 C 
HETATM    6  C2  UNL     1     -34.010  15.837  -2.799  1.00 20.00     0.035 C 
HETATM    7  C3  UNL     1     -34.043  17.222  -2.185  1.00 20.00     0.168 C 
HETATM    8  O8  UNL     1     -33.677  18.144  -3.222  1.00 20.00    -0.391 OA
HETATM    9  C4  UNL     1     -33.678  17.443  -4.475  1.00 20.00     0.174 C 
ENDBRANCH   2   5
TORSDOF 1
ENDMDL
MODEL 9
REMARK VINA RESULT:      -3.7     12.262     12.788
REMARK  1 active torsions:
REMARK  status: ('A' for Active; 'I' for Inactive)
REMARK    1  A    between atoms: C5_5  and  C6_6 
ROOT
HETATM    1  C1  UNL     1     -32.670   6.835   3.431  1.00 20.00     0.080 C 
HETATM    2  C6  UNL     1     -34.039   6.363   3.197  1.00 20.00     0.195 C 
HETATM    3  N7  UNL     1     -31.586   7.209   3.613  1.00 20.00    -0.196 NA
HETATM    4 CL9  UNL     1     -33.955   4.963   2.092  1.00 20.00    -0.109 Cl
ENDROOT
BRANCH   2   5
HETATM    5  C5  UNL     1     -34.723   5.961   4.488  1.00 20.00     0.044 C 
HETATM    6  C2  UNL     1     -34.939   4.471   4.639  1.00 20.00     0.035 C 
HETATM    7  C3  UNL     1     -35.152   4.341   6.134  1.00 20.00     0.168 C 
HETATM    8  O8  UNL     1     -34.372   5.373   6.755  1.00 20.00    -0.391 OA
HETATM    9  C4  UNL     1     -33.912   6.272   5.735  1.00 20.00     0.174 C 
ENDBRANCH   2   5
TORSDOF 1
ENDMDL
