MODEL 1
REMARK VINA RESULT:      -3.9      0.000      0.000
REMARK  1 active torsions:
REMARK  status: ('A' for Active; 'I' for Inactive)
REMARK    1  A    between atoms: C5_5  and  C6_6 
ROOT
HETATM    1  C1  UNL     1     -36.304  14.692  -3.805  1.00 20.00     0.084 C 
HETATM    2  C6  UNL     1     -34.896  15.142  -3.898  1.00 20.00     0.222 C 
HETATM    3  N7  UNL     1     -37.400  14.322  -3.729  1.00 20.00    -0.195 NA
HETATM    4 CL9  UNL     1     -33.852  13.704  -3.641  1.00 20.00    -0.104 Cl
ENDROOT
BRANCH   2   5
HETATM    5  C5  UNL     1     -34.537  16.229  -2.956  1.00 20.00    -0.019 A 
HETATM    6  C2  UNL     1     -34.705  16.144  -1.544  1.00 20.00     0.017 A 
HETATM    7  C3  UNL     1     -34.292  17.291  -0.904  1.00 20.00     0.050 A 
HETATM    8  S8  UNL     1     -33.705  18.465  -2.004  1.00 20.00    -0.113 SA
HETATM    9  C4  UNL     1     -34.002  17.438  -3.342  1.00 20.00     0.059 A 
ENDBRANCH   2   5
TORSDOF 1
ENDMDL
MODEL 2
REMARK VINA RESULT:      -3.9      2.838      3.567
REMARK  1 active torsions:
REMARK  status: ('A' for Active; 'I' for Inactive)
REMARK    1  A    between atoms: C5_5  and  C6_6 
ROOT
HETATM    1  C1  UNL     1     -34.224  13.841  -4.162  1.00 20.00     0.084 C 
HETATM    2  C6  UNL     1     -33.512  15.132  -4.030  1.00 20.00     0.222 C 
HETATM    3  N7  UNL     1     -34.790  12.833  -4.248  1.00 20.00    -0.195 NA
HETATM    4 CL9  UNL     1     -33.948  15.828  -2.433  1.00 20.00    -0.104 Cl
ENDROOT
BRANCH   2   5
HETATM    5  C5  UNL     1     -33.787  16.099  -5.119  1.00 20.00    -0.019 A 
HETATM    6  C2  UNL     1     -34.327  15.735  -6.386  1.00 20.00     0.017 A 
HETATM    7  C3  UNL     1     -34.484  16.825  -7.213  1.00 20.00     0.050 A 
HETATM    8  S8  UNL     1     -33.981  18.280  -6.462  1.00 20.00    -0.113 SA
HETATM    9  C4  UNL     1     -33.552  17.453  -5.026  1.00 20.00     0.059 A 
ENDBRANCH   2   5
TORSDOF 1
ENDMDL
MODEL 3
REMARK VINA RESULT:      -3.9      1.596      1.596
REMARK  1 active torsions:
REMARK  status: ('A' for Active; 'I' for Inactive)
REMARK    1  A    between atoms: C5_5  and  C6_6 
ROOT
HETATM    1  C1  UNL     1     -34.986  13.998  -4.431  1.00 20.00     0.084 C 
HETATM    2  C6  UNL     1     -34.995  15.466  -4.616  1.00 20.00     0.222 C 
HETATM    3  N7  UNL     1     -34.966  12.846  -4.301  1.00 20.00    -0.195 NA
HETATM    4 CL9  UNL     1     -33.877  15.847  -5.969  1.00 20.00    -0.104 Cl
ENDROOT
BRANCH   2   5
HETATM    5  C5  UNL     1     -34.637  16.239  -3.403  1.00 20.00    -0.019 A 
HETATM    6  C2  UNL     1     -34.866  15.782  -2.073  1.00 20.00     0.017 A 
HETATM    7  C3  UNL     1     -34.440  16.693  -1.132  1.00 20.00     0.050 A 
HETATM    8  S8  UNL     1     -33.768  18.094  -1.852  1.00 20.00    -0.113 SA
HETATM    9  C4  UNL     1     -34.045  17.483  -3.428  1.00 20.00     0.059 A 
ENDBRANCH   2   5
TORSDOF 1
ENDMDL
MODEL 4
REMARK VINA RESULT:      -3.8      3.078      3.937
REMARK  1 active torsions:
REMARK  status: ('A' for Active; 'I' for Inactive)
REMARK    1  A    between atoms: C5_5  and  C6_6 
ROOT
HETATM    1  C1  UNL     1     -34.403  16.728  -1.021  1.00 20.00     0.084 C 
HETATM    2  C6  UNL     1     -33.760  16.453  -2.325  1.00 20.00     0.222 C 
HETATM    3  N7  UNL     1     -34.910  16.963  -0.005  1.00 20.00    -0.195 NA
HETATM    4 CL9  UNL     1     -33.711  17.997  -3.241  1.00 20.00    -0.104 Cl
ENDROOT
BRANCH   2   5
HETATM    5  C5  UNL     1     -34.417  15.389  -3.121  1.00 20.00    -0.019 A 
HETATM    6  C2  UNL     1     -35.828  15.285  -3.295  1.00 20.00     0.017 A 
HETATM    7  C3  UNL     1     -36.173  14.207  -4.079  1.00 20.00     0.050 A 
HETATM    8  S8  UNL     1     -34.801  13.326  -4.602  1.00 20.00    -0.113 SA
HETATM    9  C4  UNL     1     -33.739  14.387  -3.779  1.00 20.00     0.059 A 
ENDBRANCH   2   5
TORSDOF 1
ENDMDL
MODEL 5
REMARK VINA RESULT:      -3.8      1.895      1.940
REMARK  1 active torsions:
REMARK  status: ('A' for Active; 'I' for Inactive)
REMARK    1  A    between atoms: C5_5  and  C6_6 
ROOT
HETATM    1  C1  UNL     1     -35.385  13.639  -4.205  1.00 20.00     0.084 C 
HETATM    2  C6  UNL     1     -36.126  14.843  -3.768  1.00 20.00     0.222 C 
HETATM    3  N7  UNL     1     -34.813  12.697  -4.565  1.00 20.00    -0.195 NA
HETATM    4 CL9  UNL     1     -37.092  15.421  -5.167  1.00 20.00    -0.104 Cl
ENDROOT
BRANCH   2   5
HETATM    5  C5  UNL     1     -35.270  15.930  -3.235  1.00 20.00    -0.019 A 
HETATM    6  C2  UNL     1     -34.683  15.914  -1.936  1.00 20.00     0.017 A 
HETATM    7  C3  UNL     1     -33.936  17.045  -1.693  1.00 20.00     0.050 A 
HETATM    8  S8  UNL     1     -33.944  18.120  -3.026  1.00 20.00    -0.113 SA
HETATM    9  C4  UNL     1     -34.949  17.073  -3.934  1.00 20.00     0.059 A 
ENDBRANCH   2   5
TORSDOF 1
ENDMDL
MODEL 6
REMARK VINA RESULT:      -3.7      3.934      4.887
REMARK  1 active torsions:
REMARK  status: ('A' for Active; 'I' for Inactive)
REMARK    1  A    between atoms: C5_5  and  C6_6 
ROOT
HETATM    1  C1  UNL     1     -32.499  18.979   0.197  1.00 20.00     0.084 C 
HETATM    2  C6  UNL     1     -33.907  18.609  -0.070  1.00 20.00     0.222 C 
HETATM    3  N7  UNL     1     -31.398  19.263   0.425  1.00 20.00    -0.195 NA
HETATM    4 CL9  UNL     1     -34.570  17.886   1.434  1.00 20.00    -0.104 Cl
ENDROOT
BRANCH   2   5
HETATM    5  C5  UNL     1     -34.093  17.693  -1.221  1.00 20.00    -0.019 A 
HETATM    6  C2  UNL     1     -34.685  16.401  -1.119  1.00 20.00     0.017 A 
HETATM    7  C3  UNL     1     -34.736  15.759  -2.336  1.00 20.00     0.050 A 
HETATM    8  S8  UNL     1     -34.071  16.712  -3.594  1.00 20.00    -0.113 SA
HETATM    9  C4  UNL     1     -33.713  17.989  -2.511  1.00 20.00     0.059 A 
ENDBRANCH   2   5
TORSDOF 1
ENDMDL
MODEL 7
REMARK VINA RESULT:      -3.7      1.935      2.213
REMARK  1 active torsions:
REMARK  status: ('A' for Active; 'I' for Inactive)
REMARK    1  A    between atoms: C5_5  and  C6_6 
ROOT
HETATM    1  C1  UNL     1     -34.877  13.905  -4.720  1.00 20.00     0.084 C 
HETATM    2  C6  UNL     1     -34.971  15.376  -4.851  1.00 20.00     0.222 C 
HETATM    3  N7  UNL     1     -34.791  12.752  -4.631  1.00 20.00    -0.195 NA
HETATM    4 CL9  UNL     1     -33.883  15.869  -6.192  1.00 20.00    -0.104 Cl
ENDROOT
BRANCH   2   5
HETATM    5  C5  UNL     1     -34.652  16.124  -3.612  1.00 20.00    -0.019 A 
HETATM    6  C2  UNL     1     -33.959  17.370  -3.592  1.00 20.00     0.017 A 
HETATM    7  C3  UNL     1     -33.793  17.848  -2.312  1.00 20.00     0.050 A 
HETATM    8  S8  UNL     1     -34.469  16.798  -1.140  1.00 20.00    -0.113 SA
HETATM    9  C4  UNL     1     -34.987  15.699  -2.346  1.00 20.00     0.059 A 
ENDBRANCH   2   5
TORSDOF 1
ENDMDL
MODEL 8
REMARK VINA RESULT:      -3.7      3.271      4.043
REMARK  1 active torsions:
REMARK  status: ('A' for Active; 'I' for Inactive)
REMARK    1  A    between atoms: C5_5  and  C6_6 
ROOT
HETATM    1  C1  UNL     1     -34.277  18.106  -2.756  1.00 20.00     0.084 C 
HETATM    2  C6  UNL     1     -35.048  16.946  -2.254  1.00 20.00     0.222 C 
HETATM    3  N7  UNL     1     -33.666  19.017  -3.131  1.00 20.00    -0.195 NA
HETATM    4 CL9  UNL     1     -34.647  16.743  -0.515  1.00 20.00    -0.104 Cl
ENDROOT
BRANCH   2   5
HETATM    5  C5  UNL     1     -34.815  15.687  -2.999  1.00 20.00    -0.019 A 
HETATM    6  C2  UNL     1     -33.525  15.131  -3.236  1.00 20.00     0.017 A 
HETATM    7  C3  UNL     1     -33.591  13.957  -3.953  1.00 20.00     0.050 A 
HETATM    8  S8  UNL     1     -35.204  13.529  -4.338  1.00 20.00    -0.113 SA
HETATM    9  C4  UNL     1     -35.818  14.916  -3.545  1.00 20.00     0.059 A 
ENDBRANCH   2   5
TORSDOF 1
ENDMDL
MODEL 9
REMARK VINA RESULT:      -3.6      2.237      2.282
REMARK  1 active torsions:
REMARK  status: ('A' for Active; 'I' for Inactive)
REMARK    1  A    between atoms: C5_5  and  C6_6 
ROOT
HETATM    1  C1  UNL     1     -33.484  16.395  -4.623  1.00 20.00     0.084 C 
HETATM    2  C6  UNL     1     -33.451  15.859  -3.243  1.00 20.00     0.222 C 
HETATM    3  N7  UNL     1     -33.521  16.799  -5.709  1.00 20.00    -0.195 NA
HETATM    4 CL9  UNL     1     -34.420  14.346  -3.228  1.00 20.00    -0.104 Cl
ENDROOT
BRANCH   2   5
HETATM    5  C5  UNL     1     -33.933  16.803  -2.207  1.00 20.00    -0.019 A 
HETATM    6  C2  UNL     1     -34.684  16.409  -1.062  1.00 20.00     0.017 A 
HETATM    7  C3  UNL     1     -35.005  17.482  -0.260  1.00 20.00     0.050 A 
HETATM    8  S8  UNL     1     -34.403  18.957  -0.889  1.00 20.00    -0.113 SA
HETATM    9  C4  UNL     1     -33.710  18.162  -2.237  1.00 20.00     0.059 A 
ENDBRANCH   2   5
TORSDOF 1
ENDMDL
