MODEL 1
REMARK VINA RESULT:      -3.7      0.000      0.000
REMARK  1 active torsions:
REMARK  status: ('A' for Active; 'I' for Inactive)
REMARK    1  A    between atoms: C7_7  and  N8_8 
ROOT
HETATM    1  C1  UNL     1     -33.674  17.173  -3.789  1.00 20.00     0.045 C 
HETATM    2  C2  UNL     1     -33.311  16.413  -5.057  1.00 20.00     0.236 C 
HETATM    3  C3  UNL     1     -34.356  14.943  -3.406  1.00 20.00     0.251 C 
HETATM    4  C4  UNL     1     -33.666  16.102  -2.705  1.00 20.00     0.086 C 
HETATM    5  N8  UNL     1     -33.765  14.989  -4.802  1.00 20.00    -0.066 N 
HETATM    6  S9  UNL     1     -34.568  16.622  -1.226  1.00 20.00    -0.091 SA
HETATM    7  H24 UNL     1     -32.918  14.403  -4.787  1.00 20.00     0.280 HD
ENDROOT
BRANCH   5   8
HETATM    8  C7  UNL     1     -34.665  14.430  -5.857  1.00 20.00     0.180 C 
HETATM    9  C5  UNL     1     -34.323  15.093  -7.182  1.00 20.00     0.039 C 
HETATM   10  C6  UNL     1     -36.106  14.678  -5.443  1.00 20.00     0.039 C 
ENDBRANCH   5   8
TORSDOF 1
ENDMDL
MODEL 2
REMARK VINA RESULT:      -3.6      1.675      2.210
REMARK  1 active torsions:
REMARK  status: ('A' for Active; 'I' for Inactive)
REMARK    1  A    between atoms: C7_7  and  N8_8 
ROOT
HETATM    1  C1  UNL     1     -34.245  13.881  -3.544  1.00 20.00     0.045 C 
HETATM    2  C2  UNL     1     -34.648  13.238  -4.862  1.00 20.00     0.236 C 
HETATM    3  C3  UNL     1     -35.479  15.532  -4.700  1.00 20.00     0.251 C 
HETATM    4  C4  UNL     1     -35.315  14.940  -3.309  1.00 20.00     0.086 C 
HETATM    5  N8  UNL     1     -35.428  14.311  -5.599  1.00 20.00    -0.066 N 
HETATM    6  S9  UNL     1     -34.791  16.187  -2.109  1.00 20.00    -0.091 SA
HETATM    7  H24 UNL     1     -36.394  13.968  -5.691  1.00 20.00     0.280 HD
ENDROOT
BRANCH   5   8
HETATM    8  C7  UNL     1     -34.931  14.597  -6.979  1.00 20.00     0.180 C 
HETATM    9  C5  UNL     1     -34.153  15.904  -6.951  1.00 20.00     0.039 C 
HETATM   10  C6  UNL     1     -36.125  14.658  -7.918  1.00 20.00     0.039 C 
ENDBRANCH   5   8
TORSDOF 1
ENDMDL
MODEL 3
REMARK VINA RESULT:      -3.6      2.037      3.065
REMARK  1 active torsions:
REMARK  status: ('A' for Active; 'I' for Inactive)
REMARK    1  A    between atoms: C7_7  and  N8_8 
ROOT
HETATM    1  C1  UNL     1     -34.766  16.517  -6.533  1.00 20.00     0.045 C 
HETATM    2  C2  UNL     1     -34.449  15.069  -6.189  1.00 20.00     0.236 C 
HETATM    3  C3  UNL     1     -33.351  16.613  -4.643  1.00 20.00     0.251 C 
HETATM    4  C4  UNL     1     -33.577  17.295  -5.983  1.00 20.00     0.086 C 
HETATM    5  N8  UNL     1     -33.551  15.145  -4.968  1.00 20.00    -0.066 N 
HETATM    6  S9  UNL     1     -33.943  19.054  -5.786  1.00 20.00    -0.091 SA
HETATM    7  H24 UNL     1     -32.633  14.774  -5.249  1.00 20.00     0.280 HD
ENDROOT
BRANCH   5   8
HETATM    8  C7  UNL     1     -34.018  14.327  -3.808  1.00 20.00     0.180 C 
HETATM    9  C5  UNL     1     -35.034  13.314  -4.310  1.00 20.00     0.039 C 
HETATM   10  C6  UNL     1     -34.605  15.262  -2.763  1.00 20.00     0.039 C 
ENDBRANCH   5   8
TORSDOF 1
ENDMDL
MODEL 4
REMARK VINA RESULT:      -3.5      2.361      4.010
REMARK  1 active torsions:
REMARK  status: ('A' for Active; 'I' for Inactive)
REMARK    1  A    between atoms: C7_7  and  N8_8 
ROOT
HETATM    1  C1  UNL     1     -35.103  13.610  -4.712  1.00 20.00     0.045 C 
HETATM    2  C2  UNL     1     -34.166  13.922  -3.555  1.00 20.00     0.236 C 
HETATM    3  C3  UNL     1     -34.083  15.669  -5.264  1.00 20.00     0.251 C 
HETATM    4  C4  UNL     1     -34.484  14.345  -5.895  1.00 20.00     0.086 C 
HETATM    5  N8  UNL     1     -33.528  15.250  -3.915  1.00 20.00    -0.066 N 
HETATM    6  S9  UNL     1     -35.662  14.577  -7.246  1.00 20.00    -0.091 SA
HETATM    7  H24 UNL     1     -32.523  15.072  -4.049  1.00 20.00     0.280 HD
ENDROOT
BRANCH   5   8
HETATM    8  C7  UNL     1     -33.651  16.301  -2.859  1.00 20.00     0.180 C 
HETATM    9  C5  UNL     1     -34.835  15.956  -1.971  1.00 20.00     0.039 C 
HETATM   10  C6  UNL     1     -33.815  17.650  -3.538  1.00 20.00     0.039 C 
ENDBRANCH   5   8
TORSDOF 1
ENDMDL
MODEL 5
REMARK VINA RESULT:      -3.5      0.757      1.339
REMARK  1 active torsions:
REMARK  status: ('A' for Active; 'I' for Inactive)
REMARK    1  A    between atoms: C7_7  and  N8_8 
ROOT
HETATM    1  C1  UNL     1     -33.958  17.593  -3.311  1.00 20.00     0.045 C 
HETATM    2  C2  UNL     1     -33.599  16.880  -4.606  1.00 20.00     0.236 C 
HETATM    3  C3  UNL     1     -34.371  15.302  -2.905  1.00 20.00     0.251 C 
HETATM    4  C4  UNL     1     -33.766  16.527  -2.239  1.00 20.00     0.086 C 
HETATM    5  N8  UNL     1     -33.880  15.414  -4.336  1.00 20.00    -0.066 N 
HETATM    6  S9  UNL     1     -34.621  16.944  -0.701  1.00 20.00    -0.091 SA
HETATM    7  H24 UNL     1     -32.975  14.923  -4.380  1.00 20.00     0.280 HD
ENDROOT
BRANCH   5   8
HETATM    8  C7  UNL     1     -34.780  14.763  -5.336  1.00 20.00     0.180 C 
HETATM    9  C5  UNL     1     -34.788  13.265  -5.075  1.00 20.00     0.039 C 
HETATM   10  C6  UNL     1     -34.276  15.102  -6.729  1.00 20.00     0.039 C 
ENDBRANCH   5   8
TORSDOF 1
ENDMDL
MODEL 6
REMARK VINA RESULT:      -3.4      1.774      2.638
REMARK  1 active torsions:
REMARK  status: ('A' for Active; 'I' for Inactive)
REMARK    1  A    between atoms: C7_7  and  N8_8 
ROOT
HETATM    1  C1  UNL     1     -34.500  17.270  -6.394  1.00 20.00     0.045 C 
HETATM    2  C2  UNL     1     -34.291  15.806  -6.751  1.00 20.00     0.236 C 
HETATM    3  C3  UNL     1     -33.462  16.301  -4.505  1.00 20.00     0.251 C 
HETATM    4  C4  UNL     1     -33.415  17.555  -5.363  1.00 20.00     0.086 C 
HETATM    5  N8  UNL     1     -33.636  15.194  -5.527  1.00 20.00    -0.066 N 
HETATM    6  S9  UNL     1     -33.765  19.042  -4.396  1.00 20.00    -0.091 SA
HETATM    7  H24 UNL     1     -32.691  14.898  -5.810  1.00 20.00     0.280 HD
ENDROOT
BRANCH   5   8
HETATM    8  C7  UNL     1     -34.333  13.984  -4.995  1.00 20.00     0.180 C 
HETATM    9  C5  UNL     1     -35.764  14.365  -4.649  1.00 20.00     0.039 C 
HETATM   10  C6  UNL     1     -33.564  13.477  -3.786  1.00 20.00     0.039 C 
ENDBRANCH   5   8
TORSDOF 1
ENDMDL
MODEL 7
REMARK VINA RESULT:      -3.4      2.448      4.117
REMARK  1 active torsions:
REMARK  status: ('A' for Active; 'I' for Inactive)
REMARK    1  A    between atoms: C7_7  and  N8_8 
ROOT
HETATM    1  C1  UNL     1     -36.417  15.282  -4.770  1.00 20.00     0.045 C 
HETATM    2  C2  UNL     1     -36.112  15.373  -3.282  1.00 20.00     0.236 C 
HETATM    3  C3  UNL     1     -34.089  14.922  -4.579  1.00 20.00     0.251 C 
HETATM    4  C4  UNL     1     -35.308  14.393  -5.318  1.00 20.00     0.086 C 
HETATM    5  N8  UNL     1     -34.615  15.153  -3.175  1.00 20.00    -0.066 N 
HETATM    6  S9  UNL     1     -35.126  14.554  -7.110  1.00 20.00    -0.091 SA
HETATM    7  H24 UNL     1     -34.478  14.273  -2.657  1.00 20.00     0.280 HD
ENDROOT
BRANCH   5   8
HETATM    8  C7  UNL     1     -33.886  16.221  -2.425  1.00 20.00     0.180 C 
HETATM    9  C5  UNL     1     -34.630  16.490  -1.126  1.00 20.00     0.039 C 
HETATM   10  C6  UNL     1     -33.800  17.456  -3.306  1.00 20.00     0.039 C 
ENDBRANCH   5   8
TORSDOF 1
ENDMDL
MODEL 8
REMARK VINA RESULT:      -3.3      1.617      2.423
REMARK  1 active torsions:
REMARK  status: ('A' for Active; 'I' for Inactive)
REMARK    1  A    between atoms: C7_7  and  N8_8 
ROOT
HETATM    1  C1  UNL     1     -34.425  16.651  -1.371  1.00 20.00     0.045 C 
HETATM    2  C2  UNL     1     -34.955  15.624  -2.361  1.00 20.00     0.236 C 
HETATM    3  C3  UNL     1     -33.789  17.444  -3.504  1.00 20.00     0.251 C 
HETATM    4  C4  UNL     1     -34.352  17.939  -2.182  1.00 20.00     0.086 C 
HETATM    5  N8  UNL     1     -34.530  16.138  -3.723  1.00 20.00    -0.066 N 
HETATM    6  S9  UNL     1     -33.272  19.169  -1.414  1.00 20.00    -0.091 SA
HETATM    7  H24 UNL     1     -35.392  16.366  -4.238  1.00 20.00     0.280 HD
ENDROOT
BRANCH   5   8
HETATM    8  C7  UNL     1     -33.775  15.147  -4.549  1.00 20.00     0.180 C 
HETATM    9  C5  UNL     1     -34.451  15.038  -5.907  1.00 20.00     0.039 C 
HETATM   10  C6  UNL     1     -33.754  13.820  -3.809  1.00 20.00     0.039 C 
ENDBRANCH   5   8
TORSDOF 1
ENDMDL
MODEL 9
REMARK VINA RESULT:      -3.3      2.727      4.197
REMARK  1 active torsions:
REMARK  status: ('A' for Active; 'I' for Inactive)
REMARK    1  A    between atoms: C7_7  and  N8_8 
ROOT
HETATM    1  C1  UNL     1     -36.456  15.519  -4.540  1.00 20.00     0.045 C 
HETATM    2  C2  UNL     1     -36.828  16.389  -3.349  1.00 20.00     0.236 C 
HETATM    3  C3  UNL     1     -34.840  15.045  -2.882  1.00 20.00     0.251 C 
HETATM    4  C4  UNL     1     -35.706  14.347  -3.918  1.00 20.00     0.086 C 
HETATM    5  N8  UNL     1     -35.778  16.085  -2.298  1.00 20.00    -0.066 N 
HETATM    6  S9  UNL     1     -34.707  13.453  -5.132  1.00 20.00    -0.091 SA
HETATM    7  H24 UNL     1     -36.266  15.637  -1.509  1.00 20.00     0.280 HD
ENDROOT
BRANCH   5   8
HETATM    8  C7  UNL     1     -35.081  17.290  -1.755  1.00 20.00     0.180 C 
HETATM    9  C5  UNL     1     -33.865  17.576  -2.623  1.00 20.00     0.039 C 
HETATM   10  C6  UNL     1     -34.703  17.018  -0.308  1.00 20.00     0.039 C 
ENDBRANCH   5   8
TORSDOF 1
ENDMDL
