MODEL 1
REMARK VINA RESULT:      -4.1      0.000      0.000
REMARK  2 active torsions:
REMARK  status: ('A' for Active; 'I' for Inactive)
REMARK    1  A    between atoms: C4_4  and  C5_5 
REMARK    2  A    between atoms: C4_4  and  C6_6 
ROOT
HETATM    1  C1  UNL     1     -32.123   8.033   1.989  1.00 20.00     0.079 C 
HETATM    2  C5  UNL     1     -32.218   7.097   3.115  1.00 20.00     0.189 C 
HETATM    3  N7  UNL     1     -32.048   8.769   1.095  1.00 20.00    -0.196 NA
HETATM    4 CL8  UNL     1     -31.176   7.740   4.423  1.00 20.00    -0.109 Cl
ENDROOT
BRANCH   2   5
HETATM    5  C4  UNL     1     -33.652   6.951   3.637  1.00 20.00     0.039 C 
BRANCH   5   6
HETATM    6  C6  UNL     1     -33.855   5.823   4.672  1.00 20.00    -0.020 C 
HETATM    7  C2  UNL     1     -34.031   6.359   6.094  1.00 20.00     0.009 C 
HETATM    8  C3  UNL     1     -35.075   4.981   4.284  1.00 20.00     0.009 C 
ENDBRANCH   5   6
ENDBRANCH   2   5
TORSDOF 2
ENDMDL
MODEL 2
REMARK VINA RESULT:      -4.0     10.752     11.424
REMARK  2 active torsions:
REMARK  status: ('A' for Active; 'I' for Inactive)
REMARK    1  A    between atoms: C4_4  and  C5_5 
REMARK    2  A    between atoms: C4_4  and  C6_6 
ROOT
HETATM    1  C1  UNL     1     -34.325  13.823  -3.897  1.00 20.00     0.079 C 
HETATM    2  C5  UNL     1     -33.707  15.061  -3.408  1.00 20.00     0.189 C 
HETATM    3  N7  UNL     1     -34.813  12.842  -4.280  1.00 20.00    -0.196 NA
HETATM    4 CL8  UNL     1     -33.272  16.036  -4.846  1.00 20.00    -0.109 Cl
ENDROOT
BRANCH   2   5
HETATM    5  C4  UNL     1     -34.649  15.873  -2.512  1.00 20.00     0.039 C 
BRANCH   5   6
HETATM    6  C6  UNL     1     -33.943  16.835  -1.531  1.00 20.00    -0.020 C 
HETATM    7  C2  UNL     1     -33.727  18.226  -2.131  1.00 20.00     0.009 C 
HETATM    8  C3  UNL     1     -34.762  16.951  -0.242  1.00 20.00     0.009 C 
ENDBRANCH   5   6
ENDBRANCH   2   5
TORSDOF 2
ENDMDL
MODEL 3
REMARK VINA RESULT:      -3.8      2.957      4.182
REMARK  2 active torsions:
REMARK  status: ('A' for Active; 'I' for Inactive)
REMARK    1  A    between atoms: C4_4  and  C5_5 
REMARK    2  A    between atoms: C4_4  and  C6_6 
ROOT
HETATM    1  C1  UNL     1     -34.863   4.737   5.200  1.00 20.00     0.079 C 
HETATM    2  C5  UNL     1     -34.694   6.189   5.077  1.00 20.00     0.189 C 
HETATM    3  N7  UNL     1     -35.000   3.588   5.295  1.00 20.00    -0.196 NA
HETATM    4 CL8  UNL     1     -33.521   6.691   6.335  1.00 20.00    -0.109 Cl
ENDROOT
BRANCH   2   5
HETATM    5  C4  UNL     1     -34.166   6.604   3.699  1.00 20.00     0.039 C 
BRANCH   5   6
HETATM    6  C6  UNL     1     -32.627   6.657   3.581  1.00 20.00    -0.020 C 
HETATM    7  C2  UNL     1     -32.039   5.358   3.029  1.00 20.00     0.009 C 
HETATM    8  C3  UNL     1     -32.218   7.830   2.685  1.00 20.00     0.009 C 
ENDBRANCH   5   6
ENDBRANCH   2   5
TORSDOF 2
ENDMDL
MODEL 4
REMARK VINA RESULT:      -3.7     10.787     11.410
REMARK  2 active torsions:
REMARK  status: ('A' for Active; 'I' for Inactive)
REMARK    1  A    between atoms: C4_4  and  C5_5 
REMARK    2  A    between atoms: C4_4  and  C6_6 
ROOT
HETATM    1  C1  UNL     1     -34.906  14.101  -5.405  1.00 20.00     0.079 C 
HETATM    2  C5  UNL     1     -34.756  13.901  -3.959  1.00 20.00     0.189 C 
HETATM    3  N7  UNL     1     -35.028  14.258  -6.549  1.00 20.00    -0.196 NA
HETATM    4 CL8  UNL     1     -33.010  13.664  -3.639  1.00 20.00    -0.109 Cl
ENDROOT
BRANCH   2   5
HETATM    5  C4  UNL     1     -35.262  15.097  -3.145  1.00 20.00     0.039 C 
BRANCH   5   6
HETATM    6  C6  UNL     1     -34.154  15.972  -2.518  1.00 20.00    -0.020 C 
HETATM    7  C2  UNL     1     -33.777  17.160  -3.405  1.00 20.00     0.009 C 
HETATM    8  C3  UNL     1     -34.610  16.477  -1.146  1.00 20.00     0.009 C 
ENDBRANCH   5   6
ENDBRANCH   2   5
TORSDOF 2
ENDMDL
MODEL 5
REMARK VINA RESULT:      -3.7     11.056     11.647
REMARK  2 active torsions:
REMARK  status: ('A' for Active; 'I' for Inactive)
REMARK    1  A    between atoms: C4_4  and  C5_5 
REMARK    2  A    between atoms: C4_4  and  C6_6 
ROOT
HETATM    1  C1  UNL     1     -36.479  14.148  -4.011  1.00 20.00     0.079 C 
HETATM    2  C5  UNL     1     -35.058  13.854  -4.224  1.00 20.00     0.189 C 
HETATM    3  N7  UNL     1     -37.604  14.378  -3.839  1.00 20.00    -0.196 NA
HETATM    4 CL8  UNL     1     -34.667  14.335  -5.905  1.00 20.00    -0.109 Cl
ENDROOT
BRANCH   2   5
HETATM    5  C4  UNL     1     -34.148  14.618  -3.255  1.00 20.00     0.039 C 
BRANCH   5   6
HETATM    6  C6  UNL     1     -34.613  16.052  -2.922  1.00 20.00    -0.020 C 
HETATM    7  C2  UNL     1     -34.611  16.332  -1.418  1.00 20.00     0.009 C 
HETATM    8  C3  UNL     1     -33.714  17.066  -3.636  1.00 20.00     0.009 C 
ENDBRANCH   5   6
ENDBRANCH   2   5
TORSDOF 2
ENDMDL
MODEL 6
REMARK VINA RESULT:      -3.7     10.954     11.646
REMARK  2 active torsions:
REMARK  status: ('A' for Active; 'I' for Inactive)
REMARK    1  A    between atoms: C4_4  and  C5_5 
REMARK    2  A    between atoms: C4_4  and  C6_6 
ROOT
HETATM    1  C1  UNL     1     -35.183  13.742  -4.240  1.00 20.00     0.079 C 
HETATM    2  C5  UNL     1     -35.660  15.053  -3.784  1.00 20.00     0.189 C 
HETATM    3  N7  UNL     1     -34.803  12.707  -4.602  1.00 20.00    -0.196 NA
HETATM    4 CL8  UNL     1     -37.443  14.949  -3.655  1.00 20.00    -0.109 Cl
ENDROOT
BRANCH   2   5
HETATM    5  C4  UNL     1     -35.077  15.449  -2.423  1.00 20.00     0.039 C 
BRANCH   5   6
HETATM    6  C6  UNL     1     -33.807  16.326  -2.491  1.00 20.00    -0.020 C 
HETATM    7  C2  UNL     1     -33.750  17.173  -3.763  1.00 20.00     0.009 C 
HETATM    8  C3  UNL     1     -33.743  17.237  -1.261  1.00 20.00     0.009 C 
ENDBRANCH   5   6
ENDBRANCH   2   5
TORSDOF 2
ENDMDL
MODEL 7
REMARK VINA RESULT:      -3.7      2.129      2.314
REMARK  2 active torsions:
REMARK  status: ('A' for Active; 'I' for Inactive)
REMARK    1  A    between atoms: C4_4  and  C5_5 
REMARK    2  A    between atoms: C4_4  and  C6_6 
ROOT
HETATM    1  C1  UNL     1     -32.611   6.823   3.334  1.00 20.00     0.079 C 
HETATM    2  C5  UNL     1     -33.903   6.262   2.920  1.00 20.00     0.189 C 
HETATM    3  N7  UNL     1     -31.591   7.270   3.661  1.00 20.00    -0.196 NA
HETATM    4 CL8  UNL     1     -33.564   4.702   2.109  1.00 20.00    -0.109 Cl
ENDROOT
BRANCH   2   5
HETATM    5  C4  UNL     1     -34.845   6.022   4.105  1.00 20.00     0.039 C 
BRANCH   5   6
HETATM    6  C6  UNL     1     -34.171   5.426   5.361  1.00 20.00    -0.020 C 
HETATM    7  C2  UNL     1     -34.104   6.426   6.517  1.00 20.00     0.009 C 
HETATM    8  C3  UNL     1     -34.928   4.172   5.807  1.00 20.00     0.009 C 
ENDBRANCH   5   6
ENDBRANCH   2   5
TORSDOF 2
ENDMDL
MODEL 8
REMARK VINA RESULT:      -3.6     11.558     12.758
REMARK  2 active torsions:
REMARK  status: ('A' for Active; 'I' for Inactive)
REMARK    1  A    between atoms: C4_4  and  C5_5 
REMARK    2  A    between atoms: C4_4  and  C6_6 
ROOT
HETATM    1  C1  UNL     1     -36.762  14.595  -4.089  1.00 20.00     0.079 C 
HETATM    2  C5  UNL     1     -35.408  15.003  -4.482  1.00 20.00     0.189 C 
HETATM    3  N7  UNL     1     -37.834  14.275  -3.782  1.00 20.00    -0.196 NA
HETATM    4 CL8  UNL     1     -34.393  14.948  -3.007  1.00 20.00    -0.109 Cl
ENDROOT
BRANCH   2   5
HETATM    5  C4  UNL     1     -34.803  14.083  -5.547  1.00 20.00     0.039 C 
BRANCH   5   6
HETATM    6  C6  UNL     1     -34.526  14.758  -6.908  1.00 20.00    -0.020 C 
HETATM    7  C2  UNL     1     -35.651  14.520  -7.917  1.00 20.00     0.009 C 
HETATM    8  C3  UNL     1     -34.325  16.263  -6.707  1.00 20.00     0.009 C 
ENDBRANCH   5   6
ENDBRANCH   2   5
TORSDOF 2
ENDMDL
MODEL 9
REMARK VINA RESULT:      -3.6     10.697     11.393
REMARK  2 active torsions:
REMARK  status: ('A' for Active; 'I' for Inactive)
REMARK    1  A    between atoms: C4_4  and  C5_5 
REMARK    2  A    between atoms: C4_4  and  C6_6 
ROOT
HETATM    1  C1  UNL     1     -33.937  17.381  -3.229  1.00 20.00     0.079 C 
HETATM    2  C5  UNL     1     -34.063  16.091  -2.541  1.00 20.00     0.189 C 
HETATM    3  N7  UNL     1     -33.834  18.400  -3.776  1.00 20.00    -0.196 NA
HETATM    4 CL8  UNL     1     -34.637  16.435  -0.879  1.00 20.00    -0.109 Cl
ENDROOT
BRANCH   2   5
HETATM    5  C4  UNL     1     -35.055  15.151  -3.234  1.00 20.00     0.039 C 
BRANCH   5   6
HETATM    6  C6  UNL     1     -34.469  13.785  -3.656  1.00 20.00    -0.020 C 
HETATM    7  C2  UNL     1     -34.898  13.377  -5.067  1.00 20.00     0.009 C 
HETATM    8  C3  UNL     1     -32.941  13.832  -3.575  1.00 20.00     0.009 C 
ENDBRANCH   5   6
ENDBRANCH   2   5
TORSDOF 2
ENDMDL
