MODEL 1
REMARK VINA RESULT:      -3.6      0.000      0.000
REMARK  1 active torsions:
REMARK  status: ('A' for Active; 'I' for Inactive)
REMARK    1  A    between atoms: C4_4  and  C5_5 
ROOT
HETATM    1  C1  UNL     1     -34.776  13.795  -4.205  1.00 20.00     0.085 C 
HETATM    2  C3  UNL     1     -32.962  15.330  -3.576  1.00 20.00     0.049 C 
HETATM    3  C5  UNL     1     -34.461  15.195  -3.866  1.00 20.00     0.121 C 
HETATM    4  N6  UNL     1     -35.021  12.693  -4.468  1.00 20.00    -0.195 NA
HETATM    5 CL7  UNL     1     -34.837  16.187  -5.315  1.00 20.00    -0.103 Cl
ENDROOT
BRANCH   3   6
HETATM    6  C4  UNL     1     -35.274  15.680  -2.649  1.00 20.00     0.036 C 
HETATM    7  C2  UNL     1     -34.470  16.357  -1.541  1.00 20.00     0.008 C 
ENDBRANCH   3   6
TORSDOF 1
ENDMDL
MODEL 2
REMARK VINA RESULT:      -3.5     12.408     12.802
REMARK  1 active torsions:
REMARK  status: ('A' for Active; 'I' for Inactive)
REMARK    1  A    between atoms: C4_4  and  C5_5 
ROOT
HETATM    1  C1  UNL     1     -34.207   6.169   5.674  1.00 20.00     0.085 C 
HETATM    2  C3  UNL     1     -34.733   3.869   4.988  1.00 20.00     0.049 C 
HETATM    3  C5  UNL     1     -34.484   5.304   4.512  1.00 20.00     0.121 C 
HETATM    4  N6  UNL     1     -33.988   6.847   6.589  1.00 20.00    -0.195 NA
HETATM    5 CL7  UNL     1     -35.995   5.908   3.752  1.00 20.00    -0.103 Cl
ENDROOT
BRANCH   3   6
HETATM    6  C4  UNL     1     -33.320   5.325   3.501  1.00 20.00     0.036 C 
HETATM    7  C2  UNL     1     -32.675   6.689   3.260  1.00 20.00     0.008 C 
ENDBRANCH   3   6
TORSDOF 1
ENDMDL
MODEL 3
REMARK VINA RESULT:      -3.5      1.778      2.660
REMARK  1 active torsions:
REMARK  status: ('A' for Active; 'I' for Inactive)
REMARK    1  A    between atoms: C4_4  and  C5_5 
ROOT
HETATM    1  C1  UNL     1     -34.602  13.684  -4.211  1.00 20.00     0.085 C 
HETATM    2  C3  UNL     1     -34.629  15.621  -2.698  1.00 20.00     0.049 C 
HETATM    3  C5  UNL     1     -33.978  14.992  -3.935  1.00 20.00     0.121 C 
HETATM    4  N6  UNL     1     -35.096  12.658  -4.428  1.00 20.00    -0.195 NA
HETATM    5 CL7  UNL     1     -32.250  14.683  -3.556  1.00 20.00    -0.103 Cl
ENDROOT
BRANCH   3   6
HETATM    6  C4  UNL     1     -34.109  15.947  -5.138  1.00 20.00     0.036 C 
HETATM    7  C2  UNL     1     -34.236  15.279  -6.506  1.00 20.00     0.008 C 
ENDBRANCH   3   6
TORSDOF 1
ENDMDL
MODEL 4
REMARK VINA RESULT:      -3.4      1.081      1.208
REMARK  1 active torsions:
REMARK  status: ('A' for Active; 'I' for Inactive)
REMARK    1  A    between atoms: C4_4  and  C5_5 
ROOT
HETATM    1  C1  UNL     1     -34.748  13.923  -4.330  1.00 20.00     0.085 C 
HETATM    2  C3  UNL     1     -33.827  15.928  -5.414  1.00 20.00     0.049 C 
HETATM    3  C5  UNL     1     -34.575  15.381  -4.192  1.00 20.00     0.121 C 
HETATM    4  N6  UNL     1     -34.880  12.776  -4.440  1.00 20.00    -0.195 NA
HETATM    5 CL7  UNL     1     -36.217  16.108  -4.176  1.00 20.00    -0.103 Cl
ENDROOT
BRANCH   3   6
HETATM    6  C4  UNL     1     -33.808  15.741  -2.904  1.00 20.00     0.036 C 
HETATM    7  C2  UNL     1     -34.664  16.224  -1.735  1.00 20.00     0.008 C 
ENDBRANCH   3   6
TORSDOF 1
ENDMDL
MODEL 5
REMARK VINA RESULT:      -3.4      2.164      3.356
REMARK  1 active torsions:
REMARK  status: ('A' for Active; 'I' for Inactive)
REMARK    1  A    between atoms: C4_4  and  C5_5 
ROOT
HETATM    1  C1  UNL     1     -34.739  13.826  -4.861  1.00 20.00     0.085 C 
HETATM    2  C3  UNL     1     -35.774  16.049  -5.026  1.00 20.00     0.049 C 
HETATM    3  C5  UNL     1     -34.553  15.193  -5.382  1.00 20.00     0.121 C 
HETATM    4  N6  UNL     1     -34.889  12.751  -4.453  1.00 20.00    -0.195 NA
HETATM    5 CL7  UNL     1     -33.125  15.887  -4.544  1.00 20.00    -0.103 Cl
ENDROOT
BRANCH   3   6
HETATM    6  C4  UNL     1     -34.342  15.193  -6.909  1.00 20.00     0.036 C 
HETATM    7  C2  UNL     1     -35.421  14.488  -7.729  1.00 20.00     0.008 C 
ENDBRANCH   3   6
TORSDOF 1
ENDMDL
MODEL 6
REMARK VINA RESULT:      -3.4      2.345      2.889
REMARK  1 active torsions:
REMARK  status: ('A' for Active; 'I' for Inactive)
REMARK    1  A    between atoms: C4_4  and  C5_5 
ROOT
HETATM    1  C1  UNL     1     -37.070  14.584  -3.867  1.00 20.00     0.085 C 
HETATM    2  C3  UNL     1     -35.378  15.782  -5.187  1.00 20.00     0.049 C 
HETATM    3  C5  UNL     1     -35.626  14.855  -3.992  1.00 20.00     0.121 C 
HETATM    4  N6  UNL     1     -38.206  14.371  -3.772  1.00 20.00    -0.195 NA
HETATM    5 CL7  UNL     1     -35.120  15.723  -2.503  1.00 20.00    -0.103 Cl
ENDROOT
BRANCH   3   6
HETATM    6  C4  UNL     1     -34.818  13.553  -4.163  1.00 20.00     0.036 C 
HETATM    7  C2  UNL     1     -33.348  13.626  -3.754  1.00 20.00     0.008 C 
ENDBRANCH   3   6
TORSDOF 1
ENDMDL
MODEL 7
REMARK VINA RESULT:      -3.4      1.603      1.994
REMARK  1 active torsions:
REMARK  status: ('A' for Active; 'I' for Inactive)
REMARK    1  A    between atoms: C4_4  and  C5_5 
ROOT
HETATM    1  C1  UNL     1     -36.665  14.443  -3.988  1.00 20.00     0.085 C 
HETATM    2  C3  UNL     1     -34.719  13.235  -4.879  1.00 20.00     0.049 C 
HETATM    3  C5  UNL     1     -35.229  14.561  -4.302  1.00 20.00     0.121 C 
HETATM    4  N6  UNL     1     -37.794  14.348  -3.741  1.00 20.00    -0.195 NA
HETATM    5 CL7  UNL     1     -35.067  15.819  -5.573  1.00 20.00    -0.103 Cl
ENDROOT
BRANCH   3   6
HETATM    6  C4  UNL     1     -34.406  14.939  -3.054  1.00 20.00     0.036 C 
HETATM    7  C2  UNL     1     -34.974  16.075  -2.204  1.00 20.00     0.008 C 
ENDBRANCH   3   6
TORSDOF 1
ENDMDL
MODEL 8
REMARK VINA RESULT:      -3.4     12.650     12.925
REMARK  1 active torsions:
REMARK  status: ('A' for Active; 'I' for Inactive)
REMARK    1  A    between atoms: C4_4  and  C5_5 
ROOT
HETATM    1  C1  UNL     1     -33.381   5.750   4.031  1.00 20.00     0.085 C 
HETATM    2  C3  UNL     1     -35.838   5.705   4.007  1.00 20.00     0.049 C 
HETATM    3  C5  UNL     1     -34.573   5.289   4.766  1.00 20.00     0.121 C 
HETATM    4  N6  UNL     1     -32.445   6.116   3.452  1.00 20.00    -0.195 NA
HETATM    5 CL7  UNL     1     -34.511   3.494   4.801  1.00 20.00    -0.103 Cl
ENDROOT
BRANCH   3   6
HETATM    6  C4  UNL     1     -34.611   5.860   6.198  1.00 20.00     0.036 C 
HETATM    7  C2  UNL     1     -33.646   7.009   6.481  1.00 20.00     0.008 C 
ENDBRANCH   3   6
TORSDOF 1
ENDMDL
MODEL 9
REMARK VINA RESULT:      -3.3      2.063      2.834
REMARK  1 active torsions:
REMARK  status: ('A' for Active; 'I' for Inactive)
REMARK    1  A    between atoms: C4_4  and  C5_5 
ROOT
HETATM    1  C1  UNL     1     -35.901  14.506  -3.892  1.00 20.00     0.085 C 
HETATM    2  C3  UNL     1     -34.238  15.848  -2.679  1.00 20.00     0.049 C 
HETATM    3  C5  UNL     1     -34.506  14.983  -3.915  1.00 20.00     0.121 C 
HETATM    4  N6  UNL     1     -37.000  14.134  -3.873  1.00 20.00    -0.195 NA
HETATM    5 CL7  UNL     1     -33.450  13.533  -3.818  1.00 20.00    -0.103 Cl
ENDROOT
BRANCH   3   6
HETATM    6  C4  UNL     1     -34.205  15.791  -5.194  1.00 20.00     0.036 C 
HETATM    7  C2  UNL     1     -34.443  15.058  -6.513  1.00 20.00     0.008 C 
ENDBRANCH   3   6
TORSDOF 1
ENDMDL
