MODEL 1
REMARK VINA RESULT:      -3.8      0.000      0.000
REMARK  1 active torsions:
REMARK  status: ('A' for Active; 'I' for Inactive)
REMARK    1  A    between atoms: C5_5  and  C6_6 
ROOT
HETATM    1  C1  UNL     1     -36.822  14.724  -4.186  1.00 20.00     0.080 C 
HETATM    2  C5  UNL     1     -35.581  15.262  -4.770  1.00 20.00     0.196 C 
HETATM    3  N7  UNL     1     -37.802  14.304  -3.728  1.00 20.00    -0.196 NA
HETATM    4 CL8  UNL     1     -35.315  14.369  -6.303  1.00 20.00    -0.109 Cl
ENDROOT
BRANCH   2   5
HETATM    5  C6  UNL     1     -34.358  15.195  -3.804  1.00 20.00    -0.022 C 
HETATM    6  C2  UNL     1     -33.870  13.737  -3.660  1.00 20.00     0.017 C 
HETATM    7  C3  UNL     1     -33.187  16.017  -4.388  1.00 20.00     0.017 C 
HETATM    8  C4  UNL     1     -34.680  15.741  -2.397  1.00 20.00     0.017 C 
ENDBRANCH   2   5
TORSDOF 1
ENDMDL
MODEL 2
REMARK VINA RESULT:      -3.8      0.040      1.534
REMARK  1 active torsions:
REMARK  status: ('A' for Active; 'I' for Inactive)
REMARK    1  A    between atoms: C5_5  and  C6_6 
ROOT
HETATM    1  C1  UNL     1     -36.816  14.720  -4.192  1.00 20.00     0.080 C 
HETATM    2  C5  UNL     1     -35.581  15.264  -4.781  1.00 20.00     0.196 C 
HETATM    3  N7  UNL     1     -37.791  14.295  -3.728  1.00 20.00    -0.196 NA
HETATM    4 CL8  UNL     1     -35.349  14.413  -6.343  1.00 20.00    -0.109 Cl
ENDROOT
BRANCH   2   5
HETATM    5  C6  UNL     1     -34.342  15.160  -3.839  1.00 20.00    -0.022 C 
HETATM    6  C2  UNL     1     -33.180  16.016  -4.389  1.00 20.00     0.017 C 
HETATM    7  C3  UNL     1     -34.701  15.715  -2.442  1.00 20.00     0.017 C 
HETATM    8  C4  UNL     1     -33.841  13.711  -3.671  1.00 20.00     0.017 C 
ENDBRANCH   2   5
TORSDOF 1
ENDMDL
MODEL 3
REMARK VINA RESULT:      -3.8      1.762      1.854
REMARK  1 active torsions:
REMARK  status: ('A' for Active; 'I' for Inactive)
REMARK    1  A    between atoms: C5_5  and  C6_6 
ROOT
HETATM    1  C1  UNL     1     -34.843  13.726  -4.824  1.00 20.00     0.080 C 
HETATM    2  C5  UNL     1     -34.774  15.194  -4.918  1.00 20.00     0.196 C 
HETATM    3  N7  UNL     1     -34.903  12.570  -4.750  1.00 20.00    -0.196 NA
HETATM    4 CL8  UNL     1     -34.145  15.566  -6.556  1.00 20.00    -0.109 Cl
ENDROOT
BRANCH   2   5
HETATM    5  C6  UNL     1     -33.937  15.853  -3.778  1.00 20.00    -0.022 C 
HETATM    6  C2  UNL     1     -32.583  15.126  -3.621  1.00 20.00     0.017 C 
HETATM    7  C3  UNL     1     -33.630  17.323  -4.140  1.00 20.00     0.017 C 
HETATM    8  C4  UNL     1     -34.662  15.829  -2.417  1.00 20.00     0.017 C 
ENDBRANCH   2   5
TORSDOF 1
ENDMDL
MODEL 4
REMARK VINA RESULT:      -3.8      1.700      2.092
REMARK  1 active torsions:
REMARK  status: ('A' for Active; 'I' for Inactive)
REMARK    1  A    between atoms: C5_5  and  C6_6 
ROOT
HETATM    1  C1  UNL     1     -34.918  13.743  -4.691  1.00 20.00     0.080 C 
HETATM    2  C5  UNL     1     -34.817  15.202  -4.862  1.00 20.00     0.196 C 
HETATM    3  N7  UNL     1     -35.002  12.593  -4.556  1.00 20.00    -0.196 NA
HETATM    4 CL8  UNL     1     -34.189  15.474  -6.520  1.00 20.00    -0.109 Cl
ENDROOT
BRANCH   2   5
HETATM    5  C6  UNL     1     -33.961  15.901  -3.761  1.00 20.00    -0.022 C 
HETATM    6  C2  UNL     1     -34.688  15.839  -2.400  1.00 20.00     0.017 C 
HETATM    7  C3  UNL     1     -32.615  15.160  -3.599  1.00 20.00     0.017 C 
HETATM    8  C4  UNL     1     -33.665  17.380  -4.087  1.00 20.00     0.017 C 
ENDBRANCH   2   5
TORSDOF 1
ENDMDL
MODEL 5
REMARK VINA RESULT:      -3.7      2.297      3.102
REMARK  1 active torsions:
REMARK  status: ('A' for Active; 'I' for Inactive)
REMARK    1  A    between atoms: C5_5  and  C6_6 
ROOT
HETATM    1  C1  UNL     1     -34.460  13.724  -4.449  1.00 20.00     0.080 C 
HETATM    2  C5  UNL     1     -33.884  15.069  -4.284  1.00 20.00     0.196 C 
HETATM    3  N7  UNL     1     -34.909  12.662  -4.579  1.00 20.00    -0.196 NA
HETATM    4 CL8  UNL     1     -34.319  15.605  -2.629  1.00 20.00    -0.109 Cl
ENDROOT
BRANCH   2   5
HETATM    5  C6  UNL     1     -34.327  16.077  -5.390  1.00 20.00    -0.022 C 
HETATM    6  C2  UNL     1     -35.794  16.505  -5.165  1.00 20.00     0.017 C 
HETATM    7  C3  UNL     1     -33.458  17.352  -5.311  1.00 20.00     0.017 C 
HETATM    8  C4  UNL     1     -34.204  15.492  -6.812  1.00 20.00     0.017 C 
ENDBRANCH   2   5
TORSDOF 1
ENDMDL
MODEL 6
REMARK VINA RESULT:      -3.7      1.946      2.561
REMARK  1 active torsions:
REMARK  status: ('A' for Active; 'I' for Inactive)
REMARK    1  A    between atoms: C5_5  and  C6_6 
ROOT
HETATM    1  C1  UNL     1     -35.223  13.660  -4.163  1.00 20.00     0.080 C 
HETATM    2  C5  UNL     1     -35.729  14.872  -3.497  1.00 20.00     0.196 C 
HETATM    3  N7  UNL     1     -34.827  12.702  -4.685  1.00 20.00    -0.196 NA
HETATM    4 CL8  UNL     1     -36.995  15.548  -4.573  1.00 20.00    -0.109 Cl
ENDROOT
BRANCH   2   5
HETATM    5  C6  UNL     1     -34.612  15.902  -3.144  1.00 20.00    -0.022 C 
HETATM    6  C2  UNL     1     -34.841  17.221  -3.914  1.00 20.00     0.017 C 
HETATM    7  C3  UNL     1     -34.666  16.233  -1.636  1.00 20.00     0.017 C 
HETATM    8  C4  UNL     1     -33.197  15.384  -3.478  1.00 20.00     0.017 C 
ENDBRANCH   2   5
TORSDOF 1
ENDMDL
MODEL 7
REMARK VINA RESULT:      -3.6      2.190      2.700
REMARK  1 active torsions:
REMARK  status: ('A' for Active; 'I' for Inactive)
REMARK    1  A    between atoms: C5_5  and  C6_6 
ROOT
HETATM    1  C1  UNL     1     -34.447  13.645  -4.595  1.00 20.00     0.080 C 
HETATM    2  C5  UNL     1     -33.964  15.005  -4.302  1.00 20.00     0.196 C 
HETATM    3  N7  UNL     1     -34.826  12.574  -4.831  1.00 20.00    -0.196 NA
HETATM    4 CL8  UNL     1     -32.365  14.814  -3.512  1.00 20.00    -0.109 Cl
ENDROOT
BRANCH   2   5
HETATM    5  C6  UNL     1     -34.965  15.853  -3.458  1.00 20.00    -0.022 C 
HETATM    6  C2  UNL     1     -34.415  16.065  -2.031  1.00 20.00     0.017 C 
HETATM    7  C3  UNL     1     -35.133  17.249  -4.099  1.00 20.00     0.017 C 
HETATM    8  C4  UNL     1     -36.358  15.198  -3.350  1.00 20.00     0.017 C 
ENDBRANCH   2   5
TORSDOF 1
ENDMDL
MODEL 8
REMARK VINA RESULT:      -3.6      1.655      2.130
REMARK  1 active torsions:
REMARK  status: ('A' for Active; 'I' for Inactive)
REMARK    1  A    between atoms: C5_5  and  C6_6 
ROOT
HETATM    1  C1  UNL     1     -36.803  14.805  -3.658  1.00 20.00     0.080 C 
HETATM    2  C5  UNL     1     -35.477  15.413  -3.458  1.00 20.00     0.196 C 
HETATM    3  N7  UNL     1     -37.848  14.326  -3.811  1.00 20.00    -0.196 NA
HETATM    4 CL8  UNL     1     -35.675  17.169  -3.766  1.00 20.00    -0.109 Cl
ENDROOT
BRANCH   2   5
HETATM    5  C6  UNL     1     -34.355  14.763  -4.325  1.00 20.00    -0.022 C 
HETATM    6  C2  UNL     1     -34.342  15.390  -5.737  1.00 20.00     0.017 C 
HETATM    7  C3  UNL     1     -32.976  15.039  -3.686  1.00 20.00     0.017 C 
HETATM    8  C4  UNL     1     -34.526  13.237  -4.473  1.00 20.00     0.017 C 
ENDBRANCH   2   5
TORSDOF 1
ENDMDL
MODEL 9
REMARK VINA RESULT:      -3.5      2.140      2.855
REMARK  1 active torsions:
REMARK  status: ('A' for Active; 'I' for Inactive)
REMARK    1  A    between atoms: C5_5  and  C6_6 
ROOT
HETATM    1  C1  UNL     1     -34.615  13.728  -4.395  1.00 20.00     0.080 C 
HETATM    2  C5  UNL     1     -34.156  15.118  -4.233  1.00 20.00     0.196 C 
HETATM    3  N7  UNL     1     -34.976  12.634  -4.529  1.00 20.00    -0.196 NA
HETATM    4 CL8  UNL     1     -32.484  15.025  -3.589  1.00 20.00    -0.109 Cl
ENDROOT
BRANCH   2   5
HETATM    5  C6  UNL     1     -35.103  15.988  -3.350  1.00 20.00    -0.022 C 
HETATM    6  C2  UNL     1     -35.184  17.425  -3.911  1.00 20.00     0.017 C 
HETATM    7  C3  UNL     1     -36.532  15.400  -3.383  1.00 20.00     0.017 C 
HETATM    8  C4  UNL     1     -34.643  16.066  -1.880  1.00 20.00     0.017 C 
ENDBRANCH   2   5
TORSDOF 1
ENDMDL
