MODEL 1
REMARK VINA RESULT:      -4.2      0.000      0.000
REMARK  0 active torsions:
REMARK  status: ('A' for Active; 'I' for Inactive)
ROOT
HETATM    1  C1  UNL     1     -34.553  13.684  -4.206  1.00 20.00     0.085 C 
HETATM    2  C2  UNL     1     -33.941  15.900  -5.120  1.00 20.00     0.067 C 
HETATM    3  C3  UNL     1     -34.547  15.644  -2.694  1.00 20.00     0.067 C 
HETATM    4  C4  UNL     1     -33.466  17.310  -4.777  1.00 20.00     0.170 C 
HETATM    5  C5  UNL     1     -34.037  17.069  -2.491  1.00 20.00     0.170 C 
HETATM    6  C6  UNL     1     -33.891  14.963  -3.904  1.00 20.00     0.129 C 
HETATM    7  N7  UNL     1     -35.076  12.675  -4.443  1.00 20.00    -0.195 NA
HETATM    8  O8  UNL     1     -34.206  17.840  -3.678  1.00 20.00    -0.391 OA
HETATM    9 CL9  UNL     1     -32.180  14.557  -3.520  1.00 20.00    -0.103 Cl
ENDROOT
TORSDOF 0
ENDMDL
MODEL 2
REMARK VINA RESULT:      -4.2      2.027      2.183
REMARK  0 active torsions:
REMARK  status: ('A' for Active; 'I' for Inactive)
ROOT
HETATM    1  C1  UNL     1     -36.804  14.484  -4.012  1.00 20.00     0.085 C 
HETATM    2  C2  UNL     1     -35.236  15.729  -5.466  1.00 20.00     0.067 C 
HETATM    3  C3  UNL     1     -34.578  15.099  -3.123  1.00 20.00     0.067 C 
HETATM    4  C4  UNL     1     -33.777  16.117  -5.693  1.00 20.00     0.170 C 
HETATM    5  C5  UNL     1     -33.157  15.523  -3.485  1.00 20.00     0.170 C 
HETATM    6  C6  UNL     1     -35.387  14.676  -4.358  1.00 20.00     0.129 C 
HETATM    7  N7  UNL     1     -37.922  14.332  -3.739  1.00 20.00    -0.195 NA
HETATM    8  O8  UNL     1     -33.173  16.550  -4.475  1.00 20.00    -0.391 OA
HETATM    9 CL9  UNL     1     -34.801  13.082  -4.951  1.00 20.00    -0.103 Cl
ENDROOT
TORSDOF 0
ENDMDL
MODEL 3
REMARK VINA RESULT:      -4.1      2.130      2.531
REMARK  0 active torsions:
REMARK  status: ('A' for Active; 'I' for Inactive)
ROOT
HETATM    1  C1  UNL     1     -36.520  14.841  -3.600  1.00 20.00     0.085 C 
HETATM    2  C2  UNL     1     -34.079  14.441  -3.646  1.00 20.00     0.067 C 
HETATM    3  C3  UNL     1     -35.032  16.614  -4.476  1.00 20.00     0.067 C 
HETATM    4  C4  UNL     1     -32.703  15.097  -3.731  1.00 20.00     0.170 C 
HETATM    5  C5  UNL     1     -33.602  17.145  -4.514  1.00 20.00     0.170 C 
HETATM    6  C6  UNL     1     -35.200  15.475  -3.460  1.00 20.00     0.129 C 
HETATM    7  N7  UNL     1     -37.562  14.342  -3.710  1.00 20.00    -0.195 NA
HETATM    8  O8  UNL     1     -32.677  16.087  -4.758  1.00 20.00    -0.391 OA
HETATM    9 CL9  UNL     1     -35.143  16.138  -1.788  1.00 20.00    -0.103 Cl
ENDROOT
TORSDOF 0
ENDMDL
MODEL 4
REMARK VINA RESULT:      -4.1      2.418      2.778
REMARK  0 active torsions:
REMARK  status: ('A' for Active; 'I' for Inactive)
ROOT
HETATM    1  C1  UNL     1     -36.972  14.523  -4.049  1.00 20.00     0.085 C 
HETATM    2  C2  UNL     1     -35.075  16.111  -4.106  1.00 20.00     0.067 C 
HETATM    3  C3  UNL     1     -34.680  13.666  -3.675  1.00 20.00     0.067 C 
HETATM    4  C4  UNL     1     -33.563  16.252  -4.264  1.00 20.00     0.170 C 
HETATM    5  C5  UNL     1     -33.191  13.947  -3.857  1.00 20.00     0.170 C 
HETATM    6  C6  UNL     1     -35.557  14.685  -4.417  1.00 20.00     0.129 C 
HETATM    7  N7  UNL     1     -38.088  14.394  -3.758  1.00 20.00    -0.195 NA
HETATM    8  O8  UNL     1     -32.879  15.284  -3.469  1.00 20.00    -0.391 OA
HETATM    9 CL9  UNL     1     -35.468  14.387  -6.189  1.00 20.00    -0.103 Cl
ENDROOT
TORSDOF 0
ENDMDL
MODEL 5
REMARK VINA RESULT:      -3.9      2.329      3.303
REMARK  0 active torsions:
REMARK  status: ('A' for Active; 'I' for Inactive)
ROOT
HETATM    1  C1  UNL     1     -34.409  15.806  -2.341  1.00 20.00     0.085 C 
HETATM    2  C2  UNL     1     -34.859  13.827  -3.758  1.00 20.00     0.067 C 
HETATM    3  C3  UNL     1     -34.418  16.071  -4.802  1.00 20.00     0.067 C 
HETATM    4  C4  UNL     1     -34.727  13.231  -5.157  1.00 20.00     0.170 C 
HETATM    5  C5  UNL     1     -34.312  15.346  -6.142  1.00 20.00     0.170 C 
HETATM    6  C6  UNL     1     -34.089  15.149  -3.619  1.00 20.00     0.129 C 
HETATM    7  N7  UNL     1     -34.662  16.325  -1.334  1.00 20.00    -0.195 NA
HETATM    8  O8  UNL     1     -35.128  14.176  -6.149  1.00 20.00    -0.391 OA
HETATM    9 CL9  UNL     1     -32.321  14.821  -3.578  1.00 20.00    -0.103 Cl
ENDROOT
TORSDOF 0
ENDMDL
MODEL 6
REMARK VINA RESULT:      -3.9      2.939      3.656
REMARK  0 active torsions:
REMARK  status: ('A' for Active; 'I' for Inactive)
ROOT
HETATM    1  C1  UNL     1     -33.991  16.358  -2.349  1.00 20.00     0.085 C 
HETATM    2  C2  UNL     1     -33.525  14.263  -3.580  1.00 20.00     0.067 C 
HETATM    3  C3  UNL     1     -35.886  15.077  -3.295  1.00 20.00     0.067 C 
HETATM    4  C4  UNL     1     -34.074  13.248  -4.581  1.00 20.00     0.170 C 
HETATM    5  C5  UNL     1     -36.299  14.016  -4.312  1.00 20.00     0.170 C 
HETATM    6  C6  UNL     1     -34.422  15.505  -3.468  1.00 20.00     0.129 C 
HETATM    7  N7  UNL     1     -33.652  17.031  -1.466  1.00 20.00    -0.195 NA
HETATM    8  O8  UNL     1     -35.418  12.895  -4.258  1.00 20.00    -0.391 OA
HETATM    9 CL9  UNL     1     -34.253  16.510  -4.951  1.00 20.00    -0.103 Cl
ENDROOT
TORSDOF 0
ENDMDL
MODEL 7
REMARK VINA RESULT:      -3.9      2.912      3.656
REMARK  0 active torsions:
REMARK  status: ('A' for Active; 'I' for Inactive)
ROOT
HETATM    1  C1  UNL     1     -33.859  17.249  -4.113  1.00 20.00     0.085 C 
HETATM    2  C2  UNL     1     -35.264  15.255  -4.526  1.00 20.00     0.067 C 
HETATM    3  C3  UNL     1     -32.874  15.001  -3.792  1.00 20.00     0.067 C 
HETATM    4  C4  UNL     1     -35.427  13.760  -4.264  1.00 20.00     0.170 C 
HETATM    5  C5  UNL     1     -33.174  13.521  -3.572  1.00 20.00     0.170 C 
HETATM    6  C6  UNL     1     -34.136  15.869  -3.684  1.00 20.00     0.129 C 
HETATM    7  N7  UNL     1     -33.639  18.338  -4.451  1.00 20.00    -0.195 NA
HETATM    8  O8  UNL     1     -34.192  13.074  -4.465  1.00 20.00    -0.391 OA
HETATM    9 CL9  UNL     1     -34.653  15.978  -1.964  1.00 20.00    -0.103 Cl
ENDROOT
TORSDOF 0
ENDMDL
MODEL 8
REMARK VINA RESULT:      -3.8      1.610      1.780
REMARK  0 active torsions:
REMARK  status: ('A' for Active; 'I' for Inactive)
ROOT
HETATM    1  C1  UNL     1     -34.799  13.881  -4.385  1.00 20.00     0.085 C 
HETATM    2  C2  UNL     1     -33.481  15.910  -4.905  1.00 20.00     0.067 C 
HETATM    3  C3  UNL     1     -35.988  16.020  -4.754  1.00 20.00     0.067 C 
HETATM    4  C4  UNL     1     -33.489  17.437  -4.934  1.00 20.00     0.170 C 
HETATM    5  C5  UNL     1     -35.852  17.540  -4.791  1.00 20.00     0.170 C 
HETATM    6  C6  UNL     1     -34.725  15.340  -4.207  1.00 20.00     0.129 C 
HETATM    7  N7  UNL     1     -34.858  12.731  -4.526  1.00 20.00    -0.195 NA
HETATM    8  O8  UNL     1     -34.691  17.925  -5.526  1.00 20.00    -0.391 OA
HETATM    9 CL9  UNL     1     -34.605  15.617  -2.433  1.00 20.00    -0.103 Cl
ENDROOT
TORSDOF 0
ENDMDL
MODEL 9
REMARK VINA RESULT:      -3.8     12.856     13.560
REMARK  0 active torsions:
REMARK  status: ('A' for Active; 'I' for Inactive)
ROOT
HETATM    1  C1  UNL     1     -41.917   3.056  -2.725  1.00 20.00     0.085 C 
HETATM    2  C2  UNL     1     -40.696   4.505  -1.134  1.00 20.00     0.067 C 
HETATM    3  C3  UNL     1     -42.324   5.497  -2.773  1.00 20.00     0.067 C 
HETATM    4  C4  UNL     1     -40.667   5.870  -0.449  1.00 20.00     0.170 C 
HETATM    5  C5  UNL     1     -42.202   6.804  -1.993  1.00 20.00     0.170 C 
HETATM    6  C6  UNL     1     -42.006   4.273  -1.902  1.00 20.00     0.129 C 
HETATM    7  N7  UNL     1     -41.848   2.097  -3.374  1.00 20.00    -0.195 NA
HETATM    8  O8  UNL     1     -40.915   6.914  -1.389  1.00 20.00    -0.391 OA
HETATM    9 CL9  UNL     1     -43.349   3.989  -0.739  1.00 20.00    -0.103 Cl
ENDROOT
TORSDOF 0
ENDMDL
