MODEL 1
REMARK VINA RESULT:      -4.3      0.000      0.000
REMARK  0 active torsions:
REMARK  status: ('A' for Active; 'I' for Inactive)
ROOT
HETATM    1  C1  UNL     1     -34.570  13.723  -4.157  1.00 20.00     0.085 C 
HETATM    2  C2  UNL     1     -34.026  15.943  -5.079  1.00 20.00     0.051 C 
HETATM    3  C3  UNL     1     -34.564  15.633  -2.600  1.00 20.00     0.051 C 
HETATM    4  C4  UNL     1     -33.438  17.337  -4.881  1.00 20.00     0.076 C 
HETATM    5  C5  UNL     1     -34.018  17.004  -2.208  1.00 20.00     0.076 C 
HETATM    6  C6  UNL     1     -33.923  15.014  -3.855  1.00 20.00     0.127 C 
HETATM    7  N7  UNL     1     -35.080  12.708  -4.393  1.00 20.00    -0.195 NA
HETATM    8  S8  UNL     1     -34.249  18.228  -3.525  1.00 20.00    -0.169 SA
HETATM    9 CL9  UNL     1     -32.196  14.620  -3.530  1.00 20.00    -0.103 Cl
ENDROOT
TORSDOF 0
ENDMDL
MODEL 2
REMARK VINA RESULT:      -4.0      2.254      2.405
REMARK  0 active torsions:
REMARK  status: ('A' for Active; 'I' for Inactive)
ROOT
HETATM    1  C1  UNL     1     -37.184  14.555  -3.963  1.00 20.00     0.085 C 
HETATM    2  C2  UNL     1     -35.644  15.381  -5.701  1.00 20.00     0.051 C 
HETATM    3  C3  UNL     1     -35.107  15.650  -3.217  1.00 20.00     0.051 C 
HETATM    4  C4  UNL     1     -34.221  15.701  -6.147  1.00 20.00     0.076 C 
HETATM    5  C5  UNL     1     -33.641  15.992  -3.469  1.00 20.00     0.076 C 
HETATM    6  C6  UNL     1     -35.762  14.767  -4.294  1.00 20.00     0.127 C 
HETATM    7  N7  UNL     1     -38.303  14.388  -3.702  1.00 20.00    -0.195 NA
HETATM    8  S8  UNL     1     -33.410  16.881  -5.032  1.00 20.00    -0.169 SA
HETATM    9 CL9  UNL     1     -35.017  13.128  -4.278  1.00 20.00    -0.103 Cl
ENDROOT
TORSDOF 0
ENDMDL
MODEL 3
REMARK VINA RESULT:      -4.0      2.410      3.368
REMARK  0 active torsions:
REMARK  status: ('A' for Active; 'I' for Inactive)
ROOT
HETATM    1  C1  UNL     1     -34.414  15.874  -2.276  1.00 20.00     0.085 C 
HETATM    2  C2  UNL     1     -34.979  14.017  -3.795  1.00 20.00     0.051 C 
HETATM    3  C3  UNL     1     -34.340  16.320  -4.699  1.00 20.00     0.051 C 
HETATM    4  C4  UNL     1     -34.804  13.327  -5.145  1.00 20.00     0.076 C 
HETATM    5  C5  UNL     1     -34.115  15.811  -6.120  1.00 20.00     0.076 C 
HETATM    6  C6  UNL     1     -34.115  15.275  -3.591  1.00 20.00     0.127 C 
HETATM    7  N7  UNL     1     -34.649  16.346  -1.242  1.00 20.00    -0.195 NA
HETATM    8  S8  UNL     1     -35.216  14.429  -6.527  1.00 20.00    -0.169 SA
HETATM    9 CL9  UNL     1     -32.375  14.818  -3.525  1.00 20.00    -0.103 Cl
ENDROOT
TORSDOF 0
ENDMDL
MODEL 4
REMARK VINA RESULT:      -3.9      3.133      3.801
REMARK  0 active torsions:
REMARK  status: ('A' for Active; 'I' for Inactive)
ROOT
HETATM    1  C1  UNL     1     -33.929  17.698  -3.579  1.00 20.00     0.085 C 
HETATM    2  C2  UNL     1     -35.602  15.970  -4.115  1.00 20.00     0.051 C 
HETATM    3  C3  UNL     1     -33.134  15.377  -3.818  1.00 20.00     0.051 C 
HETATM    4  C4  UNL     1     -36.066  14.519  -4.020  1.00 20.00     0.076 C 
HETATM    5  C5  UNL     1     -33.405  13.880  -3.699  1.00 20.00     0.076 C 
HETATM    6  C6  UNL     1     -34.294  16.284  -3.367  1.00 20.00     0.127 C 
HETATM    7  N7  UNL     1     -33.641  18.809  -3.746  1.00 20.00    -0.195 NA
HETATM    8  S8  UNL     1     -34.834  13.369  -4.692  1.00 20.00    -0.169 SA
HETATM    9 CL9  UNL     1     -34.548  16.116  -1.592  1.00 20.00    -0.103 Cl
ENDROOT
TORSDOF 0
ENDMDL
MODEL 5
REMARK VINA RESULT:      -3.8      2.044      2.421
REMARK  0 active torsions:
REMARK  status: ('A' for Active; 'I' for Inactive)
ROOT
HETATM    1  C1  UNL     1     -34.784  13.781  -4.953  1.00 20.00     0.085 C 
HETATM    2  C2  UNL     1     -36.086  15.838  -5.331  1.00 20.00     0.051 C 
HETATM    3  C3  UNL     1     -33.591  15.930  -4.787  1.00 20.00     0.051 C 
HETATM    4  C4  UNL     1     -36.139  17.288  -5.804  1.00 20.00     0.076 C 
HETATM    5  C5  UNL     1     -33.448  17.388  -5.217  1.00 20.00     0.076 C 
HETATM    6  C6  UNL     1     -34.717  15.152  -5.492  1.00 20.00     0.127 C 
HETATM    7  N7  UNL     1     -34.835  12.701  -4.529  1.00 20.00    -0.195 NA
HETATM    8  S8  UNL     1     -34.962  18.337  -4.906  1.00 20.00    -0.169 SA
HETATM    9 CL9  UNL     1     -34.328  14.962  -7.239  1.00 20.00    -0.103 Cl
ENDROOT
TORSDOF 0
ENDMDL
MODEL 6
REMARK VINA RESULT:      -3.7     13.159     13.723
REMARK  0 active torsions:
REMARK  status: ('A' for Active; 'I' for Inactive)
ROOT
HETATM    1  C1  UNL     1     -41.693   3.060  -2.805  1.00 20.00     0.085 C 
HETATM    2  C2  UNL     1     -40.762   4.593  -1.116  1.00 20.00     0.051 C 
HETATM    3  C3  UNL     1     -42.589   5.354  -2.732  1.00 20.00     0.051 C 
HETATM    4  C4  UNL     1     -40.948   5.787  -0.184  1.00 20.00     0.076 C 
HETATM    5  C5  UNL     1     -42.919   6.608  -1.926  1.00 20.00     0.076 C 
HETATM    6  C6  UNL     1     -42.017   4.185  -1.908  1.00 20.00     0.127 C 
HETATM    7  N7  UNL     1     -41.438   2.174  -3.511  1.00 20.00    -0.195 NA
HETATM    8  S8  UNL     1     -41.458   7.277  -1.085  1.00 20.00    -0.169 SA
HETATM    9 CL9  UNL     1     -43.274   3.555  -0.784  1.00 20.00    -0.103 Cl
ENDROOT
TORSDOF 0
ENDMDL
MODEL 7
REMARK VINA RESULT:      -3.7      1.857      2.510
REMARK  0 active torsions:
REMARK  status: ('A' for Active; 'I' for Inactive)
ROOT
HETATM    1  C1  UNL     1     -35.050  13.761  -4.272  1.00 20.00     0.085 C 
HETATM    2  C2  UNL     1     -34.493  15.471  -2.588  1.00 20.00     0.051 C 
HETATM    3  C3  UNL     1     -34.997  16.111  -5.010  1.00 20.00     0.051 C 
HETATM    4  C4  UNL     1     -34.634  16.901  -2.074  1.00 20.00     0.076 C 
HETATM    5  C5  UNL     1     -35.179  17.592  -4.686  1.00 20.00     0.076 C 
HETATM    6  C6  UNL     1     -35.314  15.150  -3.850  1.00 20.00     0.127 C 
HETATM    7  N7  UNL     1     -34.843  12.668  -4.604  1.00 20.00    -0.195 NA
HETATM    8  S8  UNL     1     -34.117  18.121  -3.314  1.00 20.00    -0.169 SA
HETATM    9 CL9  UNL     1     -37.072  15.209  -3.468  1.00 20.00    -0.103 Cl
ENDROOT
TORSDOF 0
ENDMDL
MODEL 8
REMARK VINA RESULT:      -3.7      1.733      1.897
REMARK  0 active torsions:
REMARK  status: ('A' for Active; 'I' for Inactive)
ROOT
HETATM    1  C1  UNL     1     -34.871  13.889  -4.252  1.00 20.00     0.085 C 
HETATM    2  C2  UNL     1     -33.633  15.907  -4.937  1.00 20.00     0.051 C 
HETATM    3  C3  UNL     1     -36.168  15.952  -4.619  1.00 20.00     0.051 C 
HETATM    4  C4  UNL     1     -33.506  17.428  -4.947  1.00 20.00     0.076 C 
HETATM    5  C5  UNL     1     -36.240  17.477  -4.604  1.00 20.00     0.076 C 
HETATM    6  C6  UNL     1     -34.831  15.360  -4.140  1.00 20.00     0.127 C 
HETATM    7  N7  UNL     1     -34.904  12.733  -4.341  1.00 20.00    -0.195 NA
HETATM    8  S8  UNL     1     -34.971  18.226  -5.661  1.00 20.00    -0.169 SA
HETATM    9 CL9  UNL     1     -34.605  15.700  -2.386  1.00 20.00    -0.103 Cl
ENDROOT
TORSDOF 0
ENDMDL
MODEL 9
REMARK VINA RESULT:      -3.7      2.742      3.179
REMARK  0 active torsions:
REMARK  status: ('A' for Active; 'I' for Inactive)
ROOT
HETATM    1  C1  UNL     1     -37.477  14.603  -4.086  1.00 20.00     0.085 C 
HETATM    2  C2  UNL     1     -35.555  16.143  -4.032  1.00 20.00     0.051 C 
HETATM    3  C3  UNL     1     -35.224  13.610  -3.986  1.00 20.00     0.051 C 
HETATM    4  C4  UNL     1     -34.094  16.430  -4.366  1.00 20.00     0.076 C 
HETATM    5  C5  UNL     1     -33.737  13.697  -4.316  1.00 20.00     0.076 C 
HETATM    6  C6  UNL     1     -36.077  14.778  -4.515  1.00 20.00     0.127 C 
HETATM    7  N7  UNL     1     -38.579  14.464  -3.749  1.00 20.00    -0.195 NA
HETATM    8  S8  UNL     1     -32.979  15.198  -3.636  1.00 20.00    -0.169 SA
HETATM    9 CL9  UNL     1     -36.118  14.740  -6.314  1.00 20.00    -0.103 Cl
ENDROOT
TORSDOF 0
ENDMDL
