MODEL 1
REMARK VINA RESULT:      -3.6      0.000      0.000
REMARK  1 active torsions:
REMARK  status: ('A' for Active; 'I' for Inactive)
REMARK    1  A    between atoms: C2_2  and  C4_4 
ROOT
HETATM    1  C1  UNL     1     -35.943  15.675  -3.077  1.00 20.00     0.076 A 
HETATM    2  C2  UNL     1     -34.656  15.608  -2.729  1.00 20.00     0.053 A 
HETATM    3  C3  UNL     1     -34.993  13.573  -4.280  1.00 20.00     0.255 A 
HETATM    4  O5  UNL     1     -34.847  12.561  -4.950  1.00 20.00    -0.272 OA
HETATM    5  S7  UNL     1     -36.525  14.433  -4.141  1.00 20.00    -0.051 SA
HETATM    6  S8  UNL     1     -33.696  14.321  -3.351  1.00 20.00    -0.037 SA
ENDROOT
BRANCH   2   7
HETATM    7  C4  UNL     1     -34.047  16.590  -1.843  1.00 20.00     0.278 C 
HETATM    8  O6  UNL     1     -34.357  16.703  -0.659  1.00 20.00    -0.301 OA
ENDBRANCH   2   7
TORSDOF 1
ENDMDL
MODEL 2
REMARK VINA RESULT:      -3.5      2.282      3.139
REMARK  1 active torsions:
REMARK  status: ('A' for Active; 'I' for Inactive)
REMARK    1  A    between atoms: C2_2  and  C4_4 
ROOT
HETATM    1  C1  UNL     1     -35.426  15.905  -3.229  1.00 20.00     0.076 A 
HETATM    2  C2  UNL     1     -36.165  14.937  -3.777  1.00 20.00     0.053 A 
HETATM    3  C3  UNL     1     -33.788  13.936  -3.687  1.00 20.00     0.255 A 
HETATM    4  O5  UNL     1     -32.806  13.215  -3.778  1.00 20.00    -0.272 OA
HETATM    5  S7  UNL     1     -33.739  15.565  -3.013  1.00 20.00    -0.051 SA
HETATM    6  S8  UNL     1     -35.400  13.459  -4.216  1.00 20.00    -0.037 SA
ENDROOT
BRANCH   2   7
HETATM    7  C4  UNL     1     -37.594  15.100  -4.010  1.00 20.00     0.278 C 
HETATM    8  O6  UNL     1     -38.410  14.205  -3.800  1.00 20.00    -0.301 OA
ENDBRANCH   2   7
TORSDOF 1
ENDMDL
MODEL 3
REMARK VINA RESULT:      -3.4      2.014      4.102
REMARK  1 active torsions:
REMARK  status: ('A' for Active; 'I' for Inactive)
REMARK    1  A    between atoms: C2_2  and  C4_4 
ROOT
HETATM    1  C1  UNL     1     -34.026  15.762  -5.694  1.00 20.00     0.076 A 
HETATM    2  C2  UNL     1     -34.398  14.861  -4.782  1.00 20.00     0.053 A 
HETATM    3  C3  UNL     1     -33.838  16.963  -3.394  1.00 20.00     0.255 A 
HETATM    4  O5  UNL     1     -33.651  17.770  -2.496  1.00 20.00    -0.272 OA
HETATM    5  S7  UNL     1     -33.572  17.327  -5.098  1.00 20.00    -0.051 SA
HETATM    6  S8  UNL     1     -34.398  15.315  -3.121  1.00 20.00    -0.037 SA
ENDROOT
BRANCH   2   7
HETATM    7  C4  UNL     1     -34.803  13.512  -5.155  1.00 20.00     0.278 C 
HETATM    8  O6  UNL     1     -35.039  12.634  -4.327  1.00 20.00    -0.301 OA
ENDBRANCH   2   7
TORSDOF 1
ENDMDL
MODEL 4
REMARK VINA RESULT:      -3.4      2.415      4.086
REMARK  1 active torsions:
REMARK  status: ('A' for Active; 'I' for Inactive)
REMARK    1  A    between atoms: C2_2  and  C4_4 
ROOT
HETATM    1  C1  UNL     1     -34.294  15.104  -3.190  1.00 20.00     0.076 A 
HETATM    2  C2  UNL     1     -34.270  14.848  -4.500  1.00 20.00     0.053 A 
HETATM    3  C3  UNL     1     -33.691  17.358  -4.342  1.00 20.00     0.255 A 
HETATM    4  O5  UNL     1     -33.406  18.521  -4.582  1.00 20.00    -0.272 OA
HETATM    5  S7  UNL     1     -33.940  16.735  -2.712  1.00 20.00    -0.051 SA
HETATM    6  S8  UNL     1     -33.898  16.129  -5.588  1.00 20.00    -0.037 SA
ENDROOT
BRANCH   2   7
HETATM    7  C4  UNL     1     -34.549  13.519  -5.028  1.00 20.00     0.278 C 
HETATM    8  O6  UNL     1     -35.046  12.622  -4.350  1.00 20.00    -0.301 OA
ENDBRANCH   2   7
TORSDOF 1
ENDMDL
MODEL 5
REMARK VINA RESULT:      -3.3      2.883      3.302
REMARK  1 active torsions:
REMARK  status: ('A' for Active; 'I' for Inactive)
REMARK    1  A    between atoms: C2_2  and  C4_4 
ROOT
HETATM    1  C1  UNL     1     -33.261  15.969  -4.372  1.00 20.00     0.076 A 
HETATM    2  C2  UNL     1     -33.968  16.152  -5.489  1.00 20.00     0.053 A 
HETATM    3  C3  UNL     1     -34.401  13.684  -4.870  1.00 20.00     0.255 A 
HETATM    4  O5  UNL     1     -34.780  12.523  -4.840  1.00 20.00    -0.272 OA
HETATM    5  S7  UNL     1     -33.325  14.386  -3.663  1.00 20.00    -0.051 SA
HETATM    6  S8  UNL     1     -34.868  14.829  -6.125  1.00 20.00    -0.037 SA
ENDROOT
BRANCH   2   7
HETATM    7  C4  UNL     1     -33.996  17.434  -6.180  1.00 20.00     0.278 C 
HETATM    8  O6  UNL     1     -33.420  18.433  -5.755  1.00 20.00    -0.301 OA
ENDBRANCH   2   7
TORSDOF 1
ENDMDL
MODEL 6
REMARK VINA RESULT:      -3.3      2.988      3.985
REMARK  1 active torsions:
REMARK  status: ('A' for Active; 'I' for Inactive)
REMARK    1  A    between atoms: C2_2  and  C4_4 
ROOT
HETATM    1  C1  UNL     1     -33.627  15.966  -4.195  1.00 20.00     0.076 A 
HETATM    2  C2  UNL     1     -34.164  14.856  -4.704  1.00 20.00     0.053 A 
HETATM    3  C3  UNL     1     -34.273  16.553  -6.646  1.00 20.00     0.255 A 
HETATM    4  O5  UNL     1     -34.459  17.114  -7.715  1.00 20.00    -0.272 OA
HETATM    5  S7  UNL     1     -33.537  17.340  -5.251  1.00 20.00    -0.051 SA
HETATM    6  S8  UNL     1     -34.715  14.875  -6.336  1.00 20.00    -0.037 SA
ENDROOT
BRANCH   2   7
HETATM    7  C4  UNL     1     -34.296  13.636  -3.920  1.00 20.00     0.278 C 
HETATM    8  O6  UNL     1     -34.917  12.652  -4.317  1.00 20.00    -0.301 OA
ENDBRANCH   2   7
TORSDOF 1
ENDMDL
MODEL 7
REMARK VINA RESULT:      -3.3      2.763      2.803
REMARK  1 active torsions:
REMARK  status: ('A' for Active; 'I' for Inactive)
REMARK    1  A    between atoms: C2_2  and  C4_4 
ROOT
HETATM    1  C1  UNL     1     -34.619  16.070  -6.187  1.00 20.00     0.076 A 
HETATM    2  C2  UNL     1     -34.016  16.284  -5.016  1.00 20.00     0.053 A 
HETATM    3  C3  UNL     1     -34.654  13.784  -4.945  1.00 20.00     0.255 A 
HETATM    4  O5  UNL     1     -34.822  12.616  -4.627  1.00 20.00    -0.272 OA
HETATM    5  S7  UNL     1     -35.188  14.457  -6.485  1.00 20.00    -0.051 SA
HETATM    6  S8  UNL     1     -33.855  14.969  -3.915  1.00 20.00    -0.037 SA
ENDROOT
BRANCH   2   7
HETATM    7  C4  UNL     1     -33.495  17.593  -4.647  1.00 20.00     0.278 C 
HETATM    8  O6  UNL     1     -33.367  18.511  -5.454  1.00 20.00    -0.301 OA
ENDBRANCH   2   7
TORSDOF 1
ENDMDL
MODEL 8
REMARK VINA RESULT:      -3.2      1.954      2.011
REMARK  1 active torsions:
REMARK  status: ('A' for Active; 'I' for Inactive)
REMARK    1  A    between atoms: C2_2  and  C4_4 
ROOT
HETATM    1  C1  UNL     1     -34.638  14.425  -3.421  1.00 20.00     0.076 A 
HETATM    2  C2  UNL     1     -34.178  15.678  -3.443  1.00 20.00     0.053 A 
HETATM    3  C3  UNL     1     -34.266  14.999  -5.931  1.00 20.00     0.255 A 
HETATM    4  O5  UNL     1     -34.194  14.969  -7.151  1.00 20.00    -0.272 OA
HETATM    5  S7  UNL     1     -34.827  13.641  -4.958  1.00 20.00    -0.051 SA
HETATM    6  S8  UNL     1     -33.816  16.401  -4.964  1.00 20.00    -0.037 SA
ENDROOT
BRANCH   2   7
HETATM    7  C4  UNL     1     -33.975  16.444  -2.221  1.00 20.00     0.278 C 
HETATM    8  O6  UNL     1     -34.600  16.225  -1.185  1.00 20.00    -0.301 OA
ENDBRANCH   2   7
TORSDOF 1
ENDMDL
MODEL 9
REMARK VINA RESULT:      -3.2      2.553      2.860
REMARK  1 active torsions:
REMARK  status: ('A' for Active; 'I' for Inactive)
REMARK    1  A    between atoms: C2_2  and  C4_4 
ROOT
HETATM    1  C1  UNL     1     -33.968  14.614  -4.699  1.00 20.00     0.076 A 
HETATM    2  C2  UNL     1     -34.359  15.888  -4.629  1.00 20.00     0.053 A 
HETATM    3  C3  UNL     1     -36.481  14.548  -4.031  1.00 20.00     0.255 A 
HETATM    4  O5  UNL     1     -37.612  14.201  -3.725  1.00 20.00    -0.272 OA
HETATM    5  S7  UNL     1     -35.170  13.413  -4.346  1.00 20.00    -0.051 SA
HETATM    6  S8  UNL     1     -35.992  16.231  -4.204  1.00 20.00    -0.037 SA
ENDROOT
BRANCH   2   7
HETATM    7  C4  UNL     1     -33.445  16.989  -4.902  1.00 20.00     0.278 C 
HETATM    8  O6  UNL     1     -33.565  18.099  -4.388  1.00 20.00    -0.301 OA
ENDBRANCH   2   7
TORSDOF 1
ENDMDL
