MODEL 1
REMARK VINA RESULT:      -4.3      0.000      0.000
REMARK  2 active torsions:
REMARK  status: ('A' for Active; 'I' for Inactive)
REMARK    1  A    between atoms: C1_1  and  C3_3 
REMARK       I    between atoms: C1_1  and  N8_8 
REMARK    2  A    between atoms: N8_8  and  O10_10 
ROOT
HETATM    1  C1  UNL     1     -33.751   5.979   3.470  1.00 20.00     0.247 C 
HETATM    2  C6  UNL     1     -34.056   6.371   5.909  1.00 20.00     0.189 C 
HETATM    3  N8  UNL     1     -34.229   5.591   4.698  1.00 20.00    -0.231 N 
HETATM    4  O9  UNL     1     -33.892   5.322   2.437  1.00 20.00    -0.271 OA
ENDROOT
BRANCH   1   5
HETATM    5  C3  UNL     1     -32.999   7.287   3.438  1.00 20.00     0.084 A 
HETATM    6  C2  UNL     1     -31.512   7.235   3.455  1.00 20.00     0.019 A 
HETATM    7  C4  UNL     1     -32.242   7.621   2.200  1.00 20.00    -0.005 A 
HETATM    8  C5  UNL     1     -32.220   9.033   1.725  1.00 20.00     0.011 C 
ENDBRANCH   1   5
BRANCH   3   9
HETATM    9  O10 UNL     1     -34.939   4.395   4.913  1.00 20.00    -0.281 OA
HETATM   10  C7  UNL     1     -35.163   4.234   6.310  1.00 20.00     0.238 C 
ENDBRANCH   3   9
TORSDOF 2
ENDMDL
MODEL 2
REMARK VINA RESULT:      -4.0     11.084     11.955
REMARK  2 active torsions:
REMARK  status: ('A' for Active; 'I' for Inactive)
REMARK    1  A    between atoms: C1_1  and  C3_3 
REMARK       I    between atoms: C1_1  and  N8_8 
REMARK    2  A    between atoms: N8_8  and  O10_10 
ROOT
HETATM    1  C1  UNL     1     -35.317  15.165  -3.087  1.00 20.00     0.247 C 
HETATM    2  C6  UNL     1     -33.290  13.857  -3.698  1.00 20.00     0.189 C 
HETATM    3  N8  UNL     1     -34.687  14.218  -3.855  1.00 20.00    -0.231 N 
HETATM    4  O9  UNL     1     -36.502  15.478  -3.215  1.00 20.00    -0.271 OA
ENDROOT
BRANCH   1   5
HETATM    5  C3  UNL     1     -34.462  15.849  -2.048  1.00 20.00     0.084 A 
HETATM    6  C2  UNL     1     -33.937  17.204  -2.362  1.00 20.00     0.019 A 
HETATM    7  C4  UNL     1     -35.034  17.032  -1.350  1.00 20.00    -0.005 A 
HETATM    8  C5  UNL     1     -34.750  17.223   0.101  1.00 20.00     0.011 C 
ENDBRANCH   1   5
BRANCH   3   9
HETATM    9  O10 UNL     1     -35.328  13.494  -4.878  1.00 20.00    -0.281 OA
HETATM   10  C7  UNL     1     -35.035  14.104  -6.131  1.00 20.00     0.238 C 
ENDBRANCH   3   9
TORSDOF 2
ENDMDL
MODEL 3
REMARK VINA RESULT:      -4.0     11.339     12.117
REMARK  2 active torsions:
REMARK  status: ('A' for Active; 'I' for Inactive)
REMARK    1  A    between atoms: C1_1  and  C3_3 
REMARK       I    between atoms: C1_1  and  N8_8 
REMARK    2  A    between atoms: N8_8  and  O10_10 
ROOT
HETATM    1  C1  UNL     1     -35.864  14.208  -3.935  1.00 20.00     0.247 C 
HETATM    2  C6  UNL     1     -37.297  16.168  -3.387  1.00 20.00     0.189 C 
HETATM    3  N8  UNL     1     -37.099  14.774  -3.740  1.00 20.00    -0.231 N 
HETATM    4  O9  UNL     1     -35.687  13.026  -4.234  1.00 20.00    -0.271 OA
ENDROOT
BRANCH   1   5
HETATM    5  C3  UNL     1     -34.680  15.126  -3.745  1.00 20.00     0.084 A 
HETATM    6  C2  UNL     1     -33.320  14.532  -3.836  1.00 20.00     0.019 A 
HETATM    7  C4  UNL     1     -33.834  15.420  -4.934  1.00 20.00    -0.005 A 
HETATM    8  C5  UNL     1     -33.282  16.793  -5.107  1.00 20.00     0.011 C 
ENDBRANCH   1   5
BRANCH   3   9
HETATM    9  O10 UNL     1     -38.308  14.063  -3.862  1.00 20.00    -0.281 OA
HETATM   10  C7  UNL     1     -39.262  14.880  -4.532  1.00 20.00     0.238 C 
ENDBRANCH   3   9
TORSDOF 2
ENDMDL
MODEL 4
REMARK VINA RESULT:      -4.0      1.502      4.354
REMARK  2 active torsions:
REMARK  status: ('A' for Active; 'I' for Inactive)
REMARK    1  A    between atoms: C1_1  and  C3_3 
REMARK       I    between atoms: C1_1  and  N8_8 
REMARK    2  A    between atoms: N8_8  and  O10_10 
ROOT
HETATM    1  C1  UNL     1     -33.320   6.099   3.242  1.00 20.00     0.247 C 
HETATM    2  C6  UNL     1     -31.489   7.601   4.007  1.00 20.00     0.189 C 
HETATM    3  N8  UNL     1     -32.355   7.042   2.986  1.00 20.00    -0.231 N 
HETATM    4  O9  UNL     1     -34.061   5.620   2.381  1.00 20.00    -0.271 OA
ENDROOT
BRANCH   1   5
HETATM    5  C3  UNL     1     -33.455   5.667   4.682  1.00 20.00     0.084 A 
HETATM    6  C2  UNL     1     -34.246   6.533   5.597  1.00 20.00     0.019 A 
HETATM    7  C4  UNL     1     -34.793   5.208   5.145  1.00 20.00    -0.005 A 
HETATM    8  C5  UNL     1     -34.876   4.068   6.101  1.00 20.00     0.011 C 
ENDBRANCH   1   5
BRANCH   3   9
HETATM    9  O10 UNL     1     -32.103   7.567   1.705  1.00 20.00    -0.281 OA
HETATM   10  C7  UNL     1     -32.267   8.981   1.743  1.00 20.00     0.238 C 
ENDBRANCH   3   9
TORSDOF 2
ENDMDL
MODEL 5
REMARK VINA RESULT:      -3.9     11.425     12.045
REMARK  2 active torsions:
REMARK  status: ('A' for Active; 'I' for Inactive)
REMARK    1  A    between atoms: C1_1  and  C3_3 
REMARK       I    between atoms: C1_1  and  N8_8 
REMARK    2  A    between atoms: N8_8  and  O10_10 
ROOT
HETATM    1  C1  UNL     1     -34.218  15.472  -3.058  1.00 20.00     0.247 C 
HETATM    2  C6  UNL     1     -36.645  15.080  -3.443  1.00 20.00     0.189 C 
HETATM    3  N8  UNL     1     -35.245  14.734  -3.594  1.00 20.00    -0.231 N 
HETATM    4  O9  UNL     1     -33.026  15.184  -3.181  1.00 20.00    -0.271 OA
ENDROOT
BRANCH   1   5
HETATM    5  C3  UNL     1     -34.625  16.691  -2.267  1.00 20.00     0.084 A 
HETATM    6  C2  UNL     1     -34.670  16.575  -0.785  1.00 20.00     0.019 A 
HETATM    7  C4  UNL     1     -33.580  17.366  -1.450  1.00 20.00    -0.005 A 
HETATM    8  C5  UNL     1     -33.577  18.854  -1.366  1.00 20.00     0.011 C 
ENDBRANCH   1   5
BRANCH   3   9
HETATM    9  O10 UNL     1     -35.048  13.560  -4.347  1.00 20.00    -0.281 OA
HETATM   10  C7  UNL     1     -35.012  13.898  -5.730  1.00 20.00     0.238 C 
ENDBRANCH   3   9
TORSDOF 2
ENDMDL
MODEL 6
REMARK VINA RESULT:      -3.7     11.743     13.253
REMARK  2 active torsions:
REMARK  status: ('A' for Active; 'I' for Inactive)
REMARK    1  A    between atoms: C1_1  and  C3_3 
REMARK       I    between atoms: C1_1  and  N8_8 
REMARK    2  A    between atoms: N8_8  and  O10_10 
ROOT
HETATM    1  C1  UNL     1     -34.037  16.170  -4.820  1.00 20.00     0.247 C 
HETATM    2  C6  UNL     1     -35.900  15.164  -3.512  1.00 20.00     0.189 C 
HETATM    3  N8  UNL     1     -34.564  15.714  -3.637  1.00 20.00    -0.231 N 
HETATM    4  O9  UNL     1     -32.903  16.639  -4.934  1.00 20.00    -0.271 OA
ENDROOT
BRANCH   1   5
HETATM    5  C3  UNL     1     -34.946  16.085  -6.023  1.00 20.00     0.084 A 
HETATM    6  C2  UNL     1     -34.474  16.697  -7.294  1.00 20.00     0.019 A 
HETATM    7  C4  UNL     1     -34.527  15.202  -7.146  1.00 20.00    -0.005 A 
HETATM    8  C5  UNL     1     -35.564  14.415  -7.871  1.00 20.00     0.011 C 
ENDBRANCH   1   5
BRANCH   3   9
HETATM    9  O10 UNL     1     -33.862  15.732  -2.416  1.00 20.00    -0.281 OA
HETATM   10  C7  UNL     1     -34.646  16.410  -1.440  1.00 20.00     0.238 C 
ENDBRANCH   3   9
TORSDOF 2
ENDMDL
MODEL 7
REMARK VINA RESULT:      -3.7     12.208     13.446
REMARK  2 active torsions:
REMARK  status: ('A' for Active; 'I' for Inactive)
REMARK    1  A    between atoms: C1_1  and  C3_3 
REMARK       I    between atoms: C1_1  and  N8_8 
REMARK    2  A    between atoms: N8_8  and  O10_10 
ROOT
HETATM    1  C1  UNL     1     -33.764  16.272  -4.525  1.00 20.00     0.247 C 
HETATM    2  C6  UNL     1     -35.902  16.689  -5.729  1.00 20.00     0.189 C 
HETATM    3  N8  UNL     1     -34.518  16.255  -5.672  1.00 20.00    -0.231 N 
HETATM    4  O9  UNL     1     -32.589  15.904  -4.468  1.00 20.00    -0.271 OA
ENDROOT
BRANCH   1   5
HETATM    5  C3  UNL     1     -34.464  16.762  -3.281  1.00 20.00     0.084 A 
HETATM    6  C2  UNL     1     -34.948  15.745  -2.310  1.00 20.00     0.019 A 
HETATM    7  C4  UNL     1     -33.758  16.602  -1.980  1.00 20.00    -0.005 A 
HETATM    8  C5  UNL     1     -33.872  17.680  -0.958  1.00 20.00     0.011 C 
ENDBRANCH   1   5
BRANCH   3   9
HETATM    9  O10 UNL     1     -34.030  15.816  -6.917  1.00 20.00    -0.281 OA
HETATM   10  C7  UNL     1     -34.869  14.772  -7.402  1.00 20.00     0.238 C 
ENDBRANCH   3   9
TORSDOF 2
ENDMDL
MODEL 8
REMARK VINA RESULT:      -3.7     10.486     11.399
REMARK  2 active torsions:
REMARK  status: ('A' for Active; 'I' for Inactive)
REMARK    1  A    between atoms: C1_1  and  C3_3 
REMARK       I    between atoms: C1_1  and  N8_8 
REMARK    2  A    between atoms: N8_8  and  O10_10 
ROOT
HETATM    1  C1  UNL     1     -42.349   5.051  -2.645  1.00 20.00     0.247 C 
HETATM    2  C6  UNL     1     -40.791   5.534  -0.766  1.00 20.00     0.189 C 
HETATM    3  N8  UNL     1     -41.732   5.935  -1.795  1.00 20.00    -0.231 N 
HETATM    4  O9  UNL     1     -43.150   5.382  -3.521  1.00 20.00    -0.271 OA
ENDROOT
BRANCH   1   5
HETATM    5  C3  UNL     1     -42.007   3.594  -2.444  1.00 20.00     0.084 A 
HETATM    6  C2  UNL     1     -43.126   2.642  -2.216  1.00 20.00     0.019 A 
HETATM    7  C4  UNL     1     -42.384   2.639  -3.522  1.00 20.00    -0.005 A 
HETATM    8  C5  UNL     1     -41.457   1.521  -3.854  1.00 20.00     0.011 C 
ENDBRANCH   1   5
BRANCH   3   9
HETATM    9  O10 UNL     1     -41.946   7.326  -1.832  1.00 20.00    -0.281 OA
HETATM   10  C7  UNL     1     -42.900   7.675  -0.834  1.00 20.00     0.238 C 
ENDBRANCH   3   9
TORSDOF 2
ENDMDL
MODEL 9
REMARK VINA RESULT:      -3.7     10.192     10.826
REMARK  2 active torsions:
REMARK  status: ('A' for Active; 'I' for Inactive)
REMARK    1  A    between atoms: C1_1  and  C3_3 
REMARK       I    between atoms: C1_1  and  N8_8 
REMARK    2  A    between atoms: N8_8  and  O10_10 
ROOT
HETATM    1  C1  UNL     1     -41.420   4.452  -1.785  1.00 20.00     0.247 C 
HETATM    2  C6  UNL     1     -43.289   3.901  -3.334  1.00 20.00     0.189 C 
HETATM    3  N8  UNL     1     -42.036   3.599  -2.666  1.00 20.00    -0.231 N 
HETATM    4  O9  UNL     1     -40.357   4.202  -1.214  1.00 20.00    -0.271 OA
ENDROOT
BRANCH   1   5
HETATM    5  C3  UNL     1     -42.134   5.755  -1.519  1.00 20.00     0.084 A 
HETATM    6  C2  UNL     1     -41.375   6.837  -0.837  1.00 20.00     0.019 A 
HETATM    7  C4  UNL     1     -41.708   6.950  -2.298  1.00 20.00    -0.005 A 
HETATM    8  C5  UNL     1     -42.741   7.920  -2.757  1.00 20.00     0.011 C 
ENDBRANCH   1   5
BRANCH   3   9
HETATM    9  O10 UNL     1     -41.519   2.338  -3.018  1.00 20.00    -0.281 OA
HETATM   10  C7  UNL     1     -42.591   1.406  -3.112  1.00 20.00     0.238 C 
ENDBRANCH   3   9
TORSDOF 2
ENDMDL
