MODEL 1
REMARK VINA RESULT:      -4.9      0.000      0.000
REMARK  2 active torsions:
REMARK  status: ('A' for Active; 'I' for Inactive)
REMARK    1  A    between atoms: C4_4  and  C5_5 
REMARK    2  A    between atoms: C6_6  and  C10_10 
ROOT
HETATM    1  C1  UNL     1     -33.712  13.903  -3.747  1.00 20.00    -0.003 C 
HETATM    2  C2  UNL     1     -35.097  13.793  -4.118  1.00 20.00     0.010 C 
HETATM    3  C3  UNL     1     -33.196  15.050  -3.291  1.00 20.00    -0.021 C 
HETATM    4  C4  UNL     1     -35.958  14.799  -3.902  1.00 20.00    -0.016 C 
HETATM    5  C6  UNL     1     -34.009  16.315  -3.143  1.00 20.00     0.016 C 
HETATM    6  C7  UNL     1     -35.559  16.122  -3.281  1.00 20.00     0.025 C 
HETATM    7  C8  UNL     1     -36.140  17.321  -4.048  1.00 20.00     0.016 C 
ENDROOT
BRANCH   4   8
HETATM    8  C5  UNL     1     -37.361  14.521  -4.229  1.00 20.00     0.266 C 
HETATM    9  O11 UNL     1     -38.229  14.412  -3.373  1.00 20.00    -0.302 OA
ENDBRANCH   4   8
BRANCH   5  10
HETATM   10  C10 UNL     1     -33.676  16.996  -1.811  1.00 20.00     0.005 C 
HETATM   11  C9  UNL     1     -34.660  16.634  -0.751  1.00 20.00     0.006 C 
ENDBRANCH   5  10
TORSDOF 2
ENDMDL
MODEL 2
REMARK VINA RESULT:      -4.6      1.793      2.392
REMARK  2 active torsions:
REMARK  status: ('A' for Active; 'I' for Inactive)
REMARK    1  A    between atoms: C4_4  and  C5_5 
REMARK    2  A    between atoms: C6_6  and  C10_10 
ROOT
HETATM    1  C1  UNL     1     -33.305  16.927  -4.613  1.00 20.00    -0.003 C 
HETATM    2  C2  UNL     1     -33.745  15.725  -5.270  1.00 20.00     0.010 C 
HETATM    3  C3  UNL     1     -33.869  17.352  -3.476  1.00 20.00    -0.021 C 
HETATM    4  C4  UNL     1     -34.650  14.913  -4.703  1.00 20.00    -0.016 C 
HETATM    5  C6  UNL     1     -35.010  16.625  -2.804  1.00 20.00     0.016 C 
HETATM    6  C7  UNL     1     -35.296  15.188  -3.361  1.00 20.00     0.025 C 
HETATM    7  C8  UNL     1     -36.817  14.964  -3.393  1.00 20.00     0.016 C 
ENDROOT
BRANCH   4   8
HETATM    8  C5  UNL     1     -34.934  13.669  -5.427  1.00 20.00     0.266 C 
HETATM    9  O11 UNL     1     -34.771  12.563  -4.927  1.00 20.00    -0.302 OA
ENDBRANCH   4   8
BRANCH   5  10
HETATM   10  C10 UNL     1     -34.772  16.569  -1.290  1.00 20.00     0.005 C 
HETATM   11  C9  UNL     1     -33.713  17.530  -0.868  1.00 20.00     0.006 C 
ENDBRANCH   5  10
TORSDOF 2
ENDMDL
MODEL 3
REMARK VINA RESULT:      -4.5      2.281      2.319
REMARK  2 active torsions:
REMARK  status: ('A' for Active; 'I' for Inactive)
REMARK    1  A    between atoms: C4_4  and  C5_5 
REMARK    2  A    between atoms: C6_6  and  C10_10 
ROOT
HETATM    1  C1  UNL     1     -33.739  13.449  -4.027  1.00 20.00    -0.003 C 
HETATM    2  C2  UNL     1     -34.557  13.556  -5.206  1.00 20.00     0.010 C 
HETATM    3  C3  UNL     1     -33.222  14.529  -3.431  1.00 20.00    -0.021 C 
HETATM    4  C4  UNL     1     -34.940  14.750  -5.682  1.00 20.00    -0.016 C 
HETATM    5  C6  UNL     1     -33.437  15.933  -3.946  1.00 20.00     0.016 C 
HETATM    6  C7  UNL     1     -34.542  16.068  -5.051  1.00 20.00     0.025 C 
HETATM    7  C8  UNL     1     -34.072  17.093  -6.097  1.00 20.00     0.016 C 
ENDROOT
BRANCH   4   8
HETATM    8  C5  UNL     1     -35.857  14.717  -6.826  1.00 20.00     0.266 C 
HETATM    9  O11 UNL     1     -35.541  14.246  -7.911  1.00 20.00    -0.302 OA
ENDBRANCH   4   8
BRANCH   5  10
HETATM   10  C10 UNL     1     -33.739  16.877  -2.776  1.00 20.00     0.005 C 
HETATM   11  C9  UNL     1     -34.603  16.220  -1.754  1.00 20.00     0.006 C 
ENDBRANCH   5  10
TORSDOF 2
ENDMDL
MODEL 4
REMARK VINA RESULT:      -4.3      1.981      2.997
REMARK  2 active torsions:
REMARK  status: ('A' for Active; 'I' for Inactive)
REMARK    1  A    between atoms: C4_4  and  C5_5 
REMARK    2  A    between atoms: C6_6  and  C10_10 
ROOT
HETATM    1  C1  UNL     1     -36.972  16.138  -4.168  1.00 20.00    -0.003 C 
HETATM    2  C2  UNL     1     -36.431  15.471  -5.322  1.00 20.00     0.010 C 
HETATM    3  C3  UNL     1     -36.310  16.177  -3.006  1.00 20.00    -0.021 C 
HETATM    4  C4  UNL     1     -35.185  14.972  -5.318  1.00 20.00    -0.016 C 
HETATM    5  C6  UNL     1     -34.965  15.521  -2.804  1.00 20.00     0.016 C 
HETATM    6  C7  UNL     1     -34.261  15.042  -4.121  1.00 20.00     0.025 C 
HETATM    7  C8  UNL     1     -33.562  13.700  -3.848  1.00 20.00     0.016 C 
ENDROOT
BRANCH   4   8
HETATM    8  C5  UNL     1     -34.718  14.410  -6.590  1.00 20.00     0.266 C 
HETATM    9  O11 UNL     1     -35.457  14.256  -7.554  1.00 20.00    -0.302 OA
ENDBRANCH   4   8
BRANCH   5  10
HETATM   10  C10 UNL     1     -34.040  16.458  -2.019  1.00 20.00     0.005 C 
HETATM   11  C9  UNL     1     -34.590  16.761  -0.666  1.00 20.00     0.006 C 
ENDBRANCH   5  10
TORSDOF 2
ENDMDL
MODEL 5
REMARK VINA RESULT:      -4.2      1.459      2.419
REMARK  2 active torsions:
REMARK  status: ('A' for Active; 'I' for Inactive)
REMARK    1  A    between atoms: C4_4  and  C5_5 
REMARK    2  A    between atoms: C6_6  and  C10_10 
ROOT
HETATM    1  C1  UNL     1     -35.153  15.807  -6.242  1.00 20.00    -0.003 C 
HETATM    2  C2  UNL     1     -36.383  15.660  -5.510  1.00 20.00     0.010 C 
HETATM    3  C3  UNL     1     -33.973  15.901  -5.619  1.00 20.00    -0.021 C 
HETATM    4  C4  UNL     1     -36.386  15.481  -4.181  1.00 20.00    -0.016 C 
HETATM    5  C6  UNL     1     -33.834  15.876  -4.115  1.00 20.00     0.016 C 
HETATM    6  C7  UNL     1     -35.126  15.441  -3.341  1.00 20.00     0.025 C 
HETATM    7  C8  UNL     1     -35.251  16.294  -2.067  1.00 20.00     0.016 C 
ENDROOT
BRANCH   4   8
HETATM    8  C5  UNL     1     -37.698  15.239  -3.571  1.00 20.00     0.266 C 
HETATM    9  O11 UNL     1     -38.330  14.207  -3.754  1.00 20.00    -0.302 OA
ENDBRANCH   4   8
BRANCH   5  10
HETATM   10  C10 UNL     1     -32.651  14.986  -3.715  1.00 20.00     0.005 C 
HETATM   11  C9  UNL     1     -33.053  13.554  -3.622  1.00 20.00     0.006 C 
ENDBRANCH   5  10
TORSDOF 2
ENDMDL
MODEL 6
REMARK VINA RESULT:      -4.2      2.140      3.643
REMARK  2 active torsions:
REMARK  status: ('A' for Active; 'I' for Inactive)
REMARK    1  A    between atoms: C4_4  and  C5_5 
REMARK    2  A    between atoms: C6_6  and  C10_10 
ROOT
HETATM    1  C1  UNL     1     -33.690  13.362  -4.045  1.00 20.00    -0.003 C 
HETATM    2  C2  UNL     1     -33.679  14.402  -3.050  1.00 20.00     0.010 C 
HETATM    3  C3  UNL     1     -34.604  13.335  -5.021  1.00 20.00    -0.021 C 
HETATM    4  C4  UNL     1     -34.505  15.455  -3.134  1.00 20.00    -0.016 C 
HETATM    5  C6  UNL     1     -35.698  14.369  -5.151  1.00 20.00     0.016 C 
HETATM    6  C7  UNL     1     -35.518  15.636  -4.245  1.00 20.00     0.025 C 
HETATM    7  C8  UNL     1     -36.896  16.061  -3.711  1.00 20.00     0.016 C 
ENDROOT
BRANCH   4   8
HETATM    8  C5  UNL     1     -34.322  16.494  -2.115  1.00 20.00     0.266 C 
HETATM    9  O11 UNL     1     -34.660  16.341  -0.948  1.00 20.00    -0.302 OA
ENDBRANCH   4   8
BRANCH   5  10
HETATM   10  C10 UNL     1     -35.851  14.784  -6.619  1.00 20.00     0.005 C 
HETATM   11  C9  UNL     1     -34.535  15.133  -7.228  1.00 20.00     0.006 C 
ENDBRANCH   5  10
TORSDOF 2
ENDMDL
MODEL 7
REMARK VINA RESULT:      -4.2      2.034      2.994
REMARK  2 active torsions:
REMARK  status: ('A' for Active; 'I' for Inactive)
REMARK    1  A    between atoms: C4_4  and  C5_5 
REMARK    2  A    between atoms: C6_6  and  C10_10 
ROOT
HETATM    1  C1  UNL     1     -33.919  16.427  -2.401  1.00 20.00    -0.003 C 
HETATM    2  C2  UNL     1     -34.484  15.181  -2.845  1.00 20.00     0.010 C 
HETATM    3  C3  UNL     1     -33.646  17.419  -3.256  1.00 20.00    -0.021 C 
HETATM    4  C4  UNL     1     -34.881  15.010  -4.115  1.00 20.00    -0.016 C 
HETATM    5  C6  UNL     1     -33.892  17.311  -4.743  1.00 20.00     0.016 C 
HETATM    6  C7  UNL     1     -34.755  16.078  -5.181  1.00 20.00     0.025 C 
HETATM    7  C8  UNL     1     -34.187  15.520  -6.497  1.00 20.00     0.016 C 
ENDROOT
BRANCH   4   8
HETATM    8  C5  UNL     1     -35.536  13.732  -4.413  1.00 20.00     0.266 C 
HETATM    9  O11 UNL     1     -34.964  12.655  -4.301  1.00 20.00    -0.302 OA
ENDBRANCH   4   8
BRANCH   5  10
HETATM   10  C10 UNL     1     -34.520  18.610  -5.263  1.00 20.00     0.005 C 
HETATM   11  C9  UNL     1     -36.004  18.595  -5.117  1.00 20.00     0.006 C 
ENDBRANCH   5  10
TORSDOF 2
ENDMDL
MODEL 8
REMARK VINA RESULT:      -4.1      1.136      2.729
REMARK  2 active torsions:
REMARK  status: ('A' for Active; 'I' for Inactive)
REMARK    1  A    between atoms: C4_4  and  C5_5 
REMARK    2  A    between atoms: C6_6  and  C10_10 
ROOT
HETATM    1  C1  UNL     1     -35.635  16.770  -2.095  1.00 20.00    -0.003 C 
HETATM    2  C2  UNL     1     -36.755  16.163  -2.763  1.00 20.00     0.010 C 
HETATM    3  C3  UNL     1     -34.381  16.356  -2.310  1.00 20.00    -0.021 C 
HETATM    4  C4  UNL     1     -36.578  15.244  -3.725  1.00 20.00    -0.016 C 
HETATM    5  C6  UNL     1     -34.040  15.222  -3.248  1.00 20.00     0.016 C 
HETATM    6  C7  UNL     1     -35.216  14.755  -4.173  1.00 20.00     0.025 C 
HETATM    7  C8  UNL     1     -35.164  13.224  -4.303  1.00 20.00     0.016 C 
ENDROOT
BRANCH   4   8
HETATM    8  C5  UNL     1     -37.796  14.782  -4.398  1.00 20.00     0.266 C 
HETATM    9  O11 UNL     1     -38.685  14.177  -3.812  1.00 20.00    -0.302 OA
ENDBRANCH   4   8
BRANCH   5  10
HETATM   10  C10 UNL     1     -32.816  15.596  -4.094  1.00 20.00     0.005 C 
HETATM   11  C9  UNL     1     -33.180  16.531  -5.196  1.00 20.00     0.006 C 
ENDBRANCH   5  10
TORSDOF 2
ENDMDL
MODEL 9
REMARK VINA RESULT:      -4.1      1.563      3.137
REMARK  2 active torsions:
REMARK  status: ('A' for Active; 'I' for Inactive)
REMARK    1  A    between atoms: C4_4  and  C5_5 
REMARK    2  A    between atoms: C6_6  and  C10_10 
ROOT
HETATM    1  C1  UNL     1     -34.001  17.224  -5.425  1.00 20.00    -0.003 C 
HETATM    2  C2  UNL     1     -35.089  17.797  -4.677  1.00 20.00     0.010 C 
HETATM    3  C3  UNL     1     -33.231  16.256  -4.915  1.00 20.00    -0.021 C 
HETATM    4  C4  UNL     1     -35.456  17.296  -3.488  1.00 20.00    -0.016 C 
HETATM    5  C6  UNL     1     -33.426  15.701  -3.523  1.00 20.00     0.016 C 
HETATM    6  C7  UNL     1     -34.765  16.122  -2.826  1.00 20.00     0.025 C 
HETATM    7  C8  UNL     1     -34.487  16.379  -1.335  1.00 20.00     0.016 C 
ENDROOT
BRANCH   4   8
HETATM    8  C5  UNL     1     -36.645  17.903  -2.879  1.00 20.00     0.266 C 
HETATM    9  O11 UNL     1     -37.745  17.366  -2.901  1.00 20.00    -0.302 OA
ENDBRANCH   4   8
BRANCH   5  10
HETATM   10  C10 UNL     1     -33.301  14.172  -3.550  1.00 20.00     0.005 C 
HETATM   11  C9  UNL     1     -34.556  13.530  -4.034  1.00 20.00     0.006 C 
ENDBRANCH   5  10
TORSDOF 2
ENDMDL
