MODEL 1
REMARK VINA RESULT:      -5.3      0.000      0.000
REMARK  1 active torsions:
REMARK  status: ('A' for Active; 'I' for Inactive)
REMARK    1  A    between atoms: C3_3  and  C8_8 
ROOT
HETATM    1  C1  UNL     1     -33.917  17.514  -1.681  1.00 20.00    -0.028 C 
HETATM    2  C2  UNL     1     -33.808  18.167  -2.849  1.00 20.00    -0.016 C 
HETATM    3  C4  UNL     1     -34.633  16.200  -1.502  1.00 20.00     0.042 C 
HETATM    4  C5  UNL     1     -33.387  16.819  -4.930  1.00 20.00     0.020 C 
HETATM    5  C6  UNL     1     -32.902  15.577  -4.167  1.00 20.00     0.016 C 
HETATM    6  C7  UNL     1     -34.384  17.689  -4.155  1.00 20.00     0.070 C 
HETATM    7  C8  UNL     1     -34.007  14.725  -3.526  1.00 20.00     0.086 C 
HETATM    8  C9  UNL     1     -35.124  15.487  -2.782  1.00 20.00     0.063 C 
HETATM    9  S11 UNL     1     -35.902  16.728  -3.869  1.00 20.00    -0.154 SA
ENDROOT
BRANCH   7  10
HETATM   10  C3  UNL     1     -34.609  13.807  -4.556  1.00 20.00     0.224 C 
HETATM   11  O10 UNL     1     -35.125  12.738  -4.244  1.00 20.00    -0.279 OA
HETATM   12 CL12 UNL     1     -34.469  14.450  -6.164  1.00 20.00    -0.043 Cl
ENDBRANCH   7  10
TORSDOF 1
ENDMDL
MODEL 2
REMARK VINA RESULT:      -5.2      2.846      4.036
REMARK  1 active torsions:
REMARK  status: ('A' for Active; 'I' for Inactive)
REMARK    1  A    between atoms: C3_3  and  C8_8 
ROOT
HETATM    1  C1  UNL     1     -34.427  13.312  -4.896  1.00 20.00    -0.028 C 
HETATM    2  C2  UNL     1     -35.152  14.189  -5.608  1.00 20.00    -0.016 C 
HETATM    3  C4  UNL     1     -33.428  13.693  -3.834  1.00 20.00     0.042 C 
HETATM    4  C5  UNL     1     -36.087  16.199  -4.419  1.00 20.00     0.020 C 
HETATM    5  C6  UNL     1     -35.922  15.592  -3.018  1.00 20.00     0.016 C 
HETATM    6  C7  UNL     1     -35.080  15.685  -5.455  1.00 20.00     0.070 C 
HETATM    7  C8  UNL     1     -34.491  15.603  -2.460  1.00 20.00     0.086 C 
HETATM    8  C9  UNL     1     -33.367  15.184  -3.430  1.00 20.00     0.063 C 
HETATM    9  S11 UNL     1     -33.407  16.193  -4.949  1.00 20.00    -0.154 SA
ENDROOT
BRANCH   7  10
HETATM   10  C3  UNL     1     -34.183  16.951  -1.867  1.00 20.00     0.224 C 
HETATM   11  O10 UNL     1     -33.653  17.840  -2.527  1.00 20.00    -0.279 OA
HETATM   12 CL12 UNL     1     -34.663  17.058  -0.201  1.00 20.00    -0.043 Cl
ENDBRANCH   7  10
TORSDOF 1
ENDMDL
MODEL 3
REMARK VINA RESULT:      -5.2      2.812      3.937
REMARK  1 active torsions:
REMARK  status: ('A' for Active; 'I' for Inactive)
REMARK    1  A    between atoms: C3_3  and  C8_8 
ROOT
HETATM    1  C1  UNL     1     -34.763  13.492  -5.300  1.00 20.00    -0.028 C 
HETATM    2  C2  UNL     1     -34.659  14.536  -6.138  1.00 20.00    -0.016 C 
HETATM    3  C4  UNL     1     -34.571  13.573  -3.808  1.00 20.00     0.042 C 
HETATM    4  C5  UNL     1     -35.603  16.748  -5.402  1.00 20.00     0.020 C 
HETATM    5  C6  UNL     1     -36.486  16.137  -4.303  1.00 20.00     0.016 C 
HETATM    6  C7  UNL     1     -34.336  15.945  -5.716  1.00 20.00     0.070 C 
HETATM    7  C8  UNL     1     -35.751  15.729  -3.018  1.00 20.00     0.086 C 
HETATM    8  C9  UNL     1     -34.411  14.983  -3.195  1.00 20.00     0.063 C 
HETATM    9  S11 UNL     1     -33.266  15.939  -4.244  1.00 20.00    -0.154 SA
ENDROOT
BRANCH   7  10
HETATM   10  C3  UNL     1     -35.556  16.933  -2.136  1.00 20.00     0.224 C 
HETATM   11  O10 UNL     1     -36.076  18.014  -2.396  1.00 20.00    -0.279 OA
HETATM   12 CL12 UNL     1     -34.540  16.584  -0.770  1.00 20.00    -0.043 Cl
ENDBRANCH   7  10
TORSDOF 1
ENDMDL
MODEL 4
REMARK VINA RESULT:      -5.2      2.458      3.984
REMARK  1 active torsions:
REMARK  status: ('A' for Active; 'I' for Inactive)
REMARK    1  A    between atoms: C3_3  and  C8_8 
ROOT
HETATM    1  C1  UNL     1     -34.836  13.488  -5.395  1.00 20.00    -0.028 C 
HETATM    2  C2  UNL     1     -35.380  13.621  -4.175  1.00 20.00    -0.016 C 
HETATM    3  C4  UNL     1     -34.520  14.636  -6.319  1.00 20.00     0.042 C 
HETATM    4  C5  UNL     1     -34.601  15.526  -2.729  1.00 20.00     0.020 C 
HETATM    5  C6  UNL     1     -33.314  15.763  -3.533  1.00 20.00     0.016 C 
HETATM    6  C7  UNL     1     -35.757  14.935  -3.544  1.00 20.00     0.070 C 
HETATM    7  C8  UNL     1     -33.497  16.506  -4.864  1.00 20.00     0.086 C 
HETATM    8  C9  UNL     1     -34.682  16.062  -5.748  1.00 20.00     0.063 C 
HETATM    9  S11 UNL     1     -36.250  16.136  -4.820  1.00 20.00    -0.154 SA
ENDROOT
BRANCH   7  10
HETATM   10  C3  UNL     1     -33.567  17.989  -4.617  1.00 20.00     0.224 C 
HETATM   11  O10 UNL     1     -33.556  18.455  -3.481  1.00 20.00    -0.279 OA
HETATM   12 CL12 UNL     1     -33.661  18.895  -6.096  1.00 20.00    -0.043 Cl
ENDBRANCH   7  10
TORSDOF 1
ENDMDL
MODEL 5
REMARK VINA RESULT:      -5.1      2.633      3.843
REMARK  1 active torsions:
REMARK  status: ('A' for Active; 'I' for Inactive)
REMARK    1  A    between atoms: C3_3  and  C8_8 
ROOT
HETATM    1  C1  UNL     1     -34.111  15.648  -6.247  1.00 20.00    -0.028 C 
HETATM    2  C2  UNL     1     -35.355  15.253  -5.932  1.00 20.00    -0.016 C 
HETATM    3  C4  UNL     1     -33.324  16.681  -5.482  1.00 20.00     0.042 C 
HETATM    4  C5  UNL     1     -35.924  14.947  -3.501  1.00 20.00     0.020 C 
HETATM    5  C6  UNL     1     -34.458  14.870  -3.048  1.00 20.00     0.016 C 
HETATM    6  C7  UNL     1     -36.152  15.779  -4.769  1.00 20.00     0.070 C 
HETATM    7  C8  UNL     1     -33.720  16.215  -2.974  1.00 20.00     0.086 C 
HETATM    8  C9  UNL     1     -33.933  17.186  -4.155  1.00 20.00     0.063 C 
HETATM    9  S11 UNL     1     -35.707  17.510  -4.423  1.00 20.00    -0.154 SA
ENDROOT
BRANCH   7  10
HETATM   10  C3  UNL     1     -34.043  16.905  -1.676  1.00 20.00     0.224 C 
HETATM   11  O10 UNL     1     -34.650  16.334  -0.776  1.00 20.00    -0.279 OA
HETATM   12 CL12 UNL     1     -33.462  18.543  -1.644  1.00 20.00    -0.043 Cl
ENDBRANCH   7  10
TORSDOF 1
ENDMDL
MODEL 6
REMARK VINA RESULT:      -5.1      2.447      3.228
REMARK  1 active torsions:
REMARK  status: ('A' for Active; 'I' for Inactive)
REMARK    1  A    between atoms: C3_3  and  C8_8 
ROOT
HETATM    1  C1  UNL     1     -33.444  13.715  -3.792  1.00 20.00    -0.028 C 
HETATM    2  C2  UNL     1     -32.954  14.964  -3.749  1.00 20.00    -0.016 C 
HETATM    3  C4  UNL     1     -34.865  13.367  -4.150  1.00 20.00     0.042 C 
HETATM    4  C5  UNL     1     -33.672  16.583  -5.536  1.00 20.00     0.020 C 
HETATM    5  C6  UNL     1     -34.162  15.487  -6.495  1.00 20.00     0.016 C 
HETATM    6  C7  UNL     1     -33.749  16.207  -4.052  1.00 20.00     0.070 C 
HETATM    7  C8  UNL     1     -35.522  14.867  -6.146  1.00 20.00     0.086 C 
HETATM    8  C9  UNL     1     -35.762  14.516  -4.662  1.00 20.00     0.063 C 
HETATM    9  S11 UNL     1     -35.496  15.972  -3.597  1.00 20.00    -0.154 SA
ENDROOT
BRANCH   7  10
HETATM   10  C3  UNL     1     -36.632  15.749  -6.652  1.00 20.00     0.224 C 
HETATM   11  O10 UNL     1     -36.415  16.682  -7.418  1.00 20.00    -0.279 OA
HETATM   12 CL12 UNL     1     -38.181  15.276  -6.024  1.00 20.00    -0.043 Cl
ENDBRANCH   7  10
TORSDOF 1
ENDMDL
MODEL 7
REMARK VINA RESULT:      -5.1      2.429      3.933
REMARK  1 active torsions:
REMARK  status: ('A' for Active; 'I' for Inactive)
REMARK    1  A    between atoms: C3_3  and  C8_8 
ROOT
HETATM    1  C1  UNL     1     -34.364  15.132  -6.807  1.00 20.00    -0.028 C 
HETATM    2  C2  UNL     1     -35.009  14.136  -6.179  1.00 20.00    -0.016 C 
HETATM    3  C4  UNL     1     -34.178  16.517  -6.244  1.00 20.00     0.042 C 
HETATM    4  C5  UNL     1     -34.664  13.874  -3.701  1.00 20.00     0.020 C 
HETATM    5  C6  UNL     1     -33.379  14.716  -3.673  1.00 20.00     0.016 C 
HETATM    6  C7  UNL     1     -35.644  14.250  -4.818  1.00 20.00     0.070 C 
HETATM    7  C8  UNL     1     -33.587  16.236  -3.747  1.00 20.00     0.086 C 
HETATM    8  C9  UNL     1     -34.615  16.745  -4.779  1.00 20.00     0.063 C 
HETATM    9  S11 UNL     1     -36.237  15.947  -4.532  1.00 20.00    -0.154 SA
ENDROOT
BRANCH   7  10
HETATM   10  C3  UNL     1     -33.921  16.774  -2.381  1.00 20.00     0.224 C 
HETATM   11  O10 UNL     1     -34.413  16.063  -1.511  1.00 20.00    -0.279 OA
HETATM   12 CL12 UNL     1     -33.528  18.459  -2.228  1.00 20.00    -0.043 Cl
ENDBRANCH   7  10
TORSDOF 1
ENDMDL
MODEL 8
REMARK VINA RESULT:      -5.0      2.154      2.913
REMARK  1 active torsions:
REMARK  status: ('A' for Active; 'I' for Inactive)
REMARK    1  A    between atoms: C3_3  and  C8_8 
ROOT
HETATM    1  C1  UNL     1     -34.888  17.938  -5.901  1.00 20.00    -0.028 C 
HETATM    2  C2  UNL     1     -36.095  17.730  -5.352  1.00 20.00    -0.016 C 
HETATM    3  C4  UNL     1     -33.650  17.146  -5.566  1.00 20.00     0.042 C 
HETATM    4  C5  UNL     1     -36.832  15.356  -4.968  1.00 20.00     0.020 C 
HETATM    5  C6  UNL     1     -35.804  14.757  -5.940  1.00 20.00     0.016 C 
HETATM    6  C7  UNL     1     -36.397  16.676  -4.320  1.00 20.00     0.070 C 
HETATM    7  C8  UNL     1     -34.366  14.672  -5.408  1.00 20.00     0.086 C 
HETATM    8  C9  UNL     1     -33.831  15.910  -4.658  1.00 20.00     0.063 C 
HETATM    9  S11 UNL     1     -34.936  16.365  -3.280  1.00 20.00    -0.154 SA
ENDROOT
BRANCH   7  10
HETATM   10  C3  UNL     1     -34.210  13.444  -4.551  1.00 20.00     0.224 C 
HETATM   11  O10 UNL     1     -35.004  12.510  -4.611  1.00 20.00    -0.279 OA
HETATM   12 CL12 UNL     1     -32.815  13.540  -3.519  1.00 20.00    -0.043 Cl
ENDBRANCH   7  10
TORSDOF 1
ENDMDL
MODEL 9
REMARK VINA RESULT:      -4.9      2.325      3.359
REMARK  1 active torsions:
REMARK  status: ('A' for Active; 'I' for Inactive)
REMARK    1  A    between atoms: C3_3  and  C8_8 
ROOT
HETATM    1  C1  UNL     1     -33.418  16.966  -4.886  1.00 20.00    -0.028 C 
HETATM    2  C2  UNL     1     -33.043  15.779  -4.384  1.00 20.00    -0.016 C 
HETATM    3  C4  UNL     1     -34.706  17.210  -5.629  1.00 20.00     0.042 C 
HETATM    4  C5  UNL     1     -34.796  14.345  -3.290  1.00 20.00     0.020 C 
HETATM    5  C6  UNL     1     -35.789  15.502  -3.100  1.00 20.00     0.016 C 
HETATM    6  C7  UNL     1     -33.850  14.513  -4.485  1.00 20.00     0.070 C 
HETATM    7  C8  UNL     1     -36.553  15.927  -4.363  1.00 20.00     0.086 C 
HETATM    8  C9  UNL     1     -35.728  16.052  -5.661  1.00 20.00     0.063 C 
HETATM    9  S11 UNL     1     -34.833  14.504  -6.016  1.00 20.00    -0.154 SA
ENDROOT
BRANCH   7  10
HETATM   10  C3  UNL     1     -37.726  15.010  -4.585  1.00 20.00     0.224 C 
HETATM   11  O10 UNL     1     -38.086  14.205  -3.731  1.00 20.00    -0.279 OA
HETATM   12 CL12 UNL     1     -38.453  15.245  -6.145  1.00 20.00    -0.043 Cl
ENDBRANCH   7  10
TORSDOF 1
ENDMDL
