MODEL 1
REMARK VINA RESULT:      -3.7      0.000      0.000
REMARK  4 active torsions:
REMARK  status: ('A' for Active; 'I' for Inactive)
REMARK    1  A    between atoms: C4_4  and  C6_6 
REMARK    2  A    between atoms: C4_4  and  N7_7 
REMARK    3  A    between atoms: C5_5  and  C6_6 
REMARK    4  A    between atoms: C5_5  and  O8_8 
ROOT
HETATM    1  C1  UNL     1     -32.114   7.710   2.565  1.00 20.00     0.157 C 
HETATM    2  N7  UNL     1     -32.119   6.898   3.414  1.00 20.00    -0.275 NA
HETATM    3  S9  UNL     1     -32.088   8.826   1.430  1.00 20.00    -0.055 SA
ENDROOT
BRANCH   2   4
HETATM    4  C4  UNL     1     -33.078   5.808   3.220  1.00 20.00     0.157 C 
BRANCH   4   5
HETATM    5  C6  UNL     1     -34.290   5.974   4.144  1.00 20.00     0.025 C 
HETATM    6  C2  UNL     1     -35.606   5.764   3.387  1.00 20.00     0.014 C 
BRANCH   5   7
HETATM    7  C5  UNL     1     -34.199   5.058   5.369  1.00 20.00     0.172 C 
BRANCH   7   8
HETATM    8  O8  UNL     1     -34.531   5.788   6.543  1.00 20.00    -0.396 OA
HETATM    9  C3  UNL     1     -33.773   6.987   6.643  1.00 20.00     0.201 C 
ENDBRANCH   7   8
ENDBRANCH   5   7
ENDBRANCH   4   5
ENDBRANCH   2   4
TORSDOF 4
ENDMDL
MODEL 2
REMARK VINA RESULT:      -3.6      0.796      1.233
REMARK  4 active torsions:
REMARK  status: ('A' for Active; 'I' for Inactive)
REMARK    1  A    between atoms: C4_4  and  C6_6 
REMARK    2  A    between atoms: C4_4  and  N7_7 
REMARK    3  A    between atoms: C5_5  and  C6_6 
REMARK    4  A    between atoms: C5_5  and  O8_8 
ROOT
HETATM    1  C1  UNL     1     -31.990   8.023   2.387  1.00 20.00     0.157 C 
HETATM    2  N7  UNL     1     -31.817   7.325   3.317  1.00 20.00    -0.275 NA
HETATM    3  S9  UNL     1     -32.204   8.988   1.140  1.00 20.00    -0.055 SA
ENDROOT
BRANCH   2   4
HETATM    4  C4  UNL     1     -32.650   6.120   3.346  1.00 20.00     0.157 C 
BRANCH   4   5
HETATM    5  C6  UNL     1     -34.014   6.413   3.982  1.00 20.00     0.025 C 
HETATM    6  C2  UNL     1     -35.132   5.612   3.307  1.00 20.00     0.014 C 
BRANCH   5   7
HETATM    7  C5  UNL     1     -33.995   6.177   5.496  1.00 20.00     0.172 C 
BRANCH   7   8
HETATM    8  O8  UNL     1     -35.049   5.292   5.858  1.00 20.00    -0.396 OA
HETATM    9  C3  UNL     1     -34.566   3.977   6.096  1.00 20.00     0.201 C 
ENDBRANCH   7   8
ENDBRANCH   5   7
ENDBRANCH   4   5
ENDBRANCH   2   4
TORSDOF 4
ENDMDL
MODEL 3
REMARK VINA RESULT:      -3.6     11.139     11.937
REMARK  4 active torsions:
REMARK  status: ('A' for Active; 'I' for Inactive)
REMARK    1  A    between atoms: C4_4  and  C6_6 
REMARK    2  A    between atoms: C4_4  and  N7_7 
REMARK    3  A    between atoms: C5_5  and  C6_6 
REMARK    4  A    between atoms: C5_5  and  O8_8 
ROOT
HETATM    1  C1  UNL     1     -34.779  16.805  -0.618  1.00 20.00     0.157 C 
HETATM    2  N7  UNL     1     -34.737  16.130  -1.578  1.00 20.00    -0.275 NA
HETATM    3  S9  UNL     1     -34.862  17.705   0.692  1.00 20.00    -0.055 SA
ENDROOT
BRANCH   2   4
HETATM    4  C4  UNL     1     -33.611  16.403  -2.474  1.00 20.00     0.157 C 
BRANCH   4   5
HETATM    5  C6  UNL     1     -33.766  15.643  -3.797  1.00 20.00     0.025 C 
HETATM    6  C2  UNL     1     -33.246  16.465  -4.981  1.00 20.00     0.014 C 
BRANCH   5   7
HETATM    7  C5  UNL     1     -33.099  14.264  -3.740  1.00 20.00     0.172 C 
BRANCH   7   8
HETATM    8  O8  UNL     1     -34.068  13.274  -3.420  1.00 20.00    -0.396 OA
HETATM    9  C3  UNL     1     -35.177  13.324  -4.309  1.00 20.00     0.201 C 
ENDBRANCH   7   8
ENDBRANCH   5   7
ENDBRANCH   4   5
ENDBRANCH   2   4
TORSDOF 4
ENDMDL
MODEL 4
REMARK VINA RESULT:      -3.5     11.469     12.532
REMARK  4 active torsions:
REMARK  status: ('A' for Active; 'I' for Inactive)
REMARK    1  A    between atoms: C4_4  and  C6_6 
REMARK    2  A    between atoms: C4_4  and  N7_7 
REMARK    3  A    between atoms: C5_5  and  C6_6 
REMARK    4  A    between atoms: C5_5  and  O8_8 
ROOT
HETATM    1  C1  UNL     1     -35.067  13.583  -5.555  1.00 20.00     0.157 C 
HETATM    2  N7  UNL     1     -34.922  12.968  -4.564  1.00 20.00    -0.275 NA
HETATM    3  S9  UNL     1     -35.280  14.395  -6.907  1.00 20.00    -0.055 SA
ENDROOT
BRANCH   2   4
HETATM    4  C4  UNL     1     -34.058  13.601  -3.566  1.00 20.00     0.157 C 
BRANCH   4   5
HETATM    5  C6  UNL     1     -34.240  15.123  -3.570  1.00 20.00     0.025 C 
HETATM    6  C2  UNL     1     -34.960  15.607  -2.307  1.00 20.00     0.014 C 
BRANCH   5   7
HETATM    7  C5  UNL     1     -32.906  15.853  -3.765  1.00 20.00     0.172 C 
BRANCH   7   8
HETATM    8  O8  UNL     1     -32.835  16.382  -5.083  1.00 20.00    -0.396 OA
HETATM    9  C3  UNL     1     -33.575  17.590  -5.200  1.00 20.00     0.201 C 
ENDBRANCH   7   8
ENDBRANCH   5   7
ENDBRANCH   4   5
ENDBRANCH   2   4
TORSDOF 4
ENDMDL
MODEL 5
REMARK VINA RESULT:      -3.4     11.730     12.530
REMARK  4 active torsions:
REMARK  status: ('A' for Active; 'I' for Inactive)
REMARK    1  A    between atoms: C4_4  and  C6_6 
REMARK    2  A    between atoms: C4_4  and  N7_7 
REMARK    3  A    between atoms: C5_5  and  C6_6 
REMARK    4  A    between atoms: C5_5  and  O8_8 
ROOT
HETATM    1  C1  UNL     1     -33.691  16.499  -5.787  1.00 20.00     0.157 C 
HETATM    2  N7  UNL     1     -33.047  16.634  -4.813  1.00 20.00    -0.275 NA
HETATM    3  S9  UNL     1     -34.539  16.307  -7.120  1.00 20.00    -0.055 SA
ENDROOT
BRANCH   2   4
HETATM    4  C4  UNL     1     -33.777  17.167  -3.660  1.00 20.00     0.157 C 
BRANCH   4   5
HETATM    5  C6  UNL     1     -33.953  16.094  -2.580  1.00 20.00     0.025 C 
HETATM    6  C2  UNL     1     -34.266  16.718  -1.215  1.00 20.00     0.014 C 
BRANCH   5   7
HETATM    7  C5  UNL     1     -35.012  15.059  -2.975  1.00 20.00     0.172 C 
BRANCH   7   8
HETATM    8  O8  UNL     1     -34.380  13.835  -3.329  1.00 20.00    -0.396 OA
HETATM    9  C3  UNL     1     -34.950  13.274  -4.504  1.00 20.00     0.201 C 
ENDBRANCH   7   8
ENDBRANCH   5   7
ENDBRANCH   4   5
ENDBRANCH   2   4
TORSDOF 4
ENDMDL
MODEL 6
REMARK VINA RESULT:      -3.3     11.827     12.533
REMARK  4 active torsions:
REMARK  status: ('A' for Active; 'I' for Inactive)
REMARK    1  A    between atoms: C4_4  and  C6_6 
REMARK    2  A    between atoms: C4_4  and  N7_7 
REMARK    3  A    between atoms: C5_5  and  C6_6 
REMARK    4  A    between atoms: C5_5  and  O8_8 
ROOT
HETATM    1  C1  UNL     1     -33.378  16.983  -5.136  1.00 20.00     0.157 C 
HETATM    2  N7  UNL     1     -32.895  16.098  -4.533  1.00 20.00    -0.275 NA
HETATM    3  S9  UNL     1     -34.005  18.186  -5.968  1.00 20.00    -0.055 SA
ENDROOT
BRANCH   2   4
HETATM    4  C4  UNL     1     -33.776  15.474  -3.543  1.00 20.00     0.157 C 
BRANCH   4   5
HETATM    5  C6  UNL     1     -34.987  14.823  -4.220  1.00 20.00     0.025 C 
HETATM    6  C2  UNL     1     -34.777  13.318  -4.422  1.00 20.00     0.014 C 
BRANCH   5   7
HETATM    7  C5  UNL     1     -36.285  15.106  -3.455  1.00 20.00     0.172 C 
BRANCH   7   8
HETATM    8  O8  UNL     1     -37.279  14.160  -3.827  1.00 20.00    -0.396 OA
HETATM    9  C3  UNL     1     -38.547  14.779  -4.003  1.00 20.00     0.201 C 
ENDBRANCH   7   8
ENDBRANCH   5   7
ENDBRANCH   4   5
ENDBRANCH   2   4
TORSDOF 4
ENDMDL
MODEL 7
REMARK VINA RESULT:      -3.3     11.901     12.635
REMARK  4 active torsions:
REMARK  status: ('A' for Active; 'I' for Inactive)
REMARK    1  A    between atoms: C4_4  and  C6_6 
REMARK    2  A    between atoms: C4_4  and  N7_7 
REMARK    3  A    between atoms: C5_5  and  C6_6 
REMARK    4  A    between atoms: C5_5  and  O8_8 
ROOT
HETATM    1  C1  UNL     1     -34.038  16.913  -2.822  1.00 20.00     0.157 C 
HETATM    2  N7  UNL     1     -33.654  17.198  -3.895  1.00 20.00    -0.275 NA
HETATM    3  S9  UNL     1     -34.564  16.555  -1.363  1.00 20.00    -0.055 SA
ENDROOT
BRANCH   2   4
HETATM    4  C4  UNL     1     -33.159  16.073  -4.692  1.00 20.00     0.157 C 
BRANCH   4   5
HETATM    5  C6  UNL     1     -34.313  15.346  -5.391  1.00 20.00     0.025 C 
HETATM    6  C2  UNL     1     -34.245  15.517  -6.913  1.00 20.00     0.014 C 
BRANCH   5   7
HETATM    7  C5  UNL     1     -34.372  13.866  -4.998  1.00 20.00     0.172 C 
BRANCH   7   8
HETATM    8  O8  UNL     1     -35.247  13.696  -3.890  1.00 20.00    -0.396 OA
HETATM    9  C3  UNL     1     -36.472  14.392  -4.082  1.00 20.00     0.201 C 
ENDBRANCH   7   8
ENDBRANCH   5   7
ENDBRANCH   4   5
ENDBRANCH   2   4
TORSDOF 4
ENDMDL
MODEL 8
REMARK VINA RESULT:      -3.3     11.527     12.686
REMARK  4 active torsions:
REMARK  status: ('A' for Active; 'I' for Inactive)
REMARK    1  A    between atoms: C4_4  and  C6_6 
REMARK    2  A    between atoms: C4_4  and  N7_7 
REMARK    3  A    between atoms: C5_5  and  C6_6 
REMARK    4  A    between atoms: C5_5  and  O8_8 
ROOT
HETATM    1  C1  UNL     1     -34.379  17.041  -0.764  1.00 20.00     0.157 C 
HETATM    2  N7  UNL     1     -33.834  16.628  -1.719  1.00 20.00    -0.275 NA
HETATM    3  S9  UNL     1     -35.092  17.617   0.538  1.00 20.00    -0.055 SA
ENDROOT
BRANCH   2   4
HETATM    4  C4  UNL     1     -34.627  15.699  -2.528  1.00 20.00     0.157 C 
BRANCH   4   5
HETATM    5  C6  UNL     1     -33.768  15.052  -3.620  1.00 20.00     0.025 C 
HETATM    6  C2  UNL     1     -34.044  13.549  -3.735  1.00 20.00     0.014 C 
BRANCH   5   7
HETATM    7  C5  UNL     1     -33.942  15.756  -4.970  1.00 20.00     0.172 C 
BRANCH   7   8
HETATM    8  O8  UNL     1     -32.948  16.762  -5.121  1.00 20.00    -0.396 OA
HETATM    9  C3  UNL     1     -33.527  18.055  -5.238  1.00 20.00     0.201 C 
ENDBRANCH   7   8
ENDBRANCH   5   7
ENDBRANCH   4   5
ENDBRANCH   2   4
TORSDOF 4
ENDMDL
MODEL 9
REMARK VINA RESULT:      -3.3     11.616     12.122
REMARK  4 active torsions:
REMARK  status: ('A' for Active; 'I' for Inactive)
REMARK    1  A    between atoms: C4_4  and  C6_6 
REMARK    2  A    between atoms: C4_4  and  N7_7 
REMARK    3  A    between atoms: C5_5  and  C6_6 
REMARK    4  A    between atoms: C5_5  and  O8_8 
ROOT
HETATM    1  C1  UNL     1     -35.330  14.570  -6.781  1.00 20.00     0.157 C 
HETATM    2  N7  UNL     1     -34.513  14.335  -5.970  1.00 20.00    -0.275 NA
HETATM    3  S9  UNL     1     -36.416  14.907  -7.894  1.00 20.00    -0.055 SA
ENDROOT
BRANCH   2   4
HETATM    4  C4  UNL     1     -34.954  13.450  -4.890  1.00 20.00     0.157 C 
BRANCH   4   5
HETATM    5  C6  UNL     1     -34.385  13.905  -3.541  1.00 20.00     0.025 C 
HETATM    6  C2  UNL     1     -32.859  14.044  -3.594  1.00 20.00     0.014 C 
BRANCH   5   7
HETATM    7  C5  UNL     1     -35.046  15.198  -3.054  1.00 20.00     0.172 C 
BRANCH   7   8
HETATM    8  O8  UNL     1     -34.092  15.997  -2.364  1.00 20.00    -0.396 OA
HETATM    9  C3  UNL     1     -34.639  16.551  -1.175  1.00 20.00     0.201 C 
ENDBRANCH   7   8
ENDBRANCH   5   7
ENDBRANCH   4   5
ENDBRANCH   2   4
TORSDOF 4
ENDMDL
