MODEL 1
REMARK VINA RESULT:      -4.8      0.000      0.000
REMARK  0 active torsions:
REMARK  status: ('A' for Active; 'I' for Inactive)
ROOT
HETATM    1  C1  UNL     1     -33.923  15.839  -5.677  1.00 20.00     0.022 A 
HETATM    2  C2  UNL     1     -34.423  13.643  -3.509  1.00 20.00     0.120 C 
HETATM    3  C3  UNL     1     -34.865  13.664  -5.756  1.00 20.00     0.101 C 
HETATM    4  C4  UNL     1     -35.060  15.140  -5.737  1.00 20.00     0.025 A 
HETATM    5  C5  UNL     1     -34.529  14.982  -3.376  1.00 20.00    -0.048 C 
HETATM    6  C6  UNL     1     -33.813  17.029  -1.956  1.00 20.00     0.014 A 
HETATM    7  C7  UNL     1     -35.391  17.166  -4.069  1.00 20.00     0.021 C 
HETATM    8  C8  UNL     1     -34.627  15.778  -2.137  1.00 20.00     0.021 A 
HETATM    9  C9  UNL     1     -35.189  17.130  -2.561  1.00 20.00    -0.005 A 
HETATM   10  C10 UNL     1     -34.778  15.882  -4.526  1.00 20.00     0.004 A 
HETATM   11  N11 UNL     1     -34.539  12.958  -4.709  1.00 20.00    -0.276 NA
ENDROOT
TORSDOF 0
ENDMDL
MODEL 2
REMARK VINA RESULT:      -4.8      1.496      3.479
REMARK  0 active torsions:
REMARK  status: ('A' for Active; 'I' for Inactive)
ROOT
HETATM    1  C1  UNL     1     -34.440  16.278  -4.230  1.00 20.00     0.022 A 
HETATM    2  C2  UNL     1     -34.474  13.231  -4.932  1.00 20.00     0.120 C 
HETATM    3  C3  UNL     1     -33.097  14.442  -3.560  1.00 20.00     0.101 C 
HETATM    4  C4  UNL     1     -33.269  15.656  -4.404  1.00 20.00     0.025 A 
HETATM    5  C5  UNL     1     -34.744  14.275  -5.744  1.00 20.00    -0.048 C 
HETATM    6  C6  UNL     1     -36.459  15.263  -7.419  1.00 20.00     0.014 A 
HETATM    7  C7  UNL     1     -34.183  16.430  -6.763  1.00 20.00     0.021 C 
HETATM    8  C8  UNL     1     -35.390  14.264  -7.072  1.00 20.00     0.021 A 
HETATM    9  C9  UNL     1     -35.021  15.594  -7.719  1.00 20.00    -0.005 A 
HETATM   10  C10 UNL     1     -34.221  15.639  -5.496  1.00 20.00     0.004 A 
HETATM   11  N11 UNL     1     -33.685  13.302  -3.794  1.00 20.00    -0.276 NA
ENDROOT
TORSDOF 0
ENDMDL
MODEL 3
REMARK VINA RESULT:      -4.8      1.249      2.930
REMARK  0 active torsions:
REMARK  status: ('A' for Active; 'I' for Inactive)
ROOT
HETATM    1  C1  UNL     1     -34.073  15.667  -3.198  1.00 20.00     0.022 A 
HETATM    2  C2  UNL     1     -34.940  13.755  -5.515  1.00 20.00     0.120 C 
HETATM    3  C3  UNL     1     -33.509  13.432  -3.756  1.00 20.00     0.101 C 
HETATM    4  C4  UNL     1     -33.145  14.875  -3.745  1.00 20.00     0.025 A 
HETATM    5  C5  UNL     1     -34.725  15.086  -5.571  1.00 20.00    -0.048 C 
HETATM    6  C6  UNL     1     -35.730  17.360  -6.306  1.00 20.00     0.014 A 
HETATM    7  C7  UNL     1     -33.351  17.077  -5.196  1.00 20.00     0.021 C 
HETATM    8  C8  UNL     1     -35.105  16.034  -6.638  1.00 20.00     0.021 A 
HETATM    9  C9  UNL     1     -34.232  17.265  -6.423  1.00 20.00    -0.005 A 
HETATM   10  C10 UNL     1     -33.852  15.797  -4.610  1.00 20.00     0.004 A 
HETATM   11  N11 UNL     1     -34.376  12.905  -4.576  1.00 20.00    -0.276 NA
ENDROOT
TORSDOF 0
ENDMDL
MODEL 4
REMARK VINA RESULT:      -4.7      1.920      3.886
REMARK  0 active torsions:
REMARK  status: ('A' for Active; 'I' for Inactive)
ROOT
HETATM    1  C1  UNL     1     -33.582  16.278  -2.963  1.00 20.00     0.022 A 
HETATM    2  C2  UNL     1     -36.652  16.549  -3.491  1.00 20.00     0.120 C 
HETATM    3  C3  UNL     1     -35.383  17.127  -1.675  1.00 20.00     0.101 C 
HETATM    4  C4  UNL     1     -34.421  16.025  -1.954  1.00 20.00     0.025 A 
HETATM    5  C5  UNL     1     -35.827  15.550  -3.872  1.00 20.00    -0.048 C 
HETATM    6  C6  UNL     1     -35.030  14.116  -5.879  1.00 20.00     0.014 A 
HETATM    7  C7  UNL     1     -34.147  13.831  -3.407  1.00 20.00     0.021 C 
HETATM    8  C8  UNL     1     -36.074  14.481  -4.860  1.00 20.00     0.021 A 
HETATM    9  C9  UNL     1     -35.046  13.397  -4.555  1.00 20.00    -0.005 A 
HETATM   10  C10 UNL     1     -34.559  15.248  -3.169  1.00 20.00     0.004 A 
HETATM   11  N11 UNL     1     -36.423  17.392  -2.414  1.00 20.00    -0.276 NA
ENDROOT
TORSDOF 0
ENDMDL
MODEL 5
REMARK VINA RESULT:      -4.7     11.263     12.575
REMARK  0 active torsions:
REMARK  status: ('A' for Active; 'I' for Inactive)
ROOT
HETATM    1  C1  UNL     1     -41.545   4.556  -0.202  1.00 20.00     0.022 A 
HETATM    2  C2  UNL     1     -42.986   4.978  -2.945  1.00 20.00     0.120 C 
HETATM    3  C3  UNL     1     -41.414   3.445  -2.293  1.00 20.00     0.101 C 
HETATM    4  C4  UNL     1     -40.829   4.409  -1.321  1.00 20.00     0.025 A 
HETATM    5  C5  UNL     1     -42.573   5.918  -2.068  1.00 20.00    -0.048 C 
HETATM    6  C6  UNL     1     -43.292   8.013  -0.721  1.00 20.00     0.014 A 
HETATM    7  C7  UNL     1     -40.867   6.971  -0.663  1.00 20.00     0.021 C 
HETATM    8  C8  UNL     1     -42.930   7.350  -2.021  1.00 20.00     0.021 A 
HETATM    9  C9  UNL     1     -41.854   8.013  -1.168  1.00 20.00    -0.005 A 
HETATM   10  C10 UNL     1     -41.485   5.680  -1.092  1.00 20.00     0.004 A 
HETATM   11  N11 UNL     1     -42.449   3.703  -3.043  1.00 20.00    -0.276 NA
ENDROOT
TORSDOF 0
ENDMDL
MODEL 6
REMARK VINA RESULT:      -4.6      1.436      2.238
REMARK  0 active torsions:
REMARK  status: ('A' for Active; 'I' for Inactive)
ROOT
HETATM    1  C1  UNL     1     -34.841  13.457  -4.439  1.00 20.00     0.022 A 
HETATM    2  C2  UNL     1     -36.368  16.117  -5.048  1.00 20.00     0.120 C 
HETATM    3  C3  UNL     1     -35.649  14.445  -6.438  1.00 20.00     0.101 C 
HETATM    4  C4  UNL     1     -34.504  14.143  -5.536  1.00 20.00     0.025 A 
HETATM    5  C5  UNL     1     -35.400  15.904  -4.132  1.00 20.00    -0.048 C 
HETATM    6  C6  UNL     1     -34.755  16.179  -1.636  1.00 20.00     0.014 A 
HETATM    7  C7  UNL     1     -33.175  15.127  -3.471  1.00 20.00     0.021 C 
HETATM    8  C8  UNL     1     -35.003  16.764  -2.999  1.00 20.00     0.021 A 
HETATM    9  C9  UNL     1     -33.606  16.300  -2.603  1.00 20.00    -0.005 A 
HETATM   10  C10 UNL     1     -34.408  14.812  -4.255  1.00 20.00     0.004 A 
HETATM   11  N11 UNL     1     -36.545  15.360  -6.197  1.00 20.00    -0.276 NA
ENDROOT
TORSDOF 0
ENDMDL
MODEL 7
REMARK VINA RESULT:      -4.6      1.709      2.686
REMARK  0 active torsions:
REMARK  status: ('A' for Active; 'I' for Inactive)
ROOT
HETATM    1  C1  UNL     1     -34.426  15.787  -2.313  1.00 20.00     0.022 A 
HETATM    2  C2  UNL     1     -34.957  13.332  -4.175  1.00 20.00     0.120 C 
HETATM    3  C3  UNL     1     -33.009  14.398  -3.611  1.00 20.00     0.101 C 
HETATM    4  C4  UNL     1     -33.727  15.692  -3.448  1.00 20.00     0.025 A 
HETATM    5  C5  UNL     1     -35.720  14.433  -4.012  1.00 20.00    -0.048 C 
HETATM    6  C6  UNL     1     -38.115  15.290  -3.505  1.00 20.00     0.014 A 
HETATM    7  C7  UNL     1     -36.043  16.860  -3.968  1.00 20.00     0.021 C 
HETATM    8  C8  UNL     1     -37.118  14.653  -4.434  1.00 20.00     0.021 A 
HETATM    9  C9  UNL     1     -37.314  16.165  -4.433  1.00 20.00    -0.005 A 
HETATM   10  C10 UNL     1     -35.172  15.724  -3.537  1.00 20.00     0.004 A 
HETATM   11  N11 UNL     1     -33.593  13.277  -3.931  1.00 20.00    -0.276 NA
ENDROOT
TORSDOF 0
ENDMDL
MODEL 8
REMARK VINA RESULT:      -4.5      1.664      2.805
REMARK  0 active torsions:
REMARK  status: ('A' for Active; 'I' for Inactive)
ROOT
HETATM    1  C1  UNL     1     -35.724  15.564  -2.992  1.00 20.00     0.022 A 
HETATM    2  C2  UNL     1     -33.438  17.173  -4.394  1.00 20.00     0.120 C 
HETATM    3  C3  UNL     1     -33.991  14.952  -4.491  1.00 20.00     0.101 C 
HETATM    4  C4  UNL     1     -34.522  14.990  -3.101  1.00 20.00     0.025 A 
HETATM    5  C5  UNL     1     -33.930  17.341  -3.148  1.00 20.00    -0.048 C 
HETATM    6  C6  UNL     1     -34.893  19.067  -1.471  1.00 20.00     0.014 A 
HETATM    7  C7  UNL     1     -34.551  16.505  -0.933  1.00 20.00     0.021 C 
HETATM    8  C8  UNL     1     -33.735  18.479  -2.229  1.00 20.00     0.021 A 
HETATM    9  C9  UNL     1     -34.095  17.954  -0.844  1.00 20.00    -0.005 A 
HETATM   10  C10 UNL     1     -34.613  16.257  -2.405  1.00 20.00     0.004 A 
HETATM   11  N11 UNL     1     -33.501  15.988  -5.112  1.00 20.00    -0.276 NA
ENDROOT
TORSDOF 0
ENDMDL
MODEL 9
REMARK VINA RESULT:      -4.5      2.043      3.538
REMARK  0 active torsions:
REMARK  status: ('A' for Active; 'I' for Inactive)
ROOT
HETATM    1  C1  UNL     1     -33.575  17.135  -4.757  1.00 20.00     0.022 A 
HETATM    2  C2  UNL     1     -36.223  16.256  -3.345  1.00 20.00     0.120 C 
HETATM    3  C3  UNL     1     -34.971  18.162  -3.138  1.00 20.00     0.101 C 
HETATM    4  C4  UNL     1     -33.723  17.416  -3.459  1.00 20.00     0.025 A 
HETATM    5  C5  UNL     1     -35.171  15.486  -3.694  1.00 20.00    -0.048 C 
HETATM    6  C6  UNL     1     -34.450  13.330  -4.940  1.00 20.00     0.014 A 
HETATM    7  C7  UNL     1     -32.781  14.956  -3.697  1.00 20.00     0.021 C 
HETATM    8  C8  UNL     1     -35.094  14.013  -3.765  1.00 20.00     0.021 A 
HETATM    9  C9  UNL     1     -33.607  13.679  -3.741  1.00 20.00    -0.005 A 
HETATM   10  C10 UNL     1     -33.805  16.030  -3.871  1.00 20.00     0.004 A 
HETATM   11  N11 UNL     1     -36.156  17.621  -3.108  1.00 20.00    -0.276 NA
ENDROOT
TORSDOF 0
ENDMDL
