MODEL 1
REMARK VINA RESULT:      -4.6      0.000      0.000
REMARK  2 active torsions:
REMARK  status: ('A' for Active; 'I' for Inactive)
REMARK    1  A    between atoms: C3_3  and  C8_8 
REMARK    2  A    between atoms: C8_8  and  C10_10 
ROOT
HETATM    1  C1  UNL     1     -34.133  17.056  -2.761  1.00 20.00    -0.026 C 
HETATM    2  C2  UNL     1     -34.481  15.918  -2.142  1.00 20.00    -0.024 C 
HETATM    3  C4  UNL     1     -32.923  15.359  -3.738  1.00 20.00     0.018 C 
HETATM    4  C5  UNL     1     -34.770  16.189  -4.999  1.00 20.00     0.025 C 
HETATM    5  C6  UNL     1     -33.592  16.680  -4.120  1.00 20.00     0.010 C 
HETATM    6  C7  UNL     1     -34.202  14.783  -3.105  1.00 20.00     0.024 C 
HETATM    7  C8  UNL     1     -35.210  14.864  -4.292  1.00 20.00     0.020 C 
ENDROOT
BRANCH   7   8
HETATM    8  C3  UNL     1     -34.999  13.670  -5.190  1.00 20.00     0.241 C 
HETATM    9  O11 UNL     1     -34.819  12.532  -4.769  1.00 20.00    -0.306 OA
ENDBRANCH   7   8
BRANCH   7  10
HETATM   10  C10 UNL     1     -36.682  14.873  -3.881  1.00 20.00     0.013 C 
HETATM   11  C9  UNL     1     -37.413  16.029  -4.478  1.00 20.00     0.006 C 
ENDBRANCH   7  10
TORSDOF 2
ENDMDL
MODEL 2
REMARK VINA RESULT:      -4.5      1.783      3.449
REMARK  2 active torsions:
REMARK  status: ('A' for Active; 'I' for Inactive)
REMARK    1  A    between atoms: C3_3  and  C8_8 
REMARK    2  A    between atoms: C8_8  and  C10_10 
ROOT
HETATM    1  C1  UNL     1     -34.216  15.600  -7.028  1.00 20.00    -0.026 C 
HETATM    2  C2  UNL     1     -35.035  14.541  -7.107  1.00 20.00    -0.024 C 
HETATM    3  C4  UNL     1     -36.291  16.298  -6.317  1.00 20.00     0.018 C 
HETATM    4  C5  UNL     1     -34.667  15.936  -4.609  1.00 20.00     0.025 C 
HETATM    5  C6  UNL     1     -34.813  16.555  -6.021  1.00 20.00     0.010 C 
HETATM    6  C7  UNL     1     -36.164  14.777  -6.126  1.00 20.00     0.024 C 
HETATM    7  C8  UNL     1     -35.604  14.684  -4.673  1.00 20.00     0.020 C 
ENDROOT
BRANCH   7   8
HETATM    8  C3  UNL     1     -36.751  14.810  -3.702  1.00 20.00     0.241 C 
HETATM    9  O11 UNL     1     -37.789  14.163  -3.794  1.00 20.00    -0.306 OA
ENDBRANCH   7   8
BRANCH   7  10
HETATM   10  C10 UNL     1     -34.873  13.380  -4.352  1.00 20.00     0.013 C 
HETATM   11  C9  UNL     1     -33.513  13.635  -3.795  1.00 20.00     0.006 C 
ENDBRANCH   7  10
TORSDOF 2
ENDMDL
MODEL 3
REMARK VINA RESULT:      -4.5      1.238      1.971
REMARK  2 active torsions:
REMARK  status: ('A' for Active; 'I' for Inactive)
REMARK    1  A    between atoms: C3_3  and  C8_8 
REMARK    2  A    between atoms: C8_8  and  C10_10 
ROOT
HETATM    1  C1  UNL     1     -34.925  17.781  -3.553  1.00 20.00    -0.026 C 
HETATM    2  C2  UNL     1     -36.018  17.006  -3.604  1.00 20.00    -0.024 C 
HETATM    3  C4  UNL     1     -34.562  16.007  -2.131  1.00 20.00     0.018 C 
HETATM    4  C5  UNL     1     -33.415  15.926  -4.220  1.00 20.00     0.025 C 
HETATM    5  C6  UNL     1     -33.781  16.913  -3.084  1.00 20.00     0.010 C 
HETATM    6  C7  UNL     1     -35.594  15.610  -3.201  1.00 20.00     0.024 C 
HETATM    7  C8  UNL     1     -34.683  15.012  -4.316  1.00 20.00     0.020 C 
ENDROOT
BRANCH   7   8
HETATM    8  C3  UNL     1     -34.353  13.584  -3.961  1.00 20.00     0.241 C 
HETATM    9  O11 UNL     1     -35.002  12.622  -4.360  1.00 20.00    -0.306 OA
ENDBRANCH   7   8
BRANCH   7  10
HETATM   10  C10 UNL     1     -35.303  15.006  -5.713  1.00 20.00     0.013 C 
HETATM   11  C9  UNL     1     -34.287  15.295  -6.768  1.00 20.00     0.006 C 
ENDBRANCH   7  10
TORSDOF 2
ENDMDL
MODEL 4
REMARK VINA RESULT:      -4.5      1.200      2.629
REMARK  2 active torsions:
REMARK  status: ('A' for Active; 'I' for Inactive)
REMARK    1  A    between atoms: C3_3  and  C8_8 
REMARK    2  A    between atoms: C8_8  and  C10_10 
ROOT
HETATM    1  C1  UNL     1     -34.971  17.524  -5.562  1.00 20.00    -0.026 C 
HETATM    2  C2  UNL     1     -33.672  17.230  -5.401  1.00 20.00    -0.024 C 
HETATM    3  C4  UNL     1     -34.621  15.464  -6.528  1.00 20.00     0.018 C 
HETATM    4  C5  UNL     1     -35.719  15.454  -4.411  1.00 20.00     0.025 C 
HETATM    5  C6  UNL     1     -35.706  16.219  -5.759  1.00 20.00     0.010 C 
HETATM    6  C7  UNL     1     -33.546  15.723  -5.458  1.00 20.00     0.024 C 
HETATM    7  C8  UNL     1     -34.209  15.108  -4.187  1.00 20.00     0.020 C 
ENDROOT
BRANCH   7   8
HETATM    8  C3  UNL     1     -33.984  13.616  -4.195  1.00 20.00     0.241 C 
HETATM    9  O11 UNL     1     -34.896  12.796  -4.225  1.00 20.00    -0.306 OA
ENDBRANCH   7   8
BRANCH   7  10
HETATM   10  C10 UNL     1     -33.669  15.646  -2.861  1.00 20.00     0.013 C 
HETATM   11  C9  UNL     1     -34.771  16.070  -1.950  1.00 20.00     0.006 C 
ENDBRANCH   7  10
TORSDOF 2
ENDMDL
MODEL 5
REMARK VINA RESULT:      -4.4      1.469      2.565
REMARK  2 active torsions:
REMARK  status: ('A' for Active; 'I' for Inactive)
REMARK    1  A    between atoms: C3_3  and  C8_8 
REMARK    2  A    between atoms: C8_8  and  C10_10 
ROOT
HETATM    1  C1  UNL     1     -33.086  15.421  -4.009  1.00 20.00    -0.026 C 
HETATM    2  C2  UNL     1     -33.762  16.535  -4.325  1.00 20.00    -0.024 C 
HETATM    3  C4  UNL     1     -34.794  15.630  -2.480  1.00 20.00     0.018 C 
HETATM    4  C5  UNL     1     -35.105  13.986  -4.179  1.00 20.00     0.025 C 
HETATM    5  C6  UNL     1     -34.021  14.537  -3.219  1.00 20.00     0.010 C 
HETATM    6  C7  UNL     1     -35.163  16.377  -3.773  1.00 20.00     0.024 C 
HETATM    7  C8  UNL     1     -35.907  15.269  -4.580  1.00 20.00     0.020 C 
ENDROOT
BRANCH   7   8
HETATM    8  C3  UNL     1     -37.335  15.194  -4.098  1.00 20.00     0.241 C 
HETATM    9  O11 UNL     1     -37.878  14.148  -3.757  1.00 20.00    -0.306 OA
ENDBRANCH   7   8
BRANCH   7  10
HETATM   10  C10 UNL     1     -35.945  15.496  -6.091  1.00 20.00     0.013 C 
HETATM   11  C9  UNL     1     -35.382  14.331  -6.836  1.00 20.00     0.006 C 
ENDBRANCH   7  10
TORSDOF 2
ENDMDL
MODEL 6
REMARK VINA RESULT:      -4.3      2.157      3.352
REMARK  2 active torsions:
REMARK  status: ('A' for Active; 'I' for Inactive)
REMARK    1  A    between atoms: C3_3  and  C8_8 
REMARK    2  A    between atoms: C8_8  and  C10_10 
ROOT
HETATM    1  C1  UNL     1     -35.195  13.272  -4.137  1.00 20.00    -0.026 C 
HETATM    2  C2  UNL     1     -33.921  13.586  -4.417  1.00 20.00    -0.024 C 
HETATM    3  C4  UNL     1     -34.773  15.316  -3.165  1.00 20.00     0.018 C 
HETATM    4  C5  UNL     1     -36.073  15.356  -5.164  1.00 20.00     0.025 C 
HETATM    5  C6  UNL     1     -35.920  14.564  -3.841  1.00 20.00     0.010 C 
HETATM    6  C7  UNL     1     -33.806  15.093  -4.341  1.00 20.00     0.024 C 
HETATM    7  C8  UNL     1     -34.596  15.725  -5.528  1.00 20.00     0.020 C 
ENDROOT
BRANCH   7   8
HETATM    8  C3  UNL     1     -34.387  17.219  -5.510  1.00 20.00     0.241 C 
HETATM    9  O11 UNL     1     -33.297  17.746  -5.310  1.00 20.00    -0.306 OA
ENDBRANCH   7   8
BRANCH   7  10
HETATM   10  C10 UNL     1     -34.183  15.222  -6.911  1.00 20.00     0.013 C 
HETATM   11  C9  UNL     1     -35.341  14.645  -7.655  1.00 20.00     0.006 C 
ENDBRANCH   7  10
TORSDOF 2
ENDMDL
MODEL 7
REMARK VINA RESULT:      -4.3      2.005      3.470
REMARK  2 active torsions:
REMARK  status: ('A' for Active; 'I' for Inactive)
REMARK    1  A    between atoms: C3_3  and  C8_8 
REMARK    2  A    between atoms: C8_8  and  C10_10 
ROOT
HETATM    1  C1  UNL     1     -35.409  13.344  -4.176  1.00 20.00    -0.026 C 
HETATM    2  C2  UNL     1     -36.254  14.381  -4.270  1.00 20.00    -0.024 C 
HETATM    3  C4  UNL     1     -34.452  14.867  -5.613  1.00 20.00     0.018 C 
HETATM    4  C5  UNL     1     -33.528  14.775  -3.416  1.00 20.00     0.025 C 
HETATM    5  C6  UNL     1     -34.035  13.849  -4.550  1.00 20.00     0.010 C 
HETATM    6  C7  UNL     1     -35.435  15.588  -4.675  1.00 20.00     0.024 C 
HETATM    7  C8  UNL     1     -34.507  15.994  -3.490  1.00 20.00     0.020 C 
ENDROOT
BRANCH   7   8
HETATM    8  C3  UNL     1     -33.775  17.261  -3.859  1.00 20.00     0.241 C 
HETATM    9  O11 UNL     1     -34.316  18.221  -4.397  1.00 20.00    -0.306 OA
ENDBRANCH   7   8
BRANCH   7  10
HETATM   10  C10 UNL     1     -35.232  16.252  -2.169  1.00 20.00     0.013 C 
HETATM   11  C9  UNL     1     -34.291  16.713  -1.106  1.00 20.00     0.006 C 
ENDBRANCH   7  10
TORSDOF 2
ENDMDL
MODEL 8
REMARK VINA RESULT:      -4.3      1.546      1.906
REMARK  2 active torsions:
REMARK  status: ('A' for Active; 'I' for Inactive)
REMARK    1  A    between atoms: C3_3  and  C8_8 
REMARK    2  A    between atoms: C8_8  and  C10_10 
ROOT
HETATM    1  C1  UNL     1     -33.732  15.988  -2.628  1.00 20.00    -0.026 C 
HETATM    2  C2  UNL     1     -34.969  15.477  -2.712  1.00 20.00    -0.024 C 
HETATM    3  C4  UNL     1     -33.564  14.000  -3.776  1.00 20.00     0.018 C 
HETATM    4  C5  UNL     1     -33.420  15.983  -5.092  1.00 20.00     0.025 C 
HETATM    5  C6  UNL     1     -32.921  15.387  -3.752  1.00 20.00     0.010 C 
HETATM    6  C7  UNL     1     -34.991  14.558  -3.915  1.00 20.00     0.024 C 
HETATM    7  C8  UNL     1     -34.873  15.415  -5.212  1.00 20.00     0.020 C 
ENDROOT
BRANCH   7   8
HETATM    8  C3  UNL     1     -35.006  14.505  -6.409  1.00 20.00     0.241 C 
HETATM    9  O11 UNL     1     -34.446  14.713  -7.480  1.00 20.00    -0.306 OA
ENDBRANCH   7   8
BRANCH   7  10
HETATM   10  C10 UNL     1     -35.928  16.512  -5.352  1.00 20.00     0.013 C 
HETATM   11  C9  UNL     1     -35.308  17.838  -5.644  1.00 20.00     0.006 C 
ENDBRANCH   7  10
TORSDOF 2
ENDMDL
MODEL 9
REMARK VINA RESULT:      -4.2      1.922      3.160
REMARK  2 active torsions:
REMARK  status: ('A' for Active; 'I' for Inactive)
REMARK    1  A    between atoms: C3_3  and  C8_8 
REMARK    2  A    between atoms: C8_8  and  C10_10 
ROOT
HETATM    1  C1  UNL     1     -35.092  14.038  -5.640  1.00 20.00    -0.026 C 
HETATM    2  C2  UNL     1     -34.170  15.002  -5.779  1.00 20.00    -0.024 C 
HETATM    3  C4  UNL     1     -33.629  13.831  -3.875  1.00 20.00     0.018 C 
HETATM    4  C5  UNL     1     -35.746  14.805  -3.371  1.00 20.00     0.025 C 
HETATM    5  C6  UNL     1     -35.116  13.646  -4.182  1.00 20.00     0.010 C 
HETATM    6  C7  UNL     1     -33.602  15.276  -4.402  1.00 20.00     0.024 C 
HETATM    7  C8  UNL     1     -34.697  15.956  -3.525  1.00 20.00     0.020 C 
ENDROOT
BRANCH   7   8
HETATM    8  C3  UNL     1     -34.092  16.326  -2.193  1.00 20.00     0.241 C 
HETATM    9  O11 UNL     1     -34.697  16.238  -1.130  1.00 20.00    -0.306 OA
ENDBRANCH   7   8
BRANCH   7  10
HETATM   10  C10 UNL     1     -35.297  17.228  -4.125  1.00 20.00     0.013 C 
HETATM   11  C9  UNL     1     -36.787  17.165  -4.170  1.00 20.00     0.006 C 
ENDBRANCH   7  10
TORSDOF 2
ENDMDL
