MODEL 1
REMARK VINA RESULT:      -5.2      0.000      0.000
REMARK  1 active torsions:
REMARK  status: ('A' for Active; 'I' for Inactive)
REMARK    1  A    between atoms: C3_3  and  C8_8 
ROOT
HETATM    1  C1  UNL     1     -34.116  15.714  -6.526  1.00 20.00    -0.029 C 
HETATM    2  C2  UNL     1     -33.367  16.408  -5.662  1.00 20.00    -0.030 C 
HETATM    3  C4  UNL     1     -35.387  15.005  -6.183  1.00 20.00     0.045 C 
HETATM    4  C5  UNL     1     -33.678  16.546  -4.208  1.00 20.00     0.037 C 
HETATM    5  C6  UNL     1     -35.027  13.332  -4.244  1.00 20.00     0.019 C 
HETATM    6  C7  UNL     1     -33.734  13.984  -3.745  1.00 20.00     0.012 C 
HETATM    7  C8  UNL     1     -35.567  14.743  -4.673  1.00 20.00     0.031 C 
HETATM    8  C9  UNL     1     -34.479  15.352  -3.681  1.00 20.00    -0.026 C 
HETATM    9  C11 UNL     1     -34.968  15.642  -2.253  1.00 20.00     0.016 C 
ENDROOT
BRANCH   7  10
HETATM   10  C3  UNL     1     -37.061  14.996  -4.277  1.00 20.00     0.132 C 
HETATM   11  C10 UNL     1     -37.654  16.319  -4.679  1.00 20.00     0.091 C 
HETATM   12  O12 UNL     1     -37.719  14.152  -3.668  1.00 20.00    -0.298 OA
ENDBRANCH   7  10
TORSDOF 1
ENDMDL
MODEL 2
REMARK VINA RESULT:      -5.1      1.944      3.660
REMARK  1 active torsions:
REMARK  status: ('A' for Active; 'I' for Inactive)
REMARK    1  A    between atoms: C3_3  and  C8_8 
ROOT
HETATM    1  C1  UNL     1     -33.534  13.557  -3.894  1.00 20.00    -0.029 C 
HETATM    2  C2  UNL     1     -34.794  13.333  -4.285  1.00 20.00    -0.030 C 
HETATM    3  C4  UNL     1     -32.990  14.884  -3.472  1.00 20.00     0.045 C 
HETATM    4  C5  UNL     1     -35.839  14.394  -4.388  1.00 20.00     0.037 C 
HETATM    5  C6  UNL     1     -33.364  16.672  -5.303  1.00 20.00     0.019 C 
HETATM    6  C7  UNL     1     -34.475  15.897  -6.020  1.00 20.00     0.012 C 
HETATM    7  C8  UNL     1     -33.847  16.084  -3.929  1.00 20.00     0.031 C 
HETATM    8  C9  UNL     1     -35.228  15.771  -4.660  1.00 20.00    -0.026 C 
HETATM    9  C11 UNL     1     -36.310  16.856  -4.532  1.00 20.00     0.016 C 
ENDROOT
BRANCH   7  10
HETATM   10  C3  UNL     1     -33.915  17.143  -2.777  1.00 20.00     0.132 C 
HETATM   11  C10 UNL     1     -34.330  16.641  -1.420  1.00 20.00     0.091 C 
HETATM   12  O12 UNL     1     -33.641  18.327  -2.972  1.00 20.00    -0.298 OA
ENDBRANCH   7  10
TORSDOF 1
ENDMDL
MODEL 3
REMARK VINA RESULT:      -5.0      1.353      3.332
REMARK  1 active torsions:
REMARK  status: ('A' for Active; 'I' for Inactive)
REMARK    1  A    between atoms: C3_3  and  C8_8 
ROOT
HETATM    1  C1  UNL     1     -34.169  17.143  -2.398  1.00 20.00    -0.029 C 
HETATM    2  C2  UNL     1     -33.735  17.807  -3.476  1.00 20.00    -0.030 C 
HETATM    3  C4  UNL     1     -34.594  15.710  -2.388  1.00 20.00     0.045 C 
HETATM    4  C5  UNL     1     -33.646  17.215  -4.844  1.00 20.00     0.037 C 
HETATM    5  C6  UNL     1     -36.453  15.275  -4.133  1.00 20.00     0.019 C 
HETATM    6  C7  UNL     1     -36.155  16.530  -4.960  1.00 20.00     0.012 C 
HETATM    7  C8  UNL     1     -34.927  15.147  -3.786  1.00 20.00     0.031 C 
HETATM    8  C9  UNL     1     -34.662  16.087  -5.045  1.00 20.00    -0.026 C 
HETATM    9  C11 UNL     1     -34.382  15.363  -6.371  1.00 20.00     0.016 C 
ENDROOT
BRANCH   7  10
HETATM   10  C3  UNL     1     -34.371  13.687  -3.904  1.00 20.00     0.132 C 
HETATM   11  C10 UNL     1     -32.924  13.482  -3.545  1.00 20.00     0.091 C 
HETATM   12  O12 UNL     1     -35.084  12.753  -4.270  1.00 20.00    -0.298 OA
ENDBRANCH   7  10
TORSDOF 1
ENDMDL
MODEL 4
REMARK VINA RESULT:      -4.8      1.405      2.613
REMARK  1 active torsions:
REMARK  status: ('A' for Active; 'I' for Inactive)
REMARK    1  A    between atoms: C3_3  and  C8_8 
ROOT
HETATM    1  C1  UNL     1     -33.418  13.599  -3.884  1.00 20.00    -0.029 C 
HETATM    2  C2  UNL     1     -32.868  14.773  -3.552  1.00 20.00    -0.030 C 
HETATM    3  C4  UNL     1     -34.622  13.432  -4.754  1.00 20.00     0.045 C 
HETATM    4  C5  UNL     1     -33.405  16.099  -3.978  1.00 20.00     0.037 C 
HETATM    5  C6  UNL     1     -36.630  14.782  -3.839  1.00 20.00     0.019 C 
HETATM    6  C7  UNL     1     -35.777  15.717  -2.974  1.00 20.00     0.012 C 
HETATM    7  C8  UNL     1     -35.472  14.713  -4.897  1.00 20.00     0.031 C 
HETATM    8  C9  UNL     1     -34.915  16.048  -4.231  1.00 20.00    -0.026 C 
HETATM    9  C11 UNL     1     -35.379  17.362  -4.881  1.00 20.00     0.016 C 
ENDROOT
BRANCH   7  10
HETATM   10  C3  UNL     1     -35.960  14.849  -6.379  1.00 20.00     0.132 C 
HETATM   11  C10 UNL     1     -34.915  14.708  -7.452  1.00 20.00     0.091 C 
HETATM   12  O12 UNL     1     -37.142  15.059  -6.652  1.00 20.00    -0.298 OA
ENDBRANCH   7  10
TORSDOF 1
ENDMDL
MODEL 5
REMARK VINA RESULT:      -4.7      1.536      2.539
REMARK  1 active torsions:
REMARK  status: ('A' for Active; 'I' for Inactive)
REMARK    1  A    between atoms: C3_3  and  C8_8 
ROOT
HETATM    1  C1  UNL     1     -33.671  17.549  -5.020  1.00 20.00    -0.029 C 
HETATM    2  C2  UNL     1     -34.811  18.070  -4.552  1.00 20.00    -0.030 C 
HETATM    3  C4  UNL     1     -33.434  16.095  -5.277  1.00 20.00     0.045 C 
HETATM    4  C5  UNL     1     -36.011  17.262  -4.183  1.00 20.00     0.037 C 
HETATM    5  C6  UNL     1     -33.897  14.685  -3.158  1.00 20.00     0.019 C 
HETATM    6  C7  UNL     1     -34.752  15.756  -2.471  1.00 20.00     0.012 C 
HETATM    7  C8  UNL     1     -34.431  15.163  -4.556  1.00 20.00     0.031 C 
HETATM    8  C9  UNL     1     -35.631  15.840  -3.756  1.00 20.00    -0.026 C 
HETATM    9  C11 UNL     1     -36.900  14.985  -3.607  1.00 20.00     0.016 C 
ENDROOT
BRANCH   7  10
HETATM   10  C3  UNL     1     -34.833  13.991  -5.514  1.00 20.00     0.132 C 
HETATM   11  C10 UNL     1     -35.213  14.367  -6.921  1.00 20.00     0.091 C 
HETATM   12  O12 UNL     1     -34.836  12.820  -5.135  1.00 20.00    -0.298 OA
ENDBRANCH   7  10
TORSDOF 1
ENDMDL
MODEL 6
REMARK VINA RESULT:      -4.7      1.839      3.231
REMARK  1 active torsions:
REMARK  status: ('A' for Active; 'I' for Inactive)
REMARK    1  A    between atoms: C3_3  and  C8_8 
ROOT
HETATM    1  C1  UNL     1     -33.628  15.917  -2.684  1.00 20.00    -0.029 C 
HETATM    2  C2  UNL     1     -34.895  16.064  -2.278  1.00 20.00    -0.030 C 
HETATM    3  C4  UNL     1     -33.204  15.657  -4.094  1.00 20.00     0.045 C 
HETATM    4  C5  UNL     1     -36.080  15.952  -3.179  1.00 20.00     0.037 C 
HETATM    5  C6  UNL     1     -34.372  13.554  -5.046  1.00 20.00     0.019 C 
HETATM    6  C7  UNL     1     -35.505  13.554  -4.015  1.00 20.00     0.012 C 
HETATM    7  C8  UNL     1     -34.336  15.124  -4.998  1.00 20.00     0.031 C 
HETATM    8  C9  UNL     1     -35.801  15.041  -4.378  1.00 20.00    -0.026 C 
HETATM    9  C11 UNL     1     -36.958  15.137  -5.386  1.00 20.00     0.016 C 
ENDROOT
BRANCH   7  10
HETATM   10  C3  UNL     1     -34.234  15.798  -6.408  1.00 20.00     0.132 C 
HETATM   11  C10 UNL     1     -34.132  17.299  -6.435  1.00 20.00     0.091 C 
HETATM   12  O12 UNL     1     -34.237  15.132  -7.443  1.00 20.00    -0.298 OA
ENDBRANCH   7  10
TORSDOF 1
ENDMDL
MODEL 7
REMARK VINA RESULT:      -4.5      1.608      3.216
REMARK  1 active torsions:
REMARK  status: ('A' for Active; 'I' for Inactive)
REMARK    1  A    between atoms: C3_3  and  C8_8 
ROOT
HETATM    1  C1  UNL     1     -36.000  14.819  -7.785  1.00 20.00    -0.029 C 
HETATM    2  C2  UNL     1     -37.168  15.241  -7.287  1.00 20.00    -0.030 C 
HETATM    3  C4  UNL     1     -34.840  14.348  -6.968  1.00 20.00     0.045 C 
HETATM    4  C5  UNL     1     -37.471  15.336  -5.829  1.00 20.00     0.037 C 
HETATM    5  C6  UNL     1     -34.129  16.135  -5.238  1.00 20.00     0.019 C 
HETATM    6  C7  UNL     1     -35.459  16.896  -5.280  1.00 20.00     0.012 C 
HETATM    7  C8  UNL     1     -34.897  14.788  -5.490  1.00 20.00     0.031 C 
HETATM    8  C9  UNL     1     -36.204  15.555  -4.997  1.00 20.00    -0.026 C 
HETATM    9  C11 UNL     1     -36.533  15.419  -3.501  1.00 20.00     0.016 C 
ENDROOT
BRANCH   7  10
HETATM   10  C3  UNL     1     -34.420  13.608  -4.577  1.00 20.00     0.132 C 
HETATM   11  C10 UNL     1     -33.221  13.868  -3.706  1.00 20.00     0.091 C 
HETATM   12  O12 UNL     1     -34.998  12.522  -4.573  1.00 20.00    -0.298 OA
ENDBRANCH   7  10
TORSDOF 1
ENDMDL
MODEL 8
REMARK VINA RESULT:      -4.5      1.695      2.937
REMARK  1 active torsions:
REMARK  status: ('A' for Active; 'I' for Inactive)
REMARK    1  A    between atoms: C3_3  and  C8_8 
ROOT
HETATM    1  C1  UNL     1     -34.898  13.859  -6.019  1.00 20.00    -0.029 C 
HETATM    2  C2  UNL     1     -34.521  13.255  -4.885  1.00 20.00    -0.030 C 
HETATM    3  C4  UNL     1     -35.207  15.315  -6.152  1.00 20.00     0.045 C 
HETATM    4  C5  UNL     1     -34.389  13.949  -3.571  1.00 20.00     0.037 C 
HETATM    5  C6  UNL     1     -37.032  16.039  -4.468  1.00 20.00     0.019 C 
HETATM    6  C7  UNL     1     -36.837  14.837  -3.537  1.00 20.00     0.012 C 
HETATM    7  C8  UNL     1     -35.499  16.017  -4.809  1.00 20.00     0.031 C 
HETATM    8  C9  UNL     1     -35.314  15.166  -3.474  1.00 20.00    -0.026 C 
HETATM    9  C11 UNL     1     -34.982  15.974  -2.209  1.00 20.00     0.016 C 
ENDROOT
BRANCH   7  10
HETATM   10  C3  UNL     1     -34.830  17.433  -4.807  1.00 20.00     0.132 C 
HETATM   11  C10 UNL     1     -33.400  17.507  -5.270  1.00 20.00     0.091 C 
HETATM   12  O12 UNL     1     -35.444  18.436  -4.445  1.00 20.00    -0.298 OA
ENDBRANCH   7  10
TORSDOF 1
ENDMDL
MODEL 9
REMARK VINA RESULT:      -4.4     11.060     12.590
REMARK  1 active torsions:
REMARK  status: ('A' for Active; 'I' for Inactive)
REMARK    1  A    between atoms: C3_3  and  C8_8 
ROOT
HETATM    1  C1  UNL     1     -42.776   3.642  -2.699  1.00 20.00    -0.029 C 
HETATM    2  C2  UNL     1     -41.542   3.294  -2.315  1.00 20.00    -0.030 C 
HETATM    3  C4  UNL     1     -43.417   4.965  -2.428  1.00 20.00     0.045 C 
HETATM    4  C5  UNL     1     -40.633   4.175  -1.524  1.00 20.00     0.037 C 
HETATM    5  C6  UNL     1     -43.416   5.503   0.102  1.00 20.00     0.019 C 
HETATM    6  C7  UNL     1     -42.301   4.510   0.448  1.00 20.00     0.012 C 
HETATM    7  C8  UNL     1     -42.744   5.765  -1.293  1.00 20.00     0.031 C 
HETATM    8  C9  UNL     1     -41.413   5.166  -0.654  1.00 20.00    -0.026 C 
HETATM    9  C11 UNL     1     -40.447   6.191  -0.039  1.00 20.00     0.016 C 
ENDROOT
BRANCH   7  10
HETATM   10  C3  UNL     1     -42.681   7.279  -1.691  1.00 20.00     0.132 C 
HETATM   11  C10 UNL     1     -42.260   7.591  -3.101  1.00 20.00     0.091 C 
HETATM   12  O12 UNL     1     -42.965   8.168  -0.889  1.00 20.00    -0.298 OA
ENDBRANCH   7  10
TORSDOF 1
ENDMDL
