MODEL 1
REMARK VINA RESULT:      -4.1      0.000      0.000
REMARK  2 active torsions:
REMARK  status: ('A' for Active; 'I' for Inactive)
REMARK    1  A    between atoms: C1_1  and  C5_5 
REMARK    2  A    between atoms: C1_1  and  C6_6 
ROOT
HETATM    1  C1  UNL     1     -35.150  15.149  -3.320  1.00 20.00     0.184 C 
HETATM    2  O7  UNL     1     -36.361  15.349  -3.202  1.00 20.00    -0.293 OA
ENDROOT
BRANCH   1   3
HETATM    3  C5  UNL     1     -34.122  16.007  -2.587  1.00 20.00     0.052 C 
HETATM    4  C2  UNL     1     -33.790  17.235  -3.427  1.00 20.00     0.017 C 
HETATM    5  C3  UNL     1     -34.632  16.415  -1.207  1.00 20.00     0.017 C 
ENDBRANCH   1   3
BRANCH   1   6
HETATM    6  C6  UNL     1     -34.619  14.026  -4.196  1.00 20.00     0.235 C 
HETATM    7  C4  UNL     1     -34.604  14.424  -5.661  1.00 20.00     0.079 C 
HETATM    8  F8  UNL     1     -35.363  12.892  -4.075  1.00 20.00    -0.217 F 
HETATM    9 CL9  UNL     1     -32.969  13.668  -3.629  1.00 20.00    -0.075 Cl
ENDBRANCH   1   6
TORSDOF 2
ENDMDL
MODEL 2
REMARK VINA RESULT:      -3.9     11.612     12.183
REMARK  2 active torsions:
REMARK  status: ('A' for Active; 'I' for Inactive)
REMARK    1  A    between atoms: C1_1  and  C5_5 
REMARK    2  A    between atoms: C1_1  and  C6_6 
ROOT
HETATM    1  C1  UNL     1     -33.564   6.292   4.818  1.00 20.00     0.184 C 
HETATM    2  O7  UNL     1     -33.497   6.838   5.921  1.00 20.00    -0.293 OA
ENDROOT
BRANCH   1   3
HETATM    3  C5  UNL     1     -34.479   5.095   4.572  1.00 20.00     0.052 C 
HETATM    4  C2  UNL     1     -34.866   4.465   5.905  1.00 20.00     0.017 C 
HETATM    5  C3  UNL     1     -35.720   5.506   3.784  1.00 20.00     0.017 C 
ENDBRANCH   1   3
BRANCH   1   6
HETATM    6  C6  UNL     1     -32.744   6.793   3.640  1.00 20.00     0.235 C 
HETATM    7  C4  UNL     1     -31.516   7.556   4.104  1.00 20.00     0.079 C 
HETATM    8  F8  UNL     1     -33.468   7.613   2.830  1.00 20.00    -0.217 F 
HETATM    9 CL9  UNL     1     -32.270   5.360   2.696  1.00 20.00    -0.075 Cl
ENDBRANCH   1   6
TORSDOF 2
ENDMDL
MODEL 3
REMARK VINA RESULT:      -3.9      2.349      3.364
REMARK  2 active torsions:
REMARK  status: ('A' for Active; 'I' for Inactive)
REMARK    1  A    between atoms: C1_1  and  C5_5 
REMARK    2  A    between atoms: C1_1  and  C6_6 
ROOT
HETATM    1  C1  UNL     1     -34.606  14.046  -4.869  1.00 20.00     0.184 C 
HETATM    2  O7  UNL     1     -34.748  12.824  -4.799  1.00 20.00    -0.293 OA
ENDROOT
BRANCH   1   3
HETATM    3  C5  UNL     1     -35.420  14.892  -5.844  1.00 20.00     0.052 C 
HETATM    4  C2  UNL     1     -35.355  14.271  -7.236  1.00 20.00     0.017 C 
HETATM    5  C3  UNL     1     -36.867  15.028  -5.377  1.00 20.00     0.017 C 
ENDBRANCH   1   3
BRANCH   1   6
HETATM    6  C6  UNL     1     -33.617  14.776  -3.974  1.00 20.00     0.235 C 
HETATM    7  C4  UNL     1     -33.036  15.995  -4.668  1.00 20.00     0.079 C 
HETATM    8  F8  UNL     1     -32.585  13.974  -3.596  1.00 20.00    -0.217 F 
HETATM    9 CL9  UNL     1     -34.508  15.257  -2.509  1.00 20.00    -0.075 Cl
ENDBRANCH   1   6
TORSDOF 2
ENDMDL
MODEL 4
REMARK VINA RESULT:      -3.9      2.340      3.596
REMARK  2 active torsions:
REMARK  status: ('A' for Active; 'I' for Inactive)
REMARK    1  A    between atoms: C1_1  and  C5_5 
REMARK    2  A    between atoms: C1_1  and  C6_6 
ROOT
HETATM    1  C1  UNL     1     -33.689  15.830  -4.925  1.00 20.00     0.184 C 
HETATM    2  O7  UNL     1     -32.965  16.756  -5.295  1.00 20.00    -0.293 OA
ENDROOT
BRANCH   1   3
HETATM    3  C5  UNL     1     -34.841  15.321  -5.788  1.00 20.00     0.052 C 
HETATM    4  C2  UNL     1     -35.982  16.332  -5.765  1.00 20.00     0.017 C 
HETATM    5  C3  UNL     1     -34.378  15.056  -7.218  1.00 20.00     0.017 C 
ENDBRANCH   1   3
BRANCH   1   6
HETATM    6  C6  UNL     1     -33.464  15.139  -3.590  1.00 20.00     0.235 C 
HETATM    7  C4  UNL     1     -33.862  16.032  -2.428  1.00 20.00     0.079 C 
HETATM    8  F8  UNL     1     -32.162  14.779  -3.418  1.00 20.00    -0.217 F 
HETATM    9 CL9  UNL     1     -34.451  13.657  -3.605  1.00 20.00    -0.075 Cl
ENDBRANCH   1   6
TORSDOF 2
ENDMDL
MODEL 5
REMARK VINA RESULT:      -3.9      2.299      2.850
REMARK  2 active torsions:
REMARK  status: ('A' for Active; 'I' for Inactive)
REMARK    1  A    between atoms: C1_1  and  C5_5 
REMARK    2  A    between atoms: C1_1  and  C6_6 
ROOT
HETATM    1  C1  UNL     1     -34.731  13.879  -4.898  1.00 20.00     0.184 C 
HETATM    2  O7  UNL     1     -35.013  12.708  -4.634  1.00 20.00    -0.293 OA
ENDROOT
BRANCH   1   3
HETATM    3  C5  UNL     1     -33.845  14.715  -3.978  1.00 20.00     0.052 C 
HETATM    4  C2  UNL     1     -34.683  15.279  -2.836  1.00 20.00     0.017 C 
HETATM    5  C3  UNL     1     -32.679  13.890  -3.441  1.00 20.00     0.017 C 
ENDBRANCH   1   3
BRANCH   1   6
HETATM    6  C6  UNL     1     -35.245  14.547  -6.163  1.00 20.00     0.235 C 
HETATM    7  C4  UNL     1     -36.616  15.163  -5.948  1.00 20.00     0.079 C 
HETATM    8  F8  UNL     1     -35.336  13.669  -7.200  1.00 20.00    -0.217 F 
HETATM    9 CL9  UNL     1     -34.058  15.799  -6.601  1.00 20.00    -0.075 Cl
ENDBRANCH   1   6
TORSDOF 2
ENDMDL
MODEL 6
REMARK VINA RESULT:      -3.8      1.993      2.385
REMARK  2 active torsions:
REMARK  status: ('A' for Active; 'I' for Inactive)
REMARK    1  A    between atoms: C1_1  and  C5_5 
REMARK    2  A    between atoms: C1_1  and  C6_6 
ROOT
HETATM    1  C1  UNL     1     -33.582  15.031  -3.891  1.00 20.00     0.184 C 
HETATM    2  O7  UNL     1     -32.410  14.779  -3.606  1.00 20.00    -0.293 OA
ENDROOT
BRANCH   1   3
HETATM    3  C5  UNL     1     -34.263  16.314  -3.419  1.00 20.00     0.052 C 
HETATM    4  C2  UNL     1     -34.099  16.452  -1.909  1.00 20.00     0.017 C 
HETATM    5  C3  UNL     1     -33.696  17.533  -4.141  1.00 20.00     0.017 C 
ENDBRANCH   1   3
BRANCH   1   6
HETATM    6  C6  UNL     1     -34.409  14.079  -4.741  1.00 20.00     0.235 C 
HETATM    7  C4  UNL     1     -35.829  13.959  -4.218  1.00 20.00     0.079 C 
HETATM    8  F8  UNL     1     -33.867  12.831  -4.779  1.00 20.00    -0.217 F 
HETATM    9 CL9  UNL     1     -34.407  14.735  -6.397  1.00 20.00    -0.075 Cl
ENDBRANCH   1   6
TORSDOF 2
ENDMDL
MODEL 7
REMARK VINA RESULT:      -3.8     11.622     12.154
REMARK  2 active torsions:
REMARK  status: ('A' for Active; 'I' for Inactive)
REMARK    1  A    between atoms: C1_1  and  C5_5 
REMARK    2  A    between atoms: C1_1  and  C6_6 
ROOT
HETATM    1  C1  UNL     1     -33.450   6.295   4.722  1.00 20.00     0.184 C 
HETATM    2  O7  UNL     1     -33.530   6.954   5.761  1.00 20.00    -0.293 OA
ENDROOT
BRANCH   1   3
HETATM    3  C5  UNL     1     -34.361   5.097   4.463  1.00 20.00     0.052 C 
HETATM    4  C2  UNL     1     -34.645   4.378   5.777  1.00 20.00     0.017 C 
HETATM    5  C3  UNL     1     -35.660   5.532   3.789  1.00 20.00     0.017 C 
ENDBRANCH   1   3
BRANCH   1   6
HETATM    6  C6  UNL     1     -32.445   6.650   3.639  1.00 20.00     0.235 C 
HETATM    7  C4  UNL     1     -33.114   7.348   2.468  1.00 20.00     0.079 C 
HETATM    8  F8  UNL     1     -31.802   5.549   3.161  1.00 20.00    -0.217 F 
HETATM    9 CL9  UNL     1     -31.233   7.716   4.392  1.00 20.00    -0.075 Cl
ENDBRANCH   1   6
TORSDOF 2
ENDMDL
MODEL 8
REMARK VINA RESULT:      -3.7      2.807      3.257
REMARK  2 active torsions:
REMARK  status: ('A' for Active; 'I' for Inactive)
REMARK    1  A    between atoms: C1_1  and  C5_5 
REMARK    2  A    between atoms: C1_1  and  C6_6 
ROOT
HETATM    1  C1  UNL     1     -33.817  15.754  -5.113  1.00 20.00     0.184 C 
HETATM    2  O7  UNL     1     -32.840  16.493  -4.975  1.00 20.00    -0.293 OA
ENDROOT
BRANCH   1   3
HETATM    3  C5  UNL     1     -34.354  14.913  -3.958  1.00 20.00     0.052 C 
HETATM    4  C2  UNL     1     -33.511  13.650  -3.812  1.00 20.00     0.017 C 
HETATM    5  C3  UNL     1     -34.367  15.711  -2.657  1.00 20.00     0.017 C 
ENDBRANCH   1   3
BRANCH   1   6
HETATM    6  C6  UNL     1     -34.547  15.654  -6.443  1.00 20.00     0.235 C 
HETATM    7  C4  UNL     1     -35.989  15.218  -6.253  1.00 20.00     0.079 C 
HETATM    8  F8  UNL     1     -33.947  14.770  -7.286  1.00 20.00    -0.217 F 
HETATM    9 CL9  UNL     1     -34.476  17.269  -7.191  1.00 20.00    -0.075 Cl
ENDBRANCH   1   6
TORSDOF 2
ENDMDL
MODEL 9
REMARK VINA RESULT:      -3.6     12.036     12.536
REMARK  2 active torsions:
REMARK  status: ('A' for Active; 'I' for Inactive)
REMARK    1  A    between atoms: C1_1  and  C5_5 
REMARK    2  A    between atoms: C1_1  and  C6_6 
ROOT
HETATM    1  C1  UNL     1     -33.885   6.063   4.573  1.00 20.00     0.184 C 
HETATM    2  O7  UNL     1     -32.832   6.570   4.183  1.00 20.00    -0.293 OA
ENDROOT
BRANCH   1   3
HETATM    3  C5  UNL     1     -34.363   6.219   6.015  1.00 20.00     0.052 C 
HETATM    4  C2  UNL     1     -34.405   4.853   6.690  1.00 20.00     0.017 C 
HETATM    5  C3  UNL     1     -33.465   7.181   6.788  1.00 20.00     0.017 C 
ENDBRANCH   1   3
BRANCH   1   6
HETATM    6  C6  UNL     1     -34.770   5.262   3.631  1.00 20.00     0.235 C 
HETATM    7  C4  UNL     1     -36.120   5.929   3.436  1.00 20.00     0.079 C 
HETATM    8  F8  UNL     1     -34.987   3.998   4.090  1.00 20.00    -0.217 F 
HETATM    9 CL9  UNL     1     -33.900   5.147   2.082  1.00 20.00    -0.075 Cl
ENDBRANCH   1   6
TORSDOF 2
ENDMDL
