MODEL 1
REMARK VINA RESULT:      -4.6      0.000      0.000
REMARK  1 active torsions:
REMARK  status: ('A' for Active; 'I' for Inactive)
REMARK    1  A    between atoms: C6_6  and  C10_10 
ROOT
HETATM    1  C1  UNL     1     -34.513  13.513  -4.166  1.00 20.00     0.059 C 
HETATM    2  C10 UNL     1     -34.129  14.538  -3.212  1.00 20.00     0.133 C 
HETATM    3  N11 UNL     1     -34.784  12.665  -4.913  1.00 20.00    -0.197 NA
ENDROOT
BRANCH   2   4
HETATM    4  C6  UNL     1     -35.147  15.671  -3.473  1.00 20.00    -0.025 C 
HETATM    5  C4  UNL     1     -34.870  16.283  -4.862  1.00 20.00     0.011 C 
HETATM    6  C2  UNL     1     -33.811  17.364  -4.645  1.00 20.00     0.002 C 
HETATM    7  C3  UNL     1     -33.724  17.603  -3.136  1.00 20.00     0.010 C 
HETATM    8  C5  UNL     1     -34.955  16.903  -2.522  1.00 20.00    -0.040 C 
HETATM    9  C7  UNL     1     -34.690  16.530  -1.055  1.00 20.00     0.015 C 
HETATM   10  C8  UNL     1     -36.152  17.881  -2.545  1.00 20.00     0.015 C 
HETATM   11  C9  UNL     1     -36.551  15.051  -3.424  1.00 20.00     0.017 C 
ENDBRANCH   2   4
TORSDOF 1
ENDMDL
MODEL 2
REMARK VINA RESULT:      -4.6      1.660      3.114
REMARK  1 active torsions:
REMARK  status: ('A' for Active; 'I' for Inactive)
REMARK    1  A    between atoms: C6_6  and  C10_10 
ROOT
HETATM    1  C1  UNL     1     -37.342  14.962  -4.028  1.00 20.00     0.059 C 
HETATM    2  C10 UNL     1     -36.222  15.775  -4.467  1.00 20.00     0.133 C 
HETATM    3  N11 UNL     1     -38.267  14.339  -3.703  1.00 20.00    -0.197 NA
ENDROOT
BRANCH   2   4
HETATM    4  C6  UNL     1     -35.006  15.112  -3.782  1.00 20.00    -0.025 C 
HETATM    5  C4  UNL     1     -35.125  15.302  -2.256  1.00 20.00     0.011 C 
HETATM    6  C2  UNL     1     -34.486  16.656  -1.947  1.00 20.00     0.002 C 
HETATM    7  C3  UNL     1     -33.722  17.082  -3.202  1.00 20.00     0.010 C 
HETATM    8  C5  UNL     1     -33.650  15.831  -4.103  1.00 20.00    -0.040 C 
HETATM    9  C7  UNL     1     -33.485  16.234  -5.576  1.00 20.00     0.015 C 
HETATM   10  C8  UNL     1     -32.411  14.997  -3.706  1.00 20.00     0.015 C 
HETATM   11  C9  UNL     1     -35.027  13.620  -4.146  1.00 20.00     0.017 C 
ENDBRANCH   2   4
TORSDOF 1
ENDMDL
MODEL 3
REMARK VINA RESULT:      -4.5      1.869      3.046
REMARK  1 active torsions:
REMARK  status: ('A' for Active; 'I' for Inactive)
REMARK    1  A    between atoms: C6_6  and  C10_10 
ROOT
HETATM    1  C1  UNL     1     -37.705  14.760  -3.859  1.00 20.00     0.059 C 
HETATM    2  C10 UNL     1     -36.471  15.112  -3.178  1.00 20.00     0.133 C 
HETATM    3  N11 UNL     1     -38.711  14.471  -4.361  1.00 20.00    -0.197 NA
ENDROOT
BRANCH   2   4
HETATM    4  C6  UNL     1     -35.510  15.468  -4.334  1.00 20.00    -0.025 C 
HETATM    5  C4  UNL     1     -35.462  14.287  -5.327  1.00 20.00     0.011 C 
HETATM    6  C2  UNL     1     -34.384  13.338  -4.802  1.00 20.00     0.002 C 
HETATM    7  C3  UNL     1     -33.601  14.103  -3.733  1.00 20.00     0.010 C 
HETATM    8  C5  UNL     1     -34.014  15.583  -3.879  1.00 20.00    -0.040 C 
HETATM    9  C7  UNL     1     -33.816  16.334  -2.554  1.00 20.00     0.015 C 
HETATM   10  C8  UNL     1     -33.108  16.255  -4.936  1.00 20.00     0.015 C 
HETATM   11  C9  UNL     1     -36.059  16.729  -5.019  1.00 20.00     0.017 C 
ENDBRANCH   2   4
TORSDOF 1
ENDMDL
MODEL 4
REMARK VINA RESULT:      -4.4      1.067      2.376
REMARK  1 active torsions:
REMARK  status: ('A' for Active; 'I' for Inactive)
REMARK    1  A    between atoms: C6_6  and  C10_10 
ROOT
HETATM    1  C1  UNL     1     -35.319  13.695  -4.379  1.00 20.00     0.059 C 
HETATM    2  C10 UNL     1     -36.006  14.957  -4.170  1.00 20.00     0.133 C 
HETATM    3  N11 UNL     1     -34.812  12.664  -4.550  1.00 20.00    -0.197 NA
ENDROOT
BRANCH   2   4
HETATM    4  C6  UNL     1     -34.852  15.975  -4.028  1.00 20.00    -0.025 C 
HETATM    5  C4  UNL     1     -33.985  15.584  -2.813  1.00 20.00     0.011 C 
HETATM    6  C2  UNL     1     -34.638  16.243  -1.598  1.00 20.00     0.002 C 
HETATM    7  C3  UNL     1     -35.650  17.257  -2.134  1.00 20.00     0.010 C 
HETATM    8  C5  UNL     1     -35.343  17.412  -3.638  1.00 20.00    -0.040 C 
HETATM    9  C7  UNL     1     -36.593  17.879  -4.400  1.00 20.00     0.015 C 
HETATM   10  C8  UNL     1     -34.256  18.496  -3.819  1.00 20.00     0.015 C 
HETATM   11  C9  UNL     1     -34.027  15.922  -5.323  1.00 20.00     0.017 C 
ENDBRANCH   2   4
TORSDOF 1
ENDMDL
MODEL 5
REMARK VINA RESULT:      -4.4      2.180      3.624
REMARK  1 active torsions:
REMARK  status: ('A' for Active; 'I' for Inactive)
REMARK    1  A    between atoms: C6_6  and  C10_10 
ROOT
HETATM    1  C1  UNL     1     -36.206  16.846  -6.214  1.00 20.00     0.059 C 
HETATM    2  C10 UNL     1     -35.927  16.405  -4.859  1.00 20.00     0.133 C 
HETATM    3  N11 UNL     1     -36.473  17.213  -7.283  1.00 20.00    -0.197 NA
ENDROOT
BRANCH   2   4
HETATM    4  C6  UNL     1     -34.492  15.839  -4.953  1.00 20.00    -0.025 C 
HETATM    5  C4  UNL     1     -34.468  14.708  -6.002  1.00 20.00     0.011 C 
HETATM    6  C2  UNL     1     -34.860  13.431  -5.256  1.00 20.00     0.002 C 
HETATM    7  C3  UNL     1     -34.783  13.750  -3.762  1.00 20.00     0.010 C 
HETATM    8  C5  UNL     1     -34.036  15.096  -3.650  1.00 20.00    -0.040 C 
HETATM    9  C7  UNL     1     -34.415  15.819  -2.348  1.00 20.00     0.015 C 
HETATM   10  C8  UNL     1     -32.515  14.824  -3.607  1.00 20.00     0.015 C 
HETATM   11  C9  UNL     1     -33.568  16.991  -5.377  1.00 20.00     0.017 C 
ENDBRANCH   2   4
TORSDOF 1
ENDMDL
MODEL 6
REMARK VINA RESULT:      -4.3      1.968      2.723
REMARK  1 active torsions:
REMARK  status: ('A' for Active; 'I' for Inactive)
REMARK    1  A    between atoms: C6_6  and  C10_10 
ROOT
HETATM    1  C1  UNL     1     -36.048  14.724  -7.174  1.00 20.00     0.059 C 
HETATM    2  C10 UNL     1     -34.954  14.376  -6.285  1.00 20.00     0.133 C 
HETATM    3  N11 UNL     1     -36.905  14.974  -7.918  1.00 20.00    -0.197 NA
ENDROOT
BRANCH   2   4
HETATM    4  C6  UNL     1     -35.261  15.183  -5.004  1.00 20.00    -0.025 C 
HETATM    5  C4  UNL     1     -35.315  16.684  -5.358  1.00 20.00     0.011 C 
HETATM    6  C2  UNL     1     -33.876  17.193  -5.264  1.00 20.00     0.002 C 
HETATM    7  C3  UNL     1     -33.067  16.107  -4.551  1.00 20.00     0.010 C 
HETATM    8  C5  UNL     1     -34.101  15.131  -3.950  1.00 20.00    -0.040 C 
HETATM    9  C7  UNL     1     -33.483  13.737  -3.763  1.00 20.00     0.015 C 
HETATM   10  C8  UNL     1     -34.524  15.644  -2.555  1.00 20.00     0.015 C 
HETATM   11  C9  UNL     1     -36.618  14.703  -4.469  1.00 20.00     0.017 C 
ENDBRANCH   2   4
TORSDOF 1
ENDMDL
MODEL 7
REMARK VINA RESULT:      -4.3      2.426      3.673
REMARK  1 active torsions:
REMARK  status: ('A' for Active; 'I' for Inactive)
REMARK    1  A    between atoms: C6_6  and  C10_10 
ROOT
HETATM    1  C1  UNL     1     -37.108  14.603  -4.038  1.00 20.00     0.059 C 
HETATM    2  C10 UNL     1     -35.734  14.913  -4.391  1.00 20.00     0.133 C 
HETATM    3  N11 UNL     1     -38.190  14.326  -3.721  1.00 20.00    -0.197 NA
ENDROOT
BRANCH   2   4
HETATM    4  C6  UNL     1     -35.879  15.923  -5.551  1.00 20.00    -0.025 C 
HETATM    5  C4  UNL     1     -36.682  15.264  -6.692  1.00 20.00     0.011 C 
HETATM    6  C2  UNL     1     -35.662  14.516  -7.549  1.00 20.00     0.002 C 
HETATM    7  C3  UNL     1     -34.277  15.003  -7.117  1.00 20.00     0.010 C 
HETATM    8  C5  UNL     1     -34.517  16.258  -6.252  1.00 20.00    -0.040 C 
HETATM    9  C7  UNL     1     -33.347  16.478  -5.281  1.00 20.00     0.015 C 
HETATM   10  C8  UNL     1     -34.596  17.495  -7.174  1.00 20.00     0.015 C 
HETATM   11  C9  UNL     1     -36.623  17.151  -5.004  1.00 20.00     0.017 C 
ENDBRANCH   2   4
TORSDOF 1
ENDMDL
MODEL 8
REMARK VINA RESULT:      -4.3      2.288      3.696
REMARK  1 active torsions:
REMARK  status: ('A' for Active; 'I' for Inactive)
REMARK    1  A    between atoms: C6_6  and  C10_10 
ROOT
HETATM    1  C1  UNL     1     -33.681  17.803  -5.746  1.00 20.00     0.059 C 
HETATM    2  C10 UNL     1     -33.276  16.735  -4.849  1.00 20.00     0.133 C 
HETATM    3  N11 UNL     1     -33.965  18.682  -6.451  1.00 20.00    -0.197 NA
ENDROOT
BRANCH   2   4
HETATM    4  C6  UNL     1     -34.399  15.686  -5.010  1.00 20.00    -0.025 C 
HETATM    5  C4  UNL     1     -35.757  16.356  -4.718  1.00 20.00     0.011 C 
HETATM    6  C2  UNL     1     -35.961  16.256  -3.206  1.00 20.00     0.002 C 
HETATM    7  C3  UNL     1     -34.920  15.265  -2.683  1.00 20.00     0.010 C 
HETATM    8  C5  UNL     1     -34.345  14.554  -3.926  1.00 20.00    -0.040 C 
HETATM    9  C7  UNL     1     -32.932  14.023  -3.640  1.00 20.00     0.015 C 
HETATM   10  C8  UNL     1     -35.238  13.341  -4.269  1.00 20.00     0.015 C 
HETATM   11  C9  UNL     1     -34.347  15.173  -6.457  1.00 20.00     0.017 C 
ENDBRANCH   2   4
TORSDOF 1
ENDMDL
MODEL 9
REMARK VINA RESULT:      -4.3      2.102      3.693
REMARK  1 active torsions:
REMARK  status: ('A' for Active; 'I' for Inactive)
REMARK    1  A    between atoms: C6_6  and  C10_10 
ROOT
HETATM    1  C1  UNL     1     -34.345  16.384  -1.708  1.00 20.00     0.059 C 
HETATM    2  C10 UNL     1     -33.830  16.126  -3.041  1.00 20.00     0.133 C 
HETATM    3  N11 UNL     1     -34.711  16.592  -0.626  1.00 20.00    -0.197 NA
ENDROOT
BRANCH   2   4
HETATM    4  C6  UNL     1     -35.106  16.021  -3.906  1.00 20.00    -0.025 C 
HETATM    5  C4  UNL     1     -35.928  14.801  -3.439  1.00 20.00     0.011 C 
HETATM    6  C2  UNL     1     -35.378  13.600  -4.210  1.00 20.00     0.002 C 
HETATM    7  C3  UNL     1     -34.499  14.158  -5.331  1.00 20.00     0.010 C 
HETATM    8  C5  UNL     1     -34.809  15.669  -5.405  1.00 20.00    -0.040 C 
HETATM    9  C7  UNL     1     -33.622  16.436  -6.007  1.00 20.00     0.015 C 
HETATM   10  C8  UNL     1     -36.025  15.887  -6.333  1.00 20.00     0.015 C 
HETATM   11  C9  UNL     1     -35.905  17.319  -3.711  1.00 20.00     0.017 C 
ENDBRANCH   2   4
TORSDOF 1
ENDMDL
