MODEL 1
REMARK VINA RESULT:      -3.5      0.000      0.000
REMARK  2 active torsions:
REMARK  status: ('A' for Active; 'I' for Inactive)
REMARK    1  A    between atoms: C6_6  and  S8_8 
REMARK    2  A    between atoms: C7_7  and  S9_9 
ROOT
HETATM    1  C1  UNL     1     -36.365  14.396  -4.011  1.00 20.00     0.011 C 
HETATM    2  C2  UNL     1     -34.907  13.897  -5.826  1.00 20.00     0.020 C 
HETATM    3  C3  UNL     1     -34.067  14.097  -3.461  1.00 20.00     0.020 C 
HETATM    4  C4  UNL     1     -35.173  13.508  -4.359  1.00 20.00    -0.012 C 
HETATM    5  C5  UNL     1     -35.628  15.690  -4.381  1.00 20.00     0.013 C 
HETATM    6  C6  UNL     1     -35.188  15.413  -5.840  1.00 20.00     0.050 C 
HETATM    7  C7  UNL     1     -34.356  15.611  -3.500  1.00 20.00     0.050 C 
ENDROOT
BRANCH   6   8
HETATM    8  S8  UNL     1     -36.478  15.858  -7.048  1.00 20.00    -0.177 SA
HETATM    9  H20 UNL     1     -37.267  14.806  -6.797  1.00 20.00     0.102 HD
ENDBRANCH   6   8
BRANCH   7  10
HETATM   10  S9  UNL     1     -34.627  16.298  -1.835  1.00 20.00    -0.177 SA
HETATM   11  H21 UNL     1     -34.009  15.309  -1.177  1.00 20.00     0.102 HD
ENDBRANCH   7  10
TORSDOF 2
ENDMDL
MODEL 2
REMARK VINA RESULT:      -3.5     11.676     12.457
REMARK  2 active torsions:
REMARK  status: ('A' for Active; 'I' for Inactive)
REMARK    1  A    between atoms: C6_6  and  S8_8 
REMARK    2  A    between atoms: C7_7  and  S9_9 
ROOT
HETATM    1  C1  UNL     1     -42.378   4.981   0.100  1.00 20.00     0.011 C 
HETATM    2  C2  UNL     1     -40.824   4.290  -1.566  1.00 20.00     0.020 C 
HETATM    3  C3  UNL     1     -40.995   6.688  -0.819  1.00 20.00     0.020 C 
HETATM    4  C4  UNL     1     -40.938   5.222  -0.344  1.00 20.00    -0.012 C 
HETATM    5  C5  UNL     1     -42.964   5.365  -1.265  1.00 20.00     0.013 C 
HETATM    6  C6  UNL     1     -42.212   4.410  -2.226  1.00 20.00     0.050 C 
HETATM    7  C7  UNL     1     -42.382   6.784  -1.488  1.00 20.00     0.050 C 
ENDROOT
BRANCH   6   8
HETATM    8  S8  UNL     1     -43.039   2.794  -2.380  1.00 20.00    -0.177 SA
HETATM    9  H20 UNL     1     -42.283   2.168  -1.470  1.00 20.00     0.102 HD
ENDBRANCH   6   8
BRANCH   7  10
HETATM   10  S9  UNL     1     -43.417   8.079  -0.733  1.00 20.00    -0.177 SA
HETATM   11  H21 UNL     1     -44.076   8.397  -1.854  1.00 20.00     0.102 HD
ENDBRANCH   7  10
TORSDOF 2
ENDMDL
MODEL 3
REMARK VINA RESULT:      -3.5      2.510      4.140
REMARK  2 active torsions:
REMARK  status: ('A' for Active; 'I' for Inactive)
REMARK    1  A    between atoms: C6_6  and  S8_8 
REMARK    2  A    between atoms: C7_7  and  S9_9 
ROOT
HETATM    1  C1  UNL     1     -35.487  16.630  -3.292  1.00 20.00     0.011 C 
HETATM    2  C2  UNL     1     -33.754  18.073  -2.529  1.00 20.00     0.020 C 
HETATM    3  C3  UNL     1     -33.391  16.436  -4.407  1.00 20.00     0.020 C 
HETATM    4  C4  UNL     1     -34.350  17.495  -3.827  1.00 20.00    -0.012 C 
HETATM    5  C5  UNL     1     -34.559  15.801  -2.393  1.00 20.00     0.013 C 
HETATM    6  C6  UNL     1     -33.865  16.894  -1.541  1.00 20.00     0.050 C 
HETATM    7  C7  UNL     1     -33.506  15.274  -3.400  1.00 20.00     0.050 C 
ENDROOT
BRANCH   6   8
HETATM    8  S8  UNL     1     -34.831  17.332  -0.059  1.00 20.00    -0.177 SA
HETATM    9  H20 UNL     1     -33.992  18.281   0.373  1.00 20.00     0.102 HD
ENDBRANCH   6   8
BRANCH   7  10
HETATM   10  S9  UNL     1     -34.034  13.725  -4.200  1.00 20.00    -0.177 SA
HETATM   11  H21 UNL     1     -34.777  14.308  -5.150  1.00 20.00     0.102 HD
ENDBRANCH   7  10
TORSDOF 2
ENDMDL
MODEL 4
REMARK VINA RESULT:      -3.4      1.249      1.328
REMARK  2 active torsions:
REMARK  status: ('A' for Active; 'I' for Inactive)
REMARK    1  A    between atoms: C6_6  and  S8_8 
REMARK    2  A    between atoms: C7_7  and  S9_9 
ROOT
HETATM    1  C1  UNL     1     -35.900  15.297  -4.185  1.00 20.00     0.011 C 
HETATM    2  C2  UNL     1     -34.487  13.586  -5.048  1.00 20.00     0.020 C 
HETATM    3  C3  UNL     1     -33.742  15.116  -3.192  1.00 20.00     0.020 C 
HETATM    4  C4  UNL     1     -34.900  14.243  -3.717  1.00 20.00    -0.012 C 
HETATM    5  C5  UNL     1     -34.896  15.963  -5.136  1.00 20.00     0.013 C 
HETATM    6  C6  UNL     1     -34.449  14.776  -6.027  1.00 20.00     0.050 C 
HETATM    7  C7  UNL     1     -33.713  16.291  -4.191  1.00 20.00     0.050 C 
ENDROOT
BRANCH   6   8
HETATM    8  S8  UNL     1     -35.559  14.527  -7.451  1.00 20.00    -0.177 SA
HETATM    9  H20 UNL     1     -35.310  15.711  -8.025  1.00 20.00     0.102 HD
ENDBRANCH   6   8
BRANCH   7  10
HETATM   10  S9  UNL     1     -33.920  17.899  -3.360  1.00 20.00    -0.177 SA
HETATM   11  H21 UNL     1     -35.222  17.744  -3.086  1.00 20.00     0.102 HD
ENDBRANCH   7  10
TORSDOF 2
ENDMDL
MODEL 5
REMARK VINA RESULT:      -3.4      1.552      3.417
REMARK  2 active torsions:
REMARK  status: ('A' for Active; 'I' for Inactive)
REMARK    1  A    between atoms: C6_6  and  S8_8 
REMARK    2  A    between atoms: C7_7  and  S9_9 
ROOT
HETATM    1  C1  UNL     1     -33.222  16.307  -4.604  1.00 20.00     0.011 C 
HETATM    2  C2  UNL     1     -34.052  16.085  -2.384  1.00 20.00     0.020 C 
HETATM    3  C3  UNL     1     -34.091  14.169  -4.016  1.00 20.00     0.020 C 
HETATM    4  C4  UNL     1     -33.237  15.317  -3.443  1.00 20.00    -0.012 C 
HETATM    5  C5  UNL     1     -34.752  16.395  -4.672  1.00 20.00     0.013 C 
HETATM    6  C6  UNL     1     -35.123  16.807  -3.225  1.00 20.00     0.050 C 
HETATM    7  C7  UNL     1     -35.163  14.911  -4.841  1.00 20.00     0.050 C 
ENDROOT
BRANCH   6   8
HETATM    8  S8  UNL     1     -35.077  18.613  -2.988  1.00 20.00    -0.177 SA
HETATM    9  H20 UNL     1     -34.204  18.856  -3.973  1.00 20.00     0.102 HD
ENDBRANCH   6   8
BRANCH   7  10
HETATM   10  S9  UNL     1     -35.163  14.391  -6.587  1.00 20.00    -0.177 SA
HETATM   11  H21 UNL     1     -36.412  13.909  -6.586  1.00 20.00     0.102 HD
ENDBRANCH   7  10
TORSDOF 2
ENDMDL
MODEL 6
REMARK VINA RESULT:      -3.3      2.203      2.912
REMARK  2 active torsions:
REMARK  status: ('A' for Active; 'I' for Inactive)
REMARK    1  A    between atoms: C6_6  and  S8_8 
REMARK    2  A    between atoms: C7_7  and  S9_9 
ROOT
HETATM    1  C1  UNL     1     -35.083  15.789  -2.436  1.00 20.00     0.011 C 
HETATM    2  C2  UNL     1     -33.077  15.296  -3.619  1.00 20.00     0.020 C 
HETATM    3  C3  UNL     1     -33.832  17.662  -3.209  1.00 20.00     0.020 C 
HETATM    4  C4  UNL     1     -33.642  16.272  -2.570  1.00 20.00    -0.012 C 
HETATM    5  C5  UNL     1     -35.377  15.956  -3.933  1.00 20.00     0.013 C 
HETATM    6  C6  UNL     1     -34.263  15.100  -4.585  1.00 20.00     0.050 C 
HETATM    7  C7  UNL     1     -35.010  17.441  -4.179  1.00 20.00     0.050 C 
ENDROOT
BRANCH   6   8
HETATM    8  S8  UNL     1     -34.739  13.347  -4.736  1.00 20.00    -0.177 SA
HETATM    9  H20 UNL     1     -35.152  13.210  -3.470  1.00 20.00     0.102 HD
ENDBRANCH   6   8
BRANCH   7  10
HETATM   10  S9  UNL     1     -36.404  18.562  -3.830  1.00 20.00    -0.177 SA
HETATM   11  H21 UNL     1     -37.265  17.601  -3.471  1.00 20.00     0.102 HD
ENDBRANCH   7  10
TORSDOF 2
ENDMDL
MODEL 7
REMARK VINA RESULT:      -3.3      1.945      2.302
REMARK  2 active torsions:
REMARK  status: ('A' for Active; 'I' for Inactive)
REMARK    1  A    between atoms: C6_6  and  S8_8 
REMARK    2  A    between atoms: C7_7  and  S9_9 
ROOT
HETATM    1  C1  UNL     1     -35.048  15.909  -2.560  1.00 20.00     0.011 C 
HETATM    2  C2  UNL     1     -35.199  13.971  -3.934  1.00 20.00     0.020 C 
HETATM    3  C3  UNL     1     -33.289  15.598  -4.134  1.00 20.00     0.020 C 
HETATM    4  C4  UNL     1     -34.171  14.808  -3.148  1.00 20.00    -0.012 C 
HETATM    5  C5  UNL     1     -35.571  16.355  -3.932  1.00 20.00     0.013 C 
HETATM    6  C6  UNL     1     -36.152  15.039  -4.507  1.00 20.00     0.050 C 
HETATM    7  C7  UNL     1     -34.262  16.650  -4.706  1.00 20.00     0.050 C 
ENDROOT
BRANCH   6   8
HETATM    8  S8  UNL     1     -37.878  14.763  -3.993  1.00 20.00    -0.177 SA
HETATM    9  H20 UNL     1     -38.432  15.383  -5.042  1.00 20.00     0.102 HD
ENDBRANCH   6   8
BRANCH   7  10
HETATM   10  S9  UNL     1     -33.667  18.350  -4.432  1.00 20.00    -0.177 SA
HETATM   11  H21 UNL     1     -33.900  18.365  -3.114  1.00 20.00     0.102 HD
ENDBRANCH   7  10
TORSDOF 2
ENDMDL
MODEL 8
REMARK VINA RESULT:      -3.3      1.872      2.818
REMARK  2 active torsions:
REMARK  status: ('A' for Active; 'I' for Inactive)
REMARK    1  A    between atoms: C6_6  and  S8_8 
REMARK    2  A    between atoms: C7_7  and  S9_9 
ROOT
HETATM    1  C1  UNL     1     -33.434  16.191  -3.679  1.00 20.00     0.011 C 
HETATM    2  C2  UNL     1     -35.326  15.977  -5.109  1.00 20.00     0.020 C 
HETATM    3  C3  UNL     1     -35.259  17.656  -3.234  1.00 20.00     0.020 C 
HETATM    4  C4  UNL     1     -34.466  17.047  -4.408  1.00 20.00    -0.012 C 
HETATM    5  C5  UNL     1     -34.498  15.388  -2.919  1.00 20.00     0.013 C 
HETATM    6  C6  UNL     1     -35.380  14.839  -4.069  1.00 20.00     0.050 C 
HETATM    7  C7  UNL     1     -35.313  16.501  -2.214  1.00 20.00     0.050 C 
ENDROOT
BRANCH   6   8
HETATM    8  S8  UNL     1     -34.742  13.269  -4.739  1.00 20.00    -0.177 SA
HETATM    9  H20 UNL     1     -34.597  12.665  -3.553  1.00 20.00     0.102 HD
ENDBRANCH   6   8
BRANCH   7  10
HETATM   10  S9  UNL     1     -34.591  16.972  -0.609  1.00 20.00    -0.177 SA
HETATM   11  H21 UNL     1     -35.500  16.335   0.141  1.00 20.00     0.102 HD
ENDBRANCH   7  10
TORSDOF 2
ENDMDL
MODEL 9
REMARK VINA RESULT:      -3.3      1.167      3.545
REMARK  2 active torsions:
REMARK  status: ('A' for Active; 'I' for Inactive)
REMARK    1  A    between atoms: C6_6  and  S8_8 
REMARK    2  A    between atoms: C7_7  and  S9_9 
ROOT
HETATM    1  C1  UNL     1     -34.542  17.083  -4.642  1.00 20.00     0.011 C 
HETATM    2  C2  UNL     1     -33.246  15.449  -3.493  1.00 20.00     0.020 C 
HETATM    3  C3  UNL     1     -34.382  14.948  -5.684  1.00 20.00     0.020 C 
HETATM    4  C4  UNL     1     -33.529  15.975  -4.914  1.00 20.00    -0.012 C 
HETATM    5  C5  UNL     1     -35.518  16.143  -3.922  1.00 20.00     0.013 C 
HETATM    6  C6  UNL     1     -34.627  15.531  -2.812  1.00 20.00     0.050 C 
HETATM    7  C7  UNL     1     -35.751  15.034  -4.979  1.00 20.00     0.050 C 
ENDROOT
BRANCH   6   8
HETATM    8  S8  UNL     1     -34.588  16.563  -1.310  1.00 20.00    -0.177 SA
HETATM    9  H20 UNL     1     -33.279  16.410  -1.075  1.00 20.00     0.102 HD
ENDBRANCH   6   8
BRANCH   7  10
HETATM   10  S9  UNL     1     -37.091  15.459  -6.138  1.00 20.00    -0.177 SA
HETATM   11  H21 UNL     1     -37.979  15.808  -5.199  1.00 20.00     0.102 HD
ENDBRANCH   7  10
TORSDOF 2
ENDMDL
