MODEL 1
REMARK VINA RESULT:      -3.8      0.000      0.000
REMARK  0 active torsions:
REMARK  status: ('A' for Active; 'I' for Inactive)
ROOT
HETATM    1  C1  UNL     1     -34.518   5.630   6.411  1.00 20.00     0.096 A 
HETATM    2  C2  UNL     1     -35.329   4.337   4.748  1.00 20.00     0.096 A 
HETATM    3  C3  UNL     1     -33.920   6.023   5.241  1.00 20.00    -0.025 A 
HETATM    4  C4  UNL     1     -34.427   5.213   4.200  1.00 20.00    -0.025 A 
HETATM    5  C5  UNL     1     -32.925   7.049   4.883  1.00 20.00     0.114 A 
HETATM    6  C6  UNL     1     -33.921   5.458   2.838  1.00 20.00     0.114 A 
HETATM    7  N7  UNL     1     -35.377   4.600   6.098  1.00 20.00    -0.374 N 
HETATM    8  S8  UNL     1     -32.713   6.854   3.048  1.00 20.00    -0.160 SA
HETATM    9  H15 UNL     1     -35.957   4.108   6.764  1.00 20.00     0.164 HD
ENDROOT
TORSDOF 0
ENDMDL
MODEL 2
REMARK VINA RESULT:      -3.8      0.040      1.924
REMARK  0 active torsions:
REMARK  status: ('A' for Active; 'I' for Inactive)
ROOT
HETATM    1  C1  UNL     1     -35.341   4.331   4.696  1.00 20.00     0.096 A 
HETATM    2  C2  UNL     1     -34.524   5.592   6.381  1.00 20.00     0.096 A 
HETATM    3  C3  UNL     1     -34.432   5.210   4.163  1.00 20.00    -0.025 A 
HETATM    4  C4  UNL     1     -33.922   6.000   5.218  1.00 20.00    -0.025 A 
HETATM    5  C5  UNL     1     -33.923   5.473   2.806  1.00 20.00     0.114 A 
HETATM    6  C6  UNL     1     -32.919   7.025   4.878  1.00 20.00     0.114 A 
HETATM    7  N7  UNL     1     -35.388   4.573   6.051  1.00 20.00    -0.374 N 
HETATM    8  S8  UNL     1     -32.707   6.858   3.039  1.00 20.00    -0.160 SA
HETATM    9  H15 UNL     1     -35.974   4.075   6.707  1.00 20.00     0.164 HD
ENDROOT
TORSDOF 0
ENDMDL
MODEL 3
REMARK VINA RESULT:      -3.7     12.173     12.525
REMARK  0 active torsions:
REMARK  status: ('A' for Active; 'I' for Inactive)
ROOT
HETATM    1  C1  UNL     1     -33.189  14.018  -3.702  1.00 20.00     0.096 A 
HETATM    2  C2  UNL     1     -35.279  13.417  -4.312  1.00 20.00     0.096 A 
HETATM    3  C3  UNL     1     -34.049  15.005  -3.290  1.00 20.00    -0.025 A 
HETATM    4  C4  UNL     1     -35.357  14.629  -3.673  1.00 20.00    -0.025 A 
HETATM    5  C5  UNL     1     -33.888  16.285  -2.580  1.00 20.00     0.114 A 
HETATM    6  C6  UNL     1     -36.457  15.547  -3.330  1.00 20.00     0.114 A 
HETATM    7  N7  UNL     1     -33.951  13.054  -4.324  1.00 20.00    -0.374 N 
HETATM    8  S8  UNL     1     -35.616  16.956  -2.458  1.00 20.00    -0.160 SA
HETATM    9  H15 UNL     1     -33.587  12.204  -4.732  1.00 20.00     0.164 HD
ENDROOT
TORSDOF 0
ENDMDL
MODEL 4
REMARK VINA RESULT:      -3.7     12.169     12.617
REMARK  0 active torsions:
REMARK  status: ('A' for Active; 'I' for Inactive)
ROOT
HETATM    1  C1  UNL     1     -35.258  13.406  -4.322  1.00 20.00     0.096 A 
HETATM    2  C2  UNL     1     -33.178  14.021  -3.695  1.00 20.00     0.096 A 
HETATM    3  C3  UNL     1     -35.351  14.613  -3.676  1.00 20.00    -0.025 A 
HETATM    4  C4  UNL     1     -34.049  14.997  -3.282  1.00 20.00    -0.025 A 
HETATM    5  C5  UNL     1     -36.461  15.519  -3.335  1.00 20.00     0.114 A 
HETATM    6  C6  UNL     1     -33.904  16.275  -2.563  1.00 20.00     0.114 A 
HETATM    7  N7  UNL     1     -33.926  13.055  -4.328  1.00 20.00    -0.374 N 
HETATM    8  S8  UNL     1     -35.639  16.929  -2.448  1.00 20.00    -0.160 SA
HETATM    9  H15 UNL     1     -33.553  12.209  -4.737  1.00 20.00     0.164 HD
ENDROOT
TORSDOF 0
ENDMDL
MODEL 5
REMARK VINA RESULT:      -3.6     12.699     13.533
REMARK  0 active torsions:
REMARK  status: ('A' for Active; 'I' for Inactive)
ROOT
HETATM    1  C1  UNL     1     -33.416  14.653  -3.668  1.00 20.00     0.096 A 
HETATM    2  C2  UNL     1     -34.629  13.115  -4.791  1.00 20.00     0.096 A 
HETATM    3  C3  UNL     1     -33.822  15.217  -4.850  1.00 20.00    -0.025 A 
HETATM    4  C4  UNL     1     -34.581  14.255  -5.554  1.00 20.00    -0.025 A 
HETATM    5  C5  UNL     1     -33.635  16.534  -5.484  1.00 20.00     0.114 A 
HETATM    6  C6  UNL     1     -35.126  14.644  -6.866  1.00 20.00     0.114 A 
HETATM    7  N7  UNL     1     -33.915  13.369  -3.642  1.00 20.00    -0.374 N 
HETATM    8  S8  UNL     1     -34.549  16.395  -7.095  1.00 20.00    -0.160 SA
HETATM    9  H15 UNL     1     -33.776  12.710  -2.889  1.00 20.00     0.164 HD
ENDROOT
TORSDOF 0
ENDMDL
MODEL 6
REMARK VINA RESULT:      -3.6     12.702     13.667
REMARK  0 active torsions:
REMARK  status: ('A' for Active; 'I' for Inactive)
ROOT
HETATM    1  C1  UNL     1     -34.702  13.099  -4.830  1.00 20.00     0.096 A 
HETATM    2  C2  UNL     1     -33.498  14.623  -3.679  1.00 20.00     0.096 A 
HETATM    3  C3  UNL     1     -34.627  14.239  -5.589  1.00 20.00    -0.025 A 
HETATM    4  C4  UNL     1     -33.875  15.193  -4.868  1.00 20.00    -0.025 A 
HETATM    5  C5  UNL     1     -35.142  14.634  -6.912  1.00 20.00     0.114 A 
HETATM    6  C6  UNL     1     -33.662  16.509  -5.496  1.00 20.00     0.114 A 
HETATM    7  N7  UNL     1     -34.008  13.344  -3.666  1.00 20.00    -0.374 N 
HETATM    8  S8  UNL     1     -34.546  16.380  -7.125  1.00 20.00    -0.160 SA
HETATM    9  H15 UNL     1     -33.892  12.682  -2.911  1.00 20.00     0.164 HD
ENDROOT
TORSDOF 0
ENDMDL
MODEL 7
REMARK VINA RESULT:      -3.6      9.555     10.347
REMARK  0 active torsions:
REMARK  status: ('A' for Active; 'I' for Inactive)
ROOT
HETATM    1  C1  UNL     1     -41.642   4.094  -2.150  1.00 20.00     0.096 A 
HETATM    2  C2  UNL     1     -40.625   5.328  -0.556  1.00 20.00     0.096 A 
HETATM    3  C3  UNL     1     -42.076   5.389  -2.277  1.00 20.00    -0.025 A 
HETATM    4  C4  UNL     1     -41.440   6.161  -1.279  1.00 20.00    -0.025 A 
HETATM    5  C5  UNL     1     -43.008   6.082  -3.184  1.00 20.00     0.114 A 
HETATM    6  C6  UNL     1     -41.758   7.599  -1.223  1.00 20.00     0.114 A 
HETATM    7  N7  UNL     1     -40.755   4.069  -1.097  1.00 20.00    -0.374 N 
HETATM    8  S8  UNL     1     -42.975   7.847  -2.605  1.00 20.00    -0.160 SA
HETATM    9  H15 UNL     1     -40.273   3.244  -0.768  1.00 20.00     0.164 HD
ENDROOT
TORSDOF 0
ENDMDL
MODEL 8
REMARK VINA RESULT:      -3.6      9.571     10.189
REMARK  0 active torsions:
REMARK  status: ('A' for Active; 'I' for Inactive)
ROOT
HETATM    1  C1  UNL     1     -40.598   5.195  -0.636  1.00 20.00     0.096 A 
HETATM    2  C2  UNL     1     -41.690   4.023  -2.227  1.00 20.00     0.096 A 
HETATM    3  C3  UNL     1     -41.418   6.063  -1.312  1.00 20.00    -0.025 A 
HETATM    4  C4  UNL     1     -42.100   5.330  -2.309  1.00 20.00    -0.025 A 
HETATM    5  C5  UNL     1     -41.703   7.505  -1.211  1.00 20.00     0.114 A 
HETATM    6  C6  UNL     1     -43.045   6.064  -3.168  1.00 20.00     0.114 A 
HETATM    7  N7  UNL     1     -40.774   3.952  -1.203  1.00 20.00    -0.374 N 
HETATM    8  S8  UNL     1     -42.955   7.813  -2.548  1.00 20.00    -0.160 SA
HETATM    9  H15 UNL     1     -40.297   3.111  -0.910  1.00 20.00     0.164 HD
ENDROOT
TORSDOF 0
ENDMDL
MODEL 9
REMARK VINA RESULT:      -3.5     12.612     13.539
REMARK  0 active torsions:
REMARK  status: ('A' for Active; 'I' for Inactive)
ROOT
HETATM    1  C1  UNL     1     -34.817  13.563  -5.565  1.00 20.00     0.096 A 
HETATM    2  C2  UNL     1     -34.078  13.917  -3.461  1.00 20.00     0.096 A 
HETATM    3  C3  UNL     1     -34.407  14.869  -5.476  1.00 20.00    -0.025 A 
HETATM    4  C4  UNL     1     -33.945  15.091  -4.158  1.00 20.00    -0.025 A 
HETATM    5  C5  UNL     1     -34.358  16.003  -6.414  1.00 20.00     0.114 A 
HETATM    6  C6  UNL     1     -33.450  16.439  -3.827  1.00 20.00     0.114 A 
HETATM    7  N7  UNL     1     -34.610  12.991  -4.329  1.00 20.00    -0.374 N 
HETATM    8  S8  UNL     1     -33.648  17.394  -5.409  1.00 20.00    -0.160 SA
HETATM    9  H15 UNL     1     -34.822  12.031  -4.094  1.00 20.00     0.164 HD
ENDROOT
TORSDOF 0
ENDMDL
