MODEL 1
REMARK VINA RESULT:      -4.1      0.000      0.000
REMARK  2 active torsions:
REMARK  status: ('A' for Active; 'I' for Inactive)
REMARK    1  A    between atoms: C1_1  and  C5_5 
REMARK    2  A    between atoms: C5_5  and  C6_6 
ROOT
HETATM    1  C5  UNL     1     -34.075   6.623   4.176  1.00 20.00     0.190 C 
HETATM    2 CL9  UNL     1     -35.046   5.405   3.297  1.00 20.00    -0.114 Cl
ENDROOT
BRANCH   1   3
HETATM    3  C1  UNL     1     -34.062   6.154   5.624  1.00 20.00     0.144 C 
HETATM    4  C2  UNL     1     -34.499   4.735   5.881  1.00 20.00     0.092 C 
HETATM    5  O7  UNL     1     -33.738   6.895   6.552  1.00 20.00    -0.297 OA
ENDBRANCH   1   3
BRANCH   1   6
HETATM    6  C6  UNL     1     -32.664   6.784   3.581  1.00 20.00     0.119 C 
HETATM    7  C3  UNL     1     -32.115   5.452   3.066  1.00 20.00     0.053 C 
HETATM    8  C4  UNL     1     -32.620   7.817   2.454  1.00 20.00     0.053 C 
HETATM    9  F8  UNL     1     -31.818   7.219   4.562  1.00 20.00    -0.242 F 
ENDBRANCH   1   6
TORSDOF 2
ENDMDL
MODEL 2
REMARK VINA RESULT:      -4.0      2.376      3.502
REMARK  2 active torsions:
REMARK  status: ('A' for Active; 'I' for Inactive)
REMARK    1  A    between atoms: C1_1  and  C5_5 
REMARK    2  A    between atoms: C5_5  and  C6_6 
ROOT
HETATM    1  C5  UNL     1     -33.943   6.629   4.100  1.00 20.00     0.190 C 
HETATM    2 CL9  UNL     1     -33.535   6.591   5.841  1.00 20.00    -0.114 Cl
ENDROOT
BRANCH   1   3
HETATM    3  C1  UNL     1     -32.605   6.607   3.375  1.00 20.00     0.144 C 
HETATM    4  C2  UNL     1     -32.285   7.798   2.508  1.00 20.00     0.092 C 
HETATM    5  O7  UNL     1     -31.826   5.658   3.461  1.00 20.00    -0.297 OA
ENDBRANCH   1   3
BRANCH   1   6
HETATM    6  C6  UNL     1     -34.870   5.469   3.693  1.00 20.00     0.119 C 
HETATM    7  C3  UNL     1     -34.936   4.394   4.779  1.00 20.00     0.053 C 
HETATM    8  C4  UNL     1     -36.287   5.941   3.364  1.00 20.00     0.053 C 
HETATM    9  F8  UNL     1     -34.368   4.878   2.567  1.00 20.00    -0.242 F 
ENDBRANCH   1   6
TORSDOF 2
ENDMDL
MODEL 3
REMARK VINA RESULT:      -4.0     11.805     12.479
REMARK  2 active torsions:
REMARK  status: ('A' for Active; 'I' for Inactive)
REMARK    1  A    between atoms: C1_1  and  C5_5 
REMARK    2  A    between atoms: C5_5  and  C6_6 
ROOT
HETATM    1  C5  UNL     1     -34.072  14.920  -4.401  1.00 20.00     0.190 C 
HETATM    2 CL9  UNL     1     -32.728  14.141  -3.516  1.00 20.00    -0.114 Cl
ENDROOT
BRANCH   1   3
HETATM    3  C1  UNL     1     -34.696  13.812  -5.238  1.00 20.00     0.144 C 
HETATM    4  C2  UNL     1     -35.264  14.212  -6.576  1.00 20.00     0.092 C 
HETATM    5  O7  UNL     1     -34.766  12.649  -4.842  1.00 20.00    -0.297 OA
ENDBRANCH   1   3
BRANCH   1   6
HETATM    6  C6  UNL     1     -35.077  15.601  -3.454  1.00 20.00     0.119 C 
HETATM    7  C3  UNL     1     -34.430  15.971  -2.119  1.00 20.00     0.053 C 
HETATM    8  C4  UNL     1     -35.707  16.850  -4.072  1.00 20.00     0.053 C 
HETATM    9  F8  UNL     1     -36.092  14.726  -3.186  1.00 20.00    -0.242 F 
ENDBRANCH   1   6
TORSDOF 2
ENDMDL
MODEL 4
REMARK VINA RESULT:      -4.0     12.149     12.560
REMARK  2 active torsions:
REMARK  status: ('A' for Active; 'I' for Inactive)
REMARK    1  A    between atoms: C1_1  and  C5_5 
REMARK    2  A    between atoms: C5_5  and  C6_6 
ROOT
HETATM    1  C5  UNL     1     -35.124  14.919  -3.966  1.00 20.00     0.190 C 
HETATM    2 CL9  UNL     1     -36.276  16.077  -4.693  1.00 20.00    -0.114 Cl
ENDROOT
BRANCH   1   3
HETATM    3  C1  UNL     1     -34.996  13.791  -4.980  1.00 20.00     0.144 C 
HETATM    4  C2  UNL     1     -35.140  14.167  -6.432  1.00 20.00     0.092 C 
HETATM    5  O7  UNL     1     -34.812  12.622  -4.644  1.00 20.00    -0.297 OA
ENDBRANCH   1   3
BRANCH   1   6
HETATM    6  C6  UNL     1     -33.774  15.577  -3.622  1.00 20.00     0.119 C 
HETATM    7  C3  UNL     1     -33.310  16.520  -4.734  1.00 20.00     0.053 C 
HETATM    8  C4  UNL     1     -33.818  16.341  -2.298  1.00 20.00     0.053 C 
HETATM    9  F8  UNL     1     -32.827  14.601  -3.495  1.00 20.00    -0.242 F 
ENDBRANCH   1   6
TORSDOF 2
ENDMDL
MODEL 5
REMARK VINA RESULT:      -3.9     12.086     12.430
REMARK  2 active torsions:
REMARK  status: ('A' for Active; 'I' for Inactive)
REMARK    1  A    between atoms: C1_1  and  C5_5 
REMARK    2  A    between atoms: C5_5  and  C6_6 
ROOT
HETATM    1  C5  UNL     1     -35.533  14.606  -3.642  1.00 20.00     0.190 C 
HETATM    2 CL9  UNL     1     -37.109  15.330  -4.079  1.00 20.00    -0.114 Cl
ENDROOT
BRANCH   1   3
HETATM    3  C1  UNL     1     -35.149  13.737  -4.832  1.00 20.00     0.144 C 
HETATM    4  C2  UNL     1     -35.295  14.357  -6.198  1.00 20.00     0.092 C 
HETATM    5  O7  UNL     1     -34.763  12.576  -4.701  1.00 20.00    -0.297 OA
ENDBRANCH   1   3
BRANCH   1   6
HETATM    6  C6  UNL     1     -34.474  15.672  -3.307  1.00 20.00     0.119 C 
HETATM    7  C3  UNL     1     -34.590  16.144  -1.857  1.00 20.00     0.053 C 
HETATM    8  C4  UNL     1     -33.048  15.180  -3.564  1.00 20.00     0.053 C 
HETATM    9  F8  UNL     1     -34.676  16.762  -4.107  1.00 20.00    -0.242 F 
ENDBRANCH   1   6
TORSDOF 2
ENDMDL
MODEL 6
REMARK VINA RESULT:      -3.8     11.629     12.954
REMARK  2 active torsions:
REMARK  status: ('A' for Active; 'I' for Inactive)
REMARK    1  A    between atoms: C1_1  and  C5_5 
REMARK    2  A    between atoms: C5_5  and  C6_6 
ROOT
HETATM    1  C5  UNL     1     -35.329  14.952  -4.641  1.00 20.00     0.190 C 
HETATM    2 CL9  UNL     1     -37.039  14.637  -4.223  1.00 20.00    -0.114 Cl
ENDROOT
BRANCH   1   3
HETATM    3  C1  UNL     1     -34.581  13.686  -4.247  1.00 20.00     0.144 C 
HETATM    4  C2  UNL     1     -33.201  13.868  -3.667  1.00 20.00     0.092 C 
HETATM    5  O7  UNL     1     -35.055  12.563  -4.413  1.00 20.00    -0.297 OA
ENDBRANCH   1   3
BRANCH   1   6
HETATM    6  C6  UNL     1     -35.150  15.320  -6.126  1.00 20.00     0.119 C 
HETATM    7  C3  UNL     1     -36.444  15.113  -6.916  1.00 20.00     0.053 C 
HETATM    8  C4  UNL     1     -34.668  16.759  -6.316  1.00 20.00     0.053 C 
HETATM    9  F8  UNL     1     -34.204  14.501  -6.673  1.00 20.00    -0.242 F 
ENDBRANCH   1   6
TORSDOF 2
ENDMDL
MODEL 7
REMARK VINA RESULT:      -3.8      2.135      2.311
REMARK  2 active torsions:
REMARK  status: ('A' for Active; 'I' for Inactive)
REMARK    1  A    between atoms: C1_1  and  C5_5 
REMARK    2  A    between atoms: C5_5  and  C6_6 
ROOT
HETATM    1  C5  UNL     1     -33.628   5.768   4.996  1.00 20.00     0.190 C 
HETATM    2 CL9  UNL     1     -33.762   6.912   6.364  1.00 20.00    -0.114 Cl
ENDROOT
BRANCH   1   3
HETATM    3  C1  UNL     1     -34.936   4.989   4.996  1.00 20.00     0.144 C 
HETATM    4  C2  UNL     1     -35.066   3.884   6.012  1.00 20.00     0.092 C 
HETATM    5  O7  UNL     1     -35.840   5.222   4.194  1.00 20.00    -0.297 OA
ENDBRANCH   1   3
BRANCH   1   6
HETATM    6  C6  UNL     1     -33.352   6.484   3.661  1.00 20.00     0.119 C 
HETATM    7  C3  UNL     1     -31.960   7.118   3.641  1.00 20.00     0.053 C 
HETATM    8  C4  UNL     1     -33.499   5.552   2.458  1.00 20.00     0.053 C 
HETATM    9  F8  UNL     1     -34.261   7.493   3.506  1.00 20.00    -0.242 F 
ENDBRANCH   1   6
TORSDOF 2
ENDMDL
MODEL 8
REMARK VINA RESULT:      -3.7     12.227     13.079
REMARK  2 active torsions:
REMARK  status: ('A' for Active; 'I' for Inactive)
REMARK    1  A    between atoms: C1_1  and  C5_5 
REMARK    2  A    between atoms: C5_5  and  C6_6 
ROOT
HETATM    1  C5  UNL     1     -34.546  14.989  -4.549  1.00 20.00     0.190 C 
HETATM    2 CL9  UNL     1     -34.433  13.240  -4.902  1.00 20.00    -0.114 Cl
ENDROOT
BRANCH   1   3
HETATM    3  C1  UNL     1     -33.460  15.260  -3.516  1.00 20.00     0.144 C 
HETATM    4  C2  UNL     1     -33.769  16.294  -2.464  1.00 20.00     0.092 C 
HETATM    5  O7  UNL     1     -32.370  14.690  -3.543  1.00 20.00    -0.297 OA
ENDBRANCH   1   3
BRANCH   1   6
HETATM    6  C6  UNL     1     -34.400  15.851  -5.816  1.00 20.00     0.119 C 
HETATM    7  C3  UNL     1     -34.403  14.993  -7.083  1.00 20.00     0.053 C 
HETATM    8  C4  UNL     1     -35.493  16.916  -5.927  1.00 20.00     0.053 C 
HETATM    9  F8  UNL     1     -33.201  16.505  -5.771  1.00 20.00    -0.242 F 
ENDBRANCH   1   6
TORSDOF 2
ENDMDL
MODEL 9
REMARK VINA RESULT:      -3.7     11.459     12.465
REMARK  2 active torsions:
REMARK  status: ('A' for Active; 'I' for Inactive)
REMARK    1  A    between atoms: C1_1  and  C5_5 
REMARK    2  A    between atoms: C5_5  and  C6_6 
ROOT
HETATM    1  C5  UNL     1     -34.957  15.076  -4.645  1.00 20.00     0.190 C 
HETATM    2 CL9  UNL     1     -33.529  16.117  -4.917  1.00 20.00    -0.114 Cl
ENDROOT
BRANCH   1   3
HETATM    3  C1  UNL     1     -34.394  13.724  -4.230  1.00 20.00     0.144 C 
HETATM    4  C2  UNL     1     -33.027  13.726  -3.596  1.00 20.00     0.092 C 
HETATM    5  O7  UNL     1     -35.002  12.671  -4.421  1.00 20.00    -0.297 OA
ENDBRANCH   1   3
BRANCH   1   6
HETATM    6  C6  UNL     1     -35.925  15.671  -3.606  1.00 20.00     0.119 C 
HETATM    7  C3  UNL     1     -36.061  17.187  -3.768  1.00 20.00     0.053 C 
HETATM    8  C4  UNL     1     -37.313  15.032  -3.667  1.00 20.00     0.053 C 
HETATM    9  F8  UNL     1     -35.426  15.439  -2.355  1.00 20.00    -0.242 F 
ENDBRANCH   1   6
TORSDOF 2
ENDMDL
