MODEL 1
REMARK VINA RESULT:      -4.1      0.000      0.000
REMARK  2 active torsions:
REMARK  status: ('A' for Active; 'I' for Inactive)
REMARK    1  A    between atoms: C1_1  and  C5_5 
REMARK    2  A    between atoms: C1_1  and  C6_6 
ROOT
HETATM    1  C1  UNL     1     -34.480  13.903  -4.946  1.00 20.00     0.182 C 
HETATM    2  O7  UNL     1     -34.835  12.721  -4.899  1.00 20.00    -0.293 OA
ENDROOT
BRANCH   1   3
HETATM    3  C5  UNL     1     -33.423  14.398  -3.985  1.00 20.00     0.335 C 
HETATM    4  F8  UNL     1     -32.704  13.355  -3.487  1.00 20.00    -0.225 F 
HETATM    5 CL9  UNL     1     -34.244  15.218  -2.647  1.00 20.00    -0.081 Cl
ENDBRANCH   1   3
BRANCH   1   6
HETATM    6  C6  UNL     1     -35.065  14.883  -5.983  1.00 20.00     0.014 C 
HETATM    7  C2  UNL     1     -35.265  14.197  -7.340  1.00 20.00     0.023 C 
HETATM    8  C3  UNL     1     -34.094  16.064  -6.175  1.00 20.00     0.023 C 
HETATM    9  C4  UNL     1     -36.402  15.425  -5.458  1.00 20.00     0.023 C 
ENDBRANCH   1   6
TORSDOF 2
ENDMDL
MODEL 2
REMARK VINA RESULT:      -4.1      0.023      1.447
REMARK  2 active torsions:
REMARK  status: ('A' for Active; 'I' for Inactive)
REMARK    1  A    between atoms: C1_1  and  C5_5 
REMARK    2  A    between atoms: C1_1  and  C6_6 
ROOT
HETATM    1  C1  UNL     1     -34.473  13.908  -4.945  1.00 20.00     0.182 C 
HETATM    2  O7  UNL     1     -34.819  12.723  -4.917  1.00 20.00    -0.293 OA
ENDROOT
BRANCH   1   3
HETATM    3  C5  UNL     1     -33.419  14.396  -3.978  1.00 20.00     0.335 C 
HETATM    4  F8  UNL     1     -32.711  13.348  -3.474  1.00 20.00    -0.225 F 
HETATM    5 CL9  UNL     1     -34.242  15.224  -2.647  1.00 20.00    -0.081 Cl
ENDBRANCH   1   3
BRANCH   1   6
HETATM    6  C6  UNL     1     -35.067  14.900  -5.967  1.00 20.00     0.014 C 
HETATM    7  C2  UNL     1     -36.421  15.439  -5.490  1.00 20.00     0.023 C 
HETATM    8  C3  UNL     1     -35.277  14.182  -7.313  1.00 20.00     0.023 C 
HETATM    9  C4  UNL     1     -34.077  16.054  -6.174  1.00 20.00     0.023 C 
ENDBRANCH   1   6
TORSDOF 2
ENDMDL
MODEL 3
REMARK VINA RESULT:      -3.8      2.810      3.594
REMARK  2 active torsions:
REMARK  status: ('A' for Active; 'I' for Inactive)
REMARK    1  A    between atoms: C1_1  and  C5_5 
REMARK    2  A    between atoms: C1_1  and  C6_6 
ROOT
HETATM    1  C1  UNL     1     -33.840  15.736  -5.059  1.00 20.00     0.182 C 
HETATM    2  O7  UNL     1     -32.878  16.499  -4.929  1.00 20.00    -0.293 OA
ENDROOT
BRANCH   1   3
HETATM    3  C5  UNL     1     -34.568  15.681  -6.383  1.00 20.00     0.335 C 
HETATM    4  F8  UNL     1     -33.996  14.760  -7.205  1.00 20.00    -0.225 F 
HETATM    5 CL9  UNL     1     -34.446  17.278  -7.138  1.00 20.00    -0.081 Cl
ENDBRANCH   1   3
BRANCH   1   6
HETATM    6  C6  UNL     1     -34.300  14.811  -3.914  1.00 20.00     0.014 C 
HETATM    7  C2  UNL     1     -33.311  13.658  -3.704  1.00 20.00     0.023 C 
HETATM    8  C3  UNL     1     -35.675  14.212  -4.260  1.00 20.00     0.023 C 
HETATM    9  C4  UNL     1     -34.433  15.639  -2.628  1.00 20.00     0.023 C 
ENDBRANCH   1   6
TORSDOF 2
ENDMDL
MODEL 4
REMARK VINA RESULT:      -3.8      2.638      3.440
REMARK  2 active torsions:
REMARK  status: ('A' for Active; 'I' for Inactive)
REMARK    1  A    between atoms: C1_1  and  C5_5 
REMARK    2  A    between atoms: C1_1  and  C6_6 
ROOT
HETATM    1  C1  UNL     1     -33.605  15.495  -3.814  1.00 20.00     0.182 C 
HETATM    2  O7  UNL     1     -32.681  15.945  -4.499  1.00 20.00    -0.293 OA
ENDROOT
BRANCH   1   3
HETATM    3  C5  UNL     1     -33.783  13.998  -3.701  1.00 20.00     0.335 C 
HETATM    4  F8  UNL     1     -32.577  13.383  -3.558  1.00 20.00    -0.225 F 
HETATM    5 CL9  UNL     1     -34.546  13.426  -5.193  1.00 20.00    -0.081 Cl
ENDBRANCH   1   3
BRANCH   1   6
HETATM    6  C6  UNL     1     -34.566  16.423  -3.043  1.00 20.00     0.014 C 
HETATM    7  C2  UNL     1     -34.087  16.641  -1.603  1.00 20.00     0.023 C 
HETATM    8  C3  UNL     1     -35.967  15.784  -2.996  1.00 20.00     0.023 C 
HETATM    9  C4  UNL     1     -34.662  17.766  -3.781  1.00 20.00     0.023 C 
ENDBRANCH   1   6
TORSDOF 2
ENDMDL
MODEL 5
REMARK VINA RESULT:      -3.8      2.622      3.202
REMARK  2 active torsions:
REMARK  status: ('A' for Active; 'I' for Inactive)
REMARK    1  A    between atoms: C1_1  and  C5_5 
REMARK    2  A    between atoms: C1_1  and  C6_6 
ROOT
HETATM    1  C1  UNL     1     -33.691  15.446  -3.776  1.00 20.00     0.182 C 
HETATM    2  O7  UNL     1     -32.740  15.934  -4.394  1.00 20.00    -0.293 OA
ENDROOT
BRANCH   1   3
HETATM    3  C5  UNL     1     -33.846  13.944  -3.717  1.00 20.00     0.335 C 
HETATM    4  F8  UNL     1     -32.633  13.344  -3.566  1.00 20.00    -0.225 F 
HETATM    5 CL9  UNL     1     -34.562  13.410  -5.246  1.00 20.00    -0.081 Cl
ENDBRANCH   1   3
BRANCH   1   6
HETATM    6  C6  UNL     1     -34.711  16.333  -3.031  1.00 20.00     0.014 C 
HETATM    7  C2  UNL     1     -36.115  15.719  -3.079  1.00 20.00     0.023 C 
HETATM    8  C3  UNL     1     -34.765  17.720  -3.696  1.00 20.00     0.023 C 
HETATM    9  C4  UNL     1     -34.253  16.502  -1.575  1.00 20.00     0.023 C 
ENDBRANCH   1   6
TORSDOF 2
ENDMDL
MODEL 6
REMARK VINA RESULT:      -3.8      2.465      3.211
REMARK  2 active torsions:
REMARK  status: ('A' for Active; 'I' for Inactive)
REMARK    1  A    between atoms: C1_1  and  C5_5 
REMARK    2  A    between atoms: C1_1  and  C6_6 
ROOT
HETATM    1  C1  UNL     1     -34.984  15.426  -3.044  1.00 20.00     0.182 C 
HETATM    2  O7  UNL     1     -36.215  15.480  -2.962  1.00 20.00    -0.293 OA
ENDROOT
BRANCH   1   3
HETATM    3  C5  UNL     1     -34.141  16.204  -2.060  1.00 20.00     0.335 C 
HETATM    4  F8  UNL     1     -34.682  16.143  -0.813  1.00 20.00    -0.225 F 
HETATM    5 CL9  UNL     1     -34.109  17.895  -2.587  1.00 20.00    -0.081 Cl
ENDBRANCH   1   3
BRANCH   1   6
HETATM    6  C6  UNL     1     -34.282  14.557  -4.108  1.00 20.00     0.014 C 
HETATM    7  C2  UNL     1     -34.172  15.301  -5.444  1.00 20.00     0.023 C 
HETATM    8  C3  UNL     1     -35.096  13.270  -4.335  1.00 20.00     0.023 C 
HETATM    9  C4  UNL     1     -32.887  14.174  -3.595  1.00 20.00     0.023 C 
ENDBRANCH   1   6
TORSDOF 2
ENDMDL
MODEL 7
REMARK VINA RESULT:      -3.7      2.595      3.411
REMARK  2 active torsions:
REMARK  status: ('A' for Active; 'I' for Inactive)
REMARK    1  A    between atoms: C1_1  and  C5_5 
REMARK    2  A    between atoms: C1_1  and  C6_6 
ROOT
HETATM    1  C1  UNL     1     -35.041  14.192  -4.719  1.00 20.00     0.182 C 
HETATM    2  O7  UNL     1     -35.287  12.998  -4.523  1.00 20.00    -0.293 OA
ENDROOT
BRANCH   1   3
HETATM    3  C5  UNL     1     -35.835  14.953  -5.756  1.00 20.00     0.335 C 
HETATM    4  F8  UNL     1     -37.170  14.801  -5.542  1.00 20.00    -0.225 F 
HETATM    5 CL9  UNL     1     -35.430  14.287  -7.346  1.00 20.00    -0.081 Cl
ENDBRANCH   1   3
BRANCH   1   6
HETATM    6  C6  UNL     1     -33.964  14.939  -3.905  1.00 20.00     0.014 C 
HETATM    7  C2  UNL     1     -33.338  16.072  -4.727  1.00 20.00     0.023 C 
HETATM    8  C3  UNL     1     -32.848  13.954  -3.509  1.00 20.00     0.023 C 
HETATM    9  C4  UNL     1     -34.603  15.498  -2.627  1.00 20.00     0.023 C 
ENDBRANCH   1   6
TORSDOF 2
ENDMDL
MODEL 8
REMARK VINA RESULT:      -3.6      2.707      3.249
REMARK  2 active torsions:
REMARK  status: ('A' for Active; 'I' for Inactive)
REMARK    1  A    between atoms: C1_1  and  C5_5 
REMARK    2  A    between atoms: C1_1  and  C6_6 
ROOT
HETATM    1  C1  UNL     1     -33.808  16.090  -4.256  1.00 20.00     0.182 C 
HETATM    2  O7  UNL     1     -32.798  16.423  -4.884  1.00 20.00    -0.293 OA
ENDROOT
BRANCH   1   3
HETATM    3  C5  UNL     1     -34.437  17.070  -3.292  1.00 20.00     0.335 C 
HETATM    4  F8  UNL     1     -34.154  18.350  -3.659  1.00 20.00    -0.225 F 
HETATM    5 CL9  UNL     1     -33.754  16.771  -1.686  1.00 20.00    -0.081 Cl
ENDBRANCH   1   3
BRANCH   1   6
HETATM    6  C6  UNL     1     -34.464  14.708  -4.453  1.00 20.00     0.014 C 
HETATM    7  C2  UNL     1     -35.829  14.641  -3.757  1.00 20.00     0.023 C 
HETATM    8  C3  UNL     1     -33.558  13.620  -3.849  1.00 20.00     0.023 C 
HETATM    9  C4  UNL     1     -34.620  14.441  -5.956  1.00 20.00     0.023 C 
ENDBRANCH   1   6
TORSDOF 2
ENDMDL
MODEL 9
REMARK VINA RESULT:      -3.6      2.196      2.662
REMARK  2 active torsions:
REMARK  status: ('A' for Active; 'I' for Inactive)
REMARK    1  A    between atoms: C1_1  and  C5_5 
REMARK    2  A    between atoms: C1_1  and  C6_6 
ROOT
HETATM    1  C1  UNL     1     -33.794  15.410  -3.864  1.00 20.00     0.182 C 
HETATM    2  O7  UNL     1     -32.656  14.994  -3.625  1.00 20.00    -0.293 OA
ENDROOT
BRANCH   1   3
HETATM    3  C5  UNL     1     -34.299  16.641  -3.146  1.00 20.00     0.335 C 
HETATM    4  F8  UNL     1     -33.372  17.636  -3.191  1.00 20.00    -0.225 F 
HETATM    5 CL9  UNL     1     -34.589  16.204  -1.455  1.00 20.00    -0.081 Cl
ENDBRANCH   1   3
BRANCH   1   6
HETATM    6  C6  UNL     1     -34.703  14.725  -4.905  1.00 20.00     0.014 C 
HETATM    7  C2  UNL     1     -34.335  15.156  -6.329  1.00 20.00     0.023 C 
HETATM    8  C3  UNL     1     -36.168  15.119  -4.642  1.00 20.00     0.023 C 
HETATM    9  C4  UNL     1     -34.569  13.203  -4.757  1.00 20.00     0.023 C 
ENDBRANCH   1   6
TORSDOF 2
ENDMDL
