MODEL 1
REMARK VINA RESULT:      -3.9      0.000      0.000
REMARK  1 active torsions:
REMARK  status: ('A' for Active; 'I' for Inactive)
REMARK    1  A    between atoms: C1_1  and  C5_5 
ROOT
HETATM    1  C1  UNL     1     -33.276   6.137   3.489  1.00 20.00     0.141 A 
HETATM    2  C2  UNL     1     -34.404   5.659   5.287  1.00 20.00     0.187 A 
HETATM    3  N6  UNL     1     -33.319   6.270   4.866  1.00 20.00    -0.211 NA
HETATM    4  N7  UNL     1     -34.234   5.479   2.836  1.00 20.00    -0.193 NA
HETATM    5  S8  UNL     1     -35.310   4.959   4.009  1.00 20.00     0.046 SA
HETATM    6 CL9  UNL     1     -34.900   5.549   6.914  1.00 20.00    -0.053 Cl
ENDROOT
BRANCH   1   7
HETATM    7  C5  UNL     1     -32.105   6.755   2.706  1.00 20.00     0.058 A 
HETATM    8  C3  UNL     1     -31.315   7.872   3.348  1.00 20.00     0.013 A 
HETATM    9  C4  UNL     1     -32.237   8.176   2.209  1.00 20.00     0.013 A 
ENDBRANCH   1   7
TORSDOF 1
ENDMDL
MODEL 2
REMARK VINA RESULT:      -3.9     11.893     12.553
REMARK  1 active torsions:
REMARK  status: ('A' for Active; 'I' for Inactive)
REMARK    1  A    between atoms: C1_1  and  C5_5 
ROOT
HETATM    1  C1  UNL     1     -34.080  15.380  -3.590  1.00 20.00     0.141 A 
HETATM    2  C2  UNL     1     -34.377  14.815  -5.671  1.00 20.00     0.187 A 
HETATM    3  N6  UNL     1     -34.041  15.827  -4.900  1.00 20.00    -0.211 NA
HETATM    4  N7  UNL     1     -34.415  14.121  -3.307  1.00 20.00    -0.193 NA
HETATM    5  S8  UNL     1     -34.720  13.389  -4.781  1.00 20.00     0.046 SA
HETATM    6 CL9  UNL     1     -34.472  14.868  -7.372  1.00 20.00    -0.053 Cl
ENDROOT
BRANCH   1   7
HETATM    7  C5  UNL     1     -33.733  16.353  -2.450  1.00 20.00     0.058 A 
HETATM    8  C3  UNL     1     -34.628  16.389  -1.234  1.00 20.00     0.013 A 
HETATM    9  C4  UNL     1     -34.646  17.531  -2.201  1.00 20.00     0.013 A 
ENDBRANCH   1   7
TORSDOF 1
ENDMDL
MODEL 3
REMARK VINA RESULT:      -3.8     11.892     12.510
REMARK  1 active torsions:
REMARK  status: ('A' for Active; 'I' for Inactive)
REMARK    1  A    between atoms: C1_1  and  C5_5 
ROOT
HETATM    1  C1  UNL     1     -33.828  16.480  -2.948  1.00 20.00     0.141 A 
HETATM    2  C2  UNL     1     -34.157  14.767  -4.249  1.00 20.00     0.187 A 
HETATM    3  N6  UNL     1     -34.176  15.141  -2.988  1.00 20.00    -0.211 NA
HETATM    4  N7  UNL     1     -33.550  17.148  -4.067  1.00 20.00    -0.193 NA
HETATM    5  S8  UNL     1     -33.724  16.042  -5.312  1.00 20.00     0.046 SA
HETATM    6 CL9  UNL     1     -34.519  13.200  -4.813  1.00 20.00    -0.053 Cl
ENDROOT
BRANCH   1   7
HETATM    7  C5  UNL     1     -33.761  17.203  -1.591  1.00 20.00     0.058 A 
HETATM    8  C3  UNL     1     -34.691  16.757  -0.488  1.00 20.00     0.013 A 
HETATM    9  C4  UNL     1     -34.929  18.066  -1.173  1.00 20.00     0.013 A 
ENDBRANCH   1   7
TORSDOF 1
ENDMDL
MODEL 4
REMARK VINA RESULT:      -3.7     11.407     12.070
REMARK  1 active torsions:
REMARK  status: ('A' for Active; 'I' for Inactive)
REMARK    1  A    between atoms: C1_1  and  C5_5 
ROOT
HETATM    1  C1  UNL     1     -34.112  16.097  -3.130  1.00 20.00     0.141 A 
HETATM    2  C2  UNL     1     -34.516  16.986  -1.185  1.00 20.00     0.187 A 
HETATM    3  N6  UNL     1     -34.615  15.862  -1.862  1.00 20.00    -0.211 NA
HETATM    4  N7  UNL     1     -33.643  17.298  -3.467  1.00 20.00    -0.193 NA
HETATM    5  S8  UNL     1     -33.826  18.258  -2.107  1.00 20.00     0.046 SA
HETATM    6 CL9  UNL     1     -35.003  17.201   0.434  1.00 20.00    -0.053 Cl
ENDROOT
BRANCH   1   7
HETATM    7  C5  UNL     1     -34.099  14.955  -4.161  1.00 20.00     0.058 A 
HETATM    8  C3  UNL     1     -34.853  13.686  -3.843  1.00 20.00     0.013 A 
HETATM    9  C4  UNL     1     -33.357  13.683  -3.822  1.00 20.00     0.013 A 
ENDBRANCH   1   7
TORSDOF 1
ENDMDL
MODEL 5
REMARK VINA RESULT:      -3.7     11.624     12.012
REMARK  1 active torsions:
REMARK  status: ('A' for Active; 'I' for Inactive)
REMARK    1  A    between atoms: C1_1  and  C5_5 
ROOT
HETATM    1  C1  UNL     1     -35.470  16.142  -2.652  1.00 20.00     0.141 A 
HETATM    2  C2  UNL     1     -35.077  14.391  -3.882  1.00 20.00     0.187 A 
HETATM    3  N6  UNL     1     -34.494  15.266  -3.092  1.00 20.00    -0.211 NA
HETATM    4  N7  UNL     1     -36.738  16.003  -3.040  1.00 20.00    -0.193 NA
HETATM    5  S8  UNL     1     -36.762  14.669  -4.051  1.00 20.00     0.046 SA
HETATM    6 CL9  UNL     1     -34.287  13.103  -4.671  1.00 20.00    -0.053 Cl
ENDROOT
BRANCH   1   7
HETATM    7  C5  UNL     1     -35.084  17.290  -1.704  1.00 20.00     0.058 A 
HETATM    8  C3  UNL     1     -33.666  17.355  -1.187  1.00 20.00     0.013 A 
HETATM    9  C4  UNL     1     -34.775  16.965  -0.261  1.00 20.00     0.013 A 
ENDBRANCH   1   7
TORSDOF 1
ENDMDL
MODEL 6
REMARK VINA RESULT:      -3.7      2.388      3.921
REMARK  1 active torsions:
REMARK  status: ('A' for Active; 'I' for Inactive)
REMARK    1  A    between atoms: C1_1  and  C5_5 
ROOT
HETATM    1  C1  UNL     1     -34.062   5.693   4.083  1.00 20.00     0.141 A 
HETATM    2  C2  UNL     1     -32.305   6.933   3.749  1.00 20.00     0.187 A 
HETATM    3  N6  UNL     1     -33.157   6.556   4.677  1.00 20.00    -0.211 NA
HETATM    4  N7  UNL     1     -33.965   5.387   2.789  1.00 20.00    -0.193 NA
HETATM    5  S8  UNL     1     -32.638   6.232   2.218  1.00 20.00     0.046 SA
HETATM    6 CL9  UNL     1     -30.996   7.997   3.992  1.00 20.00    -0.053 Cl
ENDROOT
BRANCH   1   7
HETATM    7  C5  UNL     1     -35.192   5.084   4.930  1.00 20.00     0.058 A 
HETATM    8  C3  UNL     1     -35.061   5.105   6.434  1.00 20.00     0.013 A 
HETATM    9  C4  UNL     1     -34.917   3.811   5.696  1.00 20.00     0.013 A 
ENDBRANCH   1   7
TORSDOF 1
ENDMDL
MODEL 7
REMARK VINA RESULT:      -3.6     11.102     11.570
REMARK  1 active torsions:
REMARK  status: ('A' for Active; 'I' for Inactive)
REMARK    1  A    between atoms: C1_1  and  C5_5 
ROOT
HETATM    1  C1  UNL     1     -42.518   7.203  -3.334  1.00 20.00     0.141 A 
HETATM    2  C2  UNL     1     -41.640   5.739  -1.984  1.00 20.00     0.187 A 
HETATM    3  N6  UNL     1     -41.530   6.986  -2.390  1.00 20.00    -0.211 NA
HETATM    4  N7  UNL     1     -43.363   6.231  -3.675  1.00 20.00    -0.193 NA
HETATM    5  S8  UNL     1     -42.921   4.901  -2.759  1.00 20.00     0.046 SA
HETATM    6 CL9  UNL     1     -40.644   4.995  -0.819  1.00 20.00    -0.053 Cl
ENDROOT
BRANCH   1   7
HETATM    7  C5  UNL     1     -42.638   8.586  -3.997  1.00 20.00     0.058 A 
HETATM    8  C3  UNL     1     -43.194   8.670  -5.399  1.00 20.00     0.013 A 
HETATM    9  C4  UNL     1     -41.736   8.909  -5.166  1.00 20.00     0.013 A 
ENDBRANCH   1   7
TORSDOF 1
ENDMDL
MODEL 8
REMARK VINA RESULT:      -3.6     12.215     13.006
REMARK  1 active torsions:
REMARK  status: ('A' for Active; 'I' for Inactive)
REMARK    1  A    between atoms: C1_1  and  C5_5 
ROOT
HETATM    1  C1  UNL     1     -34.363  15.569  -4.738  1.00 20.00     0.141 A 
HETATM    2  C2  UNL     1     -34.429  16.295  -2.687  1.00 20.00     0.187 A 
HETATM    3  N6  UNL     1     -34.675  15.238  -3.431  1.00 20.00    -0.211 NA
HETATM    4  N7  UNL     1     -33.901  16.781  -5.044  1.00 20.00    -0.193 NA
HETATM    5  S8  UNL     1     -33.837  17.623  -3.598  1.00 20.00     0.046 SA
HETATM    6 CL9  UNL     1     -34.654  16.381  -1.000  1.00 20.00    -0.053 Cl
ENDROOT
BRANCH   1   7
HETATM    7  C5  UNL     1     -34.553  14.521  -5.848  1.00 20.00     0.058 A 
HETATM    8  C3  UNL     1     -34.447  14.967  -7.288  1.00 20.00     0.013 A 
HETATM    9  C4  UNL     1     -35.784  14.606  -6.720  1.00 20.00     0.013 A 
ENDBRANCH   1   7
TORSDOF 1
ENDMDL
MODEL 9
REMARK VINA RESULT:      -3.6     11.618     12.132
REMARK  1 active torsions:
REMARK  status: ('A' for Active; 'I' for Inactive)
REMARK    1  A    between atoms: C1_1  and  C5_5 
ROOT
HETATM    1  C1  UNL     1     -35.575  15.257  -3.440  1.00 20.00     0.141 A 
HETATM    2  C2  UNL     1     -34.772  16.628  -1.952  1.00 20.00     0.187 A 
HETATM    3  N6  UNL     1     -34.550  15.470  -2.534  1.00 20.00    -0.211 NA
HETATM    4  N7  UNL     1     -36.549  16.154  -3.591  1.00 20.00    -0.193 NA
HETATM    5  S8  UNL     1     -36.197  17.395  -2.524  1.00 20.00     0.046 SA
HETATM    6 CL9  UNL     1     -33.781  17.332  -0.758  1.00 20.00    -0.053 Cl
ENDROOT
BRANCH   1   7
HETATM    7  C5  UNL     1     -35.587  13.968  -4.279  1.00 20.00     0.058 A 
HETATM    8  C3  UNL     1     -34.275  13.275  -4.559  1.00 20.00     0.013 A 
HETATM    9  C4  UNL     1     -34.980  13.999  -5.662  1.00 20.00     0.013 A 
ENDBRANCH   1   7
TORSDOF 1
ENDMDL
