MODEL 1
REMARK VINA RESULT:      -3.6      0.000      0.000
REMARK  3 active torsions:
REMARK  status: ('A' for Active; 'I' for Inactive)
REMARK    1  A    between atoms: C4_4  and  N8_8 
REMARK    2  A    between atoms: C6_6  and  C7_7 
REMARK    3  A    between atoms: C6_6  and  N8_8 
ROOT
HETATM    1  C1  UNL     1     -34.739  16.202  -1.552  1.00 20.00     0.047 C 
HETATM    2  C2  UNL     1     -34.529  17.130  -0.367  1.00 20.00     0.076 C 
HETATM    3  C3  UNL     1     -33.803  18.095  -2.768  1.00 20.00     0.109 C 
HETATM    4  C4  UNL     1     -33.684  16.587  -2.586  1.00 20.00     0.232 C 
HETATM    5  S9  UNL     1     -34.102  18.737  -1.096  1.00 20.00    -0.167 SA
ENDROOT
BRANCH   4   6
HETATM    6  N8  UNL     1     -33.873  15.885  -3.851  1.00 20.00     0.090 N 
HETATM    7  C5  UNL     1     -33.322  16.664  -4.961  1.00 20.00     0.310 C 
BRANCH   6   8
HETATM    8  C6  UNL     1     -33.251  14.560  -3.804  1.00 20.00     0.287 C 
BRANCH   8   9
HETATM    9  C7  UNL     1     -34.160  13.470  -4.349  1.00 20.00     0.144 C 
HETATM   10 CL10 UNL     1     -35.876  13.923  -4.201  1.00 20.00    -0.129 Cl
ENDBRANCH   8   9
ENDBRANCH   6   8
ENDBRANCH   4   6
TORSDOF 3
ENDMDL
MODEL 2
REMARK VINA RESULT:      -3.6      3.049      4.367
REMARK  3 active torsions:
REMARK  status: ('A' for Active; 'I' for Inactive)
REMARK    1  A    between atoms: C4_4  and  N8_8 
REMARK    2  A    between atoms: C6_6  and  C7_7 
REMARK    3  A    between atoms: C6_6  and  N8_8 
ROOT
HETATM    1  C1  UNL     1     -34.023  13.917  -3.674  1.00 20.00     0.047 C 
HETATM    2  C2  UNL     1     -34.718  13.179  -4.807  1.00 20.00     0.076 C 
HETATM    3  C3  UNL     1     -34.579  15.853  -5.047  1.00 20.00     0.109 C 
HETATM    4  C4  UNL     1     -34.651  15.308  -3.626  1.00 20.00     0.232 C 
HETATM    5  S9  UNL     1     -34.959  14.426  -6.105  1.00 20.00    -0.167 SA
ENDROOT
BRANCH   4   6
HETATM    6  N8  UNL     1     -33.963  16.188  -2.688  1.00 20.00     0.090 N 
HETATM    7  C5  UNL     1     -33.781  17.520  -3.266  1.00 20.00     0.310 C 
BRANCH   6   8
HETATM    8  C6  UNL     1     -34.704  16.280  -1.427  1.00 20.00     0.287 C 
BRANCH   8   9
HETATM    9  C7  UNL     1     -34.193  17.395  -0.530  1.00 20.00     0.144 C 
HETATM   10 CL10 UNL     1     -35.070  17.431   1.020  1.00 20.00    -0.129 Cl
ENDBRANCH   8   9
ENDBRANCH   6   8
ENDBRANCH   4   6
TORSDOF 3
ENDMDL
MODEL 3
REMARK VINA RESULT:      -3.5      1.641      1.799
REMARK  3 active torsions:
REMARK  status: ('A' for Active; 'I' for Inactive)
REMARK    1  A    between atoms: C4_4  and  N8_8 
REMARK    2  A    between atoms: C6_6  and  C7_7 
REMARK    3  A    between atoms: C6_6  and  N8_8 
ROOT
HETATM    1  C1  UNL     1     -34.422  16.571  -1.303  1.00 20.00     0.047 C 
HETATM    2  C2  UNL     1     -33.757  17.921  -1.087  1.00 20.00     0.076 C 
HETATM    3  C3  UNL     1     -34.111  17.173  -3.644  1.00 20.00     0.109 C 
HETATM    4  C4  UNL     1     -33.898  16.048  -2.638  1.00 20.00     0.232 C 
HETATM    5  S9  UNL     1     -33.702  18.689  -2.731  1.00 20.00    -0.167 SA
ENDROOT
BRANCH   4   6
HETATM    6  N8  UNL     1     -34.581  14.829  -3.056  1.00 20.00     0.090 N 
HETATM    7  C5  UNL     1     -35.960  15.117  -3.450  1.00 20.00     0.310 C 
BRANCH   6   8
HETATM    8  C6  UNL     1     -33.862  14.186  -4.159  1.00 20.00     0.287 C 
BRANCH   8   9
HETATM    9  C7  UNL     1     -34.774  13.829  -5.321  1.00 20.00     0.144 C 
HETATM   10 CL10 UNL     1     -34.415  14.822  -6.755  1.00 20.00    -0.129 Cl
ENDBRANCH   8   9
ENDBRANCH   6   8
ENDBRANCH   4   6
TORSDOF 3
ENDMDL
MODEL 4
REMARK VINA RESULT:      -3.5      3.387      4.762
REMARK  3 active torsions:
REMARK  status: ('A' for Active; 'I' for Inactive)
REMARK    1  A    between atoms: C4_4  and  N8_8 
REMARK    2  A    between atoms: C6_6  and  C7_7 
REMARK    3  A    between atoms: C6_6  and  N8_8 
ROOT
HETATM    1  C1  UNL     1     -34.436  14.635  -6.157  1.00 20.00     0.047 C 
HETATM    2  C2  UNL     1     -35.124  14.729  -7.510  1.00 20.00     0.076 C 
HETATM    3  C3  UNL     1     -36.710  14.991  -5.355  1.00 20.00     0.109 C 
HETATM    4  C4  UNL     1     -35.484  14.102  -5.184  1.00 20.00     0.232 C 
HETATM    5  S9  UNL     1     -36.810  15.294  -7.144  1.00 20.00    -0.167 SA
ENDROOT
BRANCH   4   6
HETATM    6  N8  UNL     1     -35.010  14.117  -3.805  1.00 20.00     0.090 N 
HETATM    7  C5  UNL     1     -33.557  13.946  -3.755  1.00 20.00     0.310 C 
BRANCH   6   8
HETATM    8  C6  UNL     1     -35.397  15.362  -3.138  1.00 20.00     0.287 C 
BRANCH   8   9
HETATM    9  C7  UNL     1     -34.219  16.064  -2.483  1.00 20.00     0.144 C 
HETATM   10 CL10 UNL     1     -34.592  16.521  -0.802  1.00 20.00    -0.129 Cl
ENDBRANCH   8   9
ENDBRANCH   6   8
ENDBRANCH   4   6
TORSDOF 3
ENDMDL
MODEL 5
REMARK VINA RESULT:      -3.4      3.097      4.263
REMARK  3 active torsions:
REMARK  status: ('A' for Active; 'I' for Inactive)
REMARK    1  A    between atoms: C4_4  and  N8_8 
REMARK    2  A    between atoms: C6_6  and  C7_7 
REMARK    3  A    between atoms: C6_6  and  N8_8 
ROOT
HETATM    1  C1  UNL     1     -33.062  15.058  -3.628  1.00 20.00     0.047 C 
HETATM    2  C2  UNL     1     -33.528  13.635  -3.895  1.00 20.00     0.076 C 
HETATM    3  C3  UNL     1     -35.459  15.493  -3.681  1.00 20.00     0.109 C 
HETATM    4  C4  UNL     1     -34.195  15.740  -2.867  1.00 20.00     0.232 C 
HETATM    5  S9  UNL     1     -35.299  13.782  -4.269  1.00 20.00    -0.167 SA
ENDROOT
BRANCH   4   6
HETATM    6  N8  UNL     1     -33.954  17.167  -2.687  1.00 20.00     0.090 N 
HETATM    7  C5  UNL     1     -35.103  17.949  -3.145  1.00 20.00     0.310 C 
BRANCH   6   8
HETATM    8  C6  UNL     1     -33.662  17.468  -1.283  1.00 20.00     0.287 C 
BRANCH   8   9
HETATM    9  C7  UNL     1     -34.724  16.930  -0.338  1.00 20.00     0.144 C 
HETATM   10 CL10 UNL     1     -34.767  17.857   1.182  1.00 20.00    -0.129 Cl
ENDBRANCH   8   9
ENDBRANCH   6   8
ENDBRANCH   4   6
TORSDOF 3
ENDMDL
MODEL 6
REMARK VINA RESULT:      -3.3      3.213      4.393
REMARK  3 active torsions:
REMARK  status: ('A' for Active; 'I' for Inactive)
REMARK    1  A    between atoms: C4_4  and  N8_8 
REMARK    2  A    between atoms: C6_6  and  C7_7 
REMARK    3  A    between atoms: C6_6  and  N8_8 
ROOT
HETATM    1  C1  UNL     1     -34.351  14.937  -7.049  1.00 20.00     0.047 C 
HETATM    2  C2  UNL     1     -35.712  14.563  -7.615  1.00 20.00     0.076 C 
HETATM    3  C3  UNL     1     -35.644  16.741  -6.041  1.00 20.00     0.109 C 
HETATM    4  C4  UNL     1     -34.623  15.654  -5.729  1.00 20.00     0.232 C 
HETATM    5  S9  UNL     1     -36.791  15.969  -7.219  1.00 20.00    -0.167 SA
ENDROOT
BRANCH   4   6
HETATM    6  N8  UNL     1     -33.409  16.220  -5.152  1.00 20.00     0.090 N 
HETATM    7  C5  UNL     1     -33.561  17.659  -4.935  1.00 20.00     0.310 C 
BRANCH   6   8
HETATM    8  C6  UNL     1     -33.075  15.550  -3.893  1.00 20.00     0.287 C 
BRANCH   8   9
HETATM    9  C7  UNL     1     -34.306  15.071  -3.141  1.00 20.00     0.144 C 
HETATM   10 CL10 UNL     1     -34.635  16.094  -1.720  1.00 20.00    -0.129 Cl
ENDBRANCH   8   9
ENDBRANCH   6   8
ENDBRANCH   4   6
TORSDOF 3
ENDMDL
MODEL 7
REMARK VINA RESULT:      -3.3      2.455      3.304
REMARK  3 active torsions:
REMARK  status: ('A' for Active; 'I' for Inactive)
REMARK    1  A    between atoms: C4_4  and  N8_8 
REMARK    2  A    between atoms: C6_6  and  C7_7 
REMARK    3  A    between atoms: C6_6  and  N8_8 
ROOT
HETATM    1  C1  UNL     1     -34.069  16.599  -6.018  1.00 20.00     0.047 C 
HETATM    2  C2  UNL     1     -33.572  17.958  -5.552  1.00 20.00     0.076 C 
HETATM    3  C3  UNL     1     -35.325  16.719  -3.933  1.00 20.00     0.109 C 
HETATM    4  C4  UNL     1     -35.464  16.429  -5.422  1.00 20.00     0.232 C 
HETATM    5  S9  UNL     1     -34.169  18.118  -3.844  1.00 20.00    -0.167 SA
ENDROOT
BRANCH   4   6
HETATM    6  N8  UNL     1     -36.000  15.092  -5.652  1.00 20.00     0.090 N 
HETATM    7  C5  UNL     1     -35.308  14.442  -6.766  1.00 20.00     0.310 C 
BRANCH   6   8
HETATM    8  C6  UNL     1     -35.889  14.276  -4.441  1.00 20.00     0.287 C 
BRANCH   8   9
HETATM    9  C7  UNL     1     -34.833  13.190  -4.563  1.00 20.00     0.144 C 
HETATM   10 CL10 UNL     1     -33.307  13.682  -3.788  1.00 20.00    -0.129 Cl
ENDBRANCH   8   9
ENDBRANCH   6   8
ENDBRANCH   4   6
TORSDOF 3
ENDMDL
MODEL 8
REMARK VINA RESULT:      -3.2      3.412      4.218
REMARK  3 active torsions:
REMARK  status: ('A' for Active; 'I' for Inactive)
REMARK    1  A    between atoms: C4_4  and  N8_8 
REMARK    2  A    between atoms: C6_6  and  C7_7 
REMARK    3  A    between atoms: C6_6  and  N8_8 
ROOT
HETATM    1  C1  UNL     1     -37.203  14.768  -3.862  1.00 20.00     0.047 C 
HETATM    2  C2  UNL     1     -38.208  15.421  -4.798  1.00 20.00     0.076 C 
HETATM    3  C3  UNL     1     -35.729  15.079  -5.778  1.00 20.00     0.109 C 
HETATM    4  C4  UNL     1     -35.832  15.299  -4.274  1.00 20.00     0.232 C 
HETATM    5  S9  UNL     1     -37.384  15.473  -6.415  1.00 20.00    -0.167 SA
ENDROOT
BRANCH   4   6
HETATM    6  N8  UNL     1     -34.749  14.628  -3.566  1.00 20.00     0.090 N 
HETATM    7  C5  UNL     1     -34.319  13.432  -4.292  1.00 20.00     0.310 C 
BRANCH   6   8
HETATM    8  C6  UNL     1     -33.617  15.538  -3.372  1.00 20.00     0.287 C 
BRANCH   8   9
HETATM    9  C7  UNL     1     -34.001  16.793  -2.606  1.00 20.00     0.144 C 
HETATM   10 CL10 UNL     1     -34.631  16.396  -0.988  1.00 20.00    -0.129 Cl
ENDBRANCH   8   9
ENDBRANCH   6   8
ENDBRANCH   4   6
TORSDOF 3
ENDMDL
MODEL 9
REMARK VINA RESULT:      -3.2      2.772      4.207
REMARK  3 active torsions:
REMARK  status: ('A' for Active; 'I' for Inactive)
REMARK    1  A    between atoms: C4_4  and  N8_8 
REMARK    2  A    between atoms: C6_6  and  C7_7 
REMARK    3  A    between atoms: C6_6  and  N8_8 
ROOT
HETATM    1  C1  UNL     1     -33.438  15.258  -3.339  1.00 20.00     0.047 C 
HETATM    2  C2  UNL     1     -33.531  13.856  -3.919  1.00 20.00     0.076 C 
HETATM    3  C3  UNL     1     -35.868  15.092  -3.434  1.00 20.00     0.109 C 
HETATM    4  C4  UNL     1     -34.709  15.463  -2.517  1.00 20.00     0.232 C 
HETATM    5  S9  UNL     1     -35.281  13.639  -4.353  1.00 20.00    -0.167 SA
ENDROOT
BRANCH   4   6
HETATM    6  N8  UNL     1     -34.834  16.833  -2.034  1.00 20.00     0.090 N 
HETATM    7  C5  UNL     1     -34.657  16.887  -0.582  1.00 20.00     0.310 C 
BRANCH   6   8
HETATM    8  C6  UNL     1     -33.863  17.706  -2.697  1.00 20.00     0.287 C 
BRANCH   8   9
HETATM    9  C7  UNL     1     -34.484  19.002  -3.191  1.00 20.00     0.144 C 
HETATM   10 CL10 UNL     1     -36.093  18.718  -3.900  1.00 20.00    -0.129 Cl
ENDBRANCH   8   9
ENDBRANCH   6   8
ENDBRANCH   4   6
TORSDOF 3
ENDMDL
