MODEL 1
REMARK VINA RESULT:      -4.6      0.000      0.000
REMARK  3 active torsions:
REMARK  status: ('A' for Active; 'I' for Inactive)
REMARK    1  A    between atoms: C10_10  and  C12_12 
REMARK    2  A    between atoms: C11_11  and  C12_12 
REMARK    3  A    between atoms: C12_12  and  N13_13 
ROOT
HETATM    1  C1  UNL     1     -33.305  18.630  -1.327  1.00 20.00     0.130 C 
HETATM    2  C2  UNL     1     -33.672  18.773  -2.786  1.00 20.00     0.106 C 
HETATM    3  C3  UNL     1     -34.224  17.773  -0.490  1.00 20.00     0.106 C 
HETATM    4  C8  UNL     1     -33.945  17.414  -3.407  1.00 20.00     0.242 C 
HETATM    5  C9  UNL     1     -34.482  16.439  -1.169  1.00 20.00     0.242 C 
HETATM    6  N13 UNL     1     -34.972  16.677  -2.578  1.00 20.00    -0.065 N 
HETATM    7  O14 UNL     1     -32.374  19.261  -0.829  1.00 20.00    -0.298 OA
HETATM    8  H34 UNL     1     -35.811  17.271  -2.521  1.00 20.00     0.280 HD
ENDROOT
BRANCH   6   9
HETATM    9  C12 UNL     1     -35.401  15.396  -3.240  1.00 20.00     0.196 C 
BRANCH   9  10
HETATM   10  C10 UNL     1     -34.255  14.892  -4.102  1.00 20.00     0.017 A 
HETATM   11  C4  UNL     1     -33.512  13.641  -3.718  1.00 20.00     0.007 A 
HETATM   12  C5  UNL     1     -34.416  13.640  -4.918  1.00 20.00     0.007 A 
ENDBRANCH   9  10
BRANCH   9  13
HETATM   13  C11 UNL     1     -36.656  15.672  -4.055  1.00 20.00     0.017 A 
HETATM   14  C6  UNL     1     -37.915  14.893  -3.794  1.00 20.00     0.007 A 
HETATM   15  C7  UNL     1     -37.838  16.346  -3.417  1.00 20.00     0.007 A 
ENDBRANCH   9  13
ENDBRANCH   6   9
TORSDOF 3
ENDMDL
MODEL 2
REMARK VINA RESULT:      -4.6      1.962      2.936
REMARK  3 active torsions:
REMARK  status: ('A' for Active; 'I' for Inactive)
REMARK    1  A    between atoms: C10_10  and  C12_12 
REMARK    2  A    between atoms: C11_11  and  C12_12 
REMARK    3  A    between atoms: C12_12  and  N13_13 
ROOT
HETATM    1  C1  UNL     1     -35.811  18.020  -0.255  1.00 20.00     0.130 C 
HETATM    2  C2  UNL     1     -34.488  17.300  -0.364  1.00 20.00     0.106 C 
HETATM    3  C3  UNL     1     -36.379  18.569  -1.543  1.00 20.00     0.106 C 
HETATM    4  C8  UNL     1     -34.524  16.272  -1.482  1.00 20.00     0.242 C 
HETATM    5  C9  UNL     1     -36.369  17.509  -2.630  1.00 20.00     0.242 C 
HETATM    6  N13 UNL     1     -34.977  16.935  -2.763  1.00 20.00    -0.065 N 
HETATM    7  O14 UNL     1     -36.341  18.238   0.832  1.00 20.00    -0.298 OA
HETATM    8  H34 UNL     1     -34.335  17.717  -2.953  1.00 20.00     0.280 HD
ENDROOT
BRANCH   6   9
HETATM    9  C12 UNL     1     -34.871  16.001  -3.937  1.00 20.00     0.196 C 
BRANCH   9  10
HETATM   10  C10 UNL     1     -34.704  14.584  -3.411  1.00 20.00     0.017 A 
HETATM   11  C4  UNL     1     -35.226  13.417  -4.202  1.00 20.00     0.007 A 
HETATM   12  C5  UNL     1     -33.745  13.639  -4.079  1.00 20.00     0.007 A 
ENDBRANCH   9  10
BRANCH   9  13
HETATM   13  C11 UNL     1     -33.696  16.439  -4.797  1.00 20.00     0.017 A 
HETATM   14  C6  UNL     1     -33.919  16.880  -6.217  1.00 20.00     0.007 A 
HETATM   15  C7  UNL     1     -33.530  17.886  -5.170  1.00 20.00     0.007 A 
ENDBRANCH   9  13
ENDBRANCH   6   9
TORSDOF 3
ENDMDL
MODEL 3
REMARK VINA RESULT:      -4.5      2.645      4.641
REMARK  3 active torsions:
REMARK  status: ('A' for Active; 'I' for Inactive)
REMARK    1  A    between atoms: C10_10  and  C12_12 
REMARK    2  A    between atoms: C11_11  and  C12_12 
REMARK    3  A    between atoms: C12_12  and  N13_13 
ROOT
HETATM    1  C1  UNL     1     -34.901  13.704  -4.627  1.00 20.00     0.130 C 
HETATM    2  C2  UNL     1     -36.264  14.211  -4.218  1.00 20.00     0.106 C 
HETATM    3  C3  UNL     1     -33.843  14.755  -4.865  1.00 20.00     0.106 C 
HETATM    4  C8  UNL     1     -36.147  15.204  -3.075  1.00 20.00     0.242 C 
HETATM    5  C9  UNL     1     -33.786  15.734  -3.705  1.00 20.00     0.242 C 
HETATM    6  N13 UNL     1     -35.167  16.293  -3.450  1.00 20.00    -0.065 N 
HETATM    7  O14 UNL     1     -34.695  12.513  -4.856  1.00 20.00    -0.298 OA
HETATM    8  H34 UNL     1     -35.497  16.721  -4.326  1.00 20.00     0.280 HD
ENDROOT
BRANCH   6   9
HETATM    9  C12 UNL     1     -35.140  17.391  -2.423  1.00 20.00     0.196 C 
BRANCH   9  10
HETATM   10  C10 UNL     1     -34.421  16.875  -1.186  1.00 20.00     0.017 A 
HETATM   11  C4  UNL     1     -33.471  17.767  -0.435  1.00 20.00     0.007 A 
HETATM   12  C5  UNL     1     -34.792  17.393   0.176  1.00 20.00     0.007 A 
ENDBRANCH   9  10
BRANCH   9  13
HETATM   13  C11 UNL     1     -36.572  17.808  -2.124  1.00 20.00     0.017 A 
HETATM   14  C6  UNL     1     -36.951  19.263  -2.115  1.00 20.00     0.007 A 
HETATM   15  C7  UNL     1     -37.440  18.365  -3.218  1.00 20.00     0.007 A 
ENDBRANCH   9  13
ENDBRANCH   6   9
TORSDOF 3
ENDMDL
MODEL 4
REMARK VINA RESULT:      -4.4      2.809      4.684
REMARK  3 active torsions:
REMARK  status: ('A' for Active; 'I' for Inactive)
REMARK    1  A    between atoms: C10_10  and  C12_12 
REMARK    2  A    between atoms: C11_11  and  C12_12 
REMARK    3  A    between atoms: C12_12  and  N13_13 
ROOT
HETATM    1  C1  UNL     1     -39.193  16.011  -3.731  1.00 20.00     0.130 C 
HETATM    2  C2  UNL     1     -38.309  14.792  -3.613  1.00 20.00     0.106 C 
HETATM    3  C3  UNL     1     -38.791  17.207  -2.902  1.00 20.00     0.106 C 
HETATM    4  C8  UNL     1     -36.848  15.168  -3.785  1.00 20.00     0.242 C 
HETATM    5  C9  UNL     1     -37.318  17.524  -3.092  1.00 20.00     0.242 C 
HETATM    6  N13 UNL     1     -36.497  16.283  -2.826  1.00 20.00    -0.065 N 
HETATM    7  O14 UNL     1     -40.237  15.993  -4.380  1.00 20.00    -0.298 OA
HETATM    8  H34 UNL     1     -36.722  15.958  -1.875  1.00 20.00     0.280 HD
ENDROOT
BRANCH   6   9
HETATM    9  C12 UNL     1     -35.023  16.580  -2.837  1.00 20.00     0.196 C 
BRANCH   9  10
HETATM   10  C10 UNL     1     -34.352  15.651  -3.837  1.00 20.00     0.017 A 
HETATM   11  C4  UNL     1     -33.285  16.174  -4.759  1.00 20.00     0.007 A 
HETATM   12  C5  UNL     1     -32.920  15.237  -3.642  1.00 20.00     0.007 A 
ENDBRANCH   9  10
BRANCH   9  13
HETATM   13  C11 UNL     1     -34.483  16.395  -1.427  1.00 20.00     0.017 A 
HETATM   14  C6  UNL     1     -33.656  17.474  -0.785  1.00 20.00     0.007 A 
HETATM   15  C7  UNL     1     -35.049  17.199  -0.290  1.00 20.00     0.007 A 
ENDBRANCH   9  13
ENDBRANCH   6   9
TORSDOF 3
ENDMDL
MODEL 5
REMARK VINA RESULT:      -4.3      2.786      4.636
REMARK  3 active torsions:
REMARK  status: ('A' for Active; 'I' for Inactive)
REMARK    1  A    between atoms: C10_10  and  C12_12 
REMARK    2  A    between atoms: C11_11  and  C12_12 
REMARK    3  A    between atoms: C12_12  and  N13_13 
ROOT
HETATM    1  C1  UNL     1     -39.455  16.536  -3.924  1.00 20.00     0.130 C 
HETATM    2  C2  UNL     1     -39.031  15.187  -3.393  1.00 20.00     0.106 C 
HETATM    3  C3  UNL     1     -38.593  17.710  -3.522  1.00 20.00     0.106 C 
HETATM    4  C8  UNL     1     -37.552  14.950  -3.643  1.00 20.00     0.242 C 
HETATM    5  C9  UNL     1     -37.125  17.411  -3.771  1.00 20.00     0.242 C 
HETATM    6  N13 UNL     1     -36.754  16.111  -3.093  1.00 20.00    -0.065 N 
HETATM    7  O14 UNL     1     -40.498  16.684  -4.557  1.00 20.00    -0.298 OA
HETATM    8  H34 UNL     1     -36.986  16.203  -2.095  1.00 20.00     0.280 HD
ENDROOT
BRANCH   6   9
HETATM    9  C12 UNL     1     -35.275  15.851  -3.166  1.00 20.00     0.196 C 
BRANCH   9  10
HETATM   10  C10 UNL     1     -35.058  14.466  -3.756  1.00 20.00     0.017 A 
HETATM   11  C4  UNL     1     -34.292  14.301  -5.039  1.00 20.00     0.007 A 
HETATM   12  C5  UNL     1     -33.690  13.843  -3.740  1.00 20.00     0.007 A 
ENDBRANCH   9  10
BRANCH   9  13
HETATM   13  C11 UNL     1     -34.694  15.977  -1.766  1.00 20.00     0.017 A 
HETATM   14  C6  UNL     1     -33.712  17.071  -1.449  1.00 20.00     0.007 A 
HETATM   15  C7  UNL     1     -35.102  17.120  -0.879  1.00 20.00     0.007 A 
ENDBRANCH   9  13
ENDBRANCH   6   9
TORSDOF 3
ENDMDL
MODEL 6
REMARK VINA RESULT:      -4.2      2.747      4.877
REMARK  3 active torsions:
REMARK  status: ('A' for Active; 'I' for Inactive)
REMARK    1  A    between atoms: C10_10  and  C12_12 
REMARK    2  A    between atoms: C11_11  and  C12_12 
REMARK    3  A    between atoms: C12_12  and  N13_13 
ROOT
HETATM    1  C1  UNL     1     -39.027  16.570  -4.942  1.00 20.00     0.130 C 
HETATM    2  C2  UNL     1     -37.852  17.514  -5.050  1.00 20.00     0.106 C 
HETATM    3  C3  UNL     1     -38.693  15.103  -4.811  1.00 20.00     0.106 C 
HETATM    4  C8  UNL     1     -36.834  17.233  -3.959  1.00 20.00     0.242 C 
HETATM    5  C9  UNL     1     -37.655  14.883  -3.725  1.00 20.00     0.242 C 
HETATM    6  N13 UNL     1     -36.458  15.769  -3.984  1.00 20.00    -0.065 N 
HETATM    7  O14 UNL     1     -40.186  16.964  -5.061  1.00 20.00    -0.298 OA
HETATM    8  H34 UNL     1     -36.109  15.553  -4.928  1.00 20.00     0.280 HD
ENDROOT
BRANCH   6   9
HETATM    9  C12 UNL     1     -35.330  15.470  -3.034  1.00 20.00     0.196 C 
BRANCH   9  10
HETATM   10  C10 UNL     1     -35.056  16.716  -2.207  1.00 20.00     0.017 A 
HETATM   11  C4  UNL     1     -34.719  16.595  -0.746  1.00 20.00     0.007 A 
HETATM   12  C5  UNL     1     -33.662  17.014  -1.729  1.00 20.00     0.007 A 
ENDBRANCH   9  10
BRANCH   9  13
HETATM   13  C11 UNL     1     -34.118  15.040  -3.846  1.00 20.00     0.017 A 
HETATM   14  C6  UNL     1     -33.607  13.628  -3.754  1.00 20.00     0.007 A 
HETATM   15  C7  UNL     1     -34.282  14.103  -5.011  1.00 20.00     0.007 A 
ENDBRANCH   9  13
ENDBRANCH   6   9
TORSDOF 3
ENDMDL
MODEL 7
REMARK VINA RESULT:      -4.2      0.923      2.989
REMARK  3 active torsions:
REMARK  status: ('A' for Active; 'I' for Inactive)
REMARK    1  A    between atoms: C10_10  and  C12_12 
REMARK    2  A    between atoms: C11_11  and  C12_12 
REMARK    3  A    between atoms: C12_12  and  N13_13 
ROOT
HETATM    1  C1  UNL     1     -34.046  18.346  -1.245  1.00 20.00     0.130 C 
HETATM    2  C2  UNL     1     -34.225  16.903  -0.834  1.00 20.00     0.106 C 
HETATM    3  C3  UNL     1     -33.689  18.586  -2.693  1.00 20.00     0.106 C 
HETATM    4  C8  UNL     1     -35.146  16.178  -1.800  1.00 20.00     0.242 C 
HETATM    5  C9  UNL     1     -34.624  17.820  -3.612  1.00 20.00     0.242 C 
HETATM    6  N13 UNL     1     -34.642  16.362  -3.213  1.00 20.00    -0.065 N 
HETATM    7  O14 UNL     1     -34.084  19.262  -0.426  1.00 20.00    -0.298 OA
HETATM    8  H34 UNL     1     -33.671  16.019  -3.245  1.00 20.00     0.280 HD
ENDROOT
BRANCH   6   9
HETATM    9  C12 UNL     1     -35.421  15.528  -4.192  1.00 20.00     0.196 C 
BRANCH   9  10
HETATM   10  C10 UNL     1     -36.896  15.864  -4.043  1.00 20.00     0.017 A 
HETATM   11  C4  UNL     1     -37.826  15.731  -5.218  1.00 20.00     0.007 A 
HETATM   12  C5  UNL     1     -37.927  14.770  -4.067  1.00 20.00     0.007 A 
ENDBRANCH   9  10
BRANCH   9  13
HETATM   13  C11 UNL     1     -35.133  14.061  -3.912  1.00 20.00     0.017 A 
HETATM   14  C6  UNL     1     -34.523  13.192  -4.976  1.00 20.00     0.007 A 
HETATM   15  C7  UNL     1     -33.715  13.583  -3.770  1.00 20.00     0.007 A 
ENDBRANCH   9  13
ENDBRANCH   6   9
TORSDOF 3
ENDMDL
MODEL 8
REMARK VINA RESULT:      -4.1      2.739      4.907
REMARK  3 active torsions:
REMARK  status: ('A' for Active; 'I' for Inactive)
REMARK    1  A    between atoms: C10_10  and  C12_12 
REMARK    2  A    between atoms: C11_11  and  C12_12 
REMARK    3  A    between atoms: C12_12  and  N13_13 
ROOT
HETATM    1  C1  UNL     1     -34.466  15.020  -6.548  1.00 20.00     0.130 C 
HETATM    2  C2  UNL     1     -34.121  16.422  -6.103  1.00 20.00     0.106 C 
HETATM    3  C3  UNL     1     -34.708  14.013  -5.449  1.00 20.00     0.106 C 
HETATM    4  C8  UNL     1     -35.106  16.912  -5.057  1.00 20.00     0.242 C 
HETATM    5  C9  UNL     1     -35.680  14.563  -4.419  1.00 20.00     0.242 C 
HETATM    6  N13 UNL     1     -35.189  15.907  -3.930  1.00 20.00    -0.065 N 
HETATM    7  O14 UNL     1     -34.446  14.694  -7.733  1.00 20.00    -0.298 OA
HETATM    8  H34 UNL     1     -34.238  15.775  -3.560  1.00 20.00     0.280 HD
ENDROOT
BRANCH   6   9
HETATM    9  C12 UNL     1     -36.023  16.420  -2.789  1.00 20.00     0.196 C 
BRANCH   9  10
HETATM   10  C10 UNL     1     -37.197  17.197  -3.363  1.00 20.00     0.017 A 
HETATM   11  C4  UNL     1     -38.604  16.712  -3.148  1.00 20.00     0.007 A 
HETATM   12  C5  UNL     1     -38.123  17.953  -2.451  1.00 20.00     0.007 A 
ENDBRANCH   9  10
BRANCH   9  13
HETATM   13  C11 UNL     1     -35.142  17.283  -1.899  1.00 20.00     0.017 A 
HETATM   14  C6  UNL     1     -34.737  16.796  -0.535  1.00 20.00     0.007 A 
HETATM   15  C7  UNL     1     -33.716  16.887  -1.635  1.00 20.00     0.007 A 
ENDBRANCH   9  13
ENDBRANCH   6   9
TORSDOF 3
ENDMDL
MODEL 9
REMARK VINA RESULT:      -4.0      2.102      2.997
REMARK  3 active torsions:
REMARK  status: ('A' for Active; 'I' for Inactive)
REMARK    1  A    between atoms: C10_10  and  C12_12 
REMARK    2  A    between atoms: C11_11  and  C12_12 
REMARK    3  A    between atoms: C12_12  and  N13_13 
ROOT
HETATM    1  C1  UNL     1     -35.527  17.734  -1.120  1.00 20.00     0.130 C 
HETATM    2  C2  UNL     1     -36.560  17.671  -2.220  1.00 20.00     0.106 C 
HETATM    3  C3  UNL     1     -34.489  16.636  -1.118  1.00 20.00     0.106 C 
HETATM    4  C8  UNL     1     -35.896  17.481  -3.572  1.00 20.00     0.242 C 
HETATM    5  C9  UNL     1     -33.876  16.472  -2.498  1.00 20.00     0.242 C 
HETATM    6  N13 UNL     1     -34.975  16.283  -3.518  1.00 20.00    -0.065 N 
HETATM    7  O14 UNL     1     -35.590  18.568  -0.218  1.00 20.00    -0.298 OA
HETATM    8  H34 UNL     1     -35.536  15.471  -3.225  1.00 20.00     0.280 HD
ENDROOT
BRANCH   6   9
HETATM    9  C12 UNL     1     -34.420  15.950  -4.876  1.00 20.00     0.196 C 
BRANCH   9  10
HETATM   10  C10 UNL     1     -34.940  16.973  -5.873  1.00 20.00     0.017 A 
HETATM   11  C4  UNL     1     -33.978  17.819  -6.660  1.00 20.00     0.007 A 
HETATM   12  C5  UNL     1     -34.771  16.745  -7.349  1.00 20.00     0.007 A 
ENDBRANCH   9  10
BRANCH   9  13
HETATM   13  C11 UNL     1     -34.841  14.532  -5.234  1.00 20.00     0.017 A 
HETATM   14  C6  UNL     1     -34.143  13.355  -4.611  1.00 20.00     0.007 A 
HETATM   15  C7  UNL     1     -35.559  13.680  -4.225  1.00 20.00     0.007 A 
ENDBRANCH   9  13
ENDBRANCH   6   9
TORSDOF 3
ENDMDL
