MODEL 1
REMARK VINA RESULT:      -4.5      0.000      0.000
REMARK  2 active torsions:
REMARK  status: ('A' for Active; 'I' for Inactive)
REMARK    1  A    between atoms: C4_4  and  C5_5 
REMARK    2  A    between atoms: C5_5  and  C6_6 
ROOT
HETATM    1  C1  UNL     1     -34.839   4.328   4.724  1.00 20.00     0.033 C 
HETATM    2  C2  UNL     1     -35.211   4.608   6.164  1.00 20.00     0.168 C 
HETATM    3  C3  UNL     1     -33.862   6.349   5.406  1.00 20.00     0.172 C 
HETATM    4  C4  UNL     1     -34.551   5.721   4.206  1.00 20.00     0.012 C 
HETATM    5  O7  UNL     1     -34.461   5.762   6.571  1.00 20.00    -0.391 OA
ENDROOT
BRANCH   4   6
HETATM    6  C5  UNL     1     -33.719   5.753   2.939  1.00 20.00     0.017 C 
BRANCH   6   7
HETATM    7  C6  UNL     1     -32.326   6.297   3.204  1.00 20.00     0.085 C 
HETATM    8 BR8  UNL     1     -32.087   7.991   2.273  1.00 20.00    -0.096 Br
ENDBRANCH   6   7
ENDBRANCH   4   6
TORSDOF 2
ENDMDL
MODEL 2
REMARK VINA RESULT:      -4.2      1.084      1.533
REMARK  2 active torsions:
REMARK  status: ('A' for Active; 'I' for Inactive)
REMARK    1  A    between atoms: C4_4  and  C5_5 
REMARK    2  A    between atoms: C5_5  and  C6_6 
ROOT
HETATM    1  C1  UNL     1     -34.044   6.254   5.858  1.00 20.00     0.033 C 
HETATM    2  C2  UNL     1     -34.672   5.015   6.459  1.00 20.00     0.168 C 
HETATM    3  C3  UNL     1     -35.053   4.987   4.161  1.00 20.00     0.172 C 
HETATM    4  C4  UNL     1     -33.808   5.815   4.428  1.00 20.00     0.012 C 
HETATM    5  O7  UNL     1     -35.405   4.368   5.408  1.00 20.00    -0.391 OA
ENDROOT
BRANCH   4   6
HETATM    6  C5  UNL     1     -33.612   6.958   3.452  1.00 20.00     0.017 C 
BRANCH   6   7
HETATM    7  C6  UNL     1     -32.156   7.091   3.039  1.00 20.00     0.085 C 
HETATM    8 BR8  UNL     1     -31.977   8.472   1.678  1.00 20.00    -0.096 Br
ENDBRANCH   6   7
ENDBRANCH   4   6
TORSDOF 2
ENDMDL
MODEL 3
REMARK VINA RESULT:      -3.7     11.937     12.736
REMARK  2 active torsions:
REMARK  status: ('A' for Active; 'I' for Inactive)
REMARK    1  A    between atoms: C4_4  and  C5_5 
REMARK    2  A    between atoms: C5_5  and  C6_6 
ROOT
HETATM    1  C1  UNL     1     -34.419  13.845  -3.538  1.00 20.00     0.033 C 
HETATM    2  C2  UNL     1     -34.546  13.187  -4.895  1.00 20.00     0.168 C 
HETATM    3  C3  UNL     1     -34.077  15.446  -5.218  1.00 20.00     0.172 C 
HETATM    4  C4  UNL     1     -33.542  15.037  -3.857  1.00 20.00     0.012 C 
HETATM    5  O7  UNL     1     -34.487  14.236  -5.873  1.00 20.00    -0.391 OA
ENDROOT
BRANCH   4   6
HETATM    6  C5  UNL     1     -33.597  16.144  -2.822  1.00 20.00     0.017 C 
BRANCH   6   7
HETATM    7  C6  UNL     1     -34.871  16.068  -1.997  1.00 20.00     0.085 C 
HETATM    8 BR8  UNL     1     -34.671  17.119  -0.371  1.00 20.00    -0.096 Br
ENDBRANCH   6   7
ENDBRANCH   4   6
TORSDOF 2
ENDMDL
MODEL 4
REMARK VINA RESULT:      -3.7     11.723     12.351
REMARK  2 active torsions:
REMARK  status: ('A' for Active; 'I' for Inactive)
REMARK    1  A    between atoms: C4_4  and  C5_5 
REMARK    2  A    between atoms: C5_5  and  C6_6 
ROOT
HETATM    1  C1  UNL     1     -35.512  14.972  -4.007  1.00 20.00     0.033 C 
HETATM    2  C2  UNL     1     -35.825  13.541  -4.389  1.00 20.00     0.168 C 
HETATM    3  C3  UNL     1     -33.560  13.678  -3.863  1.00 20.00     0.172 C 
HETATM    4  C4  UNL     1     -34.288  14.794  -3.134  1.00 20.00     0.012 C 
HETATM    5  O7  UNL     1     -34.574  12.839  -4.438  1.00 20.00    -0.391 OA
ENDROOT
BRANCH   4   6
HETATM    6  C5  UNL     1     -33.460  16.052  -2.961  1.00 20.00     0.017 C 
BRANCH   6   7
HETATM    7  C6  UNL     1     -34.307  17.208  -2.458  1.00 20.00     0.085 C 
HETATM    8 BR8  UNL     1     -34.650  16.999  -0.553  1.00 20.00    -0.096 Br
ENDBRANCH   6   7
ENDBRANCH   4   6
TORSDOF 2
ENDMDL
MODEL 5
REMARK VINA RESULT:      -3.4     12.111     12.733
REMARK  2 active torsions:
REMARK  status: ('A' for Active; 'I' for Inactive)
REMARK    1  A    between atoms: C4_4  and  C5_5 
REMARK    2  A    between atoms: C5_5  and  C6_6 
ROOT
HETATM    1  C1  UNL     1     -35.475  14.713  -3.873  1.00 20.00     0.033 C 
HETATM    2  C2  UNL     1     -35.257  13.285  -4.326  1.00 20.00     0.168 C 
HETATM    3  C3  UNL     1     -33.192  14.188  -3.735  1.00 20.00     0.172 C 
HETATM    4  C4  UNL     1     -34.275  14.936  -2.977  1.00 20.00     0.012 C 
HETATM    5  O7  UNL     1     -33.838  13.075  -4.373  1.00 20.00    -0.391 OA
ENDROOT
BRANCH   4   6
HETATM    6  C5  UNL     1     -33.949  16.396  -2.727  1.00 20.00     0.017 C 
BRANCH   6   7
HETATM    7  C6  UNL     1     -34.732  17.305  -3.658  1.00 20.00     0.085 C 
HETATM    8 BR8  UNL     1     -33.625  17.811  -5.178  1.00 20.00    -0.096 Br
ENDBRANCH   6   7
ENDBRANCH   4   6
TORSDOF 2
ENDMDL
MODEL 6
REMARK VINA RESULT:      -3.4     12.196     12.696
REMARK  2 active torsions:
REMARK  status: ('A' for Active; 'I' for Inactive)
REMARK    1  A    between atoms: C4_4  and  C5_5 
REMARK    2  A    between atoms: C5_5  and  C6_6 
ROOT
HETATM    1  C1  UNL     1     -33.353  15.419  -3.360  1.00 20.00     0.033 C 
HETATM    2  C2  UNL     1     -33.989  16.299  -2.305  1.00 20.00     0.168 C 
HETATM    3  C3  UNL     1     -35.670  15.054  -3.331  1.00 20.00     0.172 C 
HETATM    4  C4  UNL     1     -34.362  14.296  -3.471  1.00 20.00     0.012 C 
HETATM    5  O7  UNL     1     -35.410  16.152  -2.442  1.00 20.00    -0.391 OA
ENDROOT
BRANCH   4   6
HETATM    6  C5  UNL     1     -34.257  13.491  -4.751  1.00 20.00     0.017 C 
BRANCH   6   7
HETATM    7  C6  UNL     1     -35.273  13.953  -5.781  1.00 20.00     0.085 C 
HETATM    8 BR8  UNL     1     -34.424  15.152  -7.058  1.00 20.00    -0.096 Br
ENDBRANCH   6   7
ENDBRANCH   4   6
TORSDOF 2
ENDMDL
MODEL 7
REMARK VINA RESULT:      -3.3     12.370     12.670
REMARK  2 active torsions:
REMARK  status: ('A' for Active; 'I' for Inactive)
REMARK    1  A    between atoms: C4_4  and  C5_5 
REMARK    2  A    between atoms: C5_5  and  C6_6 
ROOT
HETATM    1  C1  UNL     1     -35.564  15.400  -2.987  1.00 20.00     0.033 C 
HETATM    2  C2  UNL     1     -35.374  14.338  -4.049  1.00 20.00     0.168 C 
HETATM    3  C3  UNL     1     -33.354  15.464  -3.772  1.00 20.00     0.172 C 
HETATM    4  C4  UNL     1     -34.149  15.584  -2.483  1.00 20.00     0.012 C 
HETATM    5  O7  UNL     1     -34.063  14.530  -4.600  1.00 20.00    -0.391 OA
ENDROOT
BRANCH   4   6
HETATM    6  C5  UNL     1     -33.918  16.887  -1.742  1.00 20.00     0.017 C 
BRANCH   6   7
HETATM    7  C6  UNL     1     -34.694  16.927  -0.437  1.00 20.00     0.085 C 
HETATM    8 BR8  UNL     1     -33.995  18.340   0.706  1.00 20.00    -0.096 Br
ENDBRANCH   6   7
ENDBRANCH   4   6
TORSDOF 2
ENDMDL
MODEL 8
REMARK VINA RESULT:      -3.2     10.230     10.725
REMARK  2 active torsions:
REMARK  status: ('A' for Active; 'I' for Inactive)
REMARK    1  A    between atoms: C4_4  and  C5_5 
REMARK    2  A    between atoms: C5_5  and  C6_6 
ROOT
HETATM    1  C1  UNL     1     -41.035   4.584  -1.204  1.00 20.00     0.033 C 
HETATM    2  C2  UNL     1     -40.637   5.854  -0.484  1.00 20.00     0.168 C 
HETATM    3  C3  UNL     1     -41.963   6.434  -2.309  1.00 20.00     0.172 C 
HETATM    4  C4  UNL     1     -42.310   5.014  -1.899  1.00 20.00     0.012 C 
HETATM    5  O7  UNL     1     -41.095   6.951  -1.288  1.00 20.00    -0.391 OA
ENDROOT
BRANCH   4   6
HETATM    6  C5  UNL     1     -42.715   4.125  -3.059  1.00 20.00     0.017 C 
BRANCH   6   7
HETATM    7  C6  UNL     1     -42.659   2.656  -2.677  1.00 20.00     0.085 C 
HETATM    8 BR8  UNL     1     -41.515   1.691  -3.922  1.00 20.00    -0.096 Br
ENDBRANCH   6   7
ENDBRANCH   4   6
TORSDOF 2
ENDMDL
MODEL 9
REMARK VINA RESULT:      -3.2     12.366     12.768
REMARK  2 active torsions:
REMARK  status: ('A' for Active; 'I' for Inactive)
REMARK    1  A    between atoms: C4_4  and  C5_5 
REMARK    2  A    between atoms: C5_5  and  C6_6 
ROOT
HETATM    1  C1  UNL     1     -33.333  17.938  -0.721  1.00 20.00     0.033 C 
HETATM    2  C2  UNL     1     -33.390  18.728   0.569  1.00 20.00     0.168 C 
HETATM    3  C3  UNL     1     -35.493  17.802   0.187  1.00 20.00     0.172 C 
HETATM    4  C4  UNL     1     -34.457  16.944  -0.520  1.00 20.00     0.012 C 
HETATM    5  O7  UNL     1     -34.762  18.741   0.990  1.00 20.00    -0.391 OA
ENDROOT
BRANCH   4   6
HETATM    6  C5  UNL     1     -34.962  16.309  -1.801  1.00 20.00     0.017 C 
BRANCH   6   7
HETATM    7  C6  UNL     1     -33.814  15.946  -2.728  1.00 20.00     0.085 C 
HETATM    8 BR8  UNL     1     -34.182  14.246  -3.604  1.00 20.00    -0.096 Br
ENDBRANCH   6   7
ENDBRANCH   4   6
TORSDOF 2
ENDMDL
