MODEL 1
REMARK VINA RESULT:      -3.6      0.000      0.000
REMARK  1 active torsions:
REMARK  status: ('A' for Active; 'I' for Inactive)
REMARK    1  A    between atoms: C2_2  and  C4_4 
ROOT
HETATM    1  C1  UNL     1     -34.195   5.749   6.121  1.00 20.00     0.095 A 
HETATM    2  C3  UNL     1     -35.045   4.742   5.397  1.00 20.00     0.122 A 
HETATM    3  C4  UNL     1     -33.962   6.670   4.085  1.00 20.00     0.255 A 
HETATM    4  N5  UNL     1     -33.617   6.736   5.510  1.00 20.00    -0.280 NA
HETATM    5  S7  UNL     1     -35.003   5.259   3.681  1.00 20.00    -0.128 SA
ENDROOT
BRANCH   3   6
HETATM    6  C2  UNL     1     -32.679   6.542   3.337  1.00 20.00     0.253 C 
HETATM    7  O6  UNL     1     -32.037   5.497   3.332  1.00 20.00    -0.277 OA
HETATM    8 CL8  UNL     1     -32.251   8.014   2.518  1.00 20.00    -0.041 Cl
ENDBRANCH   3   6
TORSDOF 1
ENDMDL
MODEL 2
REMARK VINA RESULT:      -3.5     11.974     12.756
REMARK  1 active torsions:
REMARK  status: ('A' for Active; 'I' for Inactive)
REMARK    1  A    between atoms: C2_2  and  C4_4 
ROOT
HETATM    1  C1  UNL     1     -33.536  16.620  -5.305  1.00 20.00     0.095 A 
HETATM    2  C3  UNL     1     -33.659  17.113  -3.890  1.00 20.00     0.122 A 
HETATM    3  C4  UNL     1     -34.870  14.957  -4.594  1.00 20.00     0.255 A 
HETATM    4  N5  UNL     1     -34.117  15.536  -5.713  1.00 20.00    -0.280 NA
HETATM    5  S7  UNL     1     -34.698  15.903  -3.072  1.00 20.00    -0.128 SA
ENDROOT
BRANCH   3   6
HETATM    6  C2  UNL     1     -34.321  13.590  -4.368  1.00 20.00     0.253 C 
HETATM    7  O6  UNL     1     -34.907  12.586  -4.760  1.00 20.00    -0.277 OA
HETATM    8 CL8  UNL     1     -32.810  13.627  -3.510  1.00 20.00    -0.041 Cl
ENDBRANCH   3   6
TORSDOF 1
ENDMDL
MODEL 3
REMARK VINA RESULT:      -3.5     11.945     12.209
REMARK  1 active torsions:
REMARK  status: ('A' for Active; 'I' for Inactive)
REMARK    1  A    between atoms: C2_2  and  C4_4 
ROOT
HETATM    1  C1  UNL     1     -34.424  13.188  -4.840  1.00 20.00     0.095 A 
HETATM    2  C3  UNL     1     -35.124  14.033  -5.867  1.00 20.00     0.122 A 
HETATM    3  C4  UNL     1     -35.136  14.760  -3.400  1.00 20.00     0.255 A 
HETATM    4  N5  UNL     1     -34.390  13.510  -3.584  1.00 20.00    -0.280 NA
HETATM    5  S7  UNL     1     -35.787  15.420  -4.944  1.00 20.00    -0.128 SA
ENDROOT
BRANCH   3   6
HETATM    6  C2  UNL     1     -34.182  15.751  -2.827  1.00 20.00     0.253 C 
HETATM    7  O6  UNL     1     -33.186  16.119  -3.442  1.00 20.00    -0.277 OA
HETATM    8 CL8  UNL     1     -34.663  16.280  -1.243  1.00 20.00    -0.041 Cl
ENDBRANCH   3   6
TORSDOF 1
ENDMDL
MODEL 4
REMARK VINA RESULT:      -3.5     11.716     12.426
REMARK  1 active torsions:
REMARK  status: ('A' for Active; 'I' for Inactive)
REMARK    1  A    between atoms: C2_2  and  C4_4 
ROOT
HETATM    1  C1  UNL     1     -35.656  14.740  -6.438  1.00 20.00     0.095 A 
HETATM    2  C3  UNL     1     -36.761  15.396  -5.658  1.00 20.00     0.122 A 
HETATM    3  C4  UNL     1     -35.325  13.579  -4.542  1.00 20.00     0.255 A 
HETATM    4  N5  UNL     1     -34.895  13.824  -5.924  1.00 20.00    -0.280 NA
HETATM    5  S7  UNL     1     -36.694  14.634  -4.037  1.00 20.00    -0.128 SA
ENDROOT
BRANCH   3   6
HETATM    6  C2  UNL     1     -34.154  13.873  -3.668  1.00 20.00     0.253 C 
HETATM    7  O6  UNL     1     -33.160  13.153  -3.656  1.00 20.00    -0.277 OA
HETATM    8 CL8  UNL     1     -34.391  15.310  -2.720  1.00 20.00    -0.041 Cl
ENDBRANCH   3   6
TORSDOF 1
ENDMDL
MODEL 5
REMARK VINA RESULT:      -3.5     12.327     12.585
REMARK  1 active torsions:
REMARK  status: ('A' for Active; 'I' for Inactive)
REMARK    1  A    between atoms: C2_2  and  C4_4 
ROOT
HETATM    1  C1  UNL     1     -34.736  16.102  -2.710  1.00 20.00     0.095 A 
HETATM    2  C3  UNL     1     -34.218  17.151  -3.655  1.00 20.00     0.122 A 
HETATM    3  C4  UNL     1     -33.664  14.675  -4.075  1.00 20.00     0.255 A 
HETATM    4  N5  UNL     1     -34.496  14.839  -2.877  1.00 20.00    -0.280 NA
HETATM    5  S7  UNL     1     -33.310  16.235  -4.901  1.00 20.00    -0.128 SA
ENDROOT
BRANCH   3   6
HETATM    6  C2  UNL     1     -34.428  13.805  -5.014  1.00 20.00     0.253 C 
HETATM    7  O6  UNL     1     -34.833  12.696  -4.682  1.00 20.00    -0.277 OA
HETATM    8 CL8  UNL     1     -34.649  14.556  -6.566  1.00 20.00    -0.041 Cl
ENDBRANCH   3   6
TORSDOF 1
ENDMDL
MODEL 6
REMARK VINA RESULT:      -3.5     12.297     13.111
REMARK  1 active torsions:
REMARK  status: ('A' for Active; 'I' for Inactive)
REMARK    1  A    between atoms: C2_2  and  C4_4 
ROOT
HETATM    1  C1  UNL     1     -34.077  15.866  -6.637  1.00 20.00     0.095 A 
HETATM    2  C3  UNL     1     -33.666  16.869  -5.596  1.00 20.00     0.122 A 
HETATM    3  C4  UNL     1     -35.091  14.840  -4.913  1.00 20.00     0.255 A 
HETATM    4  N5  UNL     1     -34.788  14.820  -6.349  1.00 20.00    -0.280 NA
HETATM    5  S7  UNL     1     -34.357  16.247  -4.063  1.00 20.00    -0.128 SA
ENDROOT
BRANCH   3   6
HETATM    6  C2  UNL     1     -34.523  13.590  -4.336  1.00 20.00     0.253 C 
HETATM    7  O6  UNL     1     -35.136  12.527  -4.370  1.00 20.00    -0.277 OA
HETATM    8 CL8  UNL     1     -32.949  13.845  -3.644  1.00 20.00    -0.041 Cl
ENDBRANCH   3   6
TORSDOF 1
ENDMDL
MODEL 7
REMARK VINA RESULT:      -3.4     12.288     12.701
REMARK  1 active torsions:
REMARK  status: ('A' for Active; 'I' for Inactive)
REMARK    1  A    between atoms: C2_2  and  C4_4 
ROOT
HETATM    1  C1  UNL     1     -37.853  15.170  -4.054  1.00 20.00     0.095 A 
HETATM    2  C3  UNL     1     -37.302  16.507  -4.466  1.00 20.00     0.122 A 
HETATM    3  C4  UNL     1     -35.688  14.592  -3.881  1.00 20.00     0.255 A 
HETATM    4  N5  UNL     1     -37.087  14.167  -3.757  1.00 20.00    -0.280 NA
HETATM    5  S7  UNL     1     -35.522  16.299  -4.428  1.00 20.00    -0.128 SA
ENDROOT
BRANCH   3   6
HETATM    6  C2  UNL     1     -35.057  13.705  -4.897  1.00 20.00     0.253 C 
HETATM    7  O6  UNL     1     -34.833  12.520  -4.671  1.00 20.00    -0.277 OA
HETATM    8 CL8  UNL     1     -34.702  14.552  -6.374  1.00 20.00    -0.041 Cl
ENDBRANCH   3   6
TORSDOF 1
ENDMDL
MODEL 8
REMARK VINA RESULT:      -3.4     12.227     12.897
REMARK  1 active torsions:
REMARK  status: ('A' for Active; 'I' for Inactive)
REMARK    1  A    between atoms: C2_2  and  C4_4 
ROOT
HETATM    1  C1  UNL     1     -36.918  15.403  -5.334  1.00 20.00     0.095 A 
HETATM    2  C3  UNL     1     -36.664  15.149  -6.794  1.00 20.00     0.122 A 
HETATM    3  C4  UNL     1     -34.738  14.905  -5.108  1.00 20.00     0.255 A 
HETATM    4  N5  UNL     1     -35.987  15.287  -4.439  1.00 20.00    -0.280 NA
HETATM    5  S7  UNL     1     -34.932  14.694  -6.885  1.00 20.00    -0.128 SA
ENDROOT
BRANCH   3   6
HETATM    6  C2  UNL     1     -34.316  13.603  -4.520  1.00 20.00     0.253 C 
HETATM    7  O6  UNL     1     -34.942  12.568  -4.725  1.00 20.00    -0.277 OA
HETATM    8 CL8  UNL     1     -32.881  13.758  -3.552  1.00 20.00    -0.041 Cl
ENDBRANCH   3   6
TORSDOF 1
ENDMDL
MODEL 9
REMARK VINA RESULT:      -3.3      1.221      1.221
REMARK  1 active torsions:
REMARK  status: ('A' for Active; 'I' for Inactive)
REMARK    1  A    between atoms: C2_2  and  C4_4 
ROOT
HETATM    1  C1  UNL     1     -34.331   5.507   6.347  1.00 20.00     0.095 A 
HETATM    2  C3  UNL     1     -35.101   4.535   5.497  1.00 20.00     0.122 A 
HETATM    3  C4  UNL     1     -34.037   6.608   4.409  1.00 20.00     0.255 A 
HETATM    4  N5  UNL     1     -33.766   6.564   5.851  1.00 20.00    -0.280 NA
HETATM    5  S7  UNL     1     -34.996   5.197   3.834  1.00 20.00    -0.128 SA
ENDROOT
BRANCH   3   6
HETATM    6  C2  UNL     1     -32.715   6.594   3.722  1.00 20.00     0.253 C 
HETATM    7  O6  UNL     1     -31.825   7.385   4.019  1.00 20.00    -0.277 OA
HETATM    8 CL8  UNL     1     -32.625   5.357   2.504  1.00 20.00    -0.041 Cl
ENDBRANCH   3   6
TORSDOF 1
ENDMDL
