MODEL 1
REMARK VINA RESULT:      -5.0      0.000      0.000
REMARK  2 active torsions:
REMARK  status: ('A' for Active; 'I' for Inactive)
REMARK    1  A    between atoms: C2_2  and  C6_6 
REMARK       I    between atoms: C2_2  and  N7_7 
REMARK    2  A    between atoms: C5_5  and  C6_6 
ROOT
HETATM    1  C1  UNL     1     -32.137   7.778   2.400  1.00 20.00     0.166 C 
HETATM    2  C2  UNL     1     -33.243   6.144   3.359  1.00 20.00     0.244 C 
HETATM    3  N7  UNL     1     -32.100   6.900   3.178  1.00 20.00    -0.199 NA
HETATM    4  O8  UNL     1     -33.825   5.483   2.500  1.00 20.00    -0.271 OA
HETATM    5  S9  UNL     1     -32.150   8.978   1.352  1.00 20.00    -0.055 SA
ENDROOT
BRANCH   2   6
HETATM    6  C6  UNL     1     -33.744   6.205   4.794  1.00 20.00     0.109 C 
BRANCH   6   7
HETATM    7  C5  UNL     1     -34.902   5.311   5.071  1.00 20.00    -0.006 A 
HETATM    8  C3  UNL     1     -34.675   3.887   5.498  1.00 20.00     0.005 A 
HETATM    9  C4  UNL     1     -35.212   4.890   6.480  1.00 20.00     0.005 A 
ENDBRANCH   6   7
ENDBRANCH   2   6
TORSDOF 2
ENDMDL
MODEL 2
REMARK VINA RESULT:      -4.2      2.632      4.901
REMARK  2 active torsions:
REMARK  status: ('A' for Active; 'I' for Inactive)
REMARK    1  A    between atoms: C2_2  and  C6_6 
REMARK       I    between atoms: C2_2  and  N7_7 
REMARK    2  A    between atoms: C5_5  and  C6_6 
ROOT
HETATM    1  C1  UNL     1     -34.125   6.075   4.799  1.00 20.00     0.166 C 
HETATM    2  C2  UNL     1     -32.575   6.399   3.280  1.00 20.00     0.244 C 
HETATM    3  N7  UNL     1     -33.880   6.487   3.726  1.00 20.00    -0.199 NA
HETATM    4  O8  UNL     1     -31.919   5.368   3.138  1.00 20.00    -0.271 OA
HETATM    5  S9  UNL     1     -34.496   5.528   6.248  1.00 20.00    -0.055 SA
ENDROOT
BRANCH   2   6
HETATM    6  C6  UNL     1     -31.989   7.767   2.965  1.00 20.00     0.109 C 
BRANCH   6   7
HETATM    7  C5  UNL     1     -32.595   8.429   1.776  1.00 20.00    -0.006 A 
HETATM    8  C3  UNL     1     -32.407   9.904   1.552  1.00 20.00     0.005 A 
HETATM    9  C4  UNL     1     -31.722   8.914   0.653  1.00 20.00     0.005 A 
ENDBRANCH   6   7
ENDBRANCH   2   6
TORSDOF 2
ENDMDL
MODEL 3
REMARK VINA RESULT:      -4.2     11.708     12.322
REMARK  2 active torsions:
REMARK  status: ('A' for Active; 'I' for Inactive)
REMARK    1  A    between atoms: C2_2  and  C6_6 
REMARK       I    between atoms: C2_2  and  N7_7 
REMARK    2  A    between atoms: C5_5  and  C6_6 
ROOT
HETATM    1  C1  UNL     1     -35.358  14.686  -6.357  1.00 20.00     0.166 C 
HETATM    2  C2  UNL     1     -34.547  13.658  -4.597  1.00 20.00     0.244 C 
HETATM    3  N7  UNL     1     -34.393  14.399  -5.754  1.00 20.00    -0.199 NA
HETATM    4  O8  UNL     1     -35.050  12.538  -4.509  1.00 20.00    -0.271 OA
HETATM    5  S9  UNL     1     -36.645  15.094  -7.203  1.00 20.00    -0.055 SA
ENDROOT
BRANCH   2   6
HETATM    6  C6  UNL     1     -34.012  14.390  -3.376  1.00 20.00     0.109 C 
BRANCH   6   7
HETATM    7  C5  UNL     1     -34.906  15.469  -2.874  1.00 20.00    -0.006 A 
HETATM    8  C3  UNL     1     -34.544  16.236  -1.632  1.00 20.00     0.005 A 
HETATM    9  C4  UNL     1     -34.487  16.908  -2.976  1.00 20.00     0.005 A 
ENDBRANCH   6   7
ENDBRANCH   2   6
TORSDOF 2
ENDMDL
MODEL 4
REMARK VINA RESULT:      -4.1     11.696     12.239
REMARK  2 active torsions:
REMARK  status: ('A' for Active; 'I' for Inactive)
REMARK    1  A    between atoms: C2_2  and  C6_6 
REMARK       I    between atoms: C2_2  and  N7_7 
REMARK    2  A    between atoms: C5_5  and  C6_6 
ROOT
HETATM    1  C1  UNL     1     -35.170  14.048  -6.319  1.00 20.00     0.166 C 
HETATM    2  C2  UNL     1     -35.447  13.977  -4.144  1.00 20.00     0.244 C 
HETATM    3  N7  UNL     1     -34.830  13.558  -5.307  1.00 20.00    -0.199 NA
HETATM    4  O8  UNL     1     -36.648  13.901  -3.886  1.00 20.00    -0.271 OA
HETATM    5  S9  UNL     1     -35.605  14.689  -7.710  1.00 20.00    -0.055 SA
ENDROOT
BRANCH   2   6
HETATM    6  C6  UNL     1     -34.455  14.573  -3.156  1.00 20.00     0.109 C 
BRANCH   6   7
HETATM    7  C5  UNL     1     -34.781  15.963  -2.732  1.00 20.00    -0.006 A 
HETATM    8  C3  UNL     1     -34.727  16.344  -1.279  1.00 20.00     0.005 A 
HETATM    9  C4  UNL     1     -33.695  16.876  -2.234  1.00 20.00     0.005 A 
ENDBRANCH   6   7
ENDBRANCH   2   6
TORSDOF 2
ENDMDL
MODEL 5
REMARK VINA RESULT:      -4.0     11.294     12.746
REMARK  2 active torsions:
REMARK  status: ('A' for Active; 'I' for Inactive)
REMARK    1  A    between atoms: C2_2  and  C6_6 
REMARK       I    between atoms: C2_2  and  N7_7 
REMARK    2  A    between atoms: C5_5  and  C6_6 
ROOT
HETATM    1  C1  UNL     1     -34.568  15.490  -2.761  1.00 20.00     0.166 C 
HETATM    2  C2  UNL     1     -34.282  13.745  -4.060  1.00 20.00     0.244 C 
HETATM    3  N7  UNL     1     -35.063  14.540  -3.243  1.00 20.00    -0.199 NA
HETATM    4  O8  UNL     1     -33.249  13.160  -3.738  1.00 20.00    -0.271 OA
HETATM    5  S9  UNL     1     -33.931  16.786  -2.090  1.00 20.00    -0.055 SA
ENDROOT
BRANCH   2   6
HETATM    6  C6  UNL     1     -34.844  13.654  -5.471  1.00 20.00     0.109 C 
BRANCH   6   7
HETATM    7  C5  UNL     1     -34.443  14.780  -6.359  1.00 20.00    -0.006 A 
HETATM    8  C3  UNL     1     -34.962  14.856  -7.768  1.00 20.00     0.005 A 
HETATM    9  C4  UNL     1     -35.442  15.838  -6.737  1.00 20.00     0.005 A 
ENDBRANCH   6   7
ENDBRANCH   2   6
TORSDOF 2
ENDMDL
MODEL 6
REMARK VINA RESULT:      -3.8     12.067     12.435
REMARK  2 active torsions:
REMARK  status: ('A' for Active; 'I' for Inactive)
REMARK    1  A    between atoms: C2_2  and  C6_6 
REMARK       I    between atoms: C2_2  and  N7_7 
REMARK    2  A    between atoms: C5_5  and  C6_6 
ROOT
HETATM    1  C1  UNL     1     -33.644  16.038  -5.419  1.00 20.00     0.166 C 
HETATM    2  C2  UNL     1     -33.727  15.559  -3.280  1.00 20.00     0.244 C 
HETATM    3  N7  UNL     1     -33.042  15.950  -4.415  1.00 20.00    -0.199 NA
HETATM    4  O8  UNL     1     -34.332  14.500  -3.120  1.00 20.00    -0.271 OA
HETATM    5  S9  UNL     1     -34.427  16.170  -6.800  1.00 20.00    -0.055 SA
ENDROOT
BRANCH   2   6
HETATM    6  C6  UNL     1     -33.663  16.614  -2.185  1.00 20.00     0.109 C 
BRANCH   6   7
HETATM    7  C5  UNL     1     -34.770  16.528  -1.194  1.00 20.00    -0.006 A 
HETATM    8  C3  UNL     1     -34.678  17.270   0.111  1.00 20.00     0.005 A 
HETATM    9  C4  UNL     1     -35.654  17.718  -0.941  1.00 20.00     0.005 A 
ENDBRANCH   6   7
ENDBRANCH   2   6
TORSDOF 2
ENDMDL
MODEL 7
REMARK VINA RESULT:      -3.7     11.656     12.124
REMARK  2 active torsions:
REMARK  status: ('A' for Active; 'I' for Inactive)
REMARK    1  A    between atoms: C2_2  and  C6_6 
REMARK       I    between atoms: C2_2  and  N7_7 
REMARK    2  A    between atoms: C5_5  and  C6_6 
ROOT
HETATM    1  C1  UNL     1     -34.843  16.996  -0.545  1.00 20.00     0.166 C 
HETATM    2  C2  UNL     1     -34.327  16.559  -2.632  1.00 20.00     0.244 C 
HETATM    3  N7  UNL     1     -34.422  16.202  -1.300  1.00 20.00    -0.199 NA
HETATM    4  O8  UNL     1     -33.665  17.488  -3.094  1.00 20.00    -0.271 OA
HETATM    5  S9  UNL     1     -35.410  18.047   0.509  1.00 20.00    -0.055 SA
ENDROOT
BRANCH   2   6
HETATM    6  C6  UNL     1     -35.159  15.652  -3.525  1.00 20.00     0.109 C 
BRANCH   6   7
HETATM    7  C5  UNL     1     -34.787  14.212  -3.445  1.00 20.00    -0.006 A 
HETATM    8  C3  UNL     1     -34.587  13.410  -4.702  1.00 20.00     0.005 A 
HETATM    9  C4  UNL     1     -33.408  13.764  -3.839  1.00 20.00     0.005 A 
ENDBRANCH   6   7
ENDBRANCH   2   6
TORSDOF 2
ENDMDL
MODEL 8
REMARK VINA RESULT:      -3.7     11.913     12.317
REMARK  2 active torsions:
REMARK  status: ('A' for Active; 'I' for Inactive)
REMARK    1  A    between atoms: C2_2  and  C6_6 
REMARK       I    between atoms: C2_2  and  N7_7 
REMARK    2  A    between atoms: C5_5  and  C6_6 
ROOT
HETATM    1  C1  UNL     1     -35.030  14.527  -3.734  1.00 20.00     0.166 C 
HETATM    2  C2  UNL     1     -34.546  16.559  -3.065  1.00 20.00     0.244 C 
HETATM    3  N7  UNL     1     -35.277  15.390  -2.977  1.00 20.00    -0.199 NA
HETATM    4  O8  UNL     1     -34.478  17.306  -4.041  1.00 20.00    -0.271 OA
HETATM    5  S9  UNL     1     -34.724  13.334  -4.744  1.00 20.00    -0.055 SA
ENDROOT
BRANCH   2   6
HETATM    6  C6  UNL     1     -33.790  16.857  -1.780  1.00 20.00     0.109 C 
BRANCH   6   7
HETATM    7  C5  UNL     1     -34.639  16.835  -0.556  1.00 20.00    -0.006 A 
HETATM    8  C3  UNL     1     -34.400  17.825   0.550  1.00 20.00     0.005 A 
HETATM    9  C4  UNL     1     -35.631  17.936  -0.304  1.00 20.00     0.005 A 
ENDBRANCH   6   7
ENDBRANCH   2   6
TORSDOF 2
ENDMDL
MODEL 9
REMARK VINA RESULT:      -3.7     12.438     13.081
REMARK  2 active torsions:
REMARK  status: ('A' for Active; 'I' for Inactive)
REMARK    1  A    between atoms: C2_2  and  C6_6 
REMARK       I    between atoms: C2_2  and  N7_7 
REMARK    2  A    between atoms: C5_5  and  C6_6 
ROOT
HETATM    1  C1  UNL     1     -35.634  16.287  -5.317  1.00 20.00     0.166 C 
HETATM    2  C2  UNL     1     -33.784  16.504  -4.158  1.00 20.00     0.244 C 
HETATM    3  N7  UNL     1     -35.049  16.924  -4.522  1.00 20.00    -0.199 NA
HETATM    4  O8  UNL     1     -32.815  16.372  -4.905  1.00 20.00    -0.271 OA
HETATM    5  S9  UNL     1     -36.458  15.449  -6.392  1.00 20.00    -0.055 SA
ENDROOT
BRANCH   2   6
HETATM    6  C6  UNL     1     -33.691  16.201  -2.670  1.00 20.00     0.109 C 
BRANCH   6   7
HETATM    7  C5  UNL     1     -34.335  17.224  -1.801  1.00 20.00    -0.006 A 
HETATM    8  C3  UNL     1     -34.748  16.875  -0.397  1.00 20.00     0.005 A 
HETATM    9  C4  UNL     1     -33.589  17.803  -0.632  1.00 20.00     0.005 A 
ENDBRANCH   6   7
ENDBRANCH   2   6
TORSDOF 2
ENDMDL
