MODEL 1
REMARK VINA RESULT:      -5.4      0.000      0.000
REMARK  0 active torsions:
REMARK  status: ('A' for Active; 'I' for Inactive)
ROOT
HETATM    1  C1  UNL     1     -34.856  15.600  -2.110  1.00 20.00     0.019 A 
HETATM    2  C2  UNL     1     -34.697  15.255  -3.455  1.00 20.00    -0.033 A 
HETATM    3  C3  UNL     1     -34.422  16.836  -1.648  1.00 20.00    -0.021 A 
HETATM    4  C4  UNL     1     -34.113  16.201  -4.304  1.00 20.00     0.042 A 
HETATM    5  C5  UNL     1     -33.843  17.697  -2.560  1.00 20.00     0.132 A 
HETATM    6  C6  UNL     1     -35.207  13.933  -3.958  1.00 20.00     0.040 C 
HETATM    7  C7  UNL     1     -33.877  15.899  -5.760  1.00 20.00     0.060 C 
HETATM    8  C8  UNL     1     -34.656  13.559  -5.333  1.00 20.00     0.005 C 
HETATM    9  C9  UNL     1     -34.733  14.748  -6.283  1.00 20.00     0.006 C 
HETATM   10  C10 UNL     1     -34.595  17.186  -0.210  1.00 20.00     0.051 C 
HETATM   11  N11 UNL     1     -33.676  17.411  -3.871  1.00 20.00    -0.240 NA
HETATM   12 CL12 UNL     1     -33.263  19.255  -2.116  1.00 20.00    -0.062 Cl
ENDROOT
TORSDOF 0
ENDMDL
MODEL 2
REMARK VINA RESULT:      -5.2      1.948      4.250
REMARK  0 active torsions:
REMARK  status: ('A' for Active; 'I' for Inactive)
ROOT
HETATM    1  C1  UNL     1     -34.730  15.062  -2.783  1.00 20.00     0.019 A 
HETATM    2  C2  UNL     1     -34.413  16.339  -2.312  1.00 20.00    -0.033 A 
HETATM    3  C3  UNL     1     -34.617  14.766  -4.135  1.00 20.00    -0.021 A 
HETATM    4  C4  UNL     1     -33.962  17.281  -3.243  1.00 20.00     0.042 A 
HETATM    5  C5  UNL     1     -34.177  15.768  -4.979  1.00 20.00     0.132 A 
HETATM    6  C6  UNL     1     -34.497  16.642  -0.842  1.00 20.00     0.040 C 
HETATM    7  C7  UNL     1     -33.627  18.688  -2.825  1.00 20.00     0.060 C 
HETATM    8  C8  UNL     1     -34.465  18.138  -0.532  1.00 20.00     0.005 C 
HETATM    9  C9  UNL     1     -33.362  18.827  -1.328  1.00 20.00     0.006 C 
HETATM   10  C10 UNL     1     -34.964  13.401  -4.621  1.00 20.00     0.051 C 
HETATM   11  N11 UNL     1     -33.850  17.014  -4.569  1.00 20.00    -0.240 NA
HETATM   12 CL12 UNL     1     -33.995  15.530  -6.673  1.00 20.00    -0.062 Cl
ENDROOT
TORSDOF 0
ENDMDL
MODEL 3
REMARK VINA RESULT:      -5.1      1.397      2.331
REMARK  0 active torsions:
REMARK  status: ('A' for Active; 'I' for Inactive)
ROOT
HETATM    1  C1  UNL     1     -33.692  17.404  -3.880  1.00 20.00     0.019 A 
HETATM    2  C2  UNL     1     -34.130  16.175  -4.381  1.00 20.00    -0.033 A 
HETATM    3  C3  UNL     1     -33.859  17.713  -2.536  1.00 20.00    -0.021 A 
HETATM    4  C4  UNL     1     -34.713  15.277  -3.480  1.00 20.00     0.042 A 
HETATM    5  C5  UNL     1     -34.460  16.767  -1.728  1.00 20.00     0.132 A 
HETATM    6  C6  UNL     1     -33.908  15.830  -5.827  1.00 20.00     0.040 C 
HETATM    7  C7  UNL     1     -35.239  13.944  -3.942  1.00 20.00     0.060 C 
HETATM    8  C8  UNL     1     -34.738  14.635  -6.295  1.00 20.00     0.005 C 
HETATM    9  C9  UNL     1     -34.659  13.498  -5.282  1.00 20.00     0.006 C 
HETATM   10  C10 UNL     1     -33.391  19.029  -2.020  1.00 20.00     0.051 C 
HETATM   11  N11 UNL     1     -34.891  15.562  -2.165  1.00 20.00    -0.240 NA
HETATM   12 CL12 UNL     1     -34.727  17.026  -0.048  1.00 20.00    -0.062 Cl
ENDROOT
TORSDOF 0
ENDMDL
MODEL 4
REMARK VINA RESULT:      -4.9      2.279      4.834
REMARK  0 active torsions:
REMARK  status: ('A' for Active; 'I' for Inactive)
ROOT
HETATM    1  C1  UNL     1     -33.819  17.096  -4.547  1.00 20.00     0.019 A 
HETATM    2  C2  UNL     1     -33.910  17.391  -3.184  1.00 20.00    -0.033 A 
HETATM    3  C3  UNL     1     -34.180  15.839  -5.017  1.00 20.00    -0.021 A 
HETATM    4  C4  UNL     1     -34.394  16.392  -2.333  1.00 20.00     0.042 A 
HETATM    5  C5  UNL     1     -34.632  14.913  -4.096  1.00 20.00     0.132 A 
HETATM    6  C6  UNL     1     -33.559  18.767  -2.688  1.00 20.00     0.040 C 
HETATM    7  C7  UNL     1     -34.496  16.617  -0.848  1.00 20.00     0.060 C 
HETATM    8  C8  UNL     1     -33.371  18.830  -1.173  1.00 20.00     0.005 C 
HETATM    9  C9  UNL     1     -34.501  18.094  -0.461  1.00 20.00     0.006 C 
HETATM   10  C10 UNL     1     -34.072  15.538  -6.472  1.00 20.00     0.051 C 
HETATM   11  N11 UNL     1     -34.746  15.156  -2.771  1.00 20.00    -0.240 NA
HETATM   12 CL12 UNL     1     -35.108  13.322  -4.548  1.00 20.00    -0.062 Cl
ENDROOT
TORSDOF 0
ENDMDL
MODEL 5
REMARK VINA RESULT:      -4.8      3.428      4.072
REMARK  0 active torsions:
REMARK  status: ('A' for Active; 'I' for Inactive)
ROOT
HETATM    1  C1  UNL     1     -36.383  16.583  -3.059  1.00 20.00     0.019 A 
HETATM    2  C2  UNL     1     -35.377  15.662  -3.366  1.00 20.00    -0.033 A 
HETATM    3  C3  UNL     1     -37.715  16.270  -3.297  1.00 20.00    -0.021 A 
HETATM    4  C4  UNL     1     -35.766  14.426  -3.892  1.00 20.00     0.042 A 
HETATM    5  C5  UNL     1     -37.999  15.028  -3.834  1.00 20.00     0.132 A 
HETATM    6  C6  UNL     1     -33.940  15.989  -3.066  1.00 20.00     0.040 C 
HETATM    7  C7  UNL     1     -34.746  13.389  -4.279  1.00 20.00     0.060 C 
HETATM    8  C8  UNL     1     -32.952  15.058  -3.767  1.00 20.00     0.005 C 
HETATM    9  C9  UNL     1     -33.387  13.605  -3.618  1.00 20.00     0.006 C 
HETATM   10  C10 UNL     1     -38.775  17.264  -2.968  1.00 20.00     0.051 C 
HETATM   11  N11 UNL     1     -37.062  14.103  -4.138  1.00 20.00    -0.240 NA
HETATM   12 CL12 UNL     1     -39.607  14.520  -4.177  1.00 20.00    -0.062 Cl
ENDROOT
TORSDOF 0
ENDMDL
MODEL 6
REMARK VINA RESULT:      -4.7      1.949      4.208
REMARK  0 active torsions:
REMARK  status: ('A' for Active; 'I' for Inactive)
ROOT
HETATM    1  C1  UNL     1     -34.416  15.965  -4.651  1.00 20.00     0.019 A 
HETATM    2  C2  UNL     1     -34.261  16.568  -3.399  1.00 20.00    -0.033 A 
HETATM    3  C3  UNL     1     -34.203  16.697  -5.812  1.00 20.00    -0.021 A 
HETATM    4  C4  UNL     1     -33.867  17.910  -3.369  1.00 20.00     0.042 A 
HETATM    5  C5  UNL     1     -33.831  18.021  -5.680  1.00 20.00     0.132 A 
HETATM    6  C6  UNL     1     -34.451  15.760  -2.146  1.00 20.00     0.040 C 
HETATM    7  C7  UNL     1     -33.706  18.644  -2.064  1.00 20.00     0.060 C 
HETATM    8  C8  UNL     1     -34.595  16.619  -0.891  1.00 20.00     0.005 C 
HETATM    9  C9  UNL     1     -33.534  17.713  -0.866  1.00 20.00     0.006 C 
HETATM   10  C10 UNL     1     -34.377  16.041  -7.138  1.00 20.00     0.051 C 
HETATM   11  N11 UNL     1     -33.660  18.644  -4.492  1.00 20.00    -0.240 NA
HETATM   12 CL12 UNL     1     -33.539  19.036  -7.038  1.00 20.00    -0.062 Cl
ENDROOT
TORSDOF 0
ENDMDL
MODEL 7
REMARK VINA RESULT:      -4.7      1.859      2.169
REMARK  0 active torsions:
REMARK  status: ('A' for Active; 'I' for Inactive)
ROOT
HETATM    1  C1  UNL     1     -33.672  16.405  -2.064  1.00 20.00     0.019 A 
HETATM    2  C2  UNL     1     -34.282  15.510  -2.948  1.00 20.00    -0.033 A 
HETATM    3  C3  UNL     1     -34.412  17.423  -1.475  1.00 20.00    -0.021 A 
HETATM    4  C4  UNL     1     -35.651  15.668  -3.191  1.00 20.00     0.042 A 
HETATM    5  C5  UNL     1     -35.755  17.507  -1.790  1.00 20.00     0.132 A 
HETATM    6  C6  UNL     1     -33.486  14.385  -3.548  1.00 20.00     0.040 C 
HETATM    7  C7  UNL     1     -36.379  14.767  -4.152  1.00 20.00     0.060 C 
HETATM    8  C8  UNL     1     -34.180  13.724  -4.738  1.00 20.00     0.005 C 
HETATM    9  C9  UNL     1     -35.647  13.455  -4.421  1.00 20.00     0.006 C 
HETATM   10  C10 UNL     1     -33.746  18.371  -0.540  1.00 20.00     0.051 C 
HETATM   11  N11 UNL     1     -36.390  16.660  -2.631  1.00 20.00    -0.240 NA
HETATM   12 CL12 UNL     1     -36.780  18.721  -1.131  1.00 20.00    -0.062 Cl
ENDROOT
TORSDOF 0
ENDMDL
MODEL 8
REMARK VINA RESULT:      -4.6      2.429      4.656
REMARK  0 active torsions:
REMARK  status: ('A' for Active; 'I' for Inactive)
ROOT
HETATM    1  C1  UNL     1     -33.650  18.783  -4.510  1.00 20.00     0.019 A 
HETATM    2  C2  UNL     1     -33.825  18.041  -3.338  1.00 20.00    -0.033 A 
HETATM    3  C3  UNL     1     -33.813  18.180  -5.751  1.00 20.00    -0.021 A 
HETATM    4  C4  UNL     1     -34.187  16.696  -3.468  1.00 20.00     0.042 A 
HETATM    5  C5  UNL     1     -34.156  16.842  -5.777  1.00 20.00     0.132 A 
HETATM    6  C6  UNL     1     -33.689  18.709  -1.998  1.00 20.00     0.040 C 
HETATM    7  C7  UNL     1     -34.366  15.819  -2.258  1.00 20.00     0.060 C 
HETATM    8  C8  UNL     1     -33.559  17.719  -0.842  1.00 20.00     0.005 C 
HETATM    9  C9  UNL     1     -34.593  16.607  -0.970  1.00 20.00     0.006 C 
HETATM   10  C10 UNL     1     -33.618  18.983  -6.990  1.00 20.00     0.051 C 
HETATM   11  N11 UNL     1     -34.344  16.087  -4.671  1.00 20.00    -0.240 NA
HETATM   12 CL12 UNL     1     -34.385  15.979  -7.247  1.00 20.00    -0.062 Cl
ENDROOT
TORSDOF 0
ENDMDL
MODEL 9
REMARK VINA RESULT:      -4.6      2.531      4.565
REMARK  0 active torsions:
REMARK  status: ('A' for Active; 'I' for Inactive)
ROOT
HETATM    1  C1  UNL     1     -34.553  14.950  -2.919  1.00 20.00     0.019 A 
HETATM    2  C2  UNL     1     -35.019  16.122  -2.317  1.00 20.00    -0.033 A 
HETATM    3  C3  UNL     1     -35.028  14.567  -4.167  1.00 20.00    -0.021 A 
HETATM    4  C4  UNL     1     -35.951  16.890  -3.024  1.00 20.00     0.042 A 
HETATM    5  C5  UNL     1     -35.960  15.383  -4.780  1.00 20.00     0.132 A 
HETATM    6  C6  UNL     1     -34.469  16.555  -0.986  1.00 20.00     0.040 C 
HETATM    7  C7  UNL     1     -36.526  18.150  -2.436  1.00 20.00     0.060 C 
HETATM    8  C8  UNL     1     -35.311  17.635  -0.309  1.00 20.00     0.005 C 
HETATM    9  C9  UNL     1     -35.680  18.729  -1.304  1.00 20.00     0.006 C 
HETATM   10  C10 UNL     1     -34.525  13.312  -4.792  1.00 20.00     0.051 C 
HETATM   11  N11 UNL     1     -36.433  16.529  -4.241  1.00 20.00    -0.240 NA
HETATM   12 CL12 UNL     1     -36.628  15.020  -6.323  1.00 20.00    -0.062 Cl
ENDROOT
TORSDOF 0
ENDMDL
