MODEL 1
REMARK VINA RESULT:      -4.8      0.000      0.000
REMARK  1 active torsions:
REMARK  status: ('A' for Active; 'I' for Inactive)
REMARK    1  A    between atoms: C4_4  and  C9_9 
ROOT
HETATM    1  C1  UNL     1     -33.742  17.399  -4.091  1.00 20.00     0.006 C 
HETATM    2  C2  UNL     1     -33.618  16.738  -5.468  1.00 20.00     0.021 C 
HETATM    3  C3  UNL     1     -33.498  15.038  -3.224  1.00 20.00     0.010 C 
HETATM    4  C4  UNL     1     -34.114  16.416  -2.967  1.00 20.00    -0.014 C 
HETATM    5  C5  UNL     1     -33.996  14.406  -4.542  1.00 20.00     0.000 C 
HETATM    6  C6  UNL     1     -34.459  15.470  -5.562  1.00 20.00     0.086 C 
HETATM    7  C7  UNL     1     -35.115  13.394  -4.269  1.00 20.00     0.011 C 
HETATM    8 CL10 UNL     1     -34.385  14.818  -7.228  1.00 20.00    -0.125 Cl
ENDROOT
BRANCH   4   9
HETATM    9  C9  UNL     1     -33.693  16.967  -1.606  1.00 20.00     0.000 C 
HETATM   10  C8  UNL     1     -34.752  16.754  -0.576  1.00 20.00     0.005 C 
ENDBRANCH   4   9
TORSDOF 1
ENDMDL
MODEL 2
REMARK VINA RESULT:      -4.6      1.365      1.719
REMARK  1 active torsions:
REMARK  status: ('A' for Active; 'I' for Inactive)
REMARK    1  A    between atoms: C4_4  and  C9_9 
ROOT
HETATM    1  C1  UNL     1     -36.017  16.691  -2.823  1.00 20.00     0.006 C 
HETATM    2  C2  UNL     1     -35.946  16.326  -4.309  1.00 20.00     0.021 C 
HETATM    3  C3  UNL     1     -33.611  15.916  -2.786  1.00 20.00     0.010 C 
HETATM    4  C4  UNL     1     -34.906  16.045  -1.977  1.00 20.00    -0.014 C 
HETATM    5  C5  UNL     1     -33.784  15.026  -4.035  1.00 20.00     0.000 C 
HETATM    6  C6  UNL     1     -35.247  14.989  -4.528  1.00 20.00     0.086 C 
HETATM    7  C7  UNL     1     -33.266  13.608  -3.767  1.00 20.00     0.011 C 
HETATM    8 CL10 UNL     1     -35.314  14.548  -6.263  1.00 20.00    -0.125 Cl
ENDROOT
BRANCH   4   9
HETATM    9  C9  UNL     1     -34.678  16.836  -0.689  1.00 20.00     0.000 C 
HETATM   10  C8  UNL     1     -33.507  17.753  -0.807  1.00 20.00     0.005 C 
ENDBRANCH   4   9
TORSDOF 1
ENDMDL
MODEL 3
REMARK VINA RESULT:      -4.3      2.317      4.535
REMARK  1 active torsions:
REMARK  status: ('A' for Active; 'I' for Inactive)
REMARK    1  A    between atoms: C4_4  and  C9_9 
ROOT
HETATM    1  C1  UNL     1     -34.937  14.324  -4.790  1.00 20.00     0.006 C 
HETATM    2  C2  UNL     1     -34.691  14.584  -3.300  1.00 20.00     0.021 C 
HETATM    3  C3  UNL     1     -33.368  16.278  -5.122  1.00 20.00     0.010 C 
HETATM    4  C4  UNL     1     -34.569  15.515  -5.691  1.00 20.00    -0.014 C 
HETATM    5  C5  UNL     1     -33.651  16.860  -3.721  1.00 20.00     0.000 C 
HETATM    6  C6  UNL     1     -34.747  16.072  -2.971  1.00 20.00     0.086 C 
HETATM    7  C7  UNL     1     -34.019  18.345  -3.815  1.00 20.00     0.011 C 
HETATM    8 CL10 UNL     1     -34.590  16.306  -1.202  1.00 20.00    -0.125 Cl
ENDROOT
BRANCH   4   9
HETATM    9  C9  UNL     1     -34.302  15.049  -7.122  1.00 20.00     0.000 C 
HETATM   10  C8  UNL     1     -35.531  14.486  -7.754  1.00 20.00     0.005 C 
ENDBRANCH   4   9
TORSDOF 1
ENDMDL
MODEL 4
REMARK VINA RESULT:      -4.3      0.930      2.431
REMARK  1 active torsions:
REMARK  status: ('A' for Active; 'I' for Inactive)
REMARK    1  A    between atoms: C4_4  and  C9_9 
ROOT
HETATM    1  C1  UNL     1     -34.464  14.758  -3.055  1.00 20.00     0.006 C 
HETATM    2  C2  UNL     1     -34.706  14.526  -4.550  1.00 20.00     0.021 C 
HETATM    3  C3  UNL     1     -34.976  17.170  -3.613  1.00 20.00     0.010 C 
HETATM    4  C4  UNL     1     -34.187  16.229  -2.697  1.00 20.00    -0.014 C 
HETATM    5  C5  UNL     1     -34.594  17.001  -5.099  1.00 20.00     0.000 C 
HETATM    6  C6  UNL     1     -34.031  15.596  -5.402  1.00 20.00     0.086 C 
HETATM    7  C7  UNL     1     -33.603  18.088  -5.531  1.00 20.00     0.011 C 
HETATM    8 CL10 UNL     1     -34.229  15.200  -7.137  1.00 20.00    -0.125 Cl
ENDROOT
BRANCH   4   9
HETATM    9  C9  UNL     1     -34.501  16.495  -1.225  1.00 20.00     0.000 C 
HETATM   10  C8  UNL     1     -33.744  17.673  -0.707  1.00 20.00     0.005 C 
ENDBRANCH   4   9
TORSDOF 1
ENDMDL
MODEL 5
REMARK VINA RESULT:      -4.2      2.418      4.191
REMARK  1 active torsions:
REMARK  status: ('A' for Active; 'I' for Inactive)
REMARK    1  A    between atoms: C4_4  and  C9_9 
ROOT
HETATM    1  C1  UNL     1     -35.355  16.380  -5.738  1.00 20.00     0.006 C 
HETATM    2  C2  UNL     1     -35.557  16.451  -4.221  1.00 20.00     0.021 C 
HETATM    3  C3  UNL     1     -34.735  13.973  -5.280  1.00 20.00     0.010 C 
HETATM    4  C4  UNL     1     -34.500  15.183  -6.189  1.00 20.00    -0.014 C 
HETATM    5  C5  UNL     1     -34.350  14.257  -3.812  1.00 20.00     0.000 C 
HETATM    6  C6  UNL     1     -34.425  15.761  -3.469  1.00 20.00     0.086 C 
HETATM    7  C7  UNL     1     -32.958  13.697  -3.498  1.00 20.00     0.011 C 
HETATM    8 CL10 UNL     1     -34.640  15.994  -1.706  1.00 20.00    -0.125 Cl
ENDROOT
BRANCH   4   9
HETATM    9  C9  UNL     1     -34.780  14.840  -7.652  1.00 20.00     0.000 C 
HETATM   10  C8  UNL     1     -36.244  14.719  -7.917  1.00 20.00     0.005 C 
ENDBRANCH   4   9
TORSDOF 1
ENDMDL
MODEL 6
REMARK VINA RESULT:      -4.0     11.602     12.876
REMARK  1 active torsions:
REMARK  status: ('A' for Active; 'I' for Inactive)
REMARK    1  A    between atoms: C4_4  and  C9_9 
ROOT
HETATM    1  C1  UNL     1     -33.828   5.845   2.593  1.00 20.00     0.006 C 
HETATM    2  C2  UNL     1     -34.356   4.856   3.638  1.00 20.00     0.021 C 
HETATM    3  C3  UNL     1     -32.396   6.688   4.498  1.00 20.00     0.010 C 
HETATM    4  C4  UNL     1     -33.125   7.069   3.205  1.00 20.00    -0.014 C 
HETATM    5  C5  UNL     1     -33.357   6.150   5.579  1.00 20.00     0.000 C 
HETATM    6  C6  UNL     1     -34.640   5.541   4.970  1.00 20.00     0.086 C 
HETATM    7  C7  UNL     1     -33.705   7.247   6.591  1.00 20.00     0.011 C 
HETATM    8 CL10 UNL     1     -35.381   4.372   6.105  1.00 20.00    -0.125 Cl
ENDROOT
BRANCH   4   9
HETATM    9  C9  UNL     1     -32.169   7.704   2.196  1.00 20.00     0.000 C 
HETATM   10  C8  UNL     1     -32.543   9.118   1.899  1.00 20.00     0.005 C 
ENDBRANCH   4   9
TORSDOF 1
ENDMDL
MODEL 7
REMARK VINA RESULT:      -3.8      2.385      4.252
REMARK  1 active torsions:
REMARK  status: ('A' for Active; 'I' for Inactive)
REMARK    1  A    between atoms: C4_4  and  C9_9 
ROOT
HETATM    1  C1  UNL     1     -34.256  15.375  -3.120  1.00 20.00     0.006 C 
HETATM    2  C2  UNL     1     -33.687  16.574  -2.354  1.00 20.00     0.021 C 
HETATM    3  C3  UNL     1     -33.289  16.540  -5.144  1.00 20.00     0.010 C 
HETATM    4  C4  UNL     1     -34.404  15.623  -4.631  1.00 20.00    -0.014 C 
HETATM    5  C5  UNL     1     -33.310  17.928  -4.468  1.00 20.00     0.000 C 
HETATM    6  C6  UNL     1     -33.973  17.888  -3.073  1.00 20.00     0.086 C 
HETATM    7  C7  UNL     1     -34.001  18.959  -5.367  1.00 20.00     0.011 C 
HETATM    8 CL10 UNL     1     -33.410  19.261  -2.070  1.00 20.00    -0.125 Cl
ENDROOT
BRANCH   4   9
HETATM    9  C9  UNL     1     -34.430  14.301  -5.396  1.00 20.00     0.000 C 
HETATM   10  C8  UNL     1     -34.835  13.165  -4.517  1.00 20.00     0.005 C 
ENDBRANCH   4   9
TORSDOF 1
ENDMDL
MODEL 8
REMARK VINA RESULT:      -3.8      1.467      2.525
REMARK  1 active torsions:
REMARK  status: ('A' for Active; 'I' for Inactive)
REMARK    1  A    between atoms: C4_4  and  C9_9 
ROOT
HETATM    1  C1  UNL     1     -33.900  16.360  -2.568  1.00 20.00     0.006 C 
HETATM    2  C2  UNL     1     -34.430  14.990  -3.003  1.00 20.00     0.021 C 
HETATM    3  C3  UNL     1     -34.892  17.148  -4.755  1.00 20.00     0.010 C 
HETATM    4  C4  UNL     1     -33.782  17.370  -3.723  1.00 20.00    -0.014 C 
HETATM    5  C5  UNL     1     -34.831  15.743  -5.393  1.00 20.00     0.000 C 
HETATM    6  C6  UNL     1     -34.137  14.714  -4.474  1.00 20.00     0.086 C 
HETATM    7  C7  UNL     1     -34.143  15.798  -6.762  1.00 20.00     0.011 C 
HETATM    8 CL10 UNL     1     -34.653  13.051  -4.891  1.00 20.00    -0.125 Cl
ENDROOT
BRANCH   4   9
HETATM    9  C9  UNL     1     -33.797  18.803  -3.193  1.00 20.00     0.000 C 
HETATM   10  C8  UNL     1     -33.404  18.860  -1.754  1.00 20.00     0.005 C 
ENDBRANCH   4   9
TORSDOF 1
ENDMDL
MODEL 9
REMARK VINA RESULT:      -3.8      1.878      2.568
REMARK  1 active torsions:
REMARK  status: ('A' for Active; 'I' for Inactive)
REMARK    1  A    between atoms: C4_4  and  C9_9 
ROOT
HETATM    1  C1  UNL     1     -36.171  15.672  -3.259  1.00 20.00     0.006 C 
HETATM    2  C2  UNL     1     -37.123  15.722  -4.459  1.00 20.00     0.021 C 
HETATM    3  C3  UNL     1     -34.452  16.492  -4.920  1.00 20.00     0.010 C 
HETATM    4  C4  UNL     1     -34.684  15.664  -3.652  1.00 20.00    -0.014 C 
HETATM    5  C5  UNL     1     -35.229  15.941  -6.134  1.00 20.00     0.000 C 
HETATM    6  C6  UNL     1     -36.480  15.138  -5.712  1.00 20.00     0.086 C 
HETATM    7  C7  UNL     1     -34.315  15.091  -7.024  1.00 20.00     0.011 C 
HETATM    8 CL10 UNL     1     -37.678  15.095  -7.042  1.00 20.00    -0.125 Cl
ENDROOT
BRANCH   4   9
HETATM    9  C9  UNL     1     -33.817  16.162  -2.497  1.00 20.00     0.000 C 
HETATM   10  C8  UNL     1     -34.627  16.413  -1.270  1.00 20.00     0.005 C 
ENDBRANCH   4   9
TORSDOF 1
ENDMDL
