MODEL 1
REMARK VINA RESULT:      -4.7      0.000      0.000
REMARK  2 active torsions:
REMARK  status: ('A' for Active; 'I' for Inactive)
REMARK    1  A    between atoms: C4_4  and  C8_8 
REMARK    2  A    between atoms: C8_8  and  C9_9 
ROOT
HETATM    1  C1  UNL     1     -34.693   5.065   6.024  1.00 20.00     0.002 C 
HETATM    2  C2  UNL     1     -34.146   6.425   5.580  1.00 20.00     0.006 C 
HETATM    3  C3  UNL     1     -34.931   4.255   4.750  1.00 20.00     0.020 C 
HETATM    4  C4  UNL     1     -33.959   6.342   4.060  1.00 20.00     0.004 C 
HETATM    5  C5  UNL     1     -34.976   5.281   3.623  1.00 20.00     0.086 C 
HETATM    6 CL10 UNL     1     -36.615   5.994   3.507  1.00 20.00    -0.125 Cl
ENDROOT
BRANCH   4   7
HETATM    7  C8  UNL     1     -32.527   5.940   3.701  1.00 20.00     0.010 C 
BRANCH   7   8
HETATM    8  C9  UNL     1     -31.687   7.096   3.131  1.00 20.00    -0.022 C 
HETATM    9  C6  UNL     1     -32.495   7.998   2.197  1.00 20.00     0.009 C 
HETATM   10  C7  UNL     1     -31.103   7.927   4.275  1.00 20.00     0.009 C 
ENDBRANCH   7   8
ENDBRANCH   4   7
TORSDOF 2
ENDMDL
MODEL 2
REMARK VINA RESULT:      -4.5     11.598     12.337
REMARK  2 active torsions:
REMARK  status: ('A' for Active; 'I' for Inactive)
REMARK    1  A    between atoms: C4_4  and  C8_8 
REMARK    2  A    between atoms: C8_8  and  C9_9 
ROOT
HETATM    1  C1  UNL     1     -34.848  13.933  -3.826  1.00 20.00     0.002 C 
HETATM    2  C2  UNL     1     -35.675  15.166  -3.453  1.00 20.00     0.006 C 
HETATM    3  C3  UNL     1     -33.381  14.319  -3.640  1.00 20.00     0.020 C 
HETATM    4  C4  UNL     1     -34.682  16.214  -2.937  1.00 20.00     0.004 C 
HETATM    5  C5  UNL     1     -33.365  15.844  -3.630  1.00 20.00     0.086 C 
HETATM    6 CL10 UNL     1     -33.344  16.468  -5.309  1.00 20.00    -0.125 Cl
ENDROOT
BRANCH   4   7
HETATM    7  C8  UNL     1     -34.559  16.156  -1.413  1.00 20.00     0.010 C 
BRANCH   7   8
HETATM    8  C9  UNL     1     -34.596  17.539  -0.739  1.00 20.00    -0.022 C 
HETATM    9  C6  UNL     1     -35.166  17.480   0.679  1.00 20.00     0.009 C 
HETATM   10  C7  UNL     1     -33.189  18.139  -0.707  1.00 20.00     0.009 C 
ENDBRANCH   7   8
ENDBRANCH   4   7
TORSDOF 2
ENDMDL
MODEL 3
REMARK VINA RESULT:      -4.3     10.913     12.200
REMARK  2 active torsions:
REMARK  status: ('A' for Active; 'I' for Inactive)
REMARK    1  A    between atoms: C4_4  and  C8_8 
REMARK    2  A    between atoms: C8_8  and  C9_9 
ROOT
HETATM    1  C1  UNL     1     -34.470  13.459  -4.988  1.00 20.00     0.002 C 
HETATM    2  C2  UNL     1     -34.291  13.633  -3.477  1.00 20.00     0.006 C 
HETATM    3  C3  UNL     1     -35.172  14.719  -5.492  1.00 20.00     0.020 C 
HETATM    4  C4  UNL     1     -34.781  15.047  -3.143  1.00 20.00     0.004 C 
HETATM    5  C5  UNL     1     -35.792  15.357  -4.253  1.00 20.00     0.086 C 
HETATM    6 CL10 UNL     1     -37.371  14.590  -3.894  1.00 20.00    -0.125 Cl
ENDROOT
BRANCH   4   7
HETATM    7  C8  UNL     1     -33.622  16.046  -3.134  1.00 20.00     0.010 C 
BRANCH   7   8
HETATM    8  C9  UNL     1     -33.683  17.050  -1.971  1.00 20.00    -0.022 C 
HETATM    9  C6  UNL     1     -34.085  18.452  -2.431  1.00 20.00     0.009 C 
HETATM   10  C7  UNL     1     -34.664  16.553  -0.907  1.00 20.00     0.009 C 
ENDBRANCH   7   8
ENDBRANCH   4   7
TORSDOF 2
ENDMDL
MODEL 4
REMARK VINA RESULT:      -4.3     11.555     12.488
REMARK  2 active torsions:
REMARK  status: ('A' for Active; 'I' for Inactive)
REMARK    1  A    between atoms: C4_4  and  C8_8 
REMARK    2  A    between atoms: C8_8  and  C9_9 
ROOT
HETATM    1  C1  UNL     1     -33.234  16.018  -4.949  1.00 20.00     0.002 C 
HETATM    2  C2  UNL     1     -33.049  15.494  -3.523  1.00 20.00     0.006 C 
HETATM    3  C3  UNL     1     -34.702  15.793  -5.309  1.00 20.00     0.020 C 
HETATM    4  C4  UNL     1     -34.441  15.084  -3.027  1.00 20.00     0.004 C 
HETATM    5  C5  UNL     1     -35.205  14.753  -4.314  1.00 20.00     0.086 C 
HETATM    6 CL10 UNL     1     -34.787  13.107  -4.885  1.00 20.00    -0.125 Cl
ENDROOT
BRANCH   4   7
HETATM    7  C8  UNL     1     -35.106  16.220  -2.247  1.00 20.00     0.010 C 
BRANCH   7   8
HETATM    8  C9  UNL     1     -34.141  16.978  -1.319  1.00 20.00    -0.022 C 
HETATM    9  C6  UNL     1     -33.764  18.354  -1.868  1.00 20.00     0.009 C 
HETATM   10  C7  UNL     1     -34.768  17.129   0.070  1.00 20.00     0.009 C 
ENDBRANCH   7   8
ENDBRANCH   4   7
TORSDOF 2
ENDMDL
MODEL 5
REMARK VINA RESULT:      -4.3      8.861     10.732
REMARK  2 active torsions:
REMARK  status: ('A' for Active; 'I' for Inactive)
REMARK    1  A    between atoms: C4_4  and  C8_8 
REMARK    2  A    between atoms: C8_8  and  C9_9 
ROOT
HETATM    1  C1  UNL     1     -41.144   6.897  -1.198  1.00 20.00     0.002 C 
HETATM    2  C2  UNL     1     -42.215   6.149  -1.997  1.00 20.00     0.006 C 
HETATM    3  C3  UNL     1     -40.691   5.953  -0.086  1.00 20.00     0.020 C 
HETATM    4  C4  UNL     1     -42.282   4.734  -1.412  1.00 20.00     0.004 C 
HETATM    5  C5  UNL     1     -41.797   4.910   0.032  1.00 20.00     0.086 C 
HETATM    6 CL10 UNL     1     -43.121   5.534   1.066  1.00 20.00    -0.125 Cl
ENDROOT
BRANCH   4   7
HETATM    7  C8  UNL     1     -41.391   3.768  -2.197  1.00 20.00     0.010 C 
BRANCH   7   8
HETATM    8  C9  UNL     1     -42.173   2.835  -3.137  1.00 20.00    -0.022 C 
HETATM    9  C6  UNL     1     -41.269   1.818  -3.834  1.00 20.00     0.009 C 
HETATM   10  C7  UNL     1     -43.265   2.104  -2.353  1.00 20.00     0.009 C 
ENDBRANCH   7   8
ENDBRANCH   4   7
TORSDOF 2
ENDMDL
MODEL 6
REMARK VINA RESULT:      -4.2     11.541     12.699
REMARK  2 active torsions:
REMARK  status: ('A' for Active; 'I' for Inactive)
REMARK    1  A    between atoms: C4_4  and  C8_8 
REMARK    2  A    between atoms: C8_8  and  C9_9 
ROOT
HETATM    1  C1  UNL     1     -34.399  15.833  -5.614  1.00 20.00     0.002 C 
HETATM    2  C2  UNL     1     -33.223  16.435  -4.840  1.00 20.00     0.006 C 
HETATM    3  C3  UNL     1     -35.208  15.014  -4.609  1.00 20.00     0.020 C 
HETATM    4  C4  UNL     1     -33.433  16.057  -3.369  1.00 20.00     0.004 C 
HETATM    5  C5  UNL     1     -34.265  14.771  -3.436  1.00 20.00     0.086 C 
HETATM    6 CL10 UNL     1     -33.212  13.362  -3.776  1.00 20.00    -0.125 Cl
ENDROOT
BRANCH   4   7
HETATM    7  C8  UNL     1     -34.165  17.169  -2.612  1.00 20.00     0.010 C 
BRANCH   7   8
HETATM    8  C9  UNL     1     -33.683  17.346  -1.162  1.00 20.00    -0.022 C 
HETATM    9  C6  UNL     1     -33.121  18.745  -0.901  1.00 20.00     0.009 C 
HETATM   10  C7  UNL     1     -34.834  17.063  -0.194  1.00 20.00     0.009 C 
ENDBRANCH   7   8
ENDBRANCH   4   7
TORSDOF 2
ENDMDL
MODEL 7
REMARK VINA RESULT:      -4.1     11.224     13.335
REMARK  2 active torsions:
REMARK  status: ('A' for Active; 'I' for Inactive)
REMARK    1  A    between atoms: C4_4  and  C8_8 
REMARK    2  A    between atoms: C8_8  and  C9_9 
ROOT
HETATM    1  C1  UNL     1     -33.062  14.520  -3.875  1.00 20.00     0.002 C 
HETATM    2  C2  UNL     1     -33.084  15.982  -4.330  1.00 20.00     0.006 C 
HETATM    3  C3  UNL     1     -34.467  14.200  -3.367  1.00 20.00     0.020 C 
HETATM    4  C4  UNL     1     -34.536  16.455  -4.195  1.00 20.00     0.004 C 
HETATM    5  C5  UNL     1     -35.116  15.553  -3.099  1.00 20.00     0.086 C 
HETATM    6 CL10 UNL     1     -34.639  16.152  -1.479  1.00 20.00    -0.125 Cl
ENDROOT
BRANCH   4   7
HETATM    7  C8  UNL     1     -35.293  16.302  -5.517  1.00 20.00     0.010 C 
BRANCH   7   8
HETATM    8  C9  UNL     1     -34.372  16.205  -6.746  1.00 20.00    -0.022 C 
HETATM    9  C6  UNL     1     -34.580  14.908  -7.529  1.00 20.00     0.009 C 
HETATM   10  C7  UNL     1     -34.604  17.407  -7.664  1.00 20.00     0.009 C 
ENDBRANCH   7   8
ENDBRANCH   4   7
TORSDOF 2
ENDMDL
MODEL 8
REMARK VINA RESULT:      -4.0     11.575     12.689
REMARK  2 active torsions:
REMARK  status: ('A' for Active; 'I' for Inactive)
REMARK    1  A    between atoms: C4_4  and  C8_8 
REMARK    2  A    between atoms: C8_8  and  C9_9 
ROOT
HETATM    1  C1  UNL     1     -35.519  17.971  -3.035  1.00 20.00     0.002 C 
HETATM    2  C2  UNL     1     -35.963  16.512  -2.907  1.00 20.00     0.006 C 
HETATM    3  C3  UNL     1     -34.124  18.059  -2.418  1.00 20.00     0.020 C 
HETATM    4  C4  UNL     1     -34.768  15.745  -2.327  1.00 20.00     0.004 C 
HETATM    5  C5  UNL     1     -33.990  16.813  -1.549  1.00 20.00     0.086 C 
HETATM    6 CL10 UNL     1     -34.745  17.096   0.051  1.00 20.00    -0.125 Cl
ENDROOT
BRANCH   4   7
HETATM    7  C8  UNL     1     -33.921  15.120  -3.438  1.00 20.00     0.010 C 
BRANCH   7   8
HETATM    8  C9  UNL     1     -34.737  14.701  -4.673  1.00 20.00    -0.022 C 
HETATM    9  C6  UNL     1     -34.212  15.336  -5.961  1.00 20.00     0.009 C 
HETATM   10  C7  UNL     1     -34.729  13.176  -4.808  1.00 20.00     0.009 C 
ENDBRANCH   7   8
ENDBRANCH   4   7
TORSDOF 2
ENDMDL
MODEL 9
REMARK VINA RESULT:      -3.9     11.025     13.178
REMARK  2 active torsions:
REMARK  status: ('A' for Active; 'I' for Inactive)
REMARK    1  A    between atoms: C4_4  and  C8_8 
REMARK    2  A    between atoms: C8_8  and  C9_9 
ROOT
HETATM    1  C1  UNL     1     -33.404  13.704  -3.631  1.00 20.00     0.002 C 
HETATM    2  C2  UNL     1     -32.518  14.942  -3.794  1.00 20.00     0.006 C 
HETATM    3  C3  UNL     1     -34.851  14.191  -3.704  1.00 20.00     0.020 C 
HETATM    4  C4  UNL     1     -33.462  16.116  -4.081  1.00 20.00     0.004 C 
HETATM    5  C5  UNL     1     -34.785  15.691  -3.434  1.00 20.00     0.086 C 
HETATM    6 CL10 UNL     1     -34.744  15.995  -1.668  1.00 20.00    -0.125 Cl
ENDROOT
BRANCH   4   7
HETATM    7  C8  UNL     1     -33.614  16.346  -5.587  1.00 20.00     0.010 C 
BRANCH   7   8
HETATM    8  C9  UNL     1     -33.956  17.800  -5.956  1.00 20.00    -0.022 C 
HETATM    9  C6  UNL     1     -35.457  18.011  -6.164  1.00 20.00     0.009 C 
HETATM   10  C7  UNL     1     -33.447  18.746  -4.866  1.00 20.00     0.009 C 
ENDBRANCH   7   8
ENDBRANCH   4   7
TORSDOF 2
ENDMDL
