MODEL 1
REMARK VINA RESULT:      -4.6      0.000      0.000
REMARK  4 active torsions:
REMARK  status: ('A' for Active; 'I' for Inactive)
REMARK    1  A    between atoms: C2_2  and  C6_6 
REMARK    2  A    between atoms: C6_6  and  C7_7 
REMARK    3  A    between atoms: C7_7  and  C8_8 
REMARK    4  A    between atoms: C8_8  and  O9_9 
ROOT
HETATM    1  C4  UNL     1     -35.520   5.722   3.199  1.00 20.00     0.012 C 
HETATM    2  C7  UNL     1     -34.314   6.227   4.005  1.00 20.00     0.014 C 
ENDROOT
BRANCH   2   3
HETATM    3  C6  UNL     1     -33.046   6.085   3.126  1.00 20.00     0.039 C 
BRANCH   3   4
HETATM    4  C2  UNL     1     -32.154   7.306   3.090  1.00 20.00    -0.093 C 
HETATM    5  C1  UNL     1     -31.359   7.625   4.123  1.00 20.00     0.014 C 
HETATM    6  C3  UNL     1     -32.167   8.125   1.832  1.00 20.00     0.042 C 
ENDBRANCH   3   4
ENDBRANCH   2   3
BRANCH   2   7
HETATM    7  C8  UNL     1     -34.170   5.504   5.365  1.00 20.00     0.118 C 
HETATM    8  C5  UNL     1     -33.998   6.459   6.542  1.00 20.00     0.040 C 
BRANCH   7   9
HETATM    9  O9  UNL     1     -35.310   4.683   5.601  1.00 20.00    -0.396 OA
HETATM   10  H25 UNL     1     -35.359   4.059   4.861  1.00 20.00     0.210 HD
ENDBRANCH   7   9
ENDBRANCH   2   7
TORSDOF 4
ENDMDL
MODEL 2
REMARK VINA RESULT:      -4.4      1.199      1.939
REMARK  4 active torsions:
REMARK  status: ('A' for Active; 'I' for Inactive)
REMARK    1  A    between atoms: C2_2  and  C6_6 
REMARK    2  A    between atoms: C6_6  and  C7_7 
REMARK    3  A    between atoms: C7_7  and  C8_8 
REMARK    4  A    between atoms: C8_8  and  O9_9 
ROOT
HETATM    1  C4  UNL     1     -34.068   6.650   6.404  1.00 20.00     0.012 C 
HETATM    2  C7  UNL     1     -33.794   5.897   5.093  1.00 20.00     0.014 C 
ENDROOT
BRANCH   2   3
HETATM    3  C6  UNL     1     -33.813   6.919   3.930  1.00 20.00     0.039 C 
BRANCH   3   4
HETATM    4  C2  UNL     1     -32.596   6.886   3.032  1.00 20.00    -0.093 C 
HETATM    5  C1  UNL     1     -31.847   5.779   2.905  1.00 20.00     0.014 C 
HETATM    6  C3  UNL     1     -32.284   8.134   2.257  1.00 20.00     0.042 C 
ENDBRANCH   3   4
ENDBRANCH   2   3
BRANCH   2   7
HETATM    7  C8  UNL     1     -34.786   4.731   4.866  1.00 20.00     0.118 C 
HETATM    8  C5  UNL     1     -35.263   4.082   6.161  1.00 20.00     0.040 C 
BRANCH   7   9
HETATM    9  O9  UNL     1     -35.921   5.194   4.139  1.00 20.00    -0.396 OA
HETATM   10  H25 UNL     1     -36.701   4.947   4.658  1.00 20.00     0.210 HD
ENDBRANCH   7   9
ENDBRANCH   2   7
TORSDOF 4
ENDMDL
MODEL 3
REMARK VINA RESULT:      -4.3      1.953      3.864
REMARK  4 active torsions:
REMARK  status: ('A' for Active; 'I' for Inactive)
REMARK    1  A    between atoms: C2_2  and  C6_6 
REMARK    2  A    between atoms: C6_6  and  C7_7 
REMARK    3  A    between atoms: C7_7  and  C8_8 
REMARK    4  A    between atoms: C8_8  and  O9_9 
ROOT
HETATM    1  C4  UNL     1     -33.608   5.267   2.233  1.00 20.00     0.012 C 
HETATM    2  C7  UNL     1     -32.967   5.986   3.429  1.00 20.00     0.014 C 
ENDROOT
BRANCH   2   3
HETATM    3  C6  UNL     1     -34.094   6.645   4.263  1.00 20.00     0.039 C 
BRANCH   3   4
HETATM    4  C2  UNL     1     -34.180   6.179   5.700  1.00 20.00    -0.093 C 
HETATM    5  C1  UNL     1     -33.728   6.938   6.711  1.00 20.00     0.014 C 
HETATM    6  C3  UNL     1     -34.830   4.849   5.951  1.00 20.00     0.042 C 
ENDBRANCH   3   4
ENDBRANCH   2   3
BRANCH   2   7
HETATM    7  C8  UNL     1     -31.887   7.005   2.994  1.00 20.00     0.118 C 
HETATM    8  C5  UNL     1     -32.424   8.104   2.083  1.00 20.00     0.040 C 
BRANCH   7   9
HETATM    9  O9  UNL     1     -31.298   7.607   4.144  1.00 20.00    -0.396 OA
HETATM   10  H25 UNL     1     -30.614   8.213   3.818  1.00 20.00     0.210 HD
ENDBRANCH   7   9
ENDBRANCH   2   7
TORSDOF 4
ENDMDL
MODEL 4
REMARK VINA RESULT:      -4.0     10.841     12.029
REMARK  4 active torsions:
REMARK  status: ('A' for Active; 'I' for Inactive)
REMARK    1  A    between atoms: C2_2  and  C6_6 
REMARK    2  A    between atoms: C6_6  and  C7_7 
REMARK    3  A    between atoms: C7_7  and  C8_8 
REMARK    4  A    between atoms: C8_8  and  O9_9 
ROOT
HETATM    1  C4  UNL     1     -32.966  13.793  -3.484  1.00 20.00     0.012 C 
HETATM    2  C7  UNL     1     -34.127  14.691  -3.934  1.00 20.00     0.014 C 
ENDROOT
BRANCH   2   3
HETATM    3  C6  UNL     1     -34.906  15.150  -2.676  1.00 20.00     0.039 C 
BRANCH   3   4
HETATM    4  C2  UNL     1     -34.443  16.461  -2.082  1.00 20.00    -0.093 C 
HETATM    5  C1  UNL     1     -34.557  16.715  -0.768  1.00 20.00     0.014 C 
HETATM    6  C3  UNL     1     -33.813  17.452  -3.017  1.00 20.00     0.042 C 
ENDBRANCH   3   4
ENDBRANCH   2   3
BRANCH   2   7
HETATM    7  C8  UNL     1     -35.042  13.995  -4.970  1.00 20.00     0.118 C 
HETATM    8  C5  UNL     1     -34.834  14.497  -6.395  1.00 20.00     0.040 C 
BRANCH   7   9
HETATM    9  O9  UNL     1     -34.824  12.587  -4.942  1.00 20.00    -0.396 OA
HETATM   10  H25 UNL     1     -34.265  12.379  -5.707  1.00 20.00     0.210 HD
ENDBRANCH   7   9
ENDBRANCH   2   7
TORSDOF 4
ENDMDL
MODEL 5
REMARK VINA RESULT:      -4.0     10.837     11.865
REMARK  4 active torsions:
REMARK  status: ('A' for Active; 'I' for Inactive)
REMARK    1  A    between atoms: C2_2  and  C6_6 
REMARK    2  A    between atoms: C6_6  and  C7_7 
REMARK    3  A    between atoms: C7_7  and  C8_8 
REMARK    4  A    between atoms: C8_8  and  O9_9 
ROOT
HETATM    1  C4  UNL     1     -37.047  14.832  -3.793  1.00 20.00     0.012 C 
HETATM    2  C7  UNL     1     -35.556  14.865  -3.429  1.00 20.00     0.014 C 
ENDROOT
BRANCH   2   3
HETATM    3  C6  UNL     1     -35.032  16.306  -3.644  1.00 20.00     0.039 C 
BRANCH   3   4
HETATM    4  C2  UNL     1     -34.497  16.983  -2.402  1.00 20.00    -0.093 C 
HETATM    5  C1  UNL     1     -34.652  16.438  -1.184  1.00 20.00     0.014 C 
HETATM    6  C3  UNL     1     -33.749  18.271  -2.592  1.00 20.00     0.042 C 
ENDBRANCH   3   4
ENDBRANCH   2   3
BRANCH   2   7
HETATM    7  C8  UNL     1     -34.733  13.818  -4.218  1.00 20.00     0.118 C 
HETATM    8  C5  UNL     1     -33.294  13.687  -3.731  1.00 20.00     0.040 C 
BRANCH   7   9
HETATM    9  O9  UNL     1     -35.365  12.543  -4.134  1.00 20.00    -0.396 OA
HETATM   10  H25 UNL     1     -36.259  12.653  -4.493  1.00 20.00     0.210 HD
ENDBRANCH   7   9
ENDBRANCH   2   7
TORSDOF 4
ENDMDL
MODEL 6
REMARK VINA RESULT:      -4.0     10.868     11.937
REMARK  4 active torsions:
REMARK  status: ('A' for Active; 'I' for Inactive)
REMARK    1  A    between atoms: C2_2  and  C6_6 
REMARK    2  A    between atoms: C6_6  and  C7_7 
REMARK    3  A    between atoms: C7_7  and  C8_8 
REMARK    4  A    between atoms: C8_8  and  O9_9 
ROOT
HETATM    1  C4  UNL     1     -37.122  14.764  -3.792  1.00 20.00     0.012 C 
HETATM    2  C7  UNL     1     -35.625  14.883  -3.470  1.00 20.00     0.014 C 
ENDROOT
BRANCH   2   3
HETATM    3  C6  UNL     1     -35.177  16.337  -3.760  1.00 20.00     0.039 C 
BRANCH   3   4
HETATM    4  C2  UNL     1     -34.476  17.030  -2.614  1.00 20.00    -0.093 C 
HETATM    5  C1  UNL     1     -33.764  18.153  -2.803  1.00 20.00     0.014 C 
HETATM    6  C3  UNL     1     -34.642  16.431  -1.247  1.00 20.00     0.042 C 
ENDBRANCH   3   4
ENDBRANCH   2   3
BRANCH   2   7
HETATM    7  C8  UNL     1     -34.773  13.842  -4.235  1.00 20.00     0.118 C 
HETATM    8  C5  UNL     1     -33.339  13.742  -3.725  1.00 20.00     0.040 C 
BRANCH   7   9
HETATM    9  O9  UNL     1     -35.384  12.557  -4.146  1.00 20.00    -0.396 OA
HETATM   10  H25 UNL     1     -35.974  12.478  -4.911  1.00 20.00     0.210 HD
ENDBRANCH   7   9
ENDBRANCH   2   7
TORSDOF 4
ENDMDL
MODEL 7
REMARK VINA RESULT:      -3.9     11.349     12.353
REMARK  4 active torsions:
REMARK  status: ('A' for Active; 'I' for Inactive)
REMARK    1  A    between atoms: C2_2  and  C6_6 
REMARK    2  A    between atoms: C6_6  and  C7_7 
REMARK    3  A    between atoms: C7_7  and  C8_8 
REMARK    4  A    between atoms: C8_8  and  O9_9 
ROOT
HETATM    1  C4  UNL     1     -35.436  16.026  -3.576  1.00 20.00     0.012 C 
HETATM    2  C7  UNL     1     -34.155  15.885  -2.742  1.00 20.00     0.014 C 
ENDROOT
BRANCH   2   3
HETATM    3  C6  UNL     1     -33.686  17.300  -2.324  1.00 20.00     0.039 C 
BRANCH   3   4
HETATM    4  C2  UNL     1     -33.824  17.609  -0.850  1.00 20.00    -0.093 C 
HETATM    5  C1  UNL     1     -34.801  17.063  -0.107  1.00 20.00     0.014 C 
HETATM    6  C3  UNL     1     -32.799  18.522  -0.242  1.00 20.00     0.042 C 
ENDBRANCH   3   4
ENDBRANCH   2   3
BRANCH   2   7
HETATM    7  C8  UNL     1     -33.051  15.097  -3.488  1.00 20.00     0.118 C 
HETATM    8  C5  UNL     1     -33.496  13.708  -3.934  1.00 20.00     0.040 C 
BRANCH   7   9
HETATM    9  O9  UNL     1     -32.619  15.831  -4.630  1.00 20.00    -0.396 OA
HETATM   10  H25 UNL     1     -31.727  16.154  -4.429  1.00 20.00     0.210 HD
ENDBRANCH   7   9
ENDBRANCH   2   7
TORSDOF 4
ENDMDL
MODEL 8
REMARK VINA RESULT:      -3.9     10.779     12.227
REMARK  4 active torsions:
REMARK  status: ('A' for Active; 'I' for Inactive)
REMARK    1  A    between atoms: C2_2  and  C6_6 
REMARK    2  A    between atoms: C6_6  and  C7_7 
REMARK    3  A    between atoms: C7_7  and  C8_8 
REMARK    4  A    between atoms: C8_8  and  O9_9 
ROOT
HETATM    1  C4  UNL     1     -34.466  14.981  -6.716  1.00 20.00     0.012 C 
HETATM    2  C7  UNL     1     -34.945  14.670  -5.291  1.00 20.00     0.014 C 
ENDROOT
BRANCH   2   3
HETATM    3  C6  UNL     1     -34.602  15.879  -4.386  1.00 20.00     0.039 C 
BRANCH   3   4
HETATM    4  C2  UNL     1     -35.510  16.058  -3.189  1.00 20.00    -0.093 C 
HETATM    5  C1  UNL     1     -36.846  15.999  -3.307  1.00 20.00     0.014 C 
HETATM    6  C3  UNL     1     -34.851  16.264  -1.856  1.00 20.00     0.042 C 
ENDBRANCH   3   4
ENDBRANCH   2   3
BRANCH   2   7
HETATM    7  C8  UNL     1     -34.356  13.345  -4.748  1.00 20.00     0.118 C 
HETATM    8  C5  UNL     1     -33.213  13.551  -3.760  1.00 20.00     0.040 C 
BRANCH   7   9
HETATM    9  O9  UNL     1     -35.381  12.583  -4.114  1.00 20.00    -0.396 OA
HETATM   10  H25 UNL     1     -36.121  12.542  -4.739  1.00 20.00     0.210 HD
ENDBRANCH   7   9
ENDBRANCH   2   7
TORSDOF 4
ENDMDL
MODEL 9
REMARK VINA RESULT:      -3.9     10.984     12.001
REMARK  4 active torsions:
REMARK  status: ('A' for Active; 'I' for Inactive)
REMARK    1  A    between atoms: C2_2  and  C6_6 
REMARK    2  A    between atoms: C6_6  and  C7_7 
REMARK    3  A    between atoms: C7_7  and  C8_8 
REMARK    4  A    between atoms: C8_8  and  O9_9 
ROOT
HETATM    1  C4  UNL     1     -33.150  15.989  -4.702  1.00 20.00     0.012 C 
HETATM    2  C7  UNL     1     -34.141  15.542  -3.617  1.00 20.00     0.014 C 
ENDROOT
BRANCH   2   3
HETATM    3  C6  UNL     1     -33.736  16.211  -2.280  1.00 20.00     0.039 C 
BRANCH   3   4
HETATM    4  C2  UNL     1     -34.874  16.845  -1.513  1.00 20.00    -0.093 C 
HETATM    5  C1  UNL     1     -34.794  17.062  -0.190  1.00 20.00     0.014 C 
HETATM    6  C3  UNL     1     -36.084  17.260  -2.301  1.00 20.00     0.042 C 
ENDBRANCH   3   4
ENDBRANCH   2   3
BRANCH   2   7
HETATM    7  C8  UNL     1     -34.231  14.002  -3.500  1.00 20.00     0.118 C 
HETATM    8  C5  UNL     1     -35.304  13.388  -4.394  1.00 20.00     0.040 C 
BRANCH   7   9
HETATM    9  O9  UNL     1     -32.972  13.417  -3.824  1.00 20.00    -0.396 OA
HETATM   10  H25 UNL     1     -32.324  13.800  -3.213  1.00 20.00     0.210 HD
ENDBRANCH   7   9
ENDBRANCH   2   7
TORSDOF 4
ENDMDL
