MODEL 1
REMARK VINA RESULT:      -4.9      0.000      0.000
REMARK  2 active torsions:
REMARK  status: ('A' for Active; 'I' for Inactive)
REMARK    1  A    between atoms: C4_4  and  C7_7 
REMARK    2  A    between atoms: C7_7  and  C8_8 
ROOT
HETATM    1  C1  UNL     1     -34.462   4.926   6.117  1.00 20.00     0.002 C 
HETATM    2  C2  UNL     1     -34.085   6.393   5.894  1.00 20.00     0.006 C 
HETATM    3  C3  UNL     1     -34.924   4.386   4.762  1.00 20.00     0.020 C 
HETATM    4  C4  UNL     1     -33.913   6.547   4.379  1.00 20.00     0.004 C 
HETATM    5  C5  UNL     1     -35.015   5.614   3.862  1.00 20.00     0.086 C 
HETATM    6 CL9  UNL     1     -34.899   5.200   2.144  1.00 20.00    -0.125 Cl
ENDROOT
BRANCH   4   7
HETATM    7  C7  UNL     1     -32.490   6.187   3.949  1.00 20.00     0.005 C 
BRANCH   7   8
HETATM    8  C8  UNL     1     -31.689   7.430   3.566  1.00 20.00    -0.004 C 
HETATM    9  C6  UNL     1     -32.108   7.964   2.206  1.00 20.00     0.005 C 
ENDBRANCH   7   8
ENDBRANCH   4   7
TORSDOF 2
ENDMDL
MODEL 2
REMARK VINA RESULT:      -4.1      1.823      2.599
REMARK  2 active torsions:
REMARK  status: ('A' for Active; 'I' for Inactive)
REMARK    1  A    between atoms: C4_4  and  C7_7 
REMARK    2  A    between atoms: C7_7  and  C8_8 
ROOT
HETATM    1  C1  UNL     1     -34.647   5.302   2.585  1.00 20.00     0.002 C 
HETATM    2  C2  UNL     1     -33.121   5.390   2.514  1.00 20.00     0.006 C 
HETATM    3  C3  UNL     1     -35.037   5.679   4.016  1.00 20.00     0.020 C 
HETATM    4  C4  UNL     1     -32.700   6.221   3.731  1.00 20.00     0.004 C 
HETATM    5  C5  UNL     1     -33.717   5.747   4.776  1.00 20.00     0.086 C 
HETATM    6 CL9  UNL     1     -33.825   6.758   6.226  1.00 20.00    -0.125 Cl
ENDROOT
BRANCH   4   7
HETATM    7  C7  UNL     1     -32.733   7.717   3.411  1.00 20.00     0.005 C 
BRANCH   7   8
HETATM    8  C8  UNL     1     -31.995   8.028   2.111  1.00 20.00    -0.004 C 
HETATM    9  C6  UNL     1     -32.420   9.371   1.538  1.00 20.00     0.005 C 
ENDBRANCH   7   8
ENDBRANCH   4   7
TORSDOF 2
ENDMDL
MODEL 3
REMARK VINA RESULT:      -4.0      1.845      3.690
REMARK  2 active torsions:
REMARK  status: ('A' for Active; 'I' for Inactive)
REMARK    1  A    between atoms: C4_4  and  C7_7 
REMARK    2  A    between atoms: C7_7  and  C8_8 
ROOT
HETATM    1  C1  UNL     1     -33.991   4.994   2.607  1.00 20.00     0.002 C 
HETATM    2  C2  UNL     1     -34.918   5.905   3.415  1.00 20.00     0.006 C 
HETATM    3  C3  UNL     1     -32.610   5.654   2.624  1.00 20.00     0.020 C 
HETATM    4  C4  UNL     1     -33.991   6.811   4.234  1.00 20.00     0.004 C 
HETATM    5  C5  UNL     1     -32.842   7.029   3.242  1.00 20.00     0.086 C 
HETATM    6 CL9  UNL     1     -31.367   7.709   3.946  1.00 20.00    -0.125 Cl
ENDROOT
BRANCH   4   7
HETATM    7  C7  UNL     1     -33.603   6.148   5.557  1.00 20.00     0.005 C 
BRANCH   7   8
HETATM    8  C8  UNL     1     -34.803   5.475   6.220  1.00 20.00    -0.004 C 
HETATM    9  C6  UNL     1     -34.760   3.965   6.048  1.00 20.00     0.005 C 
ENDBRANCH   7   8
ENDBRANCH   4   7
TORSDOF 2
ENDMDL
MODEL 4
REMARK VINA RESULT:      -4.0     11.719     12.826
REMARK  2 active torsions:
REMARK  status: ('A' for Active; 'I' for Inactive)
REMARK    1  A    between atoms: C4_4  and  C7_7 
REMARK    2  A    between atoms: C7_7  and  C8_8 
ROOT
HETATM    1  C1  UNL     1     -34.412  16.808  -5.585  1.00 20.00     0.002 C 
HETATM    2  C2  UNL     1     -33.268  16.619  -4.585  1.00 20.00     0.006 C 
HETATM    3  C3  UNL     1     -35.136  15.463  -5.675  1.00 20.00     0.020 C 
HETATM    4  C4  UNL     1     -33.612  15.346  -3.803  1.00 20.00     0.004 C 
HETATM    5  C5  UNL     1     -34.251  14.490  -4.903  1.00 20.00     0.086 C 
HETATM    6 CL9  UNL     1     -35.147  13.076  -4.325  1.00 20.00    -0.125 Cl
ENDROOT
BRANCH   4   7
HETATM    7  C7  UNL     1     -34.514  15.662  -2.608  1.00 20.00     0.005 C 
BRANCH   7   8
HETATM    8  C8  UNL     1     -33.934  16.785  -1.751  1.00 20.00    -0.004 C 
HETATM    9  C6  UNL     1     -34.670  16.910  -0.426  1.00 20.00     0.005 C 
ENDBRANCH   7   8
ENDBRANCH   4   7
TORSDOF 2
ENDMDL
MODEL 5
REMARK VINA RESULT:      -4.0     11.673     12.548
REMARK  2 active torsions:
REMARK  status: ('A' for Active; 'I' for Inactive)
REMARK    1  A    between atoms: C4_4  and  C7_7 
REMARK    2  A    between atoms: C7_7  and  C8_8 
ROOT
HETATM    1  C1  UNL     1     -33.311  16.209  -4.915  1.00 20.00     0.002 C 
HETATM    2  C2  UNL     1     -33.006  15.509  -3.589  1.00 20.00     0.006 C 
HETATM    3  C3  UNL     1     -34.704  15.740  -5.343  1.00 20.00     0.020 C 
HETATM    4  C4  UNL     1     -34.359  15.015  -3.064  1.00 20.00     0.004 C 
HETATM    5  C5  UNL     1     -35.054  14.617  -4.372  1.00 20.00     0.086 C 
HETATM    6 CL9  UNL     1     -36.800  14.358  -4.241  1.00 20.00    -0.125 Cl
ENDROOT
BRANCH   4   7
HETATM    7  C7  UNL     1     -35.062  16.103  -2.249  1.00 20.00     0.005 C 
BRANCH   7   8
HETATM    8  C8  UNL     1     -34.103  16.775  -1.269  1.00 20.00    -0.004 C 
HETATM    9  C6  UNL     1     -34.815  17.186   0.011  1.00 20.00     0.005 C 
ENDBRANCH   7   8
ENDBRANCH   4   7
TORSDOF 2
ENDMDL
MODEL 6
REMARK VINA RESULT:      -3.9     11.302     12.339
REMARK  2 active torsions:
REMARK  status: ('A' for Active; 'I' for Inactive)
REMARK    1  A    between atoms: C4_4  and  C7_7 
REMARK    2  A    between atoms: C7_7  and  C8_8 
ROOT
HETATM    1  C1  UNL     1     -34.411  13.631  -4.949  1.00 20.00     0.002 C 
HETATM    2  C2  UNL     1     -34.214  13.709  -3.433  1.00 20.00     0.006 C 
HETATM    3  C3  UNL     1     -35.459  14.687  -5.305  1.00 20.00     0.020 C 
HETATM    4  C4  UNL     1     -34.797  15.063  -3.012  1.00 20.00     0.004 C 
HETATM    5  C5  UNL     1     -35.995  15.175  -3.964  1.00 20.00     0.086 C 
HETATM    6 CL9  UNL     1     -36.715  16.789  -4.071  1.00 20.00    -0.125 Cl
ENDROOT
BRANCH   4   7
HETATM    7  C7  UNL     1     -33.752  16.173  -3.136  1.00 20.00     0.005 C 
BRANCH   7   8
HETATM    8  C8  UNL     1     -33.643  16.986  -1.849  1.00 20.00    -0.004 C 
HETATM    9  C6  UNL     1     -34.702  16.573  -0.839  1.00 20.00     0.005 C 
ENDBRANCH   7   8
ENDBRANCH   4   7
TORSDOF 2
ENDMDL
MODEL 7
REMARK VINA RESULT:      -3.9     11.443     12.139
REMARK  2 active torsions:
REMARK  status: ('A' for Active; 'I' for Inactive)
REMARK    1  A    between atoms: C4_4  and  C7_7 
REMARK    2  A    between atoms: C7_7  and  C8_8 
ROOT
HETATM    1  C1  UNL     1     -36.172  14.055  -4.208  1.00 20.00     0.002 C 
HETATM    2  C2  UNL     1     -36.110  15.580  -4.082  1.00 20.00     0.006 C 
HETATM    3  C3  UNL     1     -34.728  13.554  -4.130  1.00 20.00     0.020 C 
HETATM    4  C4  UNL     1     -34.724  15.887  -3.502  1.00 20.00     0.004 C 
HETATM    5  C5  UNL     1     -33.873  14.815  -4.193  1.00 20.00     0.086 C 
HETATM    6 CL9  UNL     1     -32.264  14.573  -3.493  1.00 20.00    -0.125 Cl
ENDROOT
BRANCH   4   7
HETATM    7  C7  UNL     1     -34.743  15.830  -1.974  1.00 20.00     0.005 C 
BRANCH   7   8
HETATM    8  C8  UNL     1     -34.013  17.022  -1.359  1.00 20.00    -0.004 C 
HETATM    9  C6  UNL     1     -34.595  17.393  -0.005  1.00 20.00     0.005 C 
ENDBRANCH   7   8
ENDBRANCH   4   7
TORSDOF 2
ENDMDL
MODEL 8
REMARK VINA RESULT:      -3.9     12.016     12.635
REMARK  2 active torsions:
REMARK  status: ('A' for Active; 'I' for Inactive)
REMARK    1  A    between atoms: C4_4  and  C7_7 
REMARK    2  A    between atoms: C7_7  and  C8_8 
ROOT
HETATM    1  C1  UNL     1     -35.525  13.698  -4.486  1.00 20.00     0.002 C 
HETATM    2  C2  UNL     1     -36.232  14.726  -3.599  1.00 20.00     0.006 C 
HETATM    3  C3  UNL     1     -34.413  14.450  -5.220  1.00 20.00     0.020 C 
HETATM    4  C4  UNL     1     -35.267  15.913  -3.498  1.00 20.00     0.004 C 
HETATM    5  C5  UNL     1     -34.663  15.921  -4.907  1.00 20.00     0.086 C 
HETATM    6 CL9  UNL     1     -33.203  16.907  -5.089  1.00 20.00    -0.125 Cl
ENDROOT
BRANCH   4   7
HETATM    7  C7  UNL     1     -34.269  15.715  -2.355  1.00 20.00     0.005 C 
BRANCH   7   8
HETATM    8  C8  UNL     1     -34.650  16.542  -1.129  1.00 20.00    -0.004 C 
HETATM    9  C6  UNL     1     -33.660  17.671  -0.891  1.00 20.00     0.005 C 
ENDBRANCH   7   8
ENDBRANCH   4   7
TORSDOF 2
ENDMDL
MODEL 9
REMARK VINA RESULT:      -3.8     11.507     12.767
REMARK  2 active torsions:
REMARK  status: ('A' for Active; 'I' for Inactive)
REMARK    1  A    between atoms: C4_4  and  C7_7 
REMARK    2  A    between atoms: C7_7  and  C8_8 
ROOT
HETATM    1  C1  UNL     1     -35.226  17.797  -1.644  1.00 20.00     0.002 C 
HETATM    2  C2  UNL     1     -34.619  16.424  -1.344  1.00 20.00     0.006 C 
HETATM    3  C3  UNL     1     -34.733  18.194  -3.038  1.00 20.00     0.020 C 
HETATM    4  C4  UNL     1     -34.168  15.869  -2.699  1.00 20.00     0.004 C 
HETATM    5  C5  UNL     1     -33.682  17.148  -3.393  1.00 20.00     0.086 C 
HETATM    6 CL9  UNL     1     -33.438  17.003  -5.141  1.00 20.00    -0.125 Cl
ENDROOT
BRANCH   4   7
HETATM    7  C7  UNL     1     -35.312  15.134  -3.400  1.00 20.00     0.005 C 
BRANCH   7   8
HETATM    8  C8  UNL     1     -34.872  13.758  -3.897  1.00 20.00    -0.004 C 
HETATM    9  C6  UNL     1     -33.369  13.575  -3.769  1.00 20.00     0.005 C 
ENDBRANCH   7   8
ENDBRANCH   4   7
TORSDOF 2
ENDMDL
