MODEL 1
REMARK VINA RESULT:      -4.6      0.000      0.000
REMARK  2 active torsions:
REMARK  status: ('A' for Active; 'I' for Inactive)
REMARK    1  A    between atoms: C8_8  and  C9_9 
REMARK    2  A    between atoms: C9_9  and  N11_11 
ROOT
HETATM    1  C1  UNL     1     -34.919  13.626  -5.227  1.00 20.00     0.071 C 
HETATM    2  C4  UNL     1     -34.323  15.097  -7.186  1.00 20.00     0.028 A 
HETATM    3  C5  UNL     1     -35.788  14.793  -7.286  1.00 20.00     0.028 A 
HETATM    4  C8  UNL     1     -35.128  14.867  -5.927  1.00 20.00     0.075 A 
HETATM    5  N10 UNL     1     -34.750  12.627  -4.663  1.00 20.00    -0.196 NA
ENDROOT
BRANCH   4   6
HETATM    6  C9  UNL     1     -35.431  16.044  -5.063  1.00 20.00     0.296 C 
BRANCH   6   7
HETATM    7  N11 UNL     1     -34.711  15.963  -3.788  1.00 20.00     0.090 N 
HETATM    8  C6  UNL     1     -33.871  17.146  -3.589  1.00 20.00     0.272 C 
HETATM    9  C2  UNL     1     -33.592  17.118  -2.094  1.00 20.00     0.032 C 
HETATM   10  C3  UNL     1     -34.756  16.343  -1.484  1.00 20.00     0.032 C 
HETATM   11  C7  UNL     1     -35.646  15.972  -2.662  1.00 20.00     0.272 C 
ENDBRANCH   6   7
ENDBRANCH   4   6
TORSDOF 2
ENDMDL
MODEL 2
REMARK VINA RESULT:      -4.4      1.894      2.448
REMARK  2 active torsions:
REMARK  status: ('A' for Active; 'I' for Inactive)
REMARK    1  A    between atoms: C8_8  and  C9_9 
REMARK    2  A    between atoms: C9_9  and  N11_11 
ROOT
HETATM    1  C1  UNL     1     -37.043  14.508  -3.962  1.00 20.00     0.071 C 
HETATM    2  C4  UNL     1     -34.725  13.517  -4.000  1.00 20.00     0.028 A 
HETATM    3  C5  UNL     1     -35.015  14.026  -5.381  1.00 20.00     0.028 A 
HETATM    4  C8  UNL     1     -35.634  14.711  -4.183  1.00 20.00     0.075 A 
HETATM    5  N10 UNL     1     -38.177  14.344  -3.783  1.00 20.00    -0.196 NA
ENDROOT
BRANCH   4   6
HETATM    6  C9  UNL     1     -35.115  16.055  -3.798  1.00 20.00     0.296 C 
BRANCH   6   7
HETATM    7  N11 UNL     1     -35.518  16.406  -2.432  1.00 20.00     0.090 N 
HETATM    8  C6  UNL     1     -34.377  16.334  -1.518  1.00 20.00     0.272 C 
HETATM    9  C2  UNL     1     -34.848  17.146  -0.320  1.00 20.00     0.032 C 
HETATM   10  C3  UNL     1     -35.897  18.105  -0.875  1.00 20.00     0.032 C 
HETATM   11  C7  UNL     1     -35.969  17.796  -2.364  1.00 20.00     0.272 C 
ENDBRANCH   6   7
ENDBRANCH   4   6
TORSDOF 2
ENDMDL
MODEL 3
REMARK VINA RESULT:      -4.3      2.282      5.262
REMARK  2 active torsions:
REMARK  status: ('A' for Active; 'I' for Inactive)
REMARK    1  A    between atoms: C8_8  and  C9_9 
REMARK    2  A    between atoms: C9_9  and  N11_11 
ROOT
HETATM    1  C1  UNL     1     -32.973  18.601  -0.840  1.00 20.00     0.071 C 
HETATM    2  C4  UNL     1     -34.738  16.886  -0.292  1.00 20.00     0.028 A 
HETATM    3  C5  UNL     1     -35.446  18.108  -0.798  1.00 20.00     0.028 A 
HETATM    4  C8  UNL     1     -34.060  17.779  -1.307  1.00 20.00     0.075 A 
HETATM    5  N10 UNL     1     -32.099  19.263  -0.463  1.00 20.00    -0.196 NA
ENDROOT
BRANCH   4   6
HETATM    6  C9  UNL     1     -33.926  17.278  -2.704  1.00 20.00     0.296 C 
BRANCH   6   7
HETATM    7  N11 UNL     1     -34.019  15.815  -2.754  1.00 20.00     0.090 N 
HETATM    8  C6  UNL     1     -35.237  15.395  -3.449  1.00 20.00     0.272 C 
HETATM    9  C2  UNL     1     -34.943  13.945  -3.806  1.00 20.00     0.032 C 
HETATM   10  C3  UNL     1     -33.421  13.849  -3.863  1.00 20.00     0.032 C 
HETATM   11  C7  UNL     1     -32.922  15.250  -3.541  1.00 20.00     0.272 C 
ENDBRANCH   6   7
ENDBRANCH   4   6
TORSDOF 2
ENDMDL
MODEL 4
REMARK VINA RESULT:      -4.2      1.455      4.679
REMARK  2 active torsions:
REMARK  status: ('A' for Active; 'I' for Inactive)
REMARK    1  A    between atoms: C8_8  and  C9_9 
REMARK    2  A    between atoms: C9_9  and  N11_11 
ROOT
HETATM    1  C1  UNL     1     -35.343  17.782  -2.796  1.00 20.00     0.071 C 
HETATM    2  C4  UNL     1     -33.652  17.692  -0.928  1.00 20.00     0.028 A 
HETATM    3  C5  UNL     1     -34.660  16.611  -0.671  1.00 20.00     0.028 A 
HETATM    4  C8  UNL     1     -34.344  17.020  -2.093  1.00 20.00     0.075 A 
HETATM    5  N10 UNL     1     -36.147  18.397  -3.362  1.00 20.00    -0.196 NA
ENDROOT
BRANCH   4   6
HETATM    6  C9  UNL     1     -33.549  16.080  -2.934  1.00 20.00     0.296 C 
BRANCH   6   7
HETATM    7  N11 UNL     1     -34.418  15.304  -3.825  1.00 20.00     0.090 N 
HETATM    8  C6  UNL     1     -34.034  15.498  -5.225  1.00 20.00     0.272 C 
HETATM    9  C2  UNL     1     -34.690  14.317  -5.924  1.00 20.00     0.032 C 
HETATM   10  C3  UNL     1     -34.842  13.247  -4.846  1.00 20.00     0.032 C 
HETATM   11  C7  UNL     1     -34.260  13.869  -3.585  1.00 20.00     0.272 C 
ENDBRANCH   6   7
ENDBRANCH   4   6
TORSDOF 2
ENDMDL
MODEL 5
REMARK VINA RESULT:      -4.0      2.166      2.808
REMARK  2 active torsions:
REMARK  status: ('A' for Active; 'I' for Inactive)
REMARK    1  A    between atoms: C8_8  and  C9_9 
REMARK    2  A    between atoms: C9_9  and  N11_11 
ROOT
HETATM    1  C1  UNL     1     -33.612  15.959  -4.718  1.00 20.00     0.071 C 
HETATM    2  C4  UNL     1     -34.526  13.614  -4.875  1.00 20.00     0.028 A 
HETATM    3  C5  UNL     1     -33.551  13.638  -3.735  1.00 20.00     0.028 A 
HETATM    4  C8  UNL     1     -34.332  14.886  -4.081  1.00 20.00     0.075 A 
HETATM    5  N10 UNL     1     -33.033  16.822  -5.231  1.00 20.00    -0.196 NA
ENDROOT
BRANCH   4   6
HETATM    6  C9  UNL     1     -35.423  15.310  -3.157  1.00 20.00     0.296 C 
BRANCH   6   7
HETATM    7  N11 UNL     1     -35.102  16.588  -2.511  1.00 20.00     0.090 N 
HETATM    8  C6  UNL     1     -36.305  17.410  -2.360  1.00 20.00     0.272 C 
HETATM    9  C2  UNL     1     -35.892  18.425  -1.304  1.00 20.00     0.032 C 
HETATM   10  C3  UNL     1     -34.781  17.746  -0.509  1.00 20.00     0.032 C 
HETATM   11  C7  UNL     1     -34.618  16.374  -1.147  1.00 20.00     0.272 C 
ENDBRANCH   6   7
ENDBRANCH   4   6
TORSDOF 2
ENDMDL
MODEL 6
REMARK VINA RESULT:      -4.0      2.207      2.864
REMARK  2 active torsions:
REMARK  status: ('A' for Active; 'I' for Inactive)
REMARK    1  A    between atoms: C8_8  and  C9_9 
REMARK    2  A    between atoms: C9_9  and  N11_11 
ROOT
HETATM    1  C1  UNL     1     -36.764  14.410  -4.084  1.00 20.00     0.071 C 
HETATM    2  C4  UNL     1     -34.315  14.123  -3.559  1.00 20.00     0.028 A 
HETATM    3  C5  UNL     1     -34.640  13.194  -4.691  1.00 20.00     0.028 A 
HETATM    4  C8  UNL     1     -35.402  14.493  -4.543  1.00 20.00     0.075 A 
HETATM    5  N10 UNL     1     -37.861  14.343  -3.713  1.00 20.00    -0.196 NA
ENDROOT
BRANCH   4   6
HETATM    6  C9  UNL     1     -35.123  15.585  -5.519  1.00 20.00     0.296 C 
BRANCH   6   7
HETATM    7  N11 UNL     1     -34.779  16.834  -4.831  1.00 20.00     0.090 N 
HETATM    8  C6  UNL     1     -33.491  17.348  -5.301  1.00 20.00     0.272 C 
HETATM    9  C2  UNL     1     -33.524  18.804  -4.859  1.00 20.00     0.032 C 
HETATM   10  C3  UNL     1     -35.005  19.157  -4.757  1.00 20.00     0.032 C 
HETATM   11  C7  UNL     1     -35.744  17.886  -5.151  1.00 20.00     0.272 C 
ENDBRANCH   6   7
ENDBRANCH   4   6
TORSDOF 2
ENDMDL
MODEL 7
REMARK VINA RESULT:      -3.9     11.334     12.666
REMARK  2 active torsions:
REMARK  status: ('A' for Active; 'I' for Inactive)
REMARK    1  A    between atoms: C8_8  and  C9_9 
REMARK    2  A    between atoms: C9_9  and  N11_11 
ROOT
HETATM    1  C1  UNL     1     -32.398   8.360   1.910  1.00 20.00     0.071 C 
HETATM    2  C4  UNL     1     -31.545   6.248   2.992  1.00 20.00     0.028 A 
HETATM    3  C5  UNL     1     -31.270   7.378   3.940  1.00 20.00     0.028 A 
HETATM    4  C8  UNL     1     -32.469   7.445   3.020  1.00 20.00     0.075 A 
HETATM    5  N10 UNL     1     -32.340   9.096   1.015  1.00 20.00    -0.196 NA
ENDROOT
BRANCH   4   6
HETATM    6  C9  UNL     1     -33.824   7.273   3.619  1.00 20.00     0.296 C 
BRANCH   6   7
HETATM    7  N11 UNL     1     -33.918   6.012   4.361  1.00 20.00     0.090 N 
HETATM    8  C6  UNL     1     -34.161   6.262   5.783  1.00 20.00     0.272 C 
HETATM    9  C2  UNL     1     -34.679   4.921   6.281  1.00 20.00     0.032 C 
HETATM   10  C3  UNL     1     -35.273   4.240   5.051  1.00 20.00     0.032 C 
HETATM   11  C7  UNL     1     -35.070   5.229   3.913  1.00 20.00     0.272 C 
ENDBRANCH   6   7
ENDBRANCH   4   6
TORSDOF 2
ENDMDL
MODEL 8
REMARK VINA RESULT:      -3.9      2.229      3.097
REMARK  2 active torsions:
REMARK  status: ('A' for Active; 'I' for Inactive)
REMARK    1  A    between atoms: C8_8  and  C9_9 
REMARK    2  A    between atoms: C9_9  and  N11_11 
ROOT
HETATM    1  C1  UNL     1     -37.767  14.807  -4.600  1.00 20.00     0.071 C 
HETATM    2  C4  UNL     1     -38.135  15.385  -7.027  1.00 20.00     0.028 A 
HETATM    3  C5  UNL     1     -37.630  16.622  -6.345  1.00 20.00     0.028 A 
HETATM    4  C8  UNL     1     -37.200  15.261  -5.844  1.00 20.00     0.075 A 
HETATM    5  N10 UNL     1     -38.223  14.441  -3.599  1.00 20.00    -0.196 NA
ENDROOT
BRANCH   4   6
HETATM    6  C9  UNL     1     -35.797  14.829  -6.101  1.00 20.00     0.296 C 
BRANCH   6   7
HETATM    7  N11 UNL     1     -35.040  14.717  -4.850  1.00 20.00     0.090 N 
HETATM    8  C6  UNL     1     -34.364  13.421  -4.765  1.00 20.00     0.272 C 
HETATM    9  C2  UNL     1     -33.307  13.658  -3.696  1.00 20.00     0.032 C 
HETATM   10  C3  UNL     1     -33.046  15.161  -3.718  1.00 20.00     0.032 C 
HETATM   11  C7  UNL     1     -33.964  15.707  -4.802  1.00 20.00     0.272 C 
ENDBRANCH   6   7
ENDBRANCH   4   6
TORSDOF 2
ENDMDL
MODEL 9
REMARK VINA RESULT:      -3.8      2.424      3.311
REMARK  2 active torsions:
REMARK  status: ('A' for Active; 'I' for Inactive)
REMARK    1  A    between atoms: C8_8  and  C9_9 
REMARK    2  A    between atoms: C9_9  and  N11_11 
ROOT
HETATM    1  C1  UNL     1     -35.055  13.646  -5.250  1.00 20.00     0.071 C 
HETATM    2  C4  UNL     1     -34.246  15.234  -7.034  1.00 20.00     0.028 A 
HETATM    3  C5  UNL     1     -35.370  14.435  -7.624  1.00 20.00     0.028 A 
HETATM    4  C8  UNL     1     -35.360  14.735  -6.141  1.00 20.00     0.075 A 
HETATM    5  N10 UNL     1     -34.808  12.770  -4.532  1.00 20.00    -0.196 NA
ENDROOT
BRANCH   4   6
HETATM    6  C9  UNL     1     -36.341  15.730  -5.620  1.00 20.00     0.296 C 
BRANCH   6   7
HETATM    7  N11 UNL     1     -37.446  15.067  -4.920  1.00 20.00     0.090 N 
HETATM    8  C6  UNL     1     -37.742  15.746  -3.656  1.00 20.00     0.272 C 
HETATM    9  C2  UNL     1     -39.139  15.246  -3.321  1.00 20.00     0.032 C 
HETATM   10  C3  UNL     1     -39.757  14.856  -4.661  1.00 20.00     0.032 C 
HETATM   11  C7  UNL     1     -38.683  15.159  -5.696  1.00 20.00     0.272 C 
ENDBRANCH   6   7
ENDBRANCH   4   6
TORSDOF 2
ENDMDL
