MODEL 1
REMARK VINA RESULT:      -4.9      0.000      0.000
REMARK  2 active torsions:
REMARK  status: ('A' for Active; 'I' for Inactive)
REMARK    1  A    between atoms: C4_4  and  C8_8 
REMARK    2  A    between atoms: C8_8  and  C9_9 
ROOT
HETATM    1  C1  UNL     1     -35.484   4.295   5.119  1.00 20.00     0.002 C 
HETATM    2  C2  UNL     1     -35.279   5.301   3.982  1.00 20.00     0.006 C 
HETATM    3  C3  UNL     1     -34.177   4.271   5.913  1.00 20.00     0.020 C 
HETATM    4  C4  UNL     1     -33.812   5.733   4.079  1.00 20.00     0.004 C 
HETATM    5  C5  UNL     1     -33.479   5.585   5.568  1.00 20.00     0.086 C 
HETATM    6 CL10 UNL     1     -34.132   6.908   6.576  1.00 20.00    -0.125 Cl
ENDROOT
BRANCH   4   7
HETATM    7  C8  UNL     1     -33.543   7.098   3.462  1.00 20.00     0.010 C 
BRANCH   7   8
HETATM    8  C9  UNL     1     -32.114   7.254   2.910  1.00 20.00    -0.022 C 
HETATM    9  C6  UNL     1     -32.044   8.233   1.738  1.00 20.00     0.009 C 
HETATM   10  C7  UNL     1     -31.174   7.715   4.026  1.00 20.00     0.009 C 
ENDBRANCH   7   8
ENDBRANCH   4   7
TORSDOF 2
ENDMDL
MODEL 2
REMARK VINA RESULT:      -4.4     11.630     12.689
REMARK  2 active torsions:
REMARK  status: ('A' for Active; 'I' for Inactive)
REMARK    1  A    between atoms: C4_4  and  C8_8 
REMARK    2  A    between atoms: C8_8  and  C9_9 
ROOT
HETATM    1  C1  UNL     1     -34.139  17.935  -0.235  1.00 20.00     0.002 C 
HETATM    2  C2  UNL     1     -34.705  16.595  -0.717  1.00 20.00     0.006 C 
HETATM    3  C3  UNL     1     -33.343  18.511  -1.406  1.00 20.00     0.020 C 
HETATM    4  C4  UNL     1     -34.111  16.380  -2.113  1.00 20.00     0.004 C 
HETATM    5  C5  UNL     1     -33.885  17.800  -2.644  1.00 20.00     0.086 C 
HETATM    6 CL10 UNL     1     -35.385  18.596  -3.199  1.00 20.00    -0.125 Cl
ENDROOT
BRANCH   4   7
HETATM    7  C8  UNL     1     -34.947  15.458  -2.989  1.00 20.00     0.010 C 
BRANCH   7   8
HETATM    8  C9  UNL     1     -34.250  14.127  -3.324  1.00 20.00    -0.022 C 
HETATM    9  C6  UNL     1     -34.951  13.369  -4.451  1.00 20.00     0.009 C 
HETATM   10  C7  UNL     1     -32.790  14.386  -3.705  1.00 20.00     0.009 C 
ENDBRANCH   7   8
ENDBRANCH   4   7
TORSDOF 2
ENDMDL
MODEL 3
REMARK VINA RESULT:      -4.4     11.677     12.472
REMARK  2 active torsions:
REMARK  status: ('A' for Active; 'I' for Inactive)
REMARK    1  A    between atoms: C4_4  and  C8_8 
REMARK    2  A    between atoms: C8_8  and  C9_9 
ROOT
HETATM    1  C1  UNL     1     -33.703  13.547  -4.136  1.00 20.00     0.002 C 
HETATM    2  C2  UNL     1     -33.190  14.813  -3.443  1.00 20.00     0.006 C 
HETATM    3  C3  UNL     1     -35.228  13.581  -4.019  1.00 20.00     0.020 C 
HETATM    4  C4  UNL     1     -34.430  15.477  -2.836  1.00 20.00     0.004 C 
HETATM    5  C5  UNL     1     -35.574  15.045  -3.761  1.00 20.00     0.086 C 
HETATM    6 CL10 UNL     1     -35.615  15.945  -5.304  1.00 20.00    -0.125 Cl
ENDROOT
BRANCH   4   7
HETATM    7  C8  UNL     1     -34.269  16.975  -2.619  1.00 20.00     0.010 C 
BRANCH   7   8
HETATM    8  C9  UNL     1     -33.713  17.340  -1.231  1.00 20.00    -0.022 C 
HETATM    9  C6  UNL     1     -33.275  18.802  -1.144  1.00 20.00     0.009 C 
HETATM   10  C7  UNL     1     -34.765  17.050  -0.158  1.00 20.00     0.009 C 
ENDBRANCH   7   8
ENDBRANCH   4   7
TORSDOF 2
ENDMDL
MODEL 4
REMARK VINA RESULT:      -4.3     11.872     13.062
REMARK  2 active torsions:
REMARK  status: ('A' for Active; 'I' for Inactive)
REMARK    1  A    between atoms: C4_4  and  C8_8 
REMARK    2  A    between atoms: C8_8  and  C9_9 
ROOT
HETATM    1  C1  UNL     1     -34.652  16.791  -5.248  1.00 20.00     0.002 C 
HETATM    2  C2  UNL     1     -35.320  16.952  -3.879  1.00 20.00     0.006 C 
HETATM    3  C3  UNL     1     -33.227  16.307  -4.977  1.00 20.00     0.020 C 
HETATM    4  C4  UNL     1     -34.217  16.678  -2.852  1.00 20.00     0.004 C 
HETATM    5  C5  UNL     1     -33.271  15.711  -3.572  1.00 20.00     0.086 C 
HETATM    6 CL10 UNL     1     -33.888  14.035  -3.638  1.00 20.00    -0.125 Cl
ENDROOT
BRANCH   4   7
HETATM    7  C8  UNL     1     -34.750  16.220  -1.502  1.00 20.00     0.010 C 
BRANCH   7   8
HETATM    8  C9  UNL     1     -34.414  17.182  -0.348  1.00 20.00    -0.022 C 
HETATM    9  C6  UNL     1     -33.286  18.150  -0.706  1.00 20.00     0.009 C 
HETATM   10  C7  UNL     1     -35.664  17.969   0.053  1.00 20.00     0.009 C 
ENDBRANCH   7   8
ENDBRANCH   4   7
TORSDOF 2
ENDMDL
MODEL 5
REMARK VINA RESULT:      -4.2     11.793     12.810
REMARK  2 active torsions:
REMARK  status: ('A' for Active; 'I' for Inactive)
REMARK    1  A    between atoms: C4_4  and  C8_8 
REMARK    2  A    between atoms: C8_8  and  C9_9 
ROOT
HETATM    1  C1  UNL     1     -35.560  15.349  -5.564  1.00 20.00     0.002 C 
HETATM    2  C2  UNL     1     -35.944  15.646  -4.111  1.00 20.00     0.006 C 
HETATM    3  C3  UNL     1     -34.041  15.513  -5.649  1.00 20.00     0.020 C 
HETATM    4  C4  UNL     1     -34.648  16.098  -3.431  1.00 20.00     0.004 C 
HETATM    5  C5  UNL     1     -33.546  15.374  -4.212  1.00 20.00     0.086 C 
HETATM    6 CL10 UNL     1     -33.391  13.647  -3.782  1.00 20.00    -0.125 Cl
ENDROOT
BRANCH   4   7
HETATM    7  C8  UNL     1     -34.654  15.890  -1.923  1.00 20.00     0.010 C 
BRANCH   7   8
HETATM    8  C9  UNL     1     -33.967  17.024  -1.142  1.00 20.00    -0.022 C 
HETATM    9  C6  UNL     1     -33.759  18.277  -1.994  1.00 20.00     0.009 C 
HETATM   10  C7  UNL     1     -34.791  17.374   0.099  1.00 20.00     0.009 C 
ENDBRANCH   7   8
ENDBRANCH   4   7
TORSDOF 2
ENDMDL
MODEL 6
REMARK VINA RESULT:      -4.1     11.959     12.994
REMARK  2 active torsions:
REMARK  status: ('A' for Active; 'I' for Inactive)
REMARK    1  A    between atoms: C4_4  and  C8_8 
REMARK    2  A    between atoms: C8_8  and  C9_9 
ROOT
HETATM    1  C1  UNL     1     -34.599  17.007  -0.773  1.00 20.00     0.002 C 
HETATM    2  C2  UNL     1     -34.706  15.878  -1.803  1.00 20.00     0.006 C 
HETATM    3  C3  UNL     1     -33.702  18.076  -1.400  1.00 20.00     0.020 C 
HETATM    4  C4  UNL     1     -33.762  16.273  -2.943  1.00 20.00     0.004 C 
HETATM    5  C5  UNL     1     -33.752  17.806  -2.902  1.00 20.00     0.086 C 
HETATM    6 CL10 UNL     1     -35.219  18.542  -3.608  1.00 20.00    -0.125 Cl
ENDROOT
BRANCH   4   7
HETATM    7  C8  UNL     1     -34.126  15.638  -4.277  1.00 20.00     0.010 C 
BRANCH   7   8
HETATM    8  C9  UNL     1     -35.300  14.646  -4.186  1.00 20.00    -0.022 C 
HETATM    9  C6  UNL     1     -36.492  15.075  -5.043  1.00 20.00     0.009 C 
HETATM   10  C7  UNL     1     -34.835  13.251  -4.608  1.00 20.00     0.009 C 
ENDBRANCH   7   8
ENDBRANCH   4   7
TORSDOF 2
ENDMDL
MODEL 7
REMARK VINA RESULT:      -4.0     11.931     13.389
REMARK  2 active torsions:
REMARK  status: ('A' for Active; 'I' for Inactive)
REMARK    1  A    between atoms: C4_4  and  C8_8 
REMARK    2  A    between atoms: C8_8  and  C9_9 
ROOT
HETATM    1  C1  UNL     1     -36.183  15.542  -6.481  1.00 20.00     0.002 C 
HETATM    2  C2  UNL     1     -35.440  16.420  -5.469  1.00 20.00     0.006 C 
HETATM    3  C3  UNL     1     -35.303  14.312  -6.710  1.00 20.00     0.020 C 
HETATM    4  C4  UNL     1     -34.092  15.729  -5.241  1.00 20.00     0.004 C 
HETATM    5  C5  UNL     1     -34.388  14.245  -5.490  1.00 20.00     0.086 C 
HETATM    6 CL10 UNL     1     -35.237  13.455  -4.131  1.00 20.00    -0.125 Cl
ENDROOT
BRANCH   4   7
HETATM    7  C8  UNL     1     -33.456  16.073  -3.903  1.00 20.00     0.010 C 
BRANCH   7   8
HETATM    8  C9  UNL     1     -34.368  16.905  -2.983  1.00 20.00    -0.022 C 
HETATM    9  C6  UNL     1     -34.658  16.200  -1.658  1.00 20.00     0.009 C 
HETATM   10  C7  UNL     1     -33.728  18.269  -2.714  1.00 20.00     0.009 C 
ENDBRANCH   7   8
ENDBRANCH   4   7
TORSDOF 2
ENDMDL
MODEL 8
REMARK VINA RESULT:      -3.9     11.284     13.628
REMARK  2 active torsions:
REMARK  status: ('A' for Active; 'I' for Inactive)
REMARK    1  A    between atoms: C4_4  and  C8_8 
REMARK    2  A    between atoms: C8_8  and  C9_9 
ROOT
HETATM    1  C1  UNL     1     -34.428  13.595  -4.830  1.00 20.00     0.002 C 
HETATM    2  C2  UNL     1     -34.450  14.942  -5.561  1.00 20.00     0.006 C 
HETATM    3  C3  UNL     1     -33.367  13.717  -3.736  1.00 20.00     0.020 C 
HETATM    4  C4  UNL     1     -33.309  15.758  -4.946  1.00 20.00     0.004 C 
HETATM    5  C5  UNL     1     -33.194  15.218  -3.516  1.00 20.00     0.086 C 
HETATM    6 CL10 UNL     1     -34.470  15.828  -2.424  1.00 20.00    -0.125 Cl
ENDROOT
BRANCH   4   7
HETATM    7  C8  UNL     1     -33.499  17.262  -5.085  1.00 20.00     0.010 C 
BRANCH   7   8
HETATM    8  C9  UNL     1     -34.729  17.653  -5.924  1.00 20.00    -0.022 C 
HETATM    9  C6  UNL     1     -35.749  18.461  -5.122  1.00 20.00     0.009 C 
HETATM   10  C7  UNL     1     -34.287  18.450  -7.153  1.00 20.00     0.009 C 
ENDBRANCH   7   8
ENDBRANCH   4   7
TORSDOF 2
ENDMDL
MODEL 9
REMARK VINA RESULT:      -3.9     11.775     13.544
REMARK  2 active torsions:
REMARK  status: ('A' for Active; 'I' for Inactive)
REMARK    1  A    between atoms: C4_4  and  C8_8 
REMARK    2  A    between atoms: C8_8  and  C9_9 
ROOT
HETATM    1  C1  UNL     1     -33.929  16.620  -2.393  1.00 20.00     0.002 C 
HETATM    2  C2  UNL     1     -33.571  16.969  -3.842  1.00 20.00     0.006 C 
HETATM    3  C3  UNL     1     -34.924  15.461  -2.464  1.00 20.00     0.020 C 
HETATM    4  C4  UNL     1     -34.470  16.083  -4.709  1.00 20.00     0.004 C 
HETATM    5  C5  UNL     1     -34.714  14.841  -3.844  1.00 20.00     0.086 C 
HETATM    6 CL10 UNL     1     -33.324  13.719  -3.806  1.00 20.00    -0.125 Cl
ENDROOT
BRANCH   4   7
HETATM    7  C8  UNL     1     -33.909  15.833  -6.102  1.00 20.00     0.010 C 
BRANCH   7   8
HETATM    8  C9  UNL     1     -34.978  15.857  -7.210  1.00 20.00    -0.022 C 
HETATM    9  C6  UNL     1     -35.457  14.455  -7.588  1.00 20.00     0.009 C 
HETATM   10  C7  UNL     1     -36.169  16.708  -6.764  1.00 20.00     0.009 C 
ENDBRANCH   7   8
ENDBRANCH   4   7
TORSDOF 2
ENDMDL
