MODEL 1
REMARK VINA RESULT:      -5.2      0.000      0.000
REMARK  1 active torsions:
REMARK  status: ('A' for Active; 'I' for Inactive)
REMARK    1  A    between atoms: C6_6  and  C8_8 
ROOT
HETATM    1  C1  UNL     1     -32.198   8.583   1.656  1.00 20.00     0.012 C 
HETATM    2  C2  UNL     1     -32.151   7.815   2.577  1.00 20.00    -0.117 C 
HETATM    3  C8  UNL     1     -32.088   6.875   3.703  1.00 20.00     0.099 C 
ENDROOT
BRANCH   3   4
HETATM    4  C6  UNL     1     -33.477   6.562   4.238  1.00 20.00     0.015 C 
HETATM    5  C4  UNL     1     -33.519   6.486   5.767  1.00 20.00     0.007 C 
HETATM    6  C3  UNL     1     -34.701   5.574   6.104  1.00 20.00     0.002 C 
HETATM    7  C5  UNL     1     -35.183   4.988   4.777  1.00 20.00     0.020 C 
HETATM    8  C7  UNL     1     -34.008   5.188   3.828  1.00 20.00     0.087 C 
HETATM    9 CL9  UNL     1     -34.510   5.119   2.131  1.00 20.00    -0.125 Cl
ENDBRANCH   3   4
TORSDOF 1
ENDMDL
MODEL 2
REMARK VINA RESULT:      -5.2      1.974      2.499
REMARK  1 active torsions:
REMARK  status: ('A' for Active; 'I' for Inactive)
REMARK    1  A    between atoms: C6_6  and  C8_8 
ROOT
HETATM    1  C1  UNL     1     -31.489   7.621   2.901  1.00 20.00     0.012 C 
HETATM    2  C2  UNL     1     -32.591   7.219   3.153  1.00 20.00    -0.117 C 
HETATM    3  C8  UNL     1     -33.942   6.731   3.458  1.00 20.00     0.099 C 
ENDROOT
BRANCH   3   4
HETATM    4  C6  UNL     1     -33.914   5.684   4.561  1.00 20.00     0.015 C 
HETATM    5  C4  UNL     1     -34.872   4.520   4.296  1.00 20.00     0.007 C 
HETATM    6  C3  UNL     1     -35.219   3.948   5.673  1.00 20.00     0.002 C 
HETATM    7  C5  UNL     1     -34.624   4.911   6.700  1.00 20.00     0.020 C 
HETATM    8  C7  UNL     1     -34.392   6.198   5.920  1.00 20.00     0.087 C 
HETATM    9 CL9  UNL     1     -33.211   7.250   6.716  1.00 20.00    -0.125 Cl
ENDBRANCH   3   4
TORSDOF 1
ENDMDL
MODEL 3
REMARK VINA RESULT:      -4.9      1.788      2.303
REMARK  1 active torsions:
REMARK  status: ('A' for Active; 'I' for Inactive)
REMARK    1  A    between atoms: C6_6  and  C8_8 
ROOT
HETATM    1  C1  UNL     1     -32.165   8.664   1.381  1.00 20.00     0.012 C 
HETATM    2  C2  UNL     1     -31.975   8.092   2.419  1.00 20.00    -0.117 C 
HETATM    3  C8  UNL     1     -31.738   7.394   3.688  1.00 20.00     0.099 C 
ENDROOT
BRANCH   3   4
HETATM    4  C6  UNL     1     -32.706   6.236   3.871  1.00 20.00     0.015 C 
HETATM    5  C4  UNL     1     -33.309   5.754   2.548  1.00 20.00     0.007 C 
HETATM    6  C3  UNL     1     -34.651   5.114   2.914  1.00 20.00     0.002 C 
HETATM    7  C5  UNL     1     -34.884   5.420   4.393  1.00 20.00     0.020 C 
HETATM    8  C7  UNL     1     -33.951   6.587   4.688  1.00 20.00     0.087 C 
HETATM    9 CL9  UNL     1     -33.618   6.747   6.420  1.00 20.00    -0.125 Cl
ENDBRANCH   3   4
TORSDOF 1
ENDMDL
MODEL 4
REMARK VINA RESULT:      -4.5     11.217     11.711
REMARK  1 active torsions:
REMARK  status: ('A' for Active; 'I' for Inactive)
REMARK    1  A    between atoms: C6_6  and  C8_8 
ROOT
HETATM    1  C1  UNL     1     -34.754  17.103  -0.119  1.00 20.00     0.012 C 
HETATM    2  C2  UNL     1     -34.347  16.778  -1.201  1.00 20.00    -0.117 C 
HETATM    3  C8  UNL     1     -33.848  16.385  -2.524  1.00 20.00     0.099 C 
ENDROOT
BRANCH   3   4
HETATM    4  C6  UNL     1     -34.426  15.046  -2.956  1.00 20.00     0.015 C 
HETATM    5  C4  UNL     1     -33.403  14.167  -3.682  1.00 20.00     0.007 C 
HETATM    6  C3  UNL     1     -34.222  13.236  -4.581  1.00 20.00     0.002 C 
HETATM    7  C5  UNL     1     -35.667  13.730  -4.508  1.00 20.00     0.020 C 
HETATM    8  C7  UNL     1     -35.551  15.157  -3.986  1.00 20.00     0.087 C 
HETATM    9 CL9  UNL     1     -37.074  15.730  -3.287  1.00 20.00    -0.125 Cl
ENDBRANCH   3   4
TORSDOF 1
ENDMDL
MODEL 5
REMARK VINA RESULT:      -4.4      1.942      4.023
REMARK  1 active torsions:
REMARK  status: ('A' for Active; 'I' for Inactive)
REMARK    1  A    between atoms: C6_6  and  C8_8 
ROOT
HETATM    1  C1  UNL     1     -35.154   4.272   6.644  1.00 20.00     0.012 C 
HETATM    2  C2  UNL     1     -34.625   5.283   6.270  1.00 20.00    -0.117 C 
HETATM    3  C8  UNL     1     -33.978   6.520   5.818  1.00 20.00     0.099 C 
ENDROOT
BRANCH   3   4
HETATM    4  C6  UNL     1     -33.889   6.573   4.300  1.00 20.00     0.015 C 
HETATM    5  C4  UNL     1     -34.724   5.485   3.620  1.00 20.00     0.007 C 
HETATM    6  C3  UNL     1     -34.060   5.243   2.261  1.00 20.00     0.002 C 
HETATM    7  C5  UNL     1     -32.756   6.040   2.273  1.00 20.00     0.020 C 
HETATM    8  C7  UNL     1     -32.488   6.304   3.749  1.00 20.00     0.087 C 
HETATM    9 CL9  UNL     1     -31.378   7.663   3.987  1.00 20.00    -0.125 Cl
ENDBRANCH   3   4
TORSDOF 1
ENDMDL
MODEL 6
REMARK VINA RESULT:      -4.3     11.370     12.704
REMARK  1 active torsions:
REMARK  status: ('A' for Active; 'I' for Inactive)
REMARK    1  A    between atoms: C6_6  and  C8_8 
ROOT
HETATM    1  C1  UNL     1     -34.408  17.767   0.369  1.00 20.00     0.012 C 
HETATM    2  C2  UNL     1     -34.554  17.012  -0.553  1.00 20.00    -0.117 C 
HETATM    3  C8  UNL     1     -34.736  16.086  -1.677  1.00 20.00     0.099 C 
ENDROOT
BRANCH   3   4
HETATM    4  C6  UNL     1     -33.787  16.413  -2.820  1.00 20.00     0.015 C 
HETATM    5  C4  UNL     1     -34.020  17.811  -3.401  1.00 20.00     0.007 C 
HETATM    6  C3  UNL     1     -33.517  17.747  -4.846  1.00 20.00     0.002 C 
HETATM    7  C5  UNL     1     -33.198  16.279  -5.125  1.00 20.00     0.020 C 
HETATM    8  C7  UNL     1     -33.958  15.517  -4.047  1.00 20.00     0.087 C 
HETATM    9 CL9  UNL     1     -33.308  13.886  -3.808  1.00 20.00    -0.125 Cl
ENDBRANCH   3   4
TORSDOF 1
ENDMDL
MODEL 7
REMARK VINA RESULT:      -4.3      1.972      4.258
REMARK  1 active torsions:
REMARK  status: ('A' for Active; 'I' for Inactive)
REMARK    1  A    between atoms: C6_6  and  C8_8 
ROOT
HETATM    1  C1  UNL     1     -34.855   3.783   6.297  1.00 20.00     0.012 C 
HETATM    2  C2  UNL     1     -35.118   4.432   5.321  1.00 20.00    -0.117 C 
HETATM    3  C8  UNL     1     -35.443   5.222   4.127  1.00 20.00     0.099 C 
ENDROOT
BRANCH   3   4
HETATM    4  C6  UNL     1     -34.360   6.248   3.833  1.00 20.00     0.015 C 
HETATM    5  C4  UNL     1     -33.551   5.911   2.576  1.00 20.00     0.007 C 
HETATM    6  C3  UNL     1     -32.189   6.582   2.769  1.00 20.00     0.002 C 
HETATM    7  C5  UNL     1     -32.170   7.112   4.203  1.00 20.00     0.020 C 
HETATM    8  C7  UNL     1     -33.275   6.334   4.906  1.00 20.00     0.087 C 
HETATM    9 CL9  UNL     1     -33.823   7.151   6.379  1.00 20.00    -0.125 Cl
ENDBRANCH   3   4
TORSDOF 1
ENDMDL
MODEL 8
REMARK VINA RESULT:      -4.2     10.984     11.829
REMARK  1 active torsions:
REMARK  status: ('A' for Active; 'I' for Inactive)
REMARK    1  A    between atoms: C6_6  and  C8_8 
ROOT
HETATM    1  C1  UNL     1     -34.755  16.756  -0.441  1.00 20.00     0.012 C 
HETATM    2  C2  UNL     1     -34.313  16.758  -1.557  1.00 20.00    -0.117 C 
HETATM    3  C8  UNL     1     -33.771  16.764  -2.921  1.00 20.00     0.099 C 
ENDROOT
BRANCH   3   4
HETATM    4  C6  UNL     1     -34.525  15.796  -3.820  1.00 20.00     0.015 C 
HETATM    5  C4  UNL     1     -36.031  16.074  -3.857  1.00 20.00     0.007 C 
HETATM    6  C3  UNL     1     -36.690  14.738  -4.211  1.00 20.00     0.002 C 
HETATM    7  C5  UNL     1     -35.580  13.688  -4.169  1.00 20.00     0.020 C 
HETATM    8  C7  UNL     1     -34.473  14.342  -3.351  1.00 20.00     0.087 C 
HETATM    9 CL9  UNL     1     -32.901  13.578  -3.638  1.00 20.00    -0.125 Cl
ENDBRANCH   3   4
TORSDOF 1
ENDMDL
MODEL 9
REMARK VINA RESULT:      -4.2     11.198     12.058
REMARK  1 active torsions:
REMARK  status: ('A' for Active; 'I' for Inactive)
REMARK    1  A    between atoms: C6_6  and  C8_8 
ROOT
HETATM    1  C1  UNL     1     -34.856  14.891  -7.144  1.00 20.00     0.012 C 
HETATM    2  C2  UNL     1     -34.859  14.186  -6.172  1.00 20.00    -0.117 C 
HETATM    3  C8  UNL     1     -34.863  13.320  -4.987  1.00 20.00     0.099 C 
ENDROOT
BRANCH   3   4
HETATM    4  C6  UNL     1     -34.817  14.138  -3.705  1.00 20.00     0.015 C 
HETATM    5  C4  UNL     1     -36.084  14.971  -3.490  1.00 20.00     0.007 C 
HETATM    6  C3  UNL     1     -35.657  16.153  -2.614  1.00 20.00     0.002 C 
HETATM    7  C5  UNL     1     -34.134  16.085  -2.515  1.00 20.00     0.020 C 
HETATM    8  C7  UNL     1     -33.719  15.201  -3.684  1.00 20.00     0.087 C 
HETATM    9 CL9  UNL     1     -32.100  14.519  -3.454  1.00 20.00    -0.125 Cl
ENDBRANCH   3   4
TORSDOF 1
ENDMDL
