MODEL 1
REMARK VINA RESULT:      -5.0      0.000      0.000
REMARK  2 active torsions:
REMARK  status: ('A' for Active; 'I' for Inactive)
REMARK    1  A    between atoms: C2_2  and  C8_8 
REMARK    2  A    between atoms: C6_6  and  C8_8 
ROOT
HETATM    1  C3  UNL     1     -35.701   5.128   4.165  1.00 20.00     0.002 C 
HETATM    2  C4  UNL     1     -34.721   6.011   3.388  1.00 20.00     0.006 C 
HETATM    3  C5  UNL     1     -34.895   4.480   5.292  1.00 20.00     0.020 C 
HETATM    4  C6  UNL     1     -33.347   5.747   4.014  1.00 20.00     0.007 C 
HETATM    5  C7  UNL     1     -33.667   5.370   5.466  1.00 20.00     0.086 C 
HETATM    6 CL9  UNL     1     -34.073   6.779   6.490  1.00 20.00    -0.125 Cl
ENDROOT
BRANCH   4   7
HETATM    7  C8  UNL     1     -32.363   6.889   3.816  1.00 20.00     0.032 C 
BRANCH   7   8
HETATM    8  C2  UNL     1     -32.237   7.260   2.370  1.00 20.00    -0.036 C 
HETATM    9  C1  UNL     1     -32.153   8.518   1.924  1.00 20.00     0.007 C 
ENDBRANCH   7   8
ENDBRANCH   4   7
TORSDOF 2
ENDMDL
MODEL 2
REMARK VINA RESULT:      -4.3     11.410     12.422
REMARK  2 active torsions:
REMARK  status: ('A' for Active; 'I' for Inactive)
REMARK    1  A    between atoms: C2_2  and  C8_8 
REMARK    2  A    between atoms: C6_6  and  C8_8 
ROOT
HETATM    1  C3  UNL     1     -34.413  13.366  -4.890  1.00 20.00     0.002 C 
HETATM    2  C4  UNL     1     -33.978  13.858  -3.507  1.00 20.00     0.006 C 
HETATM    3  C5  UNL     1     -35.232  14.499  -5.511  1.00 20.00     0.020 C 
HETATM    4  C6  UNL     1     -34.668  15.214  -3.319  1.00 20.00     0.007 C 
HETATM    5  C7  UNL     1     -34.819  15.754  -4.746  1.00 20.00     0.086 C 
HETATM    6 CL9  UNL     1     -33.298  16.408  -5.421  1.00 20.00    -0.125 Cl
ENDROOT
BRANCH   4   7
HETATM    7  C8  UNL     1     -33.957  16.122  -2.328  1.00 20.00     0.032 C 
BRANCH   7   8
HETATM    8  C2  UNL     1     -34.852  16.493  -1.185  1.00 20.00    -0.036 C 
HETATM    9  C1  UNL     1     -34.478  17.271  -0.163  1.00 20.00     0.007 C 
ENDBRANCH   7   8
ENDBRANCH   4   7
TORSDOF 2
ENDMDL
MODEL 3
REMARK VINA RESULT:      -4.1      1.601      2.162
REMARK  2 active torsions:
REMARK  status: ('A' for Active; 'I' for Inactive)
REMARK    1  A    between atoms: C2_2  and  C8_8 
REMARK    2  A    between atoms: C6_6  and  C8_8 
ROOT
HETATM    1  C3  UNL     1     -34.259   6.132   6.782  1.00 20.00     0.002 C 
HETATM    2  C4  UNL     1     -33.610   6.537   5.455  1.00 20.00     0.006 C 
HETATM    3  C5  UNL     1     -35.387   5.161   6.430  1.00 20.00     0.020 C 
HETATM    4  C6  UNL     1     -34.467   5.884   4.364  1.00 20.00     0.007 C 
HETATM    5  C7  UNL     1     -35.038   4.632   5.041  1.00 20.00     0.086 C 
HETATM    6 CL9  UNL     1     -33.854   3.298   5.175  1.00 20.00    -0.125 Cl
ENDROOT
BRANCH   4   7
HETATM    7  C8  UNL     1     -33.719   5.663   3.059  1.00 20.00     0.032 C 
BRANCH   7   8
HETATM    8  C2  UNL     1     -32.394   6.364   3.061  1.00 20.00    -0.036 C 
HETATM    9  C1  UNL     1     -32.167   7.535   2.456  1.00 20.00     0.007 C 
ENDBRANCH   7   8
ENDBRANCH   4   7
TORSDOF 2
ENDMDL
MODEL 4
REMARK VINA RESULT:      -4.1     11.667     12.160
REMARK  2 active torsions:
REMARK  status: ('A' for Active; 'I' for Inactive)
REMARK    1  A    between atoms: C2_2  and  C8_8 
REMARK    2  A    between atoms: C6_6  and  C8_8 
ROOT
HETATM    1  C3  UNL     1     -36.354  14.314  -4.353  1.00 20.00     0.002 C 
HETATM    2  C4  UNL     1     -35.988  15.244  -3.193  1.00 20.00     0.006 C 
HETATM    3  C5  UNL     1     -35.210  14.418  -5.363  1.00 20.00     0.020 C 
HETATM    4  C6  UNL     1     -34.702  15.955  -3.628  1.00 20.00     0.007 C 
HETATM    5  C7  UNL     1     -34.022  14.951  -4.566  1.00 20.00     0.086 C 
HETATM    6 CL9  UNL     1     -33.214  13.610  -3.703  1.00 20.00    -0.125 Cl
ENDROOT
BRANCH   4   7
HETATM    7  C8  UNL     1     -33.866  16.460  -2.462  1.00 20.00     0.032 C 
BRANCH   7   8
HETATM    8  C2  UNL     1     -34.621  16.375  -1.170  1.00 20.00    -0.036 C 
HETATM    9  C1  UNL     1     -34.584  17.315  -0.219  1.00 20.00     0.007 C 
ENDBRANCH   7   8
ENDBRANCH   4   7
TORSDOF 2
ENDMDL
MODEL 5
REMARK VINA RESULT:      -4.1     11.714     12.473
REMARK  2 active torsions:
REMARK  status: ('A' for Active; 'I' for Inactive)
REMARK    1  A    between atoms: C2_2  and  C8_8 
REMARK    2  A    between atoms: C6_6  and  C8_8 
ROOT
HETATM    1  C3  UNL     1     -35.456  16.286  -2.436  1.00 20.00     0.002 C 
HETATM    2  C4  UNL     1     -35.731  15.109  -3.375  1.00 20.00     0.006 C 
HETATM    3  C5  UNL     1     -33.947  16.292  -2.184  1.00 20.00     0.020 C 
HETATM    4  C6  UNL     1     -34.387  14.391  -3.537  1.00 20.00     0.007 C 
HETATM    5  C7  UNL     1     -33.348  15.503  -3.345  1.00 20.00     0.086 C 
HETATM    6 CL9  UNL     1     -33.170  16.561  -4.776  1.00 20.00    -0.125 Cl
ENDROOT
BRANCH   4   7
HETATM    7  C8  UNL     1     -34.282  13.586  -4.823  1.00 20.00     0.032 C 
BRANCH   7   8
HETATM    8  C2  UNL     1     -35.316  14.012  -5.821  1.00 20.00    -0.036 C 
HETATM    9  C1  UNL     1     -35.030  14.473  -7.044  1.00 20.00     0.007 C 
ENDBRANCH   7   8
ENDBRANCH   4   7
TORSDOF 2
ENDMDL
MODEL 6
REMARK VINA RESULT:      -3.9     11.654     13.089
REMARK  2 active torsions:
REMARK  status: ('A' for Active; 'I' for Inactive)
REMARK    1  A    between atoms: C2_2  and  C8_8 
REMARK    2  A    between atoms: C6_6  and  C8_8 
ROOT
HETATM    1  C3  UNL     1     -34.048  16.107  -6.682  1.00 20.00     0.002 C 
HETATM    2  C4  UNL     1     -33.713  16.141  -5.188  1.00 20.00     0.006 C 
HETATM    3  C5  UNL     1     -34.673  14.737  -6.951  1.00 20.00     0.020 C 
HETATM    4  C6  UNL     1     -34.039  14.739  -4.663  1.00 20.00     0.007 C 
HETATM    5  C7  UNL     1     -35.158  14.247  -5.589  1.00 20.00     0.086 C 
HETATM    6 CL9  UNL     1     -36.753  14.964  -5.214  1.00 20.00    -0.125 Cl
ENDROOT
BRANCH   4   7
HETATM    7  C8  UNL     1     -34.335  14.705  -3.172  1.00 20.00     0.032 C 
BRANCH   7   8
HETATM    8  C2  UNL     1     -34.173  16.060  -2.551  1.00 20.00    -0.036 C 
HETATM    9  C1  UNL     1     -34.612  16.379  -1.329  1.00 20.00     0.007 C 
ENDBRANCH   7   8
ENDBRANCH   4   7
TORSDOF 2
ENDMDL
MODEL 7
REMARK VINA RESULT:      -3.9     11.555     12.688
REMARK  2 active torsions:
REMARK  status: ('A' for Active; 'I' for Inactive)
REMARK    1  A    between atoms: C2_2  and  C8_8 
REMARK    2  A    between atoms: C6_6  and  C8_8 
ROOT
HETATM    1  C3  UNL     1     -34.042  18.019  -0.001  1.00 20.00     0.002 C 
HETATM    2  C4  UNL     1     -34.679  16.716  -0.492  1.00 20.00     0.006 C 
HETATM    3  C5  UNL     1     -33.245  18.578  -1.181  1.00 20.00     0.020 C 
HETATM    4  C6  UNL     1     -34.127  16.496  -1.904  1.00 20.00     0.007 C 
HETATM    5  C7  UNL     1     -33.846  17.914  -2.417  1.00 20.00     0.086 C 
HETATM    6 CL9  UNL     1     -35.321  18.788  -2.926  1.00 20.00    -0.125 Cl
ENDROOT
BRANCH   4   7
HETATM    7  C8  UNL     1     -35.022  15.630  -2.776  1.00 20.00     0.032 C 
BRANCH   7   8
HETATM    8  C2  UNL     1     -34.253  14.509  -3.408  1.00 20.00    -0.036 C 
HETATM    9  C1  UNL     1     -34.820  13.481  -4.048  1.00 20.00     0.007 C 
ENDBRANCH   7   8
ENDBRANCH   4   7
TORSDOF 2
ENDMDL
MODEL 8
REMARK VINA RESULT:      -3.8      9.506     10.647
REMARK  2 active torsions:
REMARK  status: ('A' for Active; 'I' for Inactive)
REMARK    1  A    between atoms: C2_2  and  C8_8 
REMARK    2  A    between atoms: C6_6  and  C8_8 
ROOT
HETATM    1  C3  UNL     1     -40.716   6.053  -0.069  1.00 20.00     0.002 C 
HETATM    2  C4  UNL     1     -41.188   6.853  -1.287  1.00 20.00     0.006 C 
HETATM    3  C5  UNL     1     -41.744   4.940   0.139  1.00 20.00     0.020 C 
HETATM    4  C6  UNL     1     -42.545   6.252  -1.670  1.00 20.00     0.007 C 
HETATM    5  C7  UNL     1     -42.449   4.793  -1.207  1.00 20.00     0.086 C 
HETATM    6 CL9  UNL     1     -41.473   3.767  -2.300  1.00 20.00    -0.125 Cl
ENDROOT
BRANCH   4   7
HETATM    7  C8  UNL     1     -42.914   6.473  -3.128  1.00 20.00     0.032 C 
BRANCH   7   8
HETATM    8  C2  UNL     1     -42.387   7.781  -3.635  1.00 20.00    -0.036 C 
HETATM    9  C1  UNL     1     -42.893   8.436  -4.685  1.00 20.00     0.007 C 
ENDBRANCH   7   8
ENDBRANCH   4   7
TORSDOF 2
ENDMDL
MODEL 9
REMARK VINA RESULT:      -3.8      1.710      2.175
REMARK  2 active torsions:
REMARK  status: ('A' for Active; 'I' for Inactive)
REMARK    1  A    between atoms: C2_2  and  C8_8 
REMARK    2  A    between atoms: C6_6  and  C8_8 
ROOT
HETATM    1  C3  UNL     1     -34.902   4.830   5.274  1.00 20.00     0.002 C 
HETATM    2  C4  UNL     1     -33.539   5.526   5.223  1.00 20.00     0.006 C 
HETATM    3  C5  UNL     1     -35.699   5.361   4.081  1.00 20.00     0.020 C 
HETATM    4  C6  UNL     1     -33.636   6.535   4.074  1.00 20.00     0.007 C 
HETATM    5  C7  UNL     1     -34.653   5.906   3.113  1.00 20.00     0.086 C 
HETATM    6 CL9  UNL     1     -33.971   4.573   2.136  1.00 20.00    -0.125 Cl
ENDROOT
BRANCH   4   7
HETATM    7  C8  UNL     1     -32.287   6.906   3.479  1.00 20.00     0.032 C 
BRANCH   7   8
HETATM    8  C2  UNL     1     -32.379   8.147   2.643  1.00 20.00    -0.036 C 
HETATM    9  C1  UNL     1     -31.848   8.267   1.421  1.00 20.00     0.007 C 
ENDBRANCH   7   8
ENDBRANCH   4   7
TORSDOF 2
ENDMDL
