MODEL 1
REMARK VINA RESULT:      -4.4      0.000      0.000
REMARK  4 active torsions:
REMARK  status: ('A' for Active; 'I' for Inactive)
REMARK    1  A    between atoms: C5_5  and  C6_6 
REMARK    2  A    between atoms: C5_5  and  C7_7 
REMARK    3  A    between atoms: C6_6  and  C8_8 
REMARK    4  A    between atoms: C7_7  and  C9_9 
ROOT
HETATM    1  C5  UNL     1     -33.033   6.339   2.884  1.00 20.00     0.002 C 
ENDROOT
BRANCH   1   2
HETATM    2  C6  UNL     1     -32.166   7.604   2.805  1.00 20.00     0.020 C 
BRANCH   2   3
HETATM    3  C8  UNL     1     -32.482   8.547   1.635  1.00 20.00     0.078 C 
HETATM    4  C1  UNL     1     -31.413   8.557   0.550  1.00 20.00     0.026 C 
HETATM    5 CL10 UNL     1     -32.753  10.215   2.223  1.00 20.00    -0.125 Cl
ENDBRANCH   2   3
ENDBRANCH   1   2
BRANCH   1   6
HETATM    6  C7  UNL     1     -32.947   5.705   4.279  1.00 20.00     0.008 C 
BRANCH   6   7
HETATM    7  C9  UNL     1     -34.304   5.440   4.986  1.00 20.00    -0.051 C 
HETATM    8  C2  UNL     1     -35.487   5.772   4.061  1.00 20.00     0.014 C 
HETATM    9  C3  UNL     1     -34.417   3.977   5.447  1.00 20.00     0.014 C 
HETATM   10  C4  UNL     1     -34.384   6.350   6.226  1.00 20.00     0.014 C 
ENDBRANCH   6   7
ENDBRANCH   1   6
TORSDOF 4
ENDMDL
MODEL 2
REMARK VINA RESULT:      -4.3      0.053      1.378
REMARK  4 active torsions:
REMARK  status: ('A' for Active; 'I' for Inactive)
REMARK    1  A    between atoms: C5_5  and  C6_6 
REMARK    2  A    between atoms: C5_5  and  C7_7 
REMARK    3  A    between atoms: C6_6  and  C8_8 
REMARK    4  A    between atoms: C7_7  and  C9_9 
ROOT
HETATM    1  C5  UNL     1     -33.075   6.353   2.888  1.00 20.00     0.002 C 
ENDROOT
BRANCH   1   2
HETATM    2  C6  UNL     1     -32.155   7.578   2.775  1.00 20.00     0.020 C 
BRANCH   2   3
HETATM    3  C8  UNL     1     -32.472   8.535   1.617  1.00 20.00     0.078 C 
HETATM    4  C1  UNL     1     -31.404   8.557   0.530  1.00 20.00     0.026 C 
HETATM    5 CL10 UNL     1     -32.741  10.196   2.224  1.00 20.00    -0.125 Cl
ENDBRANCH   2   3
ENDBRANCH   1   2
BRANCH   1   6
HETATM    6  C7  UNL     1     -32.938   5.693   4.267  1.00 20.00     0.008 C 
BRANCH   6   7
HETATM    7  C9  UNL     1     -34.264   5.472   5.045  1.00 20.00    -0.051 C 
HETATM    8  C2  UNL     1     -34.394   4.015   5.521  1.00 20.00     0.014 C 
HETATM    9  C3  UNL     1     -34.361   6.412   6.259  1.00 20.00     0.014 C 
HETATM   10  C4  UNL     1     -35.435   5.781   4.093  1.00 20.00     0.014 C 
ENDBRANCH   6   7
ENDBRANCH   1   6
TORSDOF 4
ENDMDL
MODEL 3
REMARK VINA RESULT:      -4.1     10.554     11.635
REMARK  4 active torsions:
REMARK  status: ('A' for Active; 'I' for Inactive)
REMARK    1  A    between atoms: C5_5  and  C6_6 
REMARK    2  A    between atoms: C5_5  and  C7_7 
REMARK    3  A    between atoms: C6_6  and  C8_8 
REMARK    4  A    between atoms: C7_7  and  C9_9 
ROOT
HETATM    1  C5  UNL     1     -33.991  16.456  -2.043  1.00 20.00     0.002 C 
ENDROOT
BRANCH   1   2
HETATM    2  C6  UNL     1     -34.626  16.697  -0.666  1.00 20.00     0.020 C 
BRANCH   2   3
HETATM    3  C8  UNL     1     -34.302  18.052  -0.020  1.00 20.00     0.078 C 
HETATM    4  C1  UNL     1     -32.864  18.507  -0.236  1.00 20.00     0.026 C 
HETATM    5 CL10 UNL     1     -34.661  18.019   1.733  1.00 20.00    -0.125 Cl
ENDBRANCH   2   3
ENDBRANCH   1   2
BRANCH   1   6
HETATM    6  C7  UNL     1     -34.898  15.578  -2.916  1.00 20.00     0.008 C 
BRANCH   6   7
HETATM    7  C9  UNL     1     -34.181  14.748  -4.015  1.00 20.00    -0.051 C 
HETATM    8  C2  UNL     1     -34.817  13.356  -4.166  1.00 20.00     0.014 C 
HETATM    9  C3  UNL     1     -34.217  15.471  -5.372  1.00 20.00     0.014 C 
HETATM   10  C4  UNL     1     -32.709  14.570  -3.596  1.00 20.00     0.014 C 
ENDBRANCH   6   7
ENDBRANCH   1   6
TORSDOF 4
ENDMDL
MODEL 4
REMARK VINA RESULT:      -4.1     10.436     11.752
REMARK  4 active torsions:
REMARK  status: ('A' for Active; 'I' for Inactive)
REMARK    1  A    between atoms: C5_5  and  C6_6 
REMARK    2  A    between atoms: C5_5  and  C7_7 
REMARK    3  A    between atoms: C6_6  and  C8_8 
REMARK    4  A    between atoms: C7_7  and  C9_9 
ROOT
HETATM    1  C5  UNL     1     -34.000  16.634  -1.839  1.00 20.00     0.002 C 
ENDROOT
BRANCH   1   2
HETATM    2  C6  UNL     1     -34.640  16.928  -0.474  1.00 20.00     0.020 C 
BRANCH   2   3
HETATM    3  C8  UNL     1     -34.184  18.231   0.199  1.00 20.00     0.078 C 
HETATM    4  C1  UNL     1     -32.745  18.615  -0.119  1.00 20.00     0.026 C 
HETATM    5 CL10 UNL     1     -34.399  18.135   1.973  1.00 20.00    -0.125 Cl
ENDBRANCH   2   3
ENDBRANCH   1   2
BRANCH   1   6
HETATM    6  C7  UNL     1     -34.762  15.519  -2.569  1.00 20.00     0.008 C 
BRANCH   6   7
HETATM    7  C9  UNL     1     -34.143  15.046  -3.913  1.00 20.00    -0.051 C 
HETATM    8  C2  UNL     1     -33.189  16.105  -4.489  1.00 20.00     0.014 C 
HETATM    9  C3  UNL     1     -33.384  13.720  -3.741  1.00 20.00     0.014 C 
HETATM   10  C4  UNL     1     -35.291  14.824  -4.917  1.00 20.00     0.014 C 
ENDBRANCH   6   7
ENDBRANCH   1   6
TORSDOF 4
ENDMDL
MODEL 5
REMARK VINA RESULT:      -4.1     10.986     12.042
REMARK  4 active torsions:
REMARK  status: ('A' for Active; 'I' for Inactive)
REMARK    1  A    between atoms: C5_5  and  C6_6 
REMARK    2  A    between atoms: C5_5  and  C7_7 
REMARK    3  A    between atoms: C6_6  and  C8_8 
REMARK    4  A    between atoms: C7_7  and  C9_9 
ROOT
HETATM    1  C5  UNL     1     -35.458  14.005  -4.017  1.00 20.00     0.002 C 
ENDROOT
BRANCH   1   2
HETATM    2  C6  UNL     1     -34.822  13.563  -5.343  1.00 20.00     0.020 C 
BRANCH   2   3
HETATM    3  C8  UNL     1     -35.205  14.404  -6.569  1.00 20.00     0.078 C 
HETATM    4  C1  UNL     1     -34.209  15.512  -6.888  1.00 20.00     0.026 C 
HETATM    5 CL10 UNL     1     -36.839  15.108  -6.369  1.00 20.00    -0.125 Cl
ENDBRANCH   2   3
ENDBRANCH   1   2
BRANCH   1   6
HETATM    6  C7  UNL     1     -34.427  14.711  -3.126  1.00 20.00     0.008 C 
BRANCH   6   7
HETATM    7  C9  UNL     1     -34.748  16.185  -2.759  1.00 20.00    -0.051 C 
HETATM    8  C2  UNL     1     -36.174  16.568  -3.188  1.00 20.00     0.014 C 
HETATM    9  C3  UNL     1     -34.590  16.431  -1.249  1.00 20.00     0.014 C 
HETATM   10  C4  UNL     1     -33.752  17.092  -3.507  1.00 20.00     0.014 C 
ENDBRANCH   6   7
ENDBRANCH   1   6
TORSDOF 4
ENDMDL
MODEL 6
REMARK VINA RESULT:      -4.0     10.960     11.658
REMARK  4 active torsions:
REMARK  status: ('A' for Active; 'I' for Inactive)
REMARK    1  A    between atoms: C5_5  and  C6_6 
REMARK    2  A    between atoms: C5_5  and  C7_7 
REMARK    3  A    between atoms: C6_6  and  C8_8 
REMARK    4  A    between atoms: C7_7  and  C9_9 
ROOT
HETATM    1  C5  UNL     1     -33.713  16.245  -2.428  1.00 20.00     0.002 C 
ENDROOT
BRANCH   1   2
HETATM    2  C6  UNL     1     -34.408  16.120  -3.792  1.00 20.00     0.020 C 
BRANCH   2   3
HETATM    3  C8  UNL     1     -34.448  14.704  -4.384  1.00 20.00     0.078 C 
HETATM    4  C1  UNL     1     -35.784  13.997  -4.192  1.00 20.00     0.026 C 
HETATM    5 CL10 UNL     1     -33.136  13.696  -3.703  1.00 20.00    -0.125 Cl
ENDBRANCH   2   3
ENDBRANCH   1   2
BRANCH   1   6
HETATM    6  C7  UNL     1     -34.746  16.386  -1.301  1.00 20.00     0.008 C 
BRANCH   6   7
HETATM    7  C9  UNL     1     -34.674  17.703  -0.482  1.00 20.00    -0.051 C 
HETATM    8  C2  UNL     1     -35.532  18.806  -1.125  1.00 20.00     0.014 C 
HETATM    9  C3  UNL     1     -35.136  17.483   0.969  1.00 20.00     0.014 C 
HETATM   10  C4  UNL     1     -33.208  18.176  -0.460  1.00 20.00     0.014 C 
ENDBRANCH   6   7
ENDBRANCH   1   6
TORSDOF 4
ENDMDL
MODEL 7
REMARK VINA RESULT:      -3.9     10.810     11.902
REMARK  4 active torsions:
REMARK  status: ('A' for Active; 'I' for Inactive)
REMARK    1  A    between atoms: C5_5  and  C6_6 
REMARK    2  A    between atoms: C5_5  and  C7_7 
REMARK    3  A    between atoms: C6_6  and  C8_8 
REMARK    4  A    between atoms: C7_7  and  C9_9 
ROOT
HETATM    1  C5  UNL     1     -33.643  16.063  -2.622  1.00 20.00     0.002 C 
ENDROOT
BRANCH   1   2
HETATM    2  C6  UNL     1     -34.229  16.204  -4.034  1.00 20.00     0.020 C 
BRANCH   2   3
HETATM    3  C8  UNL     1     -34.613  14.886  -4.722  1.00 20.00     0.078 C 
HETATM    4  C1  UNL     1     -33.889  13.668  -4.162  1.00 20.00     0.026 C 
HETATM    5 CL10 UNL     1     -34.332  14.989  -6.487  1.00 20.00    -0.125 Cl
ENDBRANCH   2   3
ENDBRANCH   1   2
BRANCH   1   6
HETATM    6  C7  UNL     1     -34.727  16.280  -1.556  1.00 20.00     0.008 C 
BRANCH   6   7
HETATM    7  C9  UNL     1     -34.609  17.589  -0.730  1.00 20.00    -0.051 C 
HETATM    8  C2  UNL     1     -35.091  17.381   0.715  1.00 20.00     0.014 C 
HETATM    9  C3  UNL     1     -33.161  18.108  -0.711  1.00 20.00     0.014 C 
HETATM   10  C4  UNL     1     -35.500  18.657  -1.393  1.00 20.00     0.014 C 
ENDBRANCH   6   7
ENDBRANCH   1   6
TORSDOF 4
ENDMDL
MODEL 8
REMARK VINA RESULT:      -3.9      2.129      4.853
REMARK  4 active torsions:
REMARK  status: ('A' for Active; 'I' for Inactive)
REMARK    1  A    between atoms: C5_5  and  C6_6 
REMARK    2  A    between atoms: C5_5  and  C7_7 
REMARK    3  A    between atoms: C6_6  and  C8_8 
REMARK    4  A    between atoms: C7_7  and  C9_9 
ROOT
HETATM    1  C5  UNL     1     -34.461   5.737   3.089  1.00 20.00     0.002 C 
ENDROOT
BRANCH   1   2
HETATM    2  C6  UNL     1     -35.291   5.339   4.318  1.00 20.00     0.020 C 
BRANCH   2   3
HETATM    3  C8  UNL     1     -34.482   5.036   5.588  1.00 20.00     0.078 C 
HETATM    4  C1  UNL     1     -35.163   4.048   6.527  1.00 20.00     0.026 C 
HETATM    5 CL10 UNL     1     -34.109   6.545   6.476  1.00 20.00    -0.125 Cl
ENDBRANCH   2   3
ENDBRANCH   1   2
BRANCH   1   6
HETATM    6  C7  UNL     1     -33.810   7.112   3.291  1.00 20.00     0.008 C 
BRANCH   6   7
HETATM    7  C9  UNL     1     -32.281   7.181   3.030  1.00 20.00    -0.051 C 
HETATM    8  C2  UNL     1     -31.968   8.011   1.774  1.00 20.00     0.014 C 
HETATM    9  C3  UNL     1     -31.537   7.783   4.233  1.00 20.00     0.014 C 
HETATM   10  C4  UNL     1     -31.768   5.745   2.807  1.00 20.00     0.014 C 
ENDBRANCH   6   7
ENDBRANCH   1   6
TORSDOF 4
ENDMDL
MODEL 9
REMARK VINA RESULT:      -3.8     10.914     12.667
REMARK  4 active torsions:
REMARK  status: ('A' for Active; 'I' for Inactive)
REMARK    1  A    between atoms: C5_5  and  C6_6 
REMARK    2  A    between atoms: C5_5  and  C7_7 
REMARK    3  A    between atoms: C6_6  and  C8_8 
REMARK    4  A    between atoms: C7_7  and  C9_9 
ROOT
HETATM    1  C5  UNL     1     -35.091  14.193  -3.960  1.00 20.00     0.002 C 
ENDROOT
BRANCH   1   2
HETATM    2  C6  UNL     1     -34.318  15.179  -3.073  1.00 20.00     0.020 C 
BRANCH   2   3
HETATM    3  C8  UNL     1     -35.169  16.271  -2.406  1.00 20.00     0.078 C 
HETATM    4  C1  UNL     1     -35.145  17.603  -3.146  1.00 20.00     0.026 C 
HETATM    5 CL10 UNL     1     -34.661  16.521  -0.709  1.00 20.00    -0.125 Cl
ENDBRANCH   2   3
ENDBRANCH   1   2
BRANCH   1   6
HETATM    6  C7  UNL     1     -34.540  14.200  -5.392  1.00 20.00     0.008 C 
BRANCH   6   7
HETATM    7  C9  UNL     1     -35.247  15.163  -6.384  1.00 20.00    -0.051 C 
HETATM    8  C2  UNL     1     -36.642  15.562  -5.872  1.00 20.00     0.014 C 
HETATM    9  C3  UNL     1     -34.412  16.433  -6.620  1.00 20.00     0.014 C 
HETATM   10  C4  UNL     1     -35.412  14.430  -7.729  1.00 20.00     0.014 C 
ENDBRANCH   6   7
ENDBRANCH   1   6
TORSDOF 4
ENDMDL
