MODEL 1
REMARK VINA RESULT:      -5.7      0.000      0.000
REMARK  1 active torsions:
REMARK  status: ('A' for Active; 'I' for Inactive)
REMARK    1  A    between atoms: C6_6  and  C8_8 
ROOT
HETATM    1  C1  UNL     1     -32.077   8.631   1.747  1.00 20.00     0.012 C 
HETATM    2  C2  UNL     1     -32.163   7.653   2.439  1.00 20.00    -0.117 C 
HETATM    3  C8  UNL     1     -32.260   6.458   3.284  1.00 20.00     0.098 C 
ENDROOT
BRANCH   3   4
HETATM    4  C6  UNL     1     -33.634   6.352   3.933  1.00 20.00     0.011 C 
HETATM    5  C4  UNL     1     -34.575   5.430   3.158  1.00 20.00     0.007 C 
HETATM    6  C3  UNL     1     -35.614   5.053   4.202  1.00 20.00     0.002 C 
HETATM    7  C5  UNL     1     -34.778   4.790   5.448  1.00 20.00     0.016 C 
HETATM    8  C7  UNL     1     -33.585   5.742   5.341  1.00 20.00     0.062 C 
HETATM    9 BR9  UNL     1     -33.716   7.149   6.687  1.00 20.00    -0.091 Br
ENDBRANCH   3   4
TORSDOF 1
ENDMDL
MODEL 2
REMARK VINA RESULT:      -4.3     11.339     12.468
REMARK  1 active torsions:
REMARK  status: ('A' for Active; 'I' for Inactive)
REMARK    1  A    between atoms: C6_6  and  C8_8 
ROOT
HETATM    1  C1  UNL     1     -33.393  17.818  -0.922  1.00 20.00     0.012 C 
HETATM    2  C2  UNL     1     -34.049  16.934  -1.400  1.00 20.00    -0.117 C 
HETATM    3  C8  UNL     1     -34.857  15.855  -1.980  1.00 20.00     0.098 C 
ENDROOT
BRANCH   3   4
HETATM    4  C6  UNL     1     -34.229  15.325  -3.262  1.00 20.00     0.011 C 
HETATM    5  C4  UNL     1     -34.494  13.834  -3.468  1.00 20.00     0.007 C 
HETATM    6  C3  UNL     1     -34.282  13.655  -4.963  1.00 20.00     0.002 C 
HETATM    7  C5  UNL     1     -34.973  14.874  -5.562  1.00 20.00     0.016 C 
HETATM    8  C7  UNL     1     -34.799  15.986  -4.525  1.00 20.00     0.062 C 
HETATM    9 BR9  UNL     1     -33.564  17.345  -5.188  1.00 20.00    -0.091 Br
ENDBRANCH   3   4
TORSDOF 1
ENDMDL
MODEL 3
REMARK VINA RESULT:      -4.3     11.576     12.344
REMARK  1 active torsions:
REMARK  status: ('A' for Active; 'I' for Inactive)
REMARK    1  A    between atoms: C6_6  and  C8_8 
ROOT
HETATM    1  C1  UNL     1     -34.624  16.547  -0.842  1.00 20.00     0.012 C 
HETATM    2  C2  UNL     1     -34.188  16.676  -1.954  1.00 20.00    -0.117 C 
HETATM    3  C8  UNL     1     -33.652  16.839  -3.309  1.00 20.00     0.098 C 
ENDROOT
BRANCH   3   4
HETATM    4  C6  UNL     1     -34.047  15.671  -4.203  1.00 20.00     0.011 C 
HETATM    5  C4  UNL     1     -33.472  14.342  -3.714  1.00 20.00     0.007 C 
HETATM    6  C3  UNL     1     -34.382  13.317  -4.371  1.00 20.00     0.002 C 
HETATM    7  C5  UNL     1     -35.771  13.918  -4.195  1.00 20.00     0.016 C 
HETATM    8  C7  UNL     1     -35.563  15.433  -4.242  1.00 20.00     0.062 C 
HETATM    9 BR9  UNL     1     -36.316  16.170  -5.885  1.00 20.00    -0.091 Br
ENDBRANCH   3   4
TORSDOF 1
ENDMDL
MODEL 4
REMARK VINA RESULT:      -4.2     11.126     12.598
REMARK  1 active torsions:
REMARK  status: ('A' for Active; 'I' for Inactive)
REMARK    1  A    between atoms: C6_6  and  C8_8 
ROOT
HETATM    1  C1  UNL     1     -35.162  13.114  -4.570  1.00 20.00     0.012 C 
HETATM    2  C2  UNL     1     -34.197  13.683  -4.138  1.00 20.00    -0.117 C 
HETATM    3  C8  UNL     1     -33.013  14.372  -3.612  1.00 20.00     0.098 C 
ENDROOT
BRANCH   3   4
HETATM    4  C6  UNL     1     -33.233  15.878  -3.553  1.00 20.00     0.011 C 
HETATM    5  C4  UNL     1     -33.214  16.525  -4.937  1.00 20.00     0.007 C 
HETATM    6  C3  UNL     1     -33.956  17.832  -4.711  1.00 20.00     0.002 C 
HETATM    7  C5  UNL     1     -35.127  17.420  -3.827  1.00 20.00     0.016 C 
HETATM    8  C7  UNL     1     -34.603  16.261  -2.977  1.00 20.00     0.062 C 
HETATM    9 BR9  UNL     1     -34.417  16.816  -1.114  1.00 20.00    -0.091 Br
ENDBRANCH   3   4
TORSDOF 1
ENDMDL
MODEL 5
REMARK VINA RESULT:      -4.2     11.620     12.799
REMARK  1 active torsions:
REMARK  status: ('A' for Active; 'I' for Inactive)
REMARK    1  A    between atoms: C6_6  and  C8_8 
ROOT
HETATM    1  C1  UNL     1     -33.038  18.290  -0.553  1.00 20.00     0.012 C 
HETATM    2  C2  UNL     1     -33.803  17.424  -0.879  1.00 20.00    -0.117 C 
HETATM    3  C8  UNL     1     -34.741  16.366  -1.271  1.00 20.00     0.098 C 
ENDROOT
BRANCH   3   4
HETATM    4  C6  UNL     1     -34.805  16.219  -2.785  1.00 20.00     0.011 C 
HETATM    5  C4  UNL     1     -35.047  17.553  -3.491  1.00 20.00     0.007 C 
HETATM    6  C3  UNL     1     -34.549  17.284  -4.902  1.00 20.00     0.002 C 
HETATM    7  C5  UNL     1     -33.259  16.505  -4.675  1.00 20.00     0.016 C 
HETATM    8  C7  UNL     1     -33.492  15.705  -3.393  1.00 20.00     0.062 C 
HETATM    9 BR9  UNL     1     -33.640  13.801  -3.799  1.00 20.00    -0.091 Br
ENDBRANCH   3   4
TORSDOF 1
ENDMDL
MODEL 6
REMARK VINA RESULT:      -4.2     11.837     12.871
REMARK  1 active torsions:
REMARK  status: ('A' for Active; 'I' for Inactive)
REMARK    1  A    between atoms: C6_6  and  C8_8 
ROOT
HETATM    1  C1  UNL     1     -34.767  16.680  -0.894  1.00 20.00     0.012 C 
HETATM    2  C2  UNL     1     -34.177  16.312  -1.874  1.00 20.00    -0.117 C 
HETATM    3  C8  UNL     1     -33.451  15.859  -3.065  1.00 20.00     0.098 C 
ENDROOT
BRANCH   3   4
HETATM    4  C6  UNL     1     -34.324  15.949  -4.310  1.00 20.00     0.011 C 
HETATM    5  C4  UNL     1     -33.522  16.310  -5.560  1.00 20.00     0.007 C 
HETATM    6  C3  UNL     1     -34.419  15.828  -6.689  1.00 20.00     0.002 C 
HETATM    7  C5  UNL     1     -34.915  14.477  -6.188  1.00 20.00     0.016 C 
HETATM    8  C7  UNL     1     -34.997  14.616  -4.667  1.00 20.00     0.062 C 
HETATM    9 BR9  UNL     1     -36.861  14.629  -4.086  1.00 20.00    -0.091 Br
ENDBRANCH   3   4
TORSDOF 1
ENDMDL
MODEL 7
REMARK VINA RESULT:      -4.2     10.966     12.190
REMARK  1 active torsions:
REMARK  status: ('A' for Active; 'I' for Inactive)
REMARK    1  A    between atoms: C6_6  and  C8_8 
ROOT
HETATM    1  C1  UNL     1     -36.629  15.511  -6.599  1.00 20.00     0.012 C 
HETATM    2  C2  UNL     1     -36.744  15.201  -5.444  1.00 20.00    -0.117 C 
HETATM    3  C8  UNL     1     -36.891  14.823  -4.035  1.00 20.00     0.098 C 
ENDROOT
BRANCH   3   4
HETATM    4  C6  UNL     1     -35.541  14.515  -3.402  1.00 20.00     0.011 C 
HETATM    5  C4  UNL     1     -34.732  13.504  -4.214  1.00 20.00     0.007 C 
HETATM    6  C3  UNL     1     -33.308  13.753  -3.745  1.00 20.00     0.002 C 
HETATM    7  C5  UNL     1     -33.219  15.273  -3.688  1.00 20.00     0.016 C 
HETATM    8  C7  UNL     1     -34.626  15.745  -3.316  1.00 20.00     0.062 C 
HETATM    9 BR9  UNL     1     -34.641  16.468  -1.503  1.00 20.00    -0.091 Br
ENDBRANCH   3   4
TORSDOF 1
ENDMDL
MODEL 8
REMARK VINA RESULT:      -4.1      9.783     10.774
REMARK  1 active torsions:
REMARK  status: ('A' for Active; 'I' for Inactive)
REMARK    1  A    between atoms: C6_6  and  C8_8 
ROOT
HETATM    1  C1  UNL     1     -42.180   8.701  -4.767  1.00 20.00     0.012 C 
HETATM    2  C2  UNL     1     -42.587   7.896  -3.973  1.00 20.00    -0.117 C 
HETATM    3  C8  UNL     1     -43.091   6.914  -3.007  1.00 20.00     0.098 C 
ENDROOT
BRANCH   3   4
HETATM    4  C6  UNL     1     -41.948   6.227  -2.273  1.00 20.00     0.011 C 
HETATM    5  C4  UNL     1     -41.355   7.101  -1.168  1.00 20.00     0.007 C 
HETATM    6  C3  UNL     1     -40.667   6.088  -0.267  1.00 20.00     0.002 C 
HETATM    7  C5  UNL     1     -41.674   4.947  -0.192  1.00 20.00     0.016 C 
HETATM    8  C7  UNL     1     -42.386   4.948  -1.546  1.00 20.00     0.062 C 
HETATM    9 BR9  UNL     1     -41.873   3.376  -2.583  1.00 20.00    -0.091 Br
ENDBRANCH   3   4
TORSDOF 1
ENDMDL
MODEL 9
REMARK VINA RESULT:      -4.0     11.500     12.449
REMARK  1 active torsions:
REMARK  status: ('A' for Active; 'I' for Inactive)
REMARK    1  A    between atoms: C6_6  and  C8_8 
ROOT
HETATM    1  C1  UNL     1     -34.422  15.154  -7.118  1.00 20.00     0.012 C 
HETATM    2  C2  UNL     1     -34.630  14.409  -6.200  1.00 20.00    -0.117 C 
HETATM    3  C8  UNL     1     -34.881  13.492  -5.082  1.00 20.00     0.098 C 
ENDROOT
BRANCH   3   4
HETATM    4  C6  UNL     1     -35.364  14.245  -3.849  1.00 20.00     0.011 C 
HETATM    5  C4  UNL     1     -34.216  14.895  -3.076  1.00 20.00     0.007 C 
HETATM    6  C3  UNL     1     -34.919  15.977  -2.273  1.00 20.00     0.002 C 
HETATM    7  C5  UNL     1     -35.900  16.574  -3.274  1.00 20.00     0.016 C 
HETATM    8  C7  UNL     1     -36.298  15.415  -4.189  1.00 20.00     0.062 C 
HETATM    9 BR9  UNL     1     -38.155  14.906  -3.871  1.00 20.00    -0.091 Br
ENDBRANCH   3   4
TORSDOF 1
ENDMDL
