MODEL 1
REMARK VINA RESULT:      -4.8      0.000      0.000
REMARK  3 active torsions:
REMARK  status: ('A' for Active; 'I' for Inactive)
REMARK    1  A    between atoms: C4_4  and  C5_5 
REMARK    2  A    between atoms: C5_5  and  C6_6 
REMARK    3  A    between atoms: C6_6  and  C7_7 
ROOT
HETATM    1  C2  UNL     1     -34.610   5.363   2.853  1.00 20.00     0.011 C 
HETATM    2  C6  UNL     1     -33.747   5.575   4.105  1.00 20.00    -0.001 C 
ENDROOT
BRANCH   2   3
HETATM    3  C5  UNL     1     -32.812   6.798   3.954  1.00 20.00     0.005 C 
BRANCH   3   4
HETATM    4  C4  UNL     1     -32.100   6.930   2.603  1.00 20.00    -0.004 C 
HETATM    5  C1  UNL     1     -32.113   8.343   2.040  1.00 20.00     0.005 C 
ENDBRANCH   3   4
ENDBRANCH   2   3
BRANCH   2   6
HETATM    6  C7  UNL     1     -34.632   5.637   5.380  1.00 20.00     0.082 C 
HETATM    7  C3  UNL     1     -34.890   4.270   6.006  1.00 20.00     0.027 C 
HETATM    8 CL8  UNL     1     -33.952   6.730   6.628  1.00 20.00    -0.125 Cl
ENDBRANCH   2   6
TORSDOF 3
ENDMDL
MODEL 2
REMARK VINA RESULT:      -4.4      1.720      2.044
REMARK  3 active torsions:
REMARK  status: ('A' for Active; 'I' for Inactive)
REMARK    1  A    between atoms: C4_4  and  C5_5 
REMARK    2  A    between atoms: C5_5  and  C6_6 
REMARK    3  A    between atoms: C6_6  and  C7_7 
ROOT
HETATM    1  C2  UNL     1     -33.637   6.520   5.857  1.00 20.00     0.011 C 
HETATM    2  C6  UNL     1     -33.860   6.353   4.348  1.00 20.00    -0.001 C 
ENDROOT
BRANCH   2   3
HETATM    3  C5  UNL     1     -32.522   6.218   3.584  1.00 20.00     0.005 C 
BRANCH   3   4
HETATM    4  C4  UNL     1     -31.753   7.524   3.350  1.00 20.00    -0.004 C 
HETATM    5  C1  UNL     1     -32.089   8.204   2.033  1.00 20.00     0.005 C 
ENDBRANCH   3   4
ENDBRANCH   2   3
BRANCH   2   6
HETATM    6  C7  UNL     1     -34.846   5.186   4.064  1.00 20.00     0.082 C 
HETATM    7  C3  UNL     1     -35.100   4.298   5.278  1.00 20.00     0.027 C 
HETATM    8 CL8  UNL     1     -36.418   5.764   3.426  1.00 20.00    -0.125 Cl
ENDBRANCH   2   6
TORSDOF 3
ENDMDL
MODEL 3
REMARK VINA RESULT:      -4.3      1.648      2.271
REMARK  3 active torsions:
REMARK  status: ('A' for Active; 'I' for Inactive)
REMARK    1  A    between atoms: C4_4  and  C5_5 
REMARK    2  A    between atoms: C5_5  and  C6_6 
REMARK    3  A    between atoms: C6_6  and  C7_7 
ROOT
HETATM    1  C2  UNL     1     -33.817   6.436   5.944  1.00 20.00     0.011 C 
HETATM    2  C6  UNL     1     -33.852   6.518   4.412  1.00 20.00    -0.001 C 
ENDROOT
BRANCH   2   3
HETATM    3  C5  UNL     1     -32.443   6.340   3.798  1.00 20.00     0.005 C 
BRANCH   3   4
HETATM    4  C4  UNL     1     -31.715   7.634   3.413  1.00 20.00    -0.004 C 
HETATM    5  C1  UNL     1     -32.115   8.178   2.051  1.00 20.00     0.005 C 
ENDBRANCH   3   4
ENDBRANCH   2   3
BRANCH   2   6
HETATM    6  C7  UNL     1     -34.900   5.528   3.832  1.00 20.00     0.082 C 
HETATM    7  C3  UNL     1     -34.555   5.031   2.432  1.00 20.00     0.027 C 
HETATM    8 CL8  UNL     1     -35.165   4.115   4.902  1.00 20.00    -0.125 Cl
ENDBRANCH   2   6
TORSDOF 3
ENDMDL
MODEL 4
REMARK VINA RESULT:      -4.1      1.994      3.881
REMARK  3 active torsions:
REMARK  status: ('A' for Active; 'I' for Inactive)
REMARK    1  A    between atoms: C4_4  and  C5_5 
REMARK    2  A    between atoms: C5_5  and  C6_6 
REMARK    3  A    between atoms: C6_6  and  C7_7 
ROOT
HETATM    1  C2  UNL     1     -34.896   5.712   3.380  1.00 20.00     0.011 C 
HETATM    2  C6  UNL     1     -33.974   6.647   4.175  1.00 20.00    -0.001 C 
ENDROOT
BRANCH   2   3
HETATM    3  C5  UNL     1     -33.991   6.317   5.686  1.00 20.00     0.005 C 
BRANCH   3   4
HETATM    4  C4  UNL     1     -34.970   5.218   6.117  1.00 20.00    -0.004 C 
HETATM    5  C1  UNL     1     -34.395   3.814   6.019  1.00 20.00     0.005 C 
ENDBRANCH   3   4
ENDBRANCH   2   3
BRANCH   2   6
HETATM    6  C7  UNL     1     -32.544   6.656   3.568  1.00 20.00     0.082 C 
HETATM    7  C3  UNL     1     -32.173   5.352   2.871  1.00 20.00     0.027 C 
HETATM    8 CL8  UNL     1     -32.298   8.017   2.427  1.00 20.00    -0.125 Cl
ENDBRANCH   2   6
TORSDOF 3
ENDMDL
MODEL 5
REMARK VINA RESULT:      -4.1      1.464      3.999
REMARK  3 active torsions:
REMARK  status: ('A' for Active; 'I' for Inactive)
REMARK    1  A    between atoms: C4_4  and  C5_5 
REMARK    2  A    between atoms: C5_5  and  C6_6 
REMARK    3  A    between atoms: C6_6  and  C7_7 
ROOT
HETATM    1  C2  UNL     1     -33.993   5.438   2.685  1.00 20.00     0.011 C 
HETATM    2  C6  UNL     1     -33.498   6.599   3.559  1.00 20.00    -0.001 C 
ENDROOT
BRANCH   2   3
HETATM    3  C5  UNL     1     -33.478   6.217   5.057  1.00 20.00     0.005 C 
BRANCH   3   4
HETATM    4  C4  UNL     1     -34.782   5.632   5.614  1.00 20.00    -0.004 C 
HETATM    5  C1  UNL     1     -34.712   4.140   5.896  1.00 20.00     0.005 C 
ENDBRANCH   3   4
ENDBRANCH   2   3
BRANCH   2   6
HETATM    6  C7  UNL     1     -32.131   7.129   3.046  1.00 20.00     0.082 C 
HETATM    7  C3  UNL     1     -32.262   8.188   1.956  1.00 20.00     0.027 C 
HETATM    8 CL8  UNL     1     -31.113   7.779   4.371  1.00 20.00    -0.125 Cl
ENDBRANCH   2   6
TORSDOF 3
ENDMDL
MODEL 6
REMARK VINA RESULT:      -3.8     11.827     12.624
REMARK  3 active torsions:
REMARK  status: ('A' for Active; 'I' for Inactive)
REMARK    1  A    between atoms: C4_4  and  C5_5 
REMARK    2  A    between atoms: C5_5  and  C6_6 
REMARK    3  A    between atoms: C6_6  and  C7_7 
ROOT
HETATM    1  C2  UNL     1     -33.264  16.575  -4.762  1.00 20.00     0.011 C 
HETATM    2  C6  UNL     1     -33.514  15.313  -3.925  1.00 20.00    -0.001 C 
ENDROOT
BRANCH   2   3
HETATM    3  C5  UNL     1     -34.404  15.611  -2.696  1.00 20.00     0.005 C 
BRANCH   3   4
HETATM    4  C4  UNL     1     -33.925  16.747  -1.784  1.00 20.00    -0.004 C 
HETATM    5  C1  UNL     1     -34.690  16.845  -0.474  1.00 20.00     0.005 C 
ENDBRANCH   3   4
ENDBRANCH   2   3
BRANCH   2   6
HETATM    6  C7  UNL     1     -34.065  14.164  -4.814  1.00 20.00     0.082 C 
HETATM    7  C3  UNL     1     -35.275  13.458  -4.211  1.00 20.00     0.027 C 
HETATM    8 CL8  UNL     1     -34.479  14.721  -6.466  1.00 20.00    -0.125 Cl
ENDBRANCH   2   6
TORSDOF 3
ENDMDL
MODEL 7
REMARK VINA RESULT:      -3.7     11.917     13.079
REMARK  3 active torsions:
REMARK  status: ('A' for Active; 'I' for Inactive)
REMARK    1  A    between atoms: C4_4  and  C5_5 
REMARK    2  A    between atoms: C5_5  and  C6_6 
REMARK    3  A    between atoms: C6_6  and  C7_7 
ROOT
HETATM    1  C2  UNL     1     -33.658  17.355  -4.865  1.00 20.00     0.011 C 
HETATM    2  C6  UNL     1     -33.444  15.863  -4.574  1.00 20.00    -0.001 C 
ENDROOT
BRANCH   2   3
HETATM    3  C5  UNL     1     -33.439  15.573  -3.054  1.00 20.00     0.005 C 
BRANCH   3   4
HETATM    4  C4  UNL     1     -34.753  15.859  -2.316  1.00 20.00    -0.004 C 
HETATM    5  C1  UNL     1     -34.569  16.616  -1.011  1.00 20.00     0.005 C 
ENDBRANCH   3   4
ENDBRANCH   2   3
BRANCH   2   6
HETATM    6  C7  UNL     1     -34.469  14.997  -5.357  1.00 20.00     0.082 C 
HETATM    7  C3  UNL     1     -34.316  15.098  -6.871  1.00 20.00     0.027 C 
HETATM    8 CL8  UNL     1     -34.405  13.271  -4.880  1.00 20.00    -0.125 Cl
ENDBRANCH   2   6
TORSDOF 3
ENDMDL
MODEL 8
REMARK VINA RESULT:      -3.7     11.646     12.932
REMARK  3 active torsions:
REMARK  status: ('A' for Active; 'I' for Inactive)
REMARK    1  A    between atoms: C4_4  and  C5_5 
REMARK    2  A    between atoms: C5_5  and  C6_6 
REMARK    3  A    between atoms: C6_6  and  C7_7 
ROOT
HETATM    1  C2  UNL     1     -33.615  13.864  -3.726  1.00 20.00     0.011 C 
HETATM    2  C6  UNL     1     -34.379  15.191  -3.621  1.00 20.00    -0.001 C 
ENDROOT
BRANCH   2   3
HETATM    3  C5  UNL     1     -33.785  16.108  -2.526  1.00 20.00     0.005 C 
BRANCH   3   4
HETATM    4  C4  UNL     1     -34.694  16.386  -1.323  1.00 20.00    -0.004 C 
HETATM    5  C1  UNL     1     -34.163  17.464  -0.392  1.00 20.00     0.005 C 
ENDBRANCH   3   4
ENDBRANCH   2   3
BRANCH   2   6
HETATM    6  C7  UNL     1     -34.475  15.881  -5.010  1.00 20.00     0.082 C 
HETATM    7  C3  UNL     1     -33.386  16.923  -5.246  1.00 20.00     0.027 C 
HETATM    8 CL8  UNL     1     -34.454  14.701  -6.359  1.00 20.00    -0.125 Cl
ENDBRANCH   2   6
TORSDOF 3
ENDMDL
MODEL 9
REMARK VINA RESULT:      -3.7     11.497     12.136
REMARK  3 active torsions:
REMARK  status: ('A' for Active; 'I' for Inactive)
REMARK    1  A    between atoms: C4_4  and  C5_5 
REMARK    2  A    between atoms: C5_5  and  C6_6 
REMARK    3  A    between atoms: C6_6  and  C7_7 
ROOT
HETATM    1  C2  UNL     1     -33.274  13.733  -3.740  1.00 20.00     0.011 C 
HETATM    2  C6  UNL     1     -34.604  14.330  -3.259  1.00 20.00    -0.001 C 
ENDROOT
BRANCH   2   3
HETATM    3  C5  UNL     1     -34.482  15.846  -2.979  1.00 20.00     0.005 C 
BRANCH   3   4
HETATM    4  C4  UNL     1     -34.649  16.270  -1.515  1.00 20.00    -0.004 C 
HETATM    5  C1  UNL     1     -33.728  17.406  -1.099  1.00 20.00     0.005 C 
ENDBRANCH   3   4
ENDBRANCH   2   3
BRANCH   2   6
HETATM    6  C7  UNL     1     -35.752  13.981  -4.246  1.00 20.00     0.082 C 
HETATM    7  C3  UNL     1     -37.059  14.704  -3.935  1.00 20.00     0.027 C 
HETATM    8 CL8  UNL     1     -35.302  14.300  -5.951  1.00 20.00    -0.125 Cl
ENDBRANCH   2   6
TORSDOF 3
ENDMDL
