MODEL 1
REMARK VINA RESULT:      -5.9      0.000      0.000
REMARK  3 active torsions:
REMARK  status: ('A' for Active; 'I' for Inactive)
REMARK    1  A    between atoms: C4_4  and  C7_7 
REMARK    2  A    between atoms: C7_7  and  C9_9 
REMARK    3  A    between atoms: C8_8  and  C9_9 
ROOT
HETATM    1  C1  UNL     1     -35.126   4.297   4.777  1.00 20.00     0.002 C 
HETATM    2  C2  UNL     1     -35.109   5.384   3.698  1.00 20.00     0.006 C 
HETATM    3  C3  UNL     1     -34.501   4.916   6.028  1.00 20.00     0.020 C 
HETATM    4  C4  UNL     1     -34.128   6.450   4.199  1.00 20.00     0.004 C 
HETATM    5  C5  UNL     1     -34.384   6.402   5.710  1.00 20.00     0.086 C 
HETATM    6 CL10 UNL     1     -33.171   7.217   6.709  1.00 20.00    -0.125 Cl
ENDROOT
BRANCH   4   7
HETATM    7  C7  UNL     1     -32.716   6.134   3.775  1.00 20.00     0.006 C 
BRANCH   7   8
HETATM    8  C9  UNL     1     -31.934   7.406   3.442  1.00 20.00     0.000 C 
BRANCH   8   9
HETATM    9  C8  UNL     1     -32.077   7.775   1.966  1.00 20.00    -0.005 C 
HETATM   10  C6  UNL     1     -32.420   9.247   1.791  1.00 20.00     0.005 C 
ENDBRANCH   8   9
ENDBRANCH   7   8
ENDBRANCH   4   7
TORSDOF 3
ENDMDL
MODEL 2
REMARK VINA RESULT:      -4.5     11.428     12.525
REMARK  3 active torsions:
REMARK  status: ('A' for Active; 'I' for Inactive)
REMARK    1  A    between atoms: C4_4  and  C7_7 
REMARK    2  A    between atoms: C7_7  and  C9_9 
REMARK    3  A    between atoms: C8_8  and  C9_9 
ROOT
HETATM    1  C1  UNL     1     -34.404  13.667  -4.921  1.00 20.00     0.002 C 
HETATM    2  C2  UNL     1     -33.482  13.790  -3.705  1.00 20.00     0.006 C 
HETATM    3  C3  UNL     1     -34.416  15.038  -5.600  1.00 20.00     0.020 C 
HETATM    4  C4  UNL     1     -33.306  15.296  -3.469  1.00 20.00     0.004 C 
HETATM    5  C5  UNL     1     -33.308  15.824  -4.909  1.00 20.00     0.086 C 
HETATM    6 CL10 UNL     1     -33.514  17.574  -5.072  1.00 20.00    -0.125 Cl
ENDROOT
BRANCH   4   7
HETATM    7  C7  UNL     1     -34.397  15.839  -2.582  1.00 20.00     0.006 C 
BRANCH   7   8
HETATM    8  C9  UNL     1     -33.847  16.848  -1.573  1.00 20.00     0.000 C 
BRANCH   8   9
HETATM    9  C8  UNL     1     -34.756  16.961  -0.350  1.00 20.00    -0.005 C 
HETATM   10  C6  UNL     1     -34.256  18.019   0.621  1.00 20.00     0.005 C 
ENDBRANCH   8   9
ENDBRANCH   7   8
ENDBRANCH   4   7
TORSDOF 3
ENDMDL
MODEL 3
REMARK VINA RESULT:      -4.4     11.128     12.100
REMARK  3 active torsions:
REMARK  status: ('A' for Active; 'I' for Inactive)
REMARK    1  A    between atoms: C4_4  and  C7_7 
REMARK    2  A    between atoms: C7_7  and  C9_9 
REMARK    3  A    between atoms: C8_8  and  C9_9 
ROOT
HETATM    1  C1  UNL     1     -33.343  13.610  -3.679  1.00 20.00     0.002 C 
HETATM    2  C2  UNL     1     -33.102  15.122  -3.720  1.00 20.00     0.006 C 
HETATM    3  C3  UNL     1     -34.778  13.384  -4.160  1.00 20.00     0.020 C 
HETATM    4  C4  UNL     1     -34.493  15.760  -3.827  1.00 20.00     0.004 C 
HETATM    5  C5  UNL     1     -35.223  14.736  -4.704  1.00 20.00     0.086 C 
HETATM    6 CL10 UNL     1     -36.985  14.902  -4.752  1.00 20.00    -0.125 Cl
ENDROOT
BRANCH   4   7
HETATM    7  C7  UNL     1     -35.095  15.986  -2.463  1.00 20.00     0.006 C 
BRANCH   7   8
HETATM    8  C9  UNL     1     -34.112  16.690  -1.527  1.00 20.00     0.000 C 
BRANCH   8   9
HETATM    9  C8  UNL     1     -34.750  16.983  -0.169  1.00 20.00    -0.005 C 
HETATM   10  C6  UNL     1     -34.124  18.202   0.490  1.00 20.00     0.005 C 
ENDBRANCH   8   9
ENDBRANCH   7   8
ENDBRANCH   4   7
TORSDOF 3
ENDMDL
MODEL 4
REMARK VINA RESULT:      -4.2     11.219     12.573
REMARK  3 active torsions:
REMARK  status: ('A' for Active; 'I' for Inactive)
REMARK    1  A    between atoms: C4_4  and  C7_7 
REMARK    2  A    between atoms: C7_7  and  C9_9 
REMARK    3  A    between atoms: C8_8  and  C9_9 
ROOT
HETATM    1  C1  UNL     1     -32.889  14.867  -3.598  1.00 20.00     0.002 C 
HETATM    2  C2  UNL     1     -33.958  13.785  -3.774  1.00 20.00     0.006 C 
HETATM    3  C3  UNL     1     -33.602  16.096  -3.032  1.00 20.00     0.020 C 
HETATM    4  C4  UNL     1     -35.304  14.516  -3.699  1.00 20.00     0.004 C 
HETATM    5  C5  UNL     1     -34.994  15.601  -2.660  1.00 20.00     0.086 C 
HETATM    6 CL10 UNL     1     -36.178  16.914  -2.562  1.00 20.00    -0.125 Cl
ENDROOT
BRANCH   4   7
HETATM    7  C7  UNL     1     -35.725  15.023  -5.055  1.00 20.00     0.006 C 
BRANCH   7   8
HETATM    8  C9  UNL     1     -35.169  14.146  -6.177  1.00 20.00     0.000 C 
BRANCH   8   9
HETATM    9  C8  UNL     1     -34.449  14.985  -7.232  1.00 20.00    -0.005 C 
HETATM   10  C6  UNL     1     -34.299  16.432  -6.786  1.00 20.00     0.005 C 
ENDBRANCH   8   9
ENDBRANCH   7   8
ENDBRANCH   4   7
TORSDOF 3
ENDMDL
MODEL 5
REMARK VINA RESULT:      -4.2     11.498     12.684
REMARK  3 active torsions:
REMARK  status: ('A' for Active; 'I' for Inactive)
REMARK    1  A    between atoms: C4_4  and  C7_7 
REMARK    2  A    between atoms: C7_7  and  C9_9 
REMARK    3  A    between atoms: C8_8  and  C9_9 
ROOT
HETATM    1  C1  UNL     1     -33.834  17.604  -1.164  1.00 20.00     0.002 C 
HETATM    2  C2  UNL     1     -34.590  16.289  -1.369  1.00 20.00     0.006 C 
HETATM    3  C3  UNL     1     -33.722  18.262  -2.540  1.00 20.00     0.020 C 
HETATM    4  C4  UNL     1     -34.543  16.015  -2.878  1.00 20.00     0.004 C 
HETATM    5  C5  UNL     1     -34.635  17.438  -3.441  1.00 20.00     0.086 C 
HETATM    6 CL10 UNL     1     -34.225  17.601  -5.155  1.00 20.00    -0.125 Cl
ENDROOT
BRANCH   4   7
HETATM    7  C7  UNL     1     -33.298  15.252  -3.254  1.00 20.00     0.006 C 
BRANCH   7   8
HETATM    8  C9  UNL     1     -33.632  13.843  -3.745  1.00 20.00     0.000 C 
BRANCH   8   9
HETATM    9  C8  UNL     1     -35.045  13.778  -4.325  1.00 20.00    -0.005 C 
HETATM   10  C6  UNL     1     -35.040  13.992  -5.830  1.00 20.00     0.005 C 
ENDBRANCH   8   9
ENDBRANCH   7   8
ENDBRANCH   4   7
TORSDOF 3
ENDMDL
MODEL 6
REMARK VINA RESULT:      -4.2     11.199     12.588
REMARK  3 active torsions:
REMARK  status: ('A' for Active; 'I' for Inactive)
REMARK    1  A    between atoms: C4_4  and  C7_7 
REMARK    2  A    between atoms: C7_7  and  C9_9 
REMARK    3  A    between atoms: C8_8  and  C9_9 
ROOT
HETATM    1  C1  UNL     1     -34.418  17.469  -4.614  1.00 20.00     0.002 C 
HETATM    2  C2  UNL     1     -33.254  16.484  -4.478  1.00 20.00     0.006 C 
HETATM    3  C3  UNL     1     -34.980  17.677  -3.206  1.00 20.00     0.020 C 
HETATM    4  C4  UNL     1     -33.418  15.837  -3.097  1.00 20.00     0.004 C 
HETATM    5  C5  UNL     1     -33.966  17.014  -2.281  1.00 20.00     0.086 C 
HETATM    6 CL10 UNL     1     -34.659  16.587  -0.709  1.00 20.00    -0.125 Cl
ENDROOT
BRANCH   4   7
HETATM    7  C7  UNL     1     -34.314  14.627  -3.165  1.00 20.00     0.006 C 
BRANCH   7   8
HETATM    8  C9  UNL     1     -33.905  13.690  -4.302  1.00 20.00     0.000 C 
BRANCH   8   9
HETATM    9  C8  UNL     1     -35.100  13.333  -5.184  1.00 20.00    -0.005 C 
HETATM   10  C6  UNL     1     -35.149  14.200  -6.433  1.00 20.00     0.005 C 
ENDBRANCH   8   9
ENDBRANCH   7   8
ENDBRANCH   4   7
TORSDOF 3
ENDMDL
MODEL 7
REMARK VINA RESULT:      -4.2     11.781     12.744
REMARK  3 active torsions:
REMARK  status: ('A' for Active; 'I' for Inactive)
REMARK    1  A    between atoms: C4_4  and  C7_7 
REMARK    2  A    between atoms: C7_7  and  C9_9 
REMARK    3  A    between atoms: C8_8  and  C9_9 
ROOT
HETATM    1  C1  UNL     1     -36.598  14.408  -4.173  1.00 20.00     0.002 C 
HETATM    2  C2  UNL     1     -35.237  13.738  -3.966  1.00 20.00     0.006 C 
HETATM    3  C3  UNL     1     -36.584  14.997  -5.584  1.00 20.00     0.020 C 
HETATM    4  C4  UNL     1     -34.331  14.291  -5.074  1.00 20.00     0.004 C 
HETATM    5  C5  UNL     1     -35.327  14.428  -6.231  1.00 20.00     0.086 C 
HETATM    6 CL10 UNL     1     -34.767  15.401  -7.599  1.00 20.00    -0.125 Cl
ENDROOT
BRANCH   4   7
HETATM    7  C7  UNL     1     -33.664  15.572  -4.642  1.00 20.00     0.006 C 
BRANCH   7   8
HETATM    8  C9  UNL     1     -33.256  15.522  -3.169  1.00 20.00     0.000 C 
BRANCH   8   9
HETATM    9  C8  UNL     1     -33.734  16.764  -2.419  1.00 20.00    -0.005 C 
HETATM   10  C6  UNL     1     -34.681  16.400  -1.286  1.00 20.00     0.005 C 
ENDBRANCH   8   9
ENDBRANCH   7   8
ENDBRANCH   4   7
TORSDOF 3
ENDMDL
MODEL 8
REMARK VINA RESULT:      -4.1      9.663     11.249
REMARK  3 active torsions:
REMARK  status: ('A' for Active; 'I' for Inactive)
REMARK    1  A    between atoms: C4_4  and  C7_7 
REMARK    2  A    between atoms: C7_7  and  C9_9 
REMARK    3  A    between atoms: C8_8  and  C9_9 
ROOT
HETATM    1  C1  UNL     1     -40.721   6.032  -0.018  1.00 20.00     0.002 C 
HETATM    2  C2  UNL     1     -41.576   4.767   0.092  1.00 20.00     0.006 C 
HETATM    3  C3  UNL     1     -41.208   6.781  -1.260  1.00 20.00     0.020 C 
HETATM    4  C4  UNL     1     -42.246   4.599  -1.278  1.00 20.00     0.004 C 
HETATM    5  C5  UNL     1     -42.487   6.062  -1.671  1.00 20.00     0.086 C 
HETATM    6 CL10 UNL     1     -42.899   6.329  -3.372  1.00 20.00    -0.125 Cl
ENDROOT
BRANCH   4   7
HETATM    7  C7  UNL     1     -41.369   3.814  -2.221  1.00 20.00     0.006 C 
BRANCH   7   8
HETATM    8  C9  UNL     1     -42.177   2.783  -3.009  1.00 20.00     0.000 C 
BRANCH   8   9
HETATM    9  C8  UNL     1     -41.265   1.878  -3.836  1.00 20.00    -0.005 C 
HETATM   10  C6  UNL     1     -41.798   0.454  -3.895  1.00 20.00     0.005 C 
ENDBRANCH   8   9
ENDBRANCH   7   8
ENDBRANCH   4   7
TORSDOF 3
ENDMDL
MODEL 9
REMARK VINA RESULT:      -4.1     11.663     13.233
REMARK  3 active torsions:
REMARK  status: ('A' for Active; 'I' for Inactive)
REMARK    1  A    between atoms: C4_4  and  C7_7 
REMARK    2  A    between atoms: C7_7  and  C9_9 
REMARK    3  A    between atoms: C8_8  and  C9_9 
ROOT
HETATM    1  C1  UNL     1     -34.653  16.312  -7.183  1.00 20.00     0.002 C 
HETATM    2  C2  UNL     1     -35.060  16.933  -5.845  1.00 20.00     0.006 C 
HETATM    3  C3  UNL     1     -34.551  14.803  -6.951  1.00 20.00     0.020 C 
HETATM    4  C4  UNL     1     -34.792  15.854  -4.788  1.00 20.00     0.004 C 
HETATM    5  C5  UNL     1     -35.149  14.582  -5.566  1.00 20.00     0.086 C 
HETATM    6 CL10 UNL     1     -34.609  13.067  -4.828  1.00 20.00    -0.125 Cl
ENDROOT
BRANCH   4   7
HETATM    7  C7  UNL     1     -33.372  15.924  -4.286  1.00 20.00     0.006 C 
BRANCH   7   8
HETATM    8  C9  UNL     1     -33.324  16.188  -2.780  1.00 20.00     0.000 C 
BRANCH   8   9
HETATM    9  C8  UNL     1     -34.720  16.133  -2.162  1.00 20.00    -0.005 C 
HETATM   10  C6  UNL     1     -34.715  16.637  -0.728  1.00 20.00     0.005 C 
ENDBRANCH   8   9
ENDBRANCH   7   8
ENDBRANCH   4   7
TORSDOF 3
ENDMDL
