MODEL 1
REMARK VINA RESULT:      -5.0      0.000      0.000
REMARK  3 active torsions:
REMARK  status: ('A' for Active; 'I' for Inactive)
REMARK    1  A    between atoms: C4_4  and  C10_10 
REMARK    2  A    between atoms: C5_5  and  C11_11 
REMARK    3  A    between atoms: C6_6  and  C12_12 
ROOT
HETATM    1  C7  UNL     1     -33.767  17.898  -2.565  1.00 20.00     0.009 C 
HETATM    2  C8  UNL     1     -33.661  17.772  -4.081  1.00 20.00     0.010 C 
HETATM    3  C9  UNL     1     -34.975  15.643  -2.755  1.00 20.00     0.017 C 
HETATM    4  C10 UNL     1     -34.879  16.990  -2.011  1.00 20.00     0.008 C 
HETATM    5  C11 UNL     1     -33.287  16.341  -4.533  1.00 20.00     0.015 C 
HETATM    6  C12 UNL     1     -33.655  15.281  -3.454  1.00 20.00     0.015 C 
ENDROOT
BRANCH   4   7
HETATM    7  C4  UNL     1     -34.693  16.784  -0.538  1.00 20.00    -0.032 C 
HETATM    8  C1  UNL     1     -34.385  17.762   0.322  1.00 20.00     0.007 C 
ENDBRANCH   4   7
BRANCH   6   9
HETATM    9  C6  UNL     1     -33.666  13.867  -3.955  1.00 20.00    -0.031 C 
HETATM   10  C3  UNL     1     -34.778  13.170  -4.203  1.00 20.00     0.007 C 
ENDBRANCH   6   9
BRANCH   5  11
HETATM   11  C5  UNL     1     -33.874  16.098  -5.899  1.00 20.00    -0.031 C 
HETATM   12  C2  UNL     1     -34.968  16.711  -6.363  1.00 20.00     0.007 C 
ENDBRANCH   5  11
TORSDOF 3
ENDMDL
MODEL 2
REMARK VINA RESULT:      -4.8      1.518      4.812
REMARK  3 active torsions:
REMARK  status: ('A' for Active; 'I' for Inactive)
REMARK    1  A    between atoms: C4_4  and  C10_10 
REMARK    2  A    between atoms: C5_5  and  C11_11 
REMARK    3  A    between atoms: C6_6  and  C12_12 
ROOT
HETATM    1  C7  UNL     1     -34.398  13.728  -4.845  1.00 20.00     0.009 C 
HETATM    2  C8  UNL     1     -34.005  14.295  -3.484  1.00 20.00     0.010 C 
HETATM    3  C9  UNL     1     -35.238  16.115  -5.269  1.00 20.00     0.017 C 
HETATM    4  C10 UNL     1     -35.459  14.610  -5.526  1.00 20.00     0.008 C 
HETATM    5  C11 UNL     1     -33.368  15.700  -3.587  1.00 20.00     0.015 C 
HETATM    6  C12 UNL     1     -33.778  16.423  -4.903  1.00 20.00     0.015 C 
ENDROOT
BRANCH   4   7
HETATM    7  C4  UNL     1     -35.514  14.313  -6.994  1.00 20.00    -0.032 C 
HETATM    8  C1  UNL     1     -34.805  14.971  -7.918  1.00 20.00     0.007 C 
ENDBRANCH   4   7
BRANCH   6   9
HETATM    9  C6  UNL     1     -33.508  17.899  -4.907  1.00 20.00    -0.031 C 
HETATM   10  C3  UNL     1     -33.627  18.678  -5.986  1.00 20.00     0.007 C 
ENDBRANCH   6   9
BRANCH   5  11
HETATM   11  C5  UNL     1     -33.663  16.457  -2.319  1.00 20.00    -0.031 C 
HETATM   12  C2  UNL     1     -34.747  16.257  -1.562  1.00 20.00     0.007 C 
ENDBRANCH   5  11
TORSDOF 3
ENDMDL
MODEL 3
REMARK VINA RESULT:      -4.6      1.438      3.144
REMARK  3 active torsions:
REMARK  status: ('A' for Active; 'I' for Inactive)
REMARK    1  A    between atoms: C4_4  and  C10_10 
REMARK    2  A    between atoms: C5_5  and  C11_11 
REMARK    3  A    between atoms: C6_6  and  C12_12 
ROOT
HETATM    1  C7  UNL     1     -34.618  14.816  -3.074  1.00 20.00     0.009 C 
HETATM    2  C8  UNL     1     -34.755  14.214  -4.469  1.00 20.00     0.010 C 
HETATM    3  C9  UNL     1     -33.503  16.750  -4.338  1.00 20.00     0.017 C 
HETATM    4  C10 UNL     1     -33.533  15.907  -3.047  1.00 20.00     0.008 C 
HETATM    5  C11 UNL     1     -35.193  15.255  -5.525  1.00 20.00     0.015 C 
HETATM    6  C12 UNL     1     -34.848  16.706  -5.080  1.00 20.00     0.015 C 
ENDROOT
BRANCH   4   7
HETATM    7  C4  UNL     1     -33.701  16.775  -1.836  1.00 20.00    -0.032 C 
HETATM    8  C1  UNL     1     -34.672  16.615  -0.930  1.00 20.00     0.007 C 
ENDBRANCH   4   7
BRANCH   6   9
HETATM    9  C6  UNL     1     -34.901  17.720  -6.184  1.00 20.00    -0.031 C 
HETATM   10  C3  UNL     1     -33.883  18.519  -6.517  1.00 20.00     0.007 C 
ENDBRANCH   6   9
BRANCH   5  11
HETATM   11  C5  UNL     1     -34.639  14.845  -6.864  1.00 20.00    -0.031 C 
HETATM   12  C2  UNL     1     -35.395  14.516  -7.917  1.00 20.00     0.007 C 
ENDBRANCH   5  11
TORSDOF 3
ENDMDL
MODEL 4
REMARK VINA RESULT:      -4.6      1.903      2.630
REMARK  3 active torsions:
REMARK  status: ('A' for Active; 'I' for Inactive)
REMARK    1  A    between atoms: C4_4  and  C10_10 
REMARK    2  A    between atoms: C5_5  and  C11_11 
REMARK    3  A    between atoms: C6_6  and  C12_12 
ROOT
HETATM    1  C7  UNL     1     -33.623  15.102  -2.992  1.00 20.00     0.009 C 
HETATM    2  C8  UNL     1     -33.785  14.680  -4.449  1.00 20.00     0.010 C 
HETATM    3  C9  UNL     1     -35.891  16.239  -3.376  1.00 20.00     0.017 C 
HETATM    4  C10 UNL     1     -34.525  16.303  -2.662  1.00 20.00     0.008 C 
HETATM    5  C11 UNL     1     -35.223  14.217  -4.778  1.00 20.00     0.015 C 
HETATM    6  C12 UNL     1     -36.259  14.801  -3.774  1.00 20.00     0.015 C 
ENDROOT
BRANCH   4   7
HETATM    7  C4  UNL     1     -34.695  16.430  -1.177  1.00 20.00    -0.032 C 
HETATM    8  C1  UNL     1     -34.201  17.439  -0.451  1.00 20.00     0.007 C 
ENDBRANCH   4   7
BRANCH   6   9
HETATM    9  C6  UNL     1     -37.685  14.704  -4.231  1.00 20.00    -0.031 C 
HETATM   10  C3  UNL     1     -38.732  15.120  -3.512  1.00 20.00     0.007 C 
ENDBRANCH   6   9
BRANCH   5  11
HETATM   11  C5  UNL     1     -35.503  14.505  -6.230  1.00 20.00    -0.031 C 
HETATM   12  C2  UNL     1     -34.581  14.935  -7.098  1.00 20.00     0.007 C 
ENDBRANCH   5  11
TORSDOF 3
ENDMDL
MODEL 5
REMARK VINA RESULT:      -4.5     11.539     13.749
REMARK  3 active torsions:
REMARK  status: ('A' for Active; 'I' for Inactive)
REMARK    1  A    between atoms: C4_4  and  C10_10 
REMARK    2  A    between atoms: C5_5  and  C11_11 
REMARK    3  A    between atoms: C6_6  and  C12_12 
ROOT
HETATM    1  C7  UNL     1     -40.758   4.673  -1.185  1.00 20.00     0.009 C 
HETATM    2  C8  UNL     1     -41.112   5.996  -0.515  1.00 20.00     0.010 C 
HETATM    3  C9  UNL     1     -42.865   5.148  -2.570  1.00 20.00     0.017 C 
HETATM    4  C10 UNL     1     -41.979   4.075  -1.906  1.00 20.00     0.008 C 
HETATM    5  C11 UNL     1     -41.562   7.074  -1.528  1.00 20.00     0.015 C 
HETATM    6  C12 UNL     1     -42.083   6.440  -2.850  1.00 20.00     0.015 C 
ENDROOT
BRANCH   4   7
HETATM    7  C4  UNL     1     -41.538   3.043  -2.901  1.00 20.00    -0.032 C 
HETATM    8  C1  UNL     1     -42.263   1.970  -3.237  1.00 20.00     0.007 C 
ENDBRANCH   4   7
BRANCH   6   9
HETATM    9  C6  UNL     1     -42.865   7.380  -3.720  1.00 20.00    -0.031 C 
HETATM   10  C3  UNL     1     -42.311   8.325  -4.486  1.00 20.00     0.007 C 
ENDBRANCH   6   9
BRANCH   5  11
HETATM   11  C5  UNL     1     -42.522   8.011  -0.842  1.00 20.00    -0.031 C 
HETATM   12  C2  UNL     1     -43.400   7.630   0.092  1.00 20.00     0.007 C 
ENDBRANCH   5  11
TORSDOF 3
ENDMDL
MODEL 6
REMARK VINA RESULT:      -4.5      1.921      4.687
REMARK  3 active torsions:
REMARK  status: ('A' for Active; 'I' for Inactive)
REMARK    1  A    between atoms: C4_4  and  C10_10 
REMARK    2  A    between atoms: C5_5  and  C11_11 
REMARK    3  A    between atoms: C6_6  and  C12_12 
ROOT
HETATM    1  C7  UNL     1     -33.829  16.162  -6.032  1.00 20.00     0.009 C 
HETATM    2  C8  UNL     1     -33.578  16.320  -4.535  1.00 20.00     0.010 C 
HETATM    3  C9  UNL     1     -35.417  14.296  -5.271  1.00 20.00     0.017 C 
HETATM    4  C10 UNL     1     -34.426  14.781  -6.349  1.00 20.00     0.008 C 
HETATM    5  C11 UNL     1     -34.878  16.232  -3.702  1.00 20.00     0.015 C 
HETATM    6  C12 UNL     1     -35.999  15.466  -4.464  1.00 20.00     0.015 C 
ENDROOT
BRANCH   4   7
HETATM    7  C4  UNL     1     -35.064  14.792  -7.706  1.00 20.00    -0.032 C 
HETATM    8  C1  UNL     1     -36.379  14.922  -7.913  1.00 20.00     0.007 C 
ENDBRANCH   4   7
BRANCH   6   9
HETATM    9  C6  UNL     1     -37.143  15.025  -3.599  1.00 20.00    -0.031 C 
HETATM   10  C3  UNL     1     -38.362  14.731  -4.063  1.00 20.00     0.007 C 
ENDBRANCH   6   9
BRANCH   5  11
HETATM   11  C5  UNL     1     -34.541  15.687  -2.339  1.00 20.00    -0.031 C 
HETATM   12  C2  UNL     1     -34.568  16.413  -1.216  1.00 20.00     0.007 C 
ENDBRANCH   5  11
TORSDOF 3
ENDMDL
MODEL 7
REMARK VINA RESULT:      -4.3      1.131      4.115
REMARK  3 active torsions:
REMARK  status: ('A' for Active; 'I' for Inactive)
REMARK    1  A    between atoms: C4_4  and  C10_10 
REMARK    2  A    between atoms: C5_5  and  C11_11 
REMARK    3  A    between atoms: C6_6  and  C12_12 
ROOT
HETATM    1  C7  UNL     1     -35.407  17.882  -4.856  1.00 20.00     0.009 C 
HETATM    2  C8  UNL     1     -35.273  17.809  -3.338  1.00 20.00     0.010 C 
HETATM    3  C9  UNL     1     -33.678  15.987  -4.805  1.00 20.00     0.017 C 
HETATM    4  C10 UNL     1     -34.195  17.236  -5.549  1.00 20.00     0.008 C 
HETATM    5  C11 UNL     1     -35.227  16.355  -2.814  1.00 20.00     0.015 C 
HETATM    6  C12 UNL     1     -34.764  15.360  -3.919  1.00 20.00     0.015 C 
ENDROOT
BRANCH   4   7
HETATM    7  C4  UNL     1     -34.523  16.919  -6.977  1.00 20.00    -0.032 C 
HETATM    8  C1  UNL     1     -34.633  15.677  -7.462  1.00 20.00     0.007 C 
ENDBRANCH   4   7
BRANCH   6   9
HETATM    9  C6  UNL     1     -34.347  14.015  -3.402  1.00 20.00    -0.031 C 
HETATM   10  C3  UNL     1     -33.186  13.425  -3.705  1.00 20.00     0.007 C 
ENDBRANCH   6   9
BRANCH   5  11
HETATM   11  C5  UNL     1     -34.419  16.325  -1.544  1.00 20.00    -0.031 C 
HETATM   12  C2  UNL     1     -34.775  16.948  -0.415  1.00 20.00     0.007 C 
ENDBRANCH   5  11
TORSDOF 3
ENDMDL
MODEL 8
REMARK VINA RESULT:      -4.3      1.693      4.596
REMARK  3 active torsions:
REMARK  status: ('A' for Active; 'I' for Inactive)
REMARK    1  A    between atoms: C4_4  and  C10_10 
REMARK    2  A    between atoms: C5_5  and  C11_11 
REMARK    3  A    between atoms: C6_6  and  C12_12 
ROOT
HETATM    1  C7  UNL     1     -33.483  15.075  -4.416  1.00 20.00     0.009 C 
HETATM    2  C8  UNL     1     -33.387  15.592  -2.984  1.00 20.00     0.010 C 
HETATM    3  C9  UNL     1     -35.980  14.873  -3.864  1.00 20.00     0.017 C 
HETATM    4  C10 UNL     1     -34.781  14.278  -4.629  1.00 20.00     0.008 C 
HETATM    5  C11 UNL     1     -34.532  16.566  -2.625  1.00 20.00     0.015 C 
HETATM    6  C12 UNL     1     -35.772  16.361  -3.545  1.00 20.00     0.015 C 
ENDROOT
BRANCH   4   7
HETATM    7  C4  UNL     1     -35.079  14.156  -6.094  1.00 20.00    -0.032 C 
HETATM    8  C1  UNL     1     -34.564  14.960  -7.031  1.00 20.00     0.007 C 
ENDBRANCH   4   7
BRANCH   6   9
HETATM    9  C6  UNL     1     -37.031  16.998  -3.035  1.00 20.00    -0.031 C 
HETATM   10  C3  UNL     1     -38.261  16.567  -3.333  1.00 20.00     0.007 C 
ENDBRANCH   6   9
BRANCH   5  11
HETATM   11  C5  UNL     1     -34.806  16.467  -1.147  1.00 20.00    -0.031 C 
HETATM   12  C2  UNL     1     -34.395  17.368  -0.248  1.00 20.00     0.007 C 
ENDBRANCH   5  11
TORSDOF 3
ENDMDL
MODEL 9
REMARK VINA RESULT:      -4.2      1.535      2.391
REMARK  3 active torsions:
REMARK  status: ('A' for Active; 'I' for Inactive)
REMARK    1  A    between atoms: C4_4  and  C10_10 
REMARK    2  A    between atoms: C5_5  and  C11_11 
REMARK    3  A    between atoms: C6_6  and  C12_12 
ROOT
HETATM    1  C7  UNL     1     -35.951  18.129  -1.484  1.00 20.00     0.009 C 
HETATM    2  C8  UNL     1     -36.658  17.461  -2.659  1.00 20.00     0.010 C 
HETATM    3  C9  UNL     1     -34.310  16.174  -1.738  1.00 20.00     0.017 C 
HETATM    4  C10 UNL     1     -35.016  17.141  -0.766  1.00 20.00     0.008 C 
HETATM    5  C11 UNL     1     -35.672  16.965  -3.742  1.00 20.00     0.015 C 
HETATM    6  C12 UNL     1     -34.244  16.744  -3.163  1.00 20.00     0.015 C 
ENDROOT
BRANCH   4   7
HETATM    7  C4  UNL     1     -34.024  17.885   0.076  1.00 20.00    -0.032 C 
HETATM    8  C1  UNL     1     -32.975  18.553  -0.418  1.00 20.00     0.007 C 
ENDBRANCH   4   7
BRANCH   6   9
HETATM    9  C6  UNL     1     -33.340  15.930  -4.041  1.00 20.00    -0.031 C 
HETATM   10  C3  UNL     1     -32.738  14.801  -3.654  1.00 20.00     0.007 C 
ENDBRANCH   6   9
BRANCH   5  11
HETATM   11  C5  UNL     1     -36.275  15.772  -4.435  1.00 20.00    -0.031 C 
HETATM   12  C2  UNL     1     -37.027  14.851  -3.822  1.00 20.00     0.007 C 
ENDBRANCH   5  11
TORSDOF 3
ENDMDL
