MODEL 1
REMARK VINA RESULT:      -4.5      0.000      0.000
REMARK  4 active torsions:
REMARK  status: ('A' for Active; 'I' for Inactive)
REMARK    1  A    between atoms: C6_6  and  C7_7 
REMARK    2  A    between atoms: C7_7  and  C9_9 
REMARK    3  A    between atoms: C8_8  and  C9_9 
REMARK    4  A    between atoms: C8_8  and  N11_11 
ROOT
HETATM    1  C1  UNL     1     -36.766  14.380  -4.030  1.00 20.00     0.095 C 
HETATM    2  C8  UNL     1     -35.340  14.359  -4.401  1.00 20.00     0.331 C 
HETATM    3  N10 UNL     1     -37.890  14.391  -3.738  1.00 20.00    -0.195 NA
ENDROOT
BRANCH   2   4
HETATM    4  C9  UNL     1     -34.413  14.797  -3.232  1.00 20.00     0.029 C 
HETATM    5  C3  UNL     1     -33.024  15.254  -3.707  1.00 20.00     0.013 C 
BRANCH   4   6
HETATM    6  C7  UNL     1     -35.101  15.878  -2.363  1.00 20.00     0.007 C 
BRANCH   6   7
HETATM    7  C6  UNL     1     -34.122  16.690  -1.510  1.00 20.00    -0.004 C 
HETATM    8  C2  UNL     1     -34.745  17.089  -0.180  1.00 20.00     0.005 C 
ENDBRANCH   6   7
ENDBRANCH   4   6
ENDBRANCH   2   4
BRANCH   2   9
HETATM    9  N11 UNL     1     -35.128  15.204  -5.579  1.00 20.00     0.098 N 
HETATM   10  C4  UNL     1     -36.131  16.266  -5.630  1.00 20.00     0.311 C 
HETATM   11  C5  UNL     1     -35.171  14.398  -6.797  1.00 20.00     0.311 C 
ENDBRANCH   2   9
TORSDOF 4
ENDMDL
MODEL 2
REMARK VINA RESULT:      -4.4      1.566      2.189
REMARK  4 active torsions:
REMARK  status: ('A' for Active; 'I' for Inactive)
REMARK    1  A    between atoms: C6_6  and  C7_7 
REMARK    2  A    between atoms: C7_7  and  C9_9 
REMARK    3  A    between atoms: C8_8  and  C9_9 
REMARK    4  A    between atoms: C8_8  and  N11_11 
ROOT
HETATM    1  C1  UNL     1     -34.675  13.783  -4.776  1.00 20.00     0.095 C 
HETATM    2  C8  UNL     1     -34.501  15.246  -4.800  1.00 20.00     0.331 C 
HETATM    3  N10 UNL     1     -34.807  12.630  -4.756  1.00 20.00    -0.195 NA
ENDROOT
BRANCH   2   4
HETATM    4  C9  UNL     1     -35.185  15.948  -3.593  1.00 20.00     0.029 C 
HETATM    5  C3  UNL     1     -36.657  15.540  -3.418  1.00 20.00     0.013 C 
BRANCH   4   6
HETATM    6  C7  UNL     1     -34.374  15.722  -2.295  1.00 20.00     0.007 C 
BRANCH   6   7
HETATM    7  C6  UNL     1     -34.040  17.017  -1.548  1.00 20.00    -0.004 C 
HETATM    8  C2  UNL     1     -34.734  17.070  -0.195  1.00 20.00     0.005 C 
ENDBRANCH   6   7
ENDBRANCH   4   6
ENDBRANCH   2   4
BRANCH   2   9
HETATM    9  N11 UNL     1     -35.005  15.780  -6.068  1.00 20.00     0.098 N 
HETATM   10  C4  UNL     1     -34.365  15.104  -7.194  1.00 20.00     0.311 C 
HETATM   11  C5  UNL     1     -34.780  17.222  -6.139  1.00 20.00     0.311 C 
ENDBRANCH   2   9
TORSDOF 4
ENDMDL
MODEL 3
REMARK VINA RESULT:      -4.3      1.165      1.904
REMARK  4 active torsions:
REMARK  status: ('A' for Active; 'I' for Inactive)
REMARK    1  A    between atoms: C6_6  and  C7_7 
REMARK    2  A    between atoms: C7_7  and  C9_9 
REMARK    3  A    between atoms: C8_8  and  C9_9 
REMARK    4  A    between atoms: C8_8  and  N11_11 
ROOT
HETATM    1  C1  UNL     1     -36.536  14.746  -3.799  1.00 20.00     0.095 C 
HETATM    2  C8  UNL     1     -35.179  15.320  -3.816  1.00 20.00     0.331 C 
HETATM    3  N10 UNL     1     -37.603  14.289  -3.783  1.00 20.00    -0.195 NA
ENDROOT
BRANCH   2   4
HETATM    4  C9  UNL     1     -35.055  16.585  -2.919  1.00 20.00     0.029 C 
HETATM    5  C3  UNL     1     -36.304  17.480  -2.970  1.00 20.00     0.013 C 
BRANCH   4   6
HETATM    6  C7  UNL     1     -34.695  16.193  -1.466  1.00 20.00     0.007 C 
BRANCH   6   7
HETATM    7  C6  UNL     1     -34.169  17.364  -0.630  1.00 20.00    -0.004 C 
HETATM    8  C2  UNL     1     -34.981  17.542   0.645  1.00 20.00     0.005 C 
ENDBRANCH   6   7
ENDBRANCH   4   6
ENDBRANCH   2   4
BRANCH   2   9
HETATM    9  N11 UNL     1     -34.790  15.620  -5.196  1.00 20.00     0.098 N 
HETATM   10  C4  UNL     1     -34.712  14.389  -5.980  1.00 20.00     0.311 C 
HETATM   11  C5  UNL     1     -33.511  16.327  -5.222  1.00 20.00     0.311 C 
ENDBRANCH   2   9
TORSDOF 4
ENDMDL
MODEL 4
REMARK VINA RESULT:      -4.3      1.748      2.812
REMARK  4 active torsions:
REMARK  status: ('A' for Active; 'I' for Inactive)
REMARK    1  A    between atoms: C6_6  and  C7_7 
REMARK    2  A    between atoms: C7_7  and  C9_9 
REMARK    3  A    between atoms: C8_8  and  C9_9 
REMARK    4  A    between atoms: C8_8  and  N11_11 
ROOT
HETATM    1  C1  UNL     1     -34.228  15.933  -5.080  1.00 20.00     0.095 C 
HETATM    2  C8  UNL     1     -34.693  15.644  -3.712  1.00 20.00     0.331 C 
HETATM    3  N10 UNL     1     -33.866  16.163  -6.159  1.00 20.00    -0.195 NA
ENDROOT
BRANCH   2   4
HETATM    4  C9  UNL     1     -33.951  16.489  -2.638  1.00 20.00     0.029 C 
HETATM    5  C3  UNL     1     -33.804  17.967  -3.035  1.00 20.00     0.013 C 
BRANCH   4   6
HETATM    6  C7  UNL     1     -34.629  16.336  -1.255  1.00 20.00     0.007 C 
BRANCH   6   7
HETATM    7  C6  UNL     1     -34.223  17.420  -0.253  1.00 20.00    -0.004 C 
HETATM    8  C2  UNL     1     -35.316  17.657   0.780  1.00 20.00     0.005 C 
ENDBRANCH   6   7
ENDBRANCH   4   6
ENDBRANCH   2   4
BRANCH   2   9
HETATM    9  N11 UNL     1     -34.551  14.212  -3.438  1.00 20.00     0.098 N 
HETATM   10  C4  UNL     1     -33.164  13.793  -3.628  1.00 20.00     0.311 C 
HETATM   11  C5  UNL     1     -35.443  13.438  -4.299  1.00 20.00     0.311 C 
ENDBRANCH   2   9
TORSDOF 4
ENDMDL
MODEL 5
REMARK VINA RESULT:      -4.3      1.534      2.031
REMARK  4 active torsions:
REMARK  status: ('A' for Active; 'I' for Inactive)
REMARK    1  A    between atoms: C6_6  and  C7_7 
REMARK    2  A    between atoms: C7_7  and  C9_9 
REMARK    3  A    between atoms: C8_8  and  C9_9 
REMARK    4  A    between atoms: C8_8  and  N11_11 
ROOT
HETATM    1  C1  UNL     1     -34.711  13.781  -4.985  1.00 20.00     0.095 C 
HETATM    2  C8  UNL     1     -34.481  15.099  -5.603  1.00 20.00     0.331 C 
HETATM    3  N10 UNL     1     -34.891  12.740  -4.503  1.00 20.00    -0.195 NA
ENDROOT
BRANCH   2   4
HETATM    4  C9  UNL     1     -33.402  15.930  -4.851  1.00 20.00     0.029 C 
HETATM    5  C3  UNL     1     -33.563  17.445  -5.053  1.00 20.00     0.013 C 
BRANCH   4   6
HETATM    6  C7  UNL     1     -33.372  15.556  -3.349  1.00 20.00     0.007 C 
BRANCH   6   7
HETATM    7  C6  UNL     1     -33.710  16.727  -2.421  1.00 20.00    -0.004 C 
HETATM    8  C2  UNL     1     -34.764  16.335  -1.396  1.00 20.00     0.005 C 
ENDBRANCH   6   7
ENDBRANCH   4   6
ENDBRANCH   2   4
BRANCH   2   9
HETATM    9  N11 UNL     1     -35.746  15.834  -5.678  1.00 20.00     0.098 N 
HETATM   10  C4  UNL     1     -36.660  15.379  -4.632  1.00 20.00     0.311 C 
HETATM   11  C5  UNL     1     -36.352  15.670  -6.997  1.00 20.00     0.311 C 
ENDBRANCH   2   9
TORSDOF 4
ENDMDL
MODEL 6
REMARK VINA RESULT:      -4.2      1.628      2.365
REMARK  4 active torsions:
REMARK  status: ('A' for Active; 'I' for Inactive)
REMARK    1  A    between atoms: C6_6  and  C7_7 
REMARK    2  A    between atoms: C7_7  and  C9_9 
REMARK    3  A    between atoms: C8_8  and  C9_9 
REMARK    4  A    between atoms: C8_8  and  N11_11 
ROOT
HETATM    1  C1  UNL     1     -34.077  16.717  -5.427  1.00 20.00     0.095 C 
HETATM    2  C8  UNL     1     -34.716  15.483  -4.936  1.00 20.00     0.331 C 
HETATM    3  N10 UNL     1     -33.578  17.691  -5.814  1.00 20.00    -0.195 NA
ENDROOT
BRANCH   2   4
HETATM    4  C9  UNL     1     -34.204  15.066  -3.529  1.00 20.00     0.029 C 
HETATM    5  C3  UNL     1     -32.682  15.214  -3.376  1.00 20.00     0.013 C 
BRANCH   4   6
HETATM    6  C7  UNL     1     -34.964  15.832  -2.419  1.00 20.00     0.007 C 
BRANCH   6   7
HETATM    7  C6  UNL     1     -34.063  16.736  -1.573  1.00 20.00    -0.004 C 
HETATM    8  C2  UNL     1     -34.700  17.051  -0.228  1.00 20.00     0.005 C 
ENDBRANCH   6   7
ENDBRANCH   4   6
ENDBRANCH   2   4
BRANCH   2   9
HETATM    9  N11 UNL     1     -34.512  14.405  -5.906  1.00 20.00     0.098 N 
HETATM   10  C4  UNL     1     -35.362  14.607  -7.078  1.00 20.00     0.311 C 
HETATM   11  C5  UNL     1     -34.786  13.108  -5.291  1.00 20.00     0.311 C 
ENDBRANCH   2   9
TORSDOF 4
ENDMDL
MODEL 7
REMARK VINA RESULT:      -4.2      1.242      2.043
REMARK  4 active torsions:
REMARK  status: ('A' for Active; 'I' for Inactive)
REMARK    1  A    between atoms: C6_6  and  C7_7 
REMARK    2  A    between atoms: C7_7  and  C9_9 
REMARK    3  A    between atoms: C8_8  and  C9_9 
REMARK    4  A    between atoms: C8_8  and  N11_11 
ROOT
HETATM    1  C1  UNL     1     -37.034  14.672  -3.727  1.00 20.00     0.095 C 
HETATM    2  C8  UNL     1     -35.611  15.029  -3.583  1.00 20.00     0.331 C 
HETATM    3  N10 UNL     1     -38.155  14.389  -3.835  1.00 20.00    -0.195 NA
ENDROOT
BRANCH   2   4
HETATM    4  C9  UNL     1     -35.359  16.554  -3.760  1.00 20.00     0.029 C 
HETATM    5  C3  UNL     1     -36.658  17.367  -3.877  1.00 20.00     0.013 C 
BRANCH   4   6
HETATM    6  C7  UNL     1     -34.450  17.093  -2.629  1.00 20.00     0.007 C 
BRANCH   6   7
HETATM    7  C6  UNL     1     -34.587  16.320  -1.314  1.00 20.00    -0.004 C 
HETATM    8  C2  UNL     1     -34.792  17.262  -0.136  1.00 20.00     0.005 C 
ENDBRANCH   6   7
ENDBRANCH   4   6
ENDBRANCH   2   4
BRANCH   2   9
HETATM    9  N11 UNL     1     -34.812  14.255  -4.536  1.00 20.00     0.098 N 
HETATM   10  C4  UNL     1     -33.607  13.741  -3.888  1.00 20.00     0.311 C 
HETATM   11  C5  UNL     1     -34.463  15.076  -5.693  1.00 20.00     0.311 C 
ENDBRANCH   2   9
TORSDOF 4
ENDMDL
MODEL 8
REMARK VINA RESULT:      -4.2      1.272      2.413
REMARK  4 active torsions:
REMARK  status: ('A' for Active; 'I' for Inactive)
REMARK    1  A    between atoms: C6_6  and  C7_7 
REMARK    2  A    between atoms: C7_7  and  C9_9 
REMARK    3  A    between atoms: C8_8  and  C9_9 
REMARK    4  A    between atoms: C8_8  and  N11_11 
ROOT
HETATM    1  C1  UNL     1     -34.706  15.410  -5.942  1.00 20.00     0.095 C 
HETATM    2  C8  UNL     1     -35.486  15.483  -4.693  1.00 20.00     0.331 C 
HETATM    3  N10 UNL     1     -34.092  15.358  -6.925  1.00 20.00    -0.195 NA
ENDROOT
BRANCH   2   4
HETATM    4  C9  UNL     1     -34.755  14.815  -3.494  1.00 20.00     0.029 C 
HETATM    5  C3  UNL     1     -33.857  13.641  -3.917  1.00 20.00     0.013 C 
BRANCH   4   6
HETATM    6  C7  UNL     1     -33.966  15.868  -2.677  1.00 20.00     0.007 C 
BRANCH   6   7
HETATM    7  C6  UNL     1     -34.707  16.350  -1.426  1.00 20.00    -0.004 C 
HETATM    8  C2  UNL     1     -33.925  17.439  -0.705  1.00 20.00     0.005 C 
ENDBRANCH   6   7
ENDBRANCH   4   6
ENDBRANCH   2   4
BRANCH   2   9
HETATM    9  N11 UNL     1     -36.804  14.880  -4.901  1.00 20.00     0.098 N 
HETATM   10  C4  UNL     1     -37.527  15.590  -5.954  1.00 20.00     0.311 C 
HETATM   11  C5  UNL     1     -37.570  14.889  -3.657  1.00 20.00     0.311 C 
ENDBRANCH   2   9
TORSDOF 4
ENDMDL
MODEL 9
REMARK VINA RESULT:      -4.2      1.584      3.992
REMARK  4 active torsions:
REMARK  status: ('A' for Active; 'I' for Inactive)
REMARK    1  A    between atoms: C6_6  and  C7_7 
REMARK    2  A    between atoms: C7_7  and  C9_9 
REMARK    3  A    between atoms: C8_8  and  C9_9 
REMARK    4  A    between atoms: C8_8  and  N11_11 
ROOT
HETATM    1  C1  UNL     1     -36.900  14.845  -3.890  1.00 20.00     0.095 C 
HETATM    2  C8  UNL     1     -35.620  15.564  -4.031  1.00 20.00     0.331 C 
HETATM    3  N10 UNL     1     -37.910  14.284  -3.782  1.00 20.00    -0.195 NA
ENDROOT
BRANCH   2   4
HETATM    4  C9  UNL     1     -34.559  14.742  -4.816  1.00 20.00     0.029 C 
HETATM    5  C3  UNL     1     -34.787  13.224  -4.723  1.00 20.00     0.013 C 
BRANCH   4   6
HETATM    6  C7  UNL     1     -34.476  15.215  -6.287  1.00 20.00     0.007 C 
BRANCH   6   7
HETATM    7  C6  UNL     1     -35.268  14.335  -7.258  1.00 20.00    -0.004 C 
HETATM    8  C2  UNL     1     -36.591  14.983  -7.640  1.00 20.00     0.005 C 
ENDBRANCH   6   7
ENDBRANCH   4   6
ENDBRANCH   2   4
BRANCH   2   9
HETATM    9  N11 UNL     1     -35.117  15.935  -2.706  1.00 20.00     0.098 N 
HETATM   10  C4  UNL     1     -35.799  17.134  -2.222  1.00 20.00     0.311 C 
HETATM   11  C5  UNL     1     -33.673  16.148  -2.752  1.00 20.00     0.311 C 
ENDBRANCH   2   9
TORSDOF 4
ENDMDL
