MODEL 1
REMARK VINA RESULT:      -3.8      0.000      0.000
REMARK  2 active torsions:
REMARK  status: ('A' for Active; 'I' for Inactive)
REMARK    1  A    between atoms: C1_1  and  C7_7 
REMARK    2  A    between atoms: C7_7  and  N8_8 
ROOT
HETATM    1  C2  UNL     1     -34.516  16.477  -1.469  1.00 20.00     0.040 C 
HETATM    2  C3  UNL     1     -34.661  15.465  -2.608  1.00 20.00     0.273 C 
HETATM    3  C4  UNL     1     -36.005  16.737  -4.239  1.00 20.00     0.283 C 
HETATM    4  C5  UNL     1     -33.766  17.760  -1.807  1.00 20.00     0.075 C 
HETATM    5  C6  UNL     1     -35.917  18.111  -3.573  1.00 20.00     0.104 C 
HETATM    6  N8  UNL     1     -35.939  15.591  -3.320  1.00 20.00     0.095 N 
HETATM    7  S10 UNL     1     -34.200  18.642  -3.333  1.00 20.00    -0.167 SA
ENDROOT
BRANCH   6   8
HETATM    8  C7  UNL     1     -36.217  14.356  -4.065  1.00 20.00     0.341 C 
BRANCH   8   9
HETATM    9  C1  UNL     1     -34.964  13.527  -4.093  1.00 20.00     0.261 C 
HETATM   10  O9  UNL     1     -34.832  12.552  -4.827  1.00 20.00    -0.305 OA
ENDBRANCH   8   9
ENDBRANCH   6   8
TORSDOF 2
ENDMDL
MODEL 2
REMARK VINA RESULT:      -3.8      2.998      4.122
REMARK  2 active torsions:
REMARK  status: ('A' for Active; 'I' for Inactive)
REMARK    1  A    between atoms: C1_1  and  C7_7 
REMARK    2  A    between atoms: C7_7  and  N8_8 
ROOT
HETATM    1  C2  UNL     1     -33.775  13.707  -3.849  1.00 20.00     0.040 C 
HETATM    2  C3  UNL     1     -34.338  14.893  -3.061  1.00 20.00     0.273 C 
HETATM    3  C4  UNL     1     -34.209  16.708  -4.725  1.00 20.00     0.283 C 
HETATM    4  C5  UNL     1     -34.570  13.284  -5.078  1.00 20.00     0.075 C 
HETATM    5  C6  UNL     1     -33.876  15.858  -5.952  1.00 20.00     0.104 C 
HETATM    6  N8  UNL     1     -33.727  16.172  -3.444  1.00 20.00     0.095 N 
HETATM    7  S10 UNL     1     -35.115  14.566  -6.242  1.00 20.00    -0.167 SA
ENDROOT
BRANCH   6   8
HETATM    8  C7  UNL     1     -33.952  17.166  -2.387  1.00 20.00     0.341 C 
BRANCH   8   9
HETATM    9  C1  UNL     1     -34.645  16.489  -1.239  1.00 20.00     0.261 C 
HETATM   10  O9  UNL     1     -34.620  16.936  -0.096  1.00 20.00    -0.305 OA
ENDBRANCH   8   9
ENDBRANCH   6   8
TORSDOF 2
ENDMDL
MODEL 3
REMARK VINA RESULT:      -3.8      1.806      2.585
REMARK  2 active torsions:
REMARK  status: ('A' for Active; 'I' for Inactive)
REMARK    1  A    between atoms: C1_1  and  C7_7 
REMARK    2  A    between atoms: C7_7  and  N8_8 
ROOT
HETATM    1  C2  UNL     1     -33.443  17.423  -5.370  1.00 20.00     0.040 C 
HETATM    2  C3  UNL     1     -33.814  15.973  -5.048  1.00 20.00     0.273 C 
HETATM    3  C4  UNL     1     -33.979  16.033  -2.588  1.00 20.00     0.283 C 
HETATM    4  C5  UNL     1     -34.475  18.477  -4.988  1.00 20.00     0.075 C 
HETATM    5  C6  UNL     1     -33.915  17.550  -2.400  1.00 20.00     0.104 C 
HETATM    6  N8  UNL     1     -33.264  15.518  -3.764  1.00 20.00     0.095 N 
HETATM    7  S10 UNL     1     -35.214  18.407  -3.331  1.00 20.00    -0.167 SA
ENDROOT
BRANCH   6   8
HETATM    8  C7  UNL     1     -33.254  14.050  -3.721  1.00 20.00     0.341 C 
BRANCH   8   9
HETATM    9  C1  UNL     1     -34.285  13.540  -4.688  1.00 20.00     0.261 C 
HETATM   10  O9  UNL     1     -35.063  12.633  -4.406  1.00 20.00    -0.305 OA
ENDBRANCH   8   9
ENDBRANCH   6   8
TORSDOF 2
ENDMDL
MODEL 4
REMARK VINA RESULT:      -3.5      1.570      1.736
REMARK  2 active torsions:
REMARK  status: ('A' for Active; 'I' for Inactive)
REMARK    1  A    between atoms: C1_1  and  C7_7 
REMARK    2  A    between atoms: C7_7  and  N8_8 
ROOT
HETATM    1  C2  UNL     1     -35.635  17.059  -2.398  1.00 20.00     0.040 C 
HETATM    2  C3  UNL     1     -34.578  15.952  -2.446  1.00 20.00     0.273 C 
HETATM    3  C4  UNL     1     -33.284  16.581  -4.449  1.00 20.00     0.283 C 
HETATM    4  C5  UNL     1     -35.109  18.476  -2.200  1.00 20.00     0.075 C 
HETATM    5  C6  UNL     1     -33.887  17.969  -4.674  1.00 20.00     0.104 C 
HETATM    6  N8  UNL     1     -34.182  15.604  -3.817  1.00 20.00     0.095 N 
HETATM    7  S10 UNL     1     -33.711  19.032  -3.215  1.00 20.00    -0.167 SA
ENDROOT
BRANCH   6   8
HETATM    8  C7  UNL     1     -33.544  14.282  -3.829  1.00 20.00     0.341 C 
BRANCH   8   9
HETATM    9  C1  UNL     1     -34.324  13.387  -4.751  1.00 20.00     0.261 C 
HETATM   10  O9  UNL     1     -35.122  12.550  -4.340  1.00 20.00    -0.305 OA
ENDBRANCH   8   9
ENDBRANCH   6   8
TORSDOF 2
ENDMDL
MODEL 5
REMARK VINA RESULT:      -3.5      1.441      2.125
REMARK  2 active torsions:
REMARK  status: ('A' for Active; 'I' for Inactive)
REMARK    1  A    between atoms: C1_1  and  C7_7 
REMARK    2  A    between atoms: C7_7  and  N8_8 
ROOT
HETATM    1  C2  UNL     1     -36.457  17.913  -2.650  1.00 20.00     0.040 C 
HETATM    2  C3  UNL     1     -36.659  16.468  -3.113  1.00 20.00     0.273 C 
HETATM    3  C4  UNL     1     -34.404  15.521  -2.799  1.00 20.00     0.283 C 
HETATM    4  C5  UNL     1     -36.063  18.097  -1.189  1.00 20.00     0.075 C 
HETATM    5  C6  UNL     1     -33.787  16.678  -2.013  1.00 20.00     0.104 C 
HETATM    6  N8  UNL     1     -35.461  15.902  -3.746  1.00 20.00     0.095 N 
HETATM    7  S10 UNL     1     -34.731  17.065  -0.514  1.00 20.00    -0.167 SA
ENDROOT
BRANCH   6   8
HETATM    8  C7  UNL     1     -35.833  14.733  -4.554  1.00 20.00     0.341 C 
BRANCH   8   9
HETATM    9  C1  UNL     1     -35.012  13.560  -4.097  1.00 20.00     0.261 C 
HETATM   10  O9  UNL     1     -34.836  12.565  -4.794  1.00 20.00    -0.305 OA
ENDBRANCH   8   9
ENDBRANCH   6   8
TORSDOF 2
ENDMDL
MODEL 6
REMARK VINA RESULT:      -3.5      1.823      2.514
REMARK  2 active torsions:
REMARK  status: ('A' for Active; 'I' for Inactive)
REMARK    1  A    between atoms: C1_1  and  C7_7 
REMARK    2  A    between atoms: C7_7  and  N8_8 
ROOT
HETATM    1  C2  UNL     1     -33.622  17.114  -4.997  1.00 20.00     0.040 C 
HETATM    2  C3  UNL     1     -34.863  16.222  -4.907  1.00 20.00     0.273 C 
HETATM    3  C4  UNL     1     -34.927  15.692  -2.500  1.00 20.00     0.283 C 
HETATM    4  C5  UNL     1     -33.686  18.425  -4.222  1.00 20.00     0.075 C 
HETATM    5  C6  UNL     1     -33.867  16.688  -2.027  1.00 20.00     0.104 C 
HETATM    6  N8  UNL     1     -34.747  15.190  -3.869  1.00 20.00     0.095 N 
HETATM    7  S10 UNL     1     -34.270  18.391  -2.504  1.00 20.00    -0.167 SA
ENDROOT
BRANCH   6   8
HETATM    8  C7  UNL     1     -35.718  14.118  -4.124  1.00 20.00     0.341 C 
BRANCH   8   9
HETATM    9  C1  UNL     1     -37.089  14.728  -4.199  1.00 20.00     0.261 C 
HETATM   10  O9  UNL     1     -38.073  14.207  -3.683  1.00 20.00    -0.305 OA
ENDBRANCH   8   9
ENDBRANCH   6   8
TORSDOF 2
ENDMDL
MODEL 7
REMARK VINA RESULT:      -3.5     11.543     12.620
REMARK  2 active torsions:
REMARK  status: ('A' for Active; 'I' for Inactive)
REMARK    1  A    between atoms: C1_1  and  C7_7 
REMARK    2  A    between atoms: C7_7  and  N8_8 
ROOT
HETATM    1  C2  UNL     1     -35.226   5.386   3.491  1.00 20.00     0.040 C 
HETATM    2  C3  UNL     1     -33.759   5.593   3.108  1.00 20.00     0.273 C 
HETATM    3  C4  UNL     1     -32.875   6.737   5.107  1.00 20.00     0.283 C 
HETATM    4  C5  UNL     1     -35.480   4.495   4.701  1.00 20.00     0.075 C 
HETATM    5  C6  UNL     1     -34.079   6.531   6.028  1.00 20.00     0.104 C 
HETATM    6  N8  UNL     1     -33.192   6.825   3.675  1.00 20.00     0.095 N 
HETATM    7  S10 UNL     1     -34.507   4.778   6.207  1.00 20.00    -0.167 SA
ENDROOT
BRANCH   6   8
HETATM    8  C7  UNL     1     -31.982   7.201   2.933  1.00 20.00     0.341 C 
BRANCH   8   9
HETATM    9  C1  UNL     1     -32.296   8.407   2.092  1.00 20.00     0.261 C 
HETATM   10  O9  UNL     1     -31.732   8.635   1.026  1.00 20.00    -0.305 OA
ENDBRANCH   8   9
ENDBRANCH   6   8
TORSDOF 2
ENDMDL
MODEL 8
REMARK VINA RESULT:      -3.5      3.126      4.315
REMARK  2 active torsions:
REMARK  status: ('A' for Active; 'I' for Inactive)
REMARK    1  A    between atoms: C1_1  and  C7_7 
REMARK    2  A    between atoms: C7_7  and  N8_8 
ROOT
HETATM    1  C2  UNL     1     -34.330  16.291  -5.794  1.00 20.00     0.040 C 
HETATM    2  C3  UNL     1     -33.660  16.539  -4.440  1.00 20.00     0.273 C 
HETATM    3  C4  UNL     1     -35.115  15.256  -2.918  1.00 20.00     0.283 C 
HETATM    4  C5  UNL     1     -34.357  14.843  -6.270  1.00 20.00     0.075 C 
HETATM    5  C6  UNL     1     -35.933  14.509  -3.973  1.00 20.00     0.104 C 
HETATM    6  N8  UNL     1     -34.621  16.577  -3.330  1.00 20.00     0.095 N 
HETATM    7  S10 UNL     1     -34.881  13.556  -5.102  1.00 20.00    -0.167 SA
ENDROOT
BRANCH   6   8
HETATM    8  C7  UNL     1     -34.016  17.250  -2.173  1.00 20.00     0.341 C 
BRANCH   8   9
HETATM    9  C1  UNL     1     -34.552  16.617  -0.921  1.00 20.00     0.261 C 
HETATM   10  O9  UNL     1     -34.603  17.212   0.152  1.00 20.00    -0.305 OA
ENDBRANCH   8   9
ENDBRANCH   6   8
TORSDOF 2
ENDMDL
MODEL 9
REMARK VINA RESULT:      -3.4      1.753      2.306
REMARK  2 active torsions:
REMARK  status: ('A' for Active; 'I' for Inactive)
REMARK    1  A    between atoms: C1_1  and  C7_7 
REMARK    2  A    between atoms: C7_7  and  N8_8 
ROOT
HETATM    1  C2  UNL     1     -36.423  17.346  -4.380  1.00 20.00     0.040 C 
HETATM    2  C3  UNL     1     -35.932  15.905  -4.537  1.00 20.00     0.273 C 
HETATM    3  C4  UNL     1     -33.608  16.244  -5.287  1.00 20.00     0.283 C 
HETATM    4  C5  UNL     1     -35.702  18.186  -3.332  1.00 20.00     0.075 C 
HETATM    5  C6  UNL     1     -33.511  17.749  -5.028  1.00 20.00     0.104 C 
HETATM    6  N8  UNL     1     -34.952  15.753  -5.620  1.00 20.00     0.095 N 
HETATM    7  S10 UNL     1     -33.887  18.169  -3.305  1.00 20.00    -0.167 SA
ENDROOT
BRANCH   6   8
HETATM    8  C7  UNL     1     -34.868  14.342  -6.019  1.00 20.00     0.341 C 
BRANCH   8   9
HETATM    9  C1  UNL     1     -34.378  13.545  -4.843  1.00 20.00     0.261 C 
HETATM   10  O9  UNL     1     -35.011  12.604  -4.373  1.00 20.00    -0.305 OA
ENDBRANCH   8   9
ENDBRANCH   6   8
TORSDOF 2
ENDMDL
