MODEL 1
REMARK VINA RESULT:      -3.9      0.000      0.000
REMARK  3 active torsions:
REMARK  status: ('A' for Active; 'I' for Inactive)
REMARK    1  A    between atoms: C1_1  and  C7_7 
REMARK    2  A    between atoms: C5_5  and  N8_8 
REMARK    3  A    between atoms: C7_7  and  N8_8 
ROOT
HETATM    1  C2  UNL     1     -34.722  16.291  -1.344  1.00 20.00     0.047 C 
HETATM    2  C3  UNL     1     -34.892  17.499  -0.435  1.00 20.00     0.076 C 
HETATM    3  C4  UNL     1     -33.903  17.991  -2.886  1.00 20.00     0.109 C 
HETATM    4  C5  UNL     1     -33.571  16.628  -2.290  1.00 20.00     0.233 C 
HETATM    5  S10 UNL     1     -34.609  18.938  -1.506  1.00 20.00    -0.167 SA
ENDROOT
BRANCH   4   6
HETATM    6  N8  UNL     1     -33.405  15.621  -3.331  1.00 20.00     0.096 N 
HETATM    7  C6  UNL     1     -33.274  16.254  -4.646  1.00 20.00     0.310 C 
BRANCH   6   8
HETATM    8  C7  UNL     1     -34.530  14.684  -3.329  1.00 20.00     0.341 C 
BRANCH   8   9
HETATM    9  C1  UNL     1     -34.288  13.648  -4.389  1.00 20.00     0.261 C 
HETATM   10  O9  UNL     1     -34.951  12.617  -4.469  1.00 20.00    -0.305 OA
ENDBRANCH   8   9
ENDBRANCH   6   8
ENDBRANCH   4   6
TORSDOF 3
ENDMDL
MODEL 2
REMARK VINA RESULT:      -3.7      1.637      1.801
REMARK  3 active torsions:
REMARK  status: ('A' for Active; 'I' for Inactive)
REMARK    1  A    between atoms: C1_1  and  C7_7 
REMARK    2  A    between atoms: C5_5  and  N8_8 
REMARK    3  A    between atoms: C7_7  and  N8_8 
ROOT
HETATM    1  C2  UNL     1     -34.461  16.656  -0.947  1.00 20.00     0.047 C 
HETATM    2  C3  UNL     1     -33.700  17.925  -0.598  1.00 20.00     0.076 C 
HETATM    3  C4  UNL     1     -34.088  17.461  -3.217  1.00 20.00     0.109 C 
HETATM    4  C5  UNL     1     -33.966  16.229  -2.328  1.00 20.00     0.233 C 
HETATM    5  S10 UNL     1     -33.576  18.845  -2.158  1.00 20.00    -0.167 SA
ENDROOT
BRANCH   4   6
HETATM    6  N8  UNL     1     -34.734  15.112  -2.864  1.00 20.00     0.096 N 
HETATM    7  C6  UNL     1     -33.888  14.257  -3.700  1.00 20.00     0.310 C 
BRANCH   6   8
HETATM    8  C7  UNL     1     -35.882  15.595  -3.634  1.00 20.00     0.341 C 
BRANCH   8   9
HETATM    9  C1  UNL     1     -36.685  14.410  -4.085  1.00 20.00     0.261 C 
HETATM   10  O9  UNL     1     -37.851  14.229  -3.740  1.00 20.00    -0.305 OA
ENDBRANCH   8   9
ENDBRANCH   6   8
ENDBRANCH   4   6
TORSDOF 3
ENDMDL
MODEL 3
REMARK VINA RESULT:      -3.6      1.468      1.800
REMARK  3 active torsions:
REMARK  status: ('A' for Active; 'I' for Inactive)
REMARK    1  A    between atoms: C1_1  and  C7_7 
REMARK    2  A    between atoms: C5_5  and  N8_8 
REMARK    3  A    between atoms: C7_7  and  N8_8 
ROOT
HETATM    1  C2  UNL     1     -34.572  16.238  -1.487  1.00 20.00     0.047 C 
HETATM    2  C3  UNL     1     -34.535  17.436  -0.552  1.00 20.00     0.076 C 
HETATM    3  C4  UNL     1     -36.480  17.443  -2.408  1.00 20.00     0.109 C 
HETATM    4  C5  UNL     1     -35.186  16.736  -2.794  1.00 20.00     0.233 C 
HETATM    5  S10 UNL     1     -36.078  18.337  -0.879  1.00 20.00    -0.167 SA
ENDROOT
BRANCH   4   6
HETATM    6  N8  UNL     1     -35.437  15.648  -3.732  1.00 20.00     0.096 N 
HETATM    7  C6  UNL     1     -36.844  15.243  -3.689  1.00 20.00     0.310 C 
BRANCH   6   8
HETATM    8  C7  UNL     1     -34.571  14.504  -3.441  1.00 20.00     0.341 C 
BRANCH   8   9
HETATM    9  C1  UNL     1     -34.411  13.697  -4.697  1.00 20.00     0.261 C 
HETATM   10  O9  UNL     1     -34.805  12.537  -4.793  1.00 20.00    -0.305 OA
ENDBRANCH   8   9
ENDBRANCH   6   8
ENDBRANCH   4   6
TORSDOF 3
ENDMDL
MODEL 4
REMARK VINA RESULT:      -3.5      3.187      4.422
REMARK  3 active torsions:
REMARK  status: ('A' for Active; 'I' for Inactive)
REMARK    1  A    between atoms: C1_1  and  C7_7 
REMARK    2  A    between atoms: C5_5  and  N8_8 
REMARK    3  A    between atoms: C7_7  and  N8_8 
ROOT
HETATM    1  C2  UNL     1     -34.472  15.203  -6.862  1.00 20.00     0.047 C 
HETATM    2  C3  UNL     1     -35.394  14.563  -7.888  1.00 20.00     0.076 C 
HETATM    3  C4  UNL     1     -36.596  15.815  -5.835  1.00 20.00     0.109 C 
HETATM    4  C5  UNL     1     -35.235  15.195  -5.539  1.00 20.00     0.233 C 
HETATM    5  S10 UNL     1     -37.056  15.159  -7.465  1.00 20.00    -0.167 SA
ENDROOT
BRANCH   4   6
HETATM    6  N8  UNL     1     -34.532  15.932  -4.496  1.00 20.00     0.096 N 
HETATM    7  C6  UNL     1     -33.222  16.380  -4.973  1.00 20.00     0.310 C 
BRANCH   6   8
HETATM    8  C7  UNL     1     -34.382  15.111  -3.293  1.00 20.00     0.341 C 
BRANCH   8   9
HETATM    9  C1  UNL     1     -34.227  13.678  -3.713  1.00 20.00     0.261 C 
HETATM   10  O9  UNL     1     -33.151  13.087  -3.664  1.00 20.00    -0.305 OA
ENDBRANCH   8   9
ENDBRANCH   6   8
ENDBRANCH   4   6
TORSDOF 3
ENDMDL
MODEL 5
REMARK VINA RESULT:      -3.4      3.234      4.124
REMARK  3 active torsions:
REMARK  status: ('A' for Active; 'I' for Inactive)
REMARK    1  A    between atoms: C1_1  and  C7_7 
REMARK    2  A    between atoms: C5_5  and  N8_8 
REMARK    3  A    between atoms: C7_7  and  N8_8 
ROOT
HETATM    1  C2  UNL     1     -34.901  13.490  -4.477  1.00 20.00     0.047 C 
HETATM    2  C3  UNL     1     -33.512  13.598  -3.868  1.00 20.00     0.076 C 
HETATM    3  C4  UNL     1     -34.604  15.895  -4.740  1.00 20.00     0.109 C 
HETATM    4  C5  UNL     1     -35.013  14.630  -5.486  1.00 20.00     0.233 C 
HETATM    5  S10 UNL     1     -33.211  15.381  -3.694  1.00 20.00    -0.167 SA
ENDROOT
BRANCH   4   6
HETATM    6  N8  UNL     1     -36.361  14.749  -6.030  1.00 20.00     0.096 N 
HETATM    7  C6  UNL     1     -36.318  15.195  -7.425  1.00 20.00     0.310 C 
BRANCH   6   8
HETATM    8  C7  UNL     1     -37.163  15.674  -5.227  1.00 20.00     0.341 C 
BRANCH   8   9
HETATM    9  C1  UNL     1     -38.355  14.932  -4.696  1.00 20.00     0.261 C 
HETATM   10  O9  UNL     1     -38.320  14.282  -3.654  1.00 20.00    -0.305 OA
ENDBRANCH   8   9
ENDBRANCH   6   8
ENDBRANCH   4   6
TORSDOF 3
ENDMDL
MODEL 6
REMARK VINA RESULT:      -3.4      2.844      3.242
REMARK  3 active torsions:
REMARK  status: ('A' for Active; 'I' for Inactive)
REMARK    1  A    between atoms: C1_1  and  C7_7 
REMARK    2  A    between atoms: C5_5  and  N8_8 
REMARK    3  A    between atoms: C7_7  and  N8_8 
ROOT
HETATM    1  C2  UNL     1     -35.619  16.818  -5.923  1.00 20.00     0.047 C 
HETATM    2  C3  UNL     1     -35.589  18.149  -5.189  1.00 20.00     0.076 C 
HETATM    3  C4  UNL     1     -33.289  16.758  -5.211  1.00 20.00     0.109 C 
HETATM    4  C5  UNL     1     -34.572  15.935  -5.247  1.00 20.00     0.233 C 
HETATM    5  S10 UNL     1     -33.836  18.446  -4.822  1.00 20.00    -0.167 SA
ENDROOT
BRANCH   4   6
HETATM    6  N8  UNL     1     -34.374  14.678  -5.957  1.00 20.00     0.096 N 
HETATM    7  C6  UNL     1     -34.947  14.748  -7.304  1.00 20.00     0.310 C 
BRANCH   6   8
HETATM    8  C7  UNL     1     -34.965  13.564  -5.213  1.00 20.00     0.341 C 
BRANCH   8   9
HETATM    9  C1  UNL     1     -34.320  13.502  -3.858  1.00 20.00     0.261 C 
HETATM   10  O9  UNL     1     -33.170  13.103  -3.690  1.00 20.00    -0.305 OA
ENDBRANCH   8   9
ENDBRANCH   6   8
ENDBRANCH   4   6
TORSDOF 3
ENDMDL
MODEL 7
REMARK VINA RESULT:      -3.4      1.682      1.854
REMARK  3 active torsions:
REMARK  status: ('A' for Active; 'I' for Inactive)
REMARK    1  A    between atoms: C1_1  and  C7_7 
REMARK    2  A    between atoms: C5_5  and  N8_8 
REMARK    3  A    between atoms: C7_7  and  N8_8 
ROOT
HETATM    1  C2  UNL     1     -34.616  16.321  -1.627  1.00 20.00     0.047 C 
HETATM    2  C3  UNL     1     -33.967  17.534  -0.979  1.00 20.00     0.076 C 
HETATM    3  C4  UNL     1     -33.975  17.491  -3.667  1.00 20.00     0.109 C 
HETATM    4  C5  UNL     1     -33.920  16.135  -2.974  1.00 20.00     0.233 C 
HETATM    5  S10 UNL     1     -33.673  18.697  -2.342  1.00 20.00    -0.167 SA
ENDROOT
BRANCH   4   6
HETATM    6  N8  UNL     1     -34.558  15.102  -3.782  1.00 20.00     0.096 N 
HETATM    7  C6  UNL     1     -33.668  13.950  -3.944  1.00 20.00     0.310 C 
BRANCH   6   8
HETATM    8  C7  UNL     1     -34.943  15.633  -5.091  1.00 20.00     0.341 C 
BRANCH   8   9
HETATM    9  C1  UNL     1     -34.581  14.622  -6.140  1.00 20.00     0.261 C 
HETATM   10  O9  UNL     1     -34.293  14.938  -7.292  1.00 20.00    -0.305 OA
ENDBRANCH   8   9
ENDBRANCH   6   8
ENDBRANCH   4   6
TORSDOF 3
ENDMDL
MODEL 8
REMARK VINA RESULT:      -3.4      1.342      1.400
REMARK  3 active torsions:
REMARK  status: ('A' for Active; 'I' for Inactive)
REMARK    1  A    between atoms: C1_1  and  C7_7 
REMARK    2  A    between atoms: C5_5  and  N8_8 
REMARK    3  A    between atoms: C7_7  and  N8_8 
ROOT
HETATM    1  C2  UNL     1     -34.940  16.801  -0.770  1.00 20.00     0.047 C 
HETATM    2  C3  UNL     1     -34.780  17.492   0.575  1.00 20.00     0.076 C 
HETATM    3  C4  UNL     1     -33.468  18.605  -1.491  1.00 20.00     0.109 C 
HETATM    4  C5  UNL     1     -33.663  17.095  -1.554  1.00 20.00     0.233 C 
HETATM    5  S10 UNL     1     -33.941  19.059   0.203  1.00 20.00    -0.167 SA
ENDROOT
BRANCH   4   6
HETATM    6  N8  UNL     1     -33.748  16.630  -2.934  1.00 20.00     0.096 N 
HETATM    7  C6  UNL     1     -34.583  17.531  -3.732  1.00 20.00     0.310 C 
BRANCH   6   8
HETATM    8  C7  UNL     1     -34.277  15.266  -2.988  1.00 20.00     0.341 C 
BRANCH   8   9
HETATM    9  C1  UNL     1     -33.317  14.415  -3.769  1.00 20.00     0.261 C 
HETATM   10  O9  UNL     1     -33.362  13.187  -3.759  1.00 20.00    -0.305 OA
ENDBRANCH   8   9
ENDBRANCH   6   8
ENDBRANCH   4   6
TORSDOF 3
ENDMDL
MODEL 9
REMARK VINA RESULT:      -3.3      1.496      1.965
REMARK  3 active torsions:
REMARK  status: ('A' for Active; 'I' for Inactive)
REMARK    1  A    between atoms: C1_1  and  C7_7 
REMARK    2  A    between atoms: C5_5  and  N8_8 
REMARK    3  A    between atoms: C7_7  and  N8_8 
ROOT
HETATM    1  C2  UNL     1     -33.821  17.654  -3.429  1.00 20.00     0.047 C 
HETATM    2  C3  UNL     1     -33.773  18.485  -2.156  1.00 20.00     0.076 C 
HETATM    3  C4  UNL     1     -34.775  16.002  -1.911  1.00 20.00     0.109 C 
HETATM    4  C5  UNL     1     -34.987  16.682  -3.259  1.00 20.00     0.233 C 
HETATM    5  S10 UNL     1     -34.174  17.324  -0.819  1.00 20.00    -0.167 SA
ENDROOT
BRANCH   4   6
HETATM    6  N8  UNL     1     -35.049  15.706  -4.340  1.00 20.00     0.096 N 
HETATM    7  C6  UNL     1     -35.741  16.265  -5.503  1.00 20.00     0.310 C 
BRANCH   6   8
HETATM    8  C7  UNL     1     -35.716  14.481  -3.894  1.00 20.00     0.341 C 
BRANCH   8   9
HETATM    9  C1  UNL     1     -34.970  13.303  -4.450  1.00 20.00     0.261 C 
HETATM   10  O9  UNL     1     -33.795  13.074  -4.173  1.00 20.00    -0.305 OA
ENDBRANCH   8   9
ENDBRANCH   6   8
ENDBRANCH   4   6
TORSDOF 3
ENDMDL
