MODEL 1
REMARK VINA RESULT:      -4.4      0.000      0.000
REMARK  3 active torsions:
REMARK  status: ('A' for Active; 'I' for Inactive)
REMARK    1  A    between atoms: C1_1  and  C3_3 
REMARK    2  A    between atoms: C1_1  and  C4_4 
REMARK    3  A    between atoms: C3_3  and  C5_5 
ROOT
HETATM    1  C1  UNL     1     -34.921   4.730   5.040  1.00 20.00     0.140 C 
HETATM    2  O6  UNL     1     -35.156   3.557   4.755  1.00 20.00    -0.297 OA
ENDROOT
BRANCH   1   3
HETATM    3  C3  UNL     1     -34.784   5.807   3.971  1.00 20.00     0.079 C 
BRANCH   3   4
HETATM    4  C5  UNL     1     -33.683   5.531   2.951  1.00 20.00     0.003 C 
HETATM    5  C2  UNL     1     -32.435   6.368   3.196  1.00 20.00     0.005 C 
ENDBRANCH   3   4
ENDBRANCH   1   3
BRANCH   1   6
HETATM    6  C4  UNL     1     -34.708   5.205   6.462  1.00 20.00     0.192 C 
HETATM    7 CL7  UNL     1     -33.891   6.775   6.483  1.00 20.00    -0.123 Cl
ENDBRANCH   1   6
TORSDOF 3
ENDMDL
MODEL 2
REMARK VINA RESULT:      -4.1      2.022      2.432
REMARK  3 active torsions:
REMARK  status: ('A' for Active; 'I' for Inactive)
REMARK    1  A    between atoms: C1_1  and  C3_3 
REMARK    2  A    between atoms: C1_1  and  C4_4 
REMARK    3  A    between atoms: C3_3  and  C5_5 
ROOT
HETATM    1  C1  UNL     1     -33.953   5.969   4.475  1.00 20.00     0.140 C 
HETATM    2  O6  UNL     1     -33.662   6.637   5.465  1.00 20.00    -0.297 OA
ENDROOT
BRANCH   1   3
HETATM    3  C3  UNL     1     -33.207   6.119   3.155  1.00 20.00     0.079 C 
BRANCH   3   4
HETATM    4  C5  UNL     1     -32.026   7.084   3.216  1.00 20.00     0.003 C 
HETATM    5  C2  UNL     1     -32.069   8.131   2.112  1.00 20.00     0.005 C 
ENDBRANCH   3   4
ENDBRANCH   1   3
BRANCH   1   6
HETATM    6  C4  UNL     1     -35.093   4.973   4.459  1.00 20.00     0.192 C 
HETATM    7 CL7  UNL     1     -35.131   4.039   5.962  1.00 20.00    -0.123 Cl
ENDBRANCH   1   6
TORSDOF 3
ENDMDL
MODEL 3
REMARK VINA RESULT:      -4.0      2.365      3.533
REMARK  3 active torsions:
REMARK  status: ('A' for Active; 'I' for Inactive)
REMARK    1  A    between atoms: C1_1  and  C3_3 
REMARK    2  A    between atoms: C1_1  and  C4_4 
REMARK    3  A    between atoms: C3_3  and  C5_5 
ROOT
HETATM    1  C1  UNL     1     -33.330   6.109   3.440  1.00 20.00     0.140 C 
HETATM    2  O6  UNL     1     -33.740   5.466   2.475  1.00 20.00    -0.297 OA
ENDROOT
BRANCH   1   3
HETATM    3  C3  UNL     1     -34.107   6.182   4.748  1.00 20.00     0.079 C 
BRANCH   3   4
HETATM    4  C5  UNL     1     -35.186   5.112   4.890  1.00 20.00     0.003 C 
HETATM    5  C2  UNL     1     -34.848   4.078   5.955  1.00 20.00     0.005 C 
ENDBRANCH   3   4
ENDBRANCH   1   3
BRANCH   1   6
HETATM    6  C4  UNL     1     -32.046   6.911   3.409  1.00 20.00     0.192 C 
HETATM    7 CL7  UNL     1     -32.089   8.115   2.113  1.00 20.00    -0.123 Cl
ENDBRANCH   1   6
TORSDOF 3
ENDMDL
MODEL 4
REMARK VINA RESULT:      -4.0      1.519      1.921
REMARK  3 active torsions:
REMARK  status: ('A' for Active; 'I' for Inactive)
REMARK    1  A    between atoms: C1_1  and  C3_3 
REMARK    2  A    between atoms: C1_1  and  C4_4 
REMARK    3  A    between atoms: C3_3  and  C5_5 
ROOT
HETATM    1  C1  UNL     1     -34.388   5.489   3.670  1.00 20.00     0.140 C 
HETATM    2  O6  UNL     1     -34.491   5.168   2.488  1.00 20.00    -0.297 OA
ENDROOT
BRANCH   1   3
HETATM    3  C3  UNL     1     -33.399   6.550   4.134  1.00 20.00     0.079 C 
BRANCH   3   4
HETATM    4  C5  UNL     1     -32.132   6.630   3.287  1.00 20.00     0.003 C 
HETATM    5  C2  UNL     1     -32.099   7.867   2.400  1.00 20.00     0.005 C 
ENDBRANCH   3   4
ENDBRANCH   1   3
BRANCH   1   6
HETATM    6  C4  UNL     1     -35.198   4.840   4.772  1.00 20.00     0.192 C 
HETATM    7 CL7  UNL     1     -34.682   5.428   6.360  1.00 20.00    -0.123 Cl
ENDBRANCH   1   6
TORSDOF 3
ENDMDL
MODEL 5
REMARK VINA RESULT:      -4.0      1.781      3.010
REMARK  3 active torsions:
REMARK  status: ('A' for Active; 'I' for Inactive)
REMARK    1  A    between atoms: C1_1  and  C3_3 
REMARK    2  A    between atoms: C1_1  and  C4_4 
REMARK    3  A    between atoms: C3_3  and  C5_5 
ROOT
HETATM    1  C1  UNL     1     -34.950   5.238   3.852  1.00 20.00     0.140 C 
HETATM    2  O6  UNL     1     -36.069   5.725   3.699  1.00 20.00    -0.297 OA
ENDROOT
BRANCH   1   3
HETATM    3  C3  UNL     1     -34.556   4.513   5.133  1.00 20.00     0.079 C 
BRANCH   3   4
HETATM    4  C5  UNL     1     -34.805   5.321   6.404  1.00 20.00     0.003 C 
HETATM    5  C2  UNL     1     -33.971   6.593   6.461  1.00 20.00     0.005 C 
ENDBRANCH   3   4
ENDBRANCH   1   3
BRANCH   1   6
HETATM    6  C4  UNL     1     -33.856   5.343   2.811  1.00 20.00     0.192 C 
HETATM    7 CL7  UNL     1     -32.598   6.472   3.336  1.00 20.00    -0.123 Cl
ENDBRANCH   1   6
TORSDOF 3
ENDMDL
MODEL 6
REMARK VINA RESULT:      -3.9      1.577      1.960
REMARK  3 active torsions:
REMARK  status: ('A' for Active; 'I' for Inactive)
REMARK    1  A    between atoms: C1_1  and  C3_3 
REMARK    2  A    between atoms: C1_1  and  C4_4 
REMARK    3  A    between atoms: C3_3  and  C5_5 
ROOT
HETATM    1  C1  UNL     1     -34.422   5.805   3.937  1.00 20.00     0.140 C 
HETATM    2  O6  UNL     1     -35.559   5.564   3.536  1.00 20.00    -0.297 OA
ENDROOT
BRANCH   1   3
HETATM    3  C3  UNL     1     -33.229   5.858   2.992  1.00 20.00     0.079 C 
BRANCH   3   4
HETATM    4  C5  UNL     1     -32.196   6.922   3.354  1.00 20.00     0.003 C 
HETATM    5  C2  UNL     1     -32.075   8.005   2.292  1.00 20.00     0.005 C 
ENDBRANCH   3   4
ENDBRANCH   1   3
BRANCH   1   6
HETATM    6  C4  UNL     1     -34.095   6.033   5.398  1.00 20.00     0.192 C 
HETATM    7 CL7  UNL     1     -34.514   4.611   6.365  1.00 20.00    -0.123 Cl
ENDBRANCH   1   6
TORSDOF 3
ENDMDL
MODEL 7
REMARK VINA RESULT:      -3.9      2.394      3.486
REMARK  3 active torsions:
REMARK  status: ('A' for Active; 'I' for Inactive)
REMARK    1  A    between atoms: C1_1  and  C3_3 
REMARK    2  A    between atoms: C1_1  and  C4_4 
REMARK    3  A    between atoms: C3_3  and  C5_5 
ROOT
HETATM    1  C1  UNL     1     -33.338   6.273   4.040  1.00 20.00     0.140 C 
HETATM    2  O6  UNL     1     -33.370   6.814   5.143  1.00 20.00    -0.297 OA
ENDROOT
BRANCH   1   3
HETATM    3  C3  UNL     1     -34.474   5.388   3.543  1.00 20.00     0.079 C 
BRANCH   3   4
HETATM    4  C5  UNL     1     -35.450   4.959   4.636  1.00 20.00     0.003 C 
HETATM    5  C2  UNL     1     -34.842   3.950   5.600  1.00 20.00     0.005 C 
ENDBRANCH   3   4
ENDBRANCH   1   3
BRANCH   1   6
HETATM    6  C4  UNL     1     -32.163   6.401   3.094  1.00 20.00     0.192 C 
HETATM    7 CL7  UNL     1     -32.144   7.997   2.329  1.00 20.00    -0.123 Cl
ENDBRANCH   1   6
TORSDOF 3
ENDMDL
MODEL 8
REMARK VINA RESULT:      -3.7      3.266      4.481
REMARK  3 active torsions:
REMARK  status: ('A' for Active; 'I' for Inactive)
REMARK    1  A    between atoms: C1_1  and  C3_3 
REMARK    2  A    between atoms: C1_1  and  C4_4 
REMARK    3  A    between atoms: C3_3  and  C5_5 
ROOT
HETATM    1  C1  UNL     1     -32.029   7.422   2.969  1.00 20.00     0.140 C 
HETATM    2  O6  UNL     1     -31.337   7.737   3.935  1.00 20.00    -0.297 OA
ENDROOT
BRANCH   1   3
HETATM    3  C3  UNL     1     -33.002   6.251   3.022  1.00 20.00     0.079 C 
BRANCH   3   4
HETATM    4  C5  UNL     1     -33.911   6.256   4.249  1.00 20.00     0.003 C 
HETATM    5  C2  UNL     1     -35.029   5.227   4.152  1.00 20.00     0.005 C 
ENDBRANCH   3   4
ENDBRANCH   1   3
BRANCH   1   6
HETATM    6  C4  UNL     1     -31.953   8.134   1.635  1.00 20.00     0.192 C 
HETATM    7 CL7  UNL     1     -32.581   9.783   1.767  1.00 20.00    -0.123 Cl
ENDBRANCH   1   6
TORSDOF 3
ENDMDL
MODEL 9
REMARK VINA RESULT:      -3.4     12.729     13.257
REMARK  3 active torsions:
REMARK  status: ('A' for Active; 'I' for Inactive)
REMARK    1  A    between atoms: C1_1  and  C3_3 
REMARK    2  A    between atoms: C1_1  and  C4_4 
REMARK    3  A    between atoms: C3_3  and  C5_5 
ROOT
HETATM    1  C1  UNL     1     -34.564  13.704  -4.625  1.00 20.00     0.140 C 
HETATM    2  O6  UNL     1     -34.959  12.541  -4.596  1.00 20.00    -0.297 OA
ENDROOT
BRANCH   1   3
HETATM    3  C3  UNL     1     -33.423  14.190  -3.740  1.00 20.00     0.079 C 
BRANCH   3   4
HETATM    4  C5  UNL     1     -33.415  15.700  -3.511  1.00 20.00     0.003 C 
HETATM    5  C2  UNL     1     -34.138  16.102  -2.234  1.00 20.00     0.005 C 
ENDBRANCH   3   4
ENDBRANCH   1   3
BRANCH   1   6
HETATM    6  C4  UNL     1     -35.189  14.765  -5.506  1.00 20.00     0.192 C 
HETATM    7 CL7  UNL     1     -34.333  14.885  -7.050  1.00 20.00    -0.123 Cl
ENDBRANCH   1   6
TORSDOF 3
ENDMDL
