MODEL 1
REMARK VINA RESULT:      -5.0      0.000      0.000
REMARK  0 active torsions:
REMARK  status: ('A' for Active; 'I' for Inactive)
ROOT
HETATM    1  C1  UNL     1     -33.608   6.079   3.001  1.00 20.00     0.055 A 
HETATM    2  C2  UNL     1     -34.186   5.599   4.151  1.00 20.00    -0.029 A 
HETATM    3  C3  UNL     1     -33.790   6.121   5.370  1.00 20.00     0.063 A 
HETATM    4  C4  UNL     1     -32.646   7.059   3.167  1.00 20.00     0.148 A 
HETATM    5  C5  UNL     1     -35.264   4.582   4.320  1.00 20.00     0.041 C 
HETATM    6  C6  UNL     1     -34.570   5.513   6.498  1.00 20.00     0.062 C 
HETATM    7  C7  UNL     1     -35.123   4.251   5.817  1.00 20.00     0.011 C 
HETATM    8  N8  UNL     1     -32.862   7.079   5.508  1.00 20.00    -0.153 NA
HETATM    9  N9  UNL     1     -32.272   7.552   4.378  1.00 20.00    -0.138 NA
HETATM   10 CL10 UNL     1     -31.836   7.750   1.825  1.00 20.00    -0.060 Cl
ENDROOT
TORSDOF 0
ENDMDL
MODEL 2
REMARK VINA RESULT:      -4.9      1.560      2.027
REMARK  0 active torsions:
REMARK  status: ('A' for Active; 'I' for Inactive)
ROOT
HETATM    1  C1  UNL     1     -32.952   7.054   4.413  1.00 20.00     0.055 A 
HETATM    2  C2  UNL     1     -33.749   6.120   5.030  1.00 20.00    -0.029 A 
HETATM    3  C3  UNL     1     -34.366   5.150   4.261  1.00 20.00     0.063 A 
HETATM    4  C4  UNL     1     -32.845   6.948   3.038  1.00 20.00     0.148 A 
HETATM    5  C5  UNL     1     -34.046   5.934   6.480  1.00 20.00     0.041 C 
HETATM    6  C6  UNL     1     -35.143   4.194   5.116  1.00 20.00     0.062 C 
HETATM    7  C7  UNL     1     -35.275   5.011   6.411  1.00 20.00     0.011 C 
HETATM    8  N8  UNL     1     -34.239   5.059   2.928  1.00 20.00    -0.153 NA
HETATM    9  N9  UNL     1     -33.466   5.986   2.304  1.00 20.00    -0.138 NA
HETATM   10 CL10 UNL     1     -31.891   8.043   2.130  1.00 20.00    -0.060 Cl
ENDROOT
TORSDOF 0
ENDMDL
MODEL 3
REMARK VINA RESULT:      -4.7     10.595     11.347
REMARK  0 active torsions:
REMARK  status: ('A' for Active; 'I' for Inactive)
ROOT
HETATM    1  C1  UNL     1     -41.355   3.883  -1.920  1.00 20.00     0.055 A 
HETATM    2  C2  UNL     1     -41.527   5.211  -1.615  1.00 20.00    -0.029 A 
HETATM    3  C3  UNL     1     -42.472   5.944  -2.313  1.00 20.00     0.063 A 
HETATM    4  C4  UNL     1     -42.152   3.383  -2.933  1.00 20.00     0.148 A 
HETATM    5  C5  UNL     1     -40.862   6.041  -0.569  1.00 20.00     0.041 C 
HETATM    6  C6  UNL     1     -42.552   7.351  -1.801  1.00 20.00     0.062 C 
HETATM    7  C7  UNL     1     -41.215   7.459  -1.051  1.00 20.00     0.011 C 
HETATM    8  N8  UNL     1     -43.244   5.435  -3.286  1.00 20.00    -0.153 NA
HETATM    9  N9  UNL     1     -43.072   4.126  -3.607  1.00 20.00    -0.138 NA
HETATM   10 CL10 UNL     1     -42.047   1.746  -3.427  1.00 20.00    -0.060 Cl
ENDROOT
TORSDOF 0
ENDMDL
MODEL 4
REMARK VINA RESULT:      -4.6     12.193     12.970
REMARK  0 active torsions:
REMARK  status: ('A' for Active; 'I' for Inactive)
ROOT
HETATM    1  C1  UNL     1     -34.603  15.036  -2.947  1.00 20.00     0.055 A 
HETATM    2  C2  UNL     1     -34.338  16.212  -2.288  1.00 20.00    -0.029 A 
HETATM    3  C3  UNL     1     -33.781  17.265  -2.992  1.00 20.00     0.063 A 
HETATM    4  C4  UNL     1     -34.268  15.001  -4.288  1.00 20.00     0.148 A 
HETATM    5  C5  UNL     1     -34.604  16.588  -0.870  1.00 20.00     0.041 C 
HETATM    6  C6  UNL     1     -33.620  18.474  -2.120  1.00 20.00     0.062 C 
HETATM    7  C7  UNL     1     -33.715  17.836  -0.725  1.00 20.00     0.011 C 
HETATM    8  N8  UNL     1     -33.474  17.214  -4.298  1.00 20.00    -0.153 NA
HETATM    9  N9  UNL     1     -33.717  16.050  -4.957  1.00 20.00    -0.138 NA
HETATM   10 CL10 UNL     1     -34.535  13.601  -5.239  1.00 20.00    -0.060 Cl
ENDROOT
TORSDOF 0
ENDMDL
MODEL 5
REMARK VINA RESULT:      -4.5     12.211     13.301
REMARK  0 active torsions:
REMARK  status: ('A' for Active; 'I' for Inactive)
ROOT
HETATM    1  C1  UNL     1     -34.709  15.048  -3.048  1.00 20.00     0.055 A 
HETATM    2  C2  UNL     1     -34.615  14.910  -4.411  1.00 20.00    -0.029 A 
HETATM    3  C3  UNL     1     -34.150  15.974  -5.164  1.00 20.00     0.063 A 
HETATM    4  C4  UNL     1     -34.335  16.276  -2.534  1.00 20.00     0.148 A 
HETATM    5  C5  UNL     1     -34.902  13.724  -5.269  1.00 20.00     0.041 C 
HETATM    6  C6  UNL     1     -34.064  15.614  -6.617  1.00 20.00     0.062 C 
HETATM    7  C7  UNL     1     -34.978  14.379  -6.660  1.00 20.00     0.011 C 
HETATM    8  N8  UNL     1     -33.781  17.155  -4.642  1.00 20.00    -0.153 NA
HETATM    9  N9  UNL     1     -33.884  17.309  -3.296  1.00 20.00    -0.138 NA
HETATM   10 CL10 UNL     1     -34.404  16.598  -0.852  1.00 20.00    -0.060 Cl
ENDROOT
TORSDOF 0
ENDMDL
MODEL 6
REMARK VINA RESULT:      -4.3     10.235     10.948
REMARK  0 active torsions:
REMARK  status: ('A' for Active; 'I' for Inactive)
ROOT
HETATM    1  C1  UNL     1     -42.722   4.698  -2.867  1.00 20.00     0.055 A 
HETATM    2  C2  UNL     1     -42.557   5.931  -2.285  1.00 20.00    -0.029 A 
HETATM    3  C3  UNL     1     -41.496   6.129  -1.418  1.00 20.00     0.063 A 
HETATM    4  C4  UNL     1     -41.797   3.731  -2.516  1.00 20.00     0.148 A 
HETATM    5  C5  UNL     1     -43.346   7.183  -2.470  1.00 20.00     0.041 C 
HETATM    6  C6  UNL     1     -41.451   7.546  -0.932  1.00 20.00     0.062 C 
HETATM    7  C7  UNL     1     -42.881   8.006  -1.255  1.00 20.00     0.011 C 
HETATM    8  N8  UNL     1     -40.603   5.179  -1.100  1.00 20.00    -0.153 NA
HETATM    9  N9  UNL     1     -40.764   3.950  -1.658  1.00 20.00    -0.138 NA
HETATM   10 CL10 UNL     1     -41.877   2.145  -3.158  1.00 20.00    -0.060 Cl
ENDROOT
TORSDOF 0
ENDMDL
MODEL 7
REMARK VINA RESULT:      -4.3     10.633     11.256
REMARK  0 active torsions:
REMARK  status: ('A' for Active; 'I' for Inactive)
ROOT
HETATM    1  C1  UNL     1     -42.046   7.665  -2.198  1.00 20.00     0.055 A 
HETATM    2  C2  UNL     1     -41.708   6.436  -1.686  1.00 20.00    -0.029 A 
HETATM    3  C3  UNL     1     -42.223   5.296  -2.279  1.00 20.00     0.063 A 
HETATM    4  C4  UNL     1     -42.904   7.657  -3.282  1.00 20.00     0.148 A 
HETATM    5  C5  UNL     1     -40.792   6.094  -0.559  1.00 20.00     0.041 C 
HETATM    6  C6  UNL     1     -41.698   4.057  -1.618  1.00 20.00     0.062 C 
HETATM    7  C7  UNL     1     -41.195   4.634  -0.285  1.00 20.00     0.011 C 
HETATM    8  N8  UNL     1     -43.046   5.311  -3.338  1.00 20.00    -0.153 NA
HETATM    9  N9  UNL     1     -43.400   6.522  -3.845  1.00 20.00    -0.138 NA
HETATM   10 CL10 UNL     1     -43.417   9.113  -4.025  1.00 20.00    -0.060 Cl
ENDROOT
TORSDOF 0
ENDMDL
MODEL 8
REMARK VINA RESULT:      -4.2     12.020     12.745
REMARK  0 active torsions:
REMARK  status: ('A' for Active; 'I' for Inactive)
ROOT
HETATM    1  C1  UNL     1     -36.248  16.335  -3.320  1.00 20.00     0.055 A 
HETATM    2  C2  UNL     1     -35.134  15.575  -3.586  1.00 20.00    -0.029 A 
HETATM    3  C3  UNL     1     -35.296  14.248  -3.944  1.00 20.00     0.063 A 
HETATM    4  C4  UNL     1     -37.465  15.686  -3.423  1.00 20.00     0.148 A 
HETATM    5  C5  UNL     1     -33.696  15.969  -3.598  1.00 20.00     0.041 C 
HETATM    6  C6  UNL     1     -33.976  13.605  -4.247  1.00 20.00     0.062 C 
HETATM    7  C7  UNL     1     -33.013  14.590  -3.566  1.00 20.00     0.011 C 
HETATM    8  N8  UNL     1     -36.488  13.642  -4.049  1.00 20.00    -0.153 NA
HETATM    9  N9  UNL     1     -37.596  14.378  -3.774  1.00 20.00    -0.138 NA
HETATM   10 CL10 UNL     1     -38.940  16.503  -3.117  1.00 20.00    -0.060 Cl
ENDROOT
TORSDOF 0
ENDMDL
MODEL 9
REMARK VINA RESULT:      -4.1     11.965     12.493
REMARK  0 active torsions:
REMARK  status: ('A' for Active; 'I' for Inactive)
ROOT
HETATM    1  C1  UNL     1     -33.764  16.186  -2.293  1.00 20.00     0.055 A 
HETATM    2  C2  UNL     1     -34.366  15.263  -3.113  1.00 20.00    -0.029 A 
HETATM    3  C3  UNL     1     -35.711  15.403  -3.409  1.00 20.00     0.063 A 
HETATM    4  C4  UNL     1     -34.579  17.194  -1.811  1.00 20.00     0.148 A 
HETATM    5  C5  UNL     1     -33.776  14.089  -3.819  1.00 20.00     0.041 C 
HETATM    6  C6  UNL     1     -36.171  14.338  -4.359  1.00 20.00     0.062 C 
HETATM    7  C7  UNL     1     -35.045  13.305  -4.197  1.00 20.00     0.011 C 
HETATM    8  N8  UNL     1     -36.481  16.397  -2.939  1.00 20.00    -0.153 NA
HETATM    9  N9  UNL     1     -35.900  17.308  -2.114  1.00 20.00    -0.138 NA
HETATM   10 CL10 UNL     1     -33.970  18.414  -0.774  1.00 20.00    -0.060 Cl
ENDROOT
TORSDOF 0
ENDMDL
