MODEL 1
REMARK VINA RESULT:      -6.1      0.000      0.000
REMARK  4 active torsions:
REMARK  status: ('A' for Active; 'I' for Inactive)
REMARK    1  A    between atoms: C2_2  and  C11_11 
REMARK    2  A    between atoms: C9_9  and  C10_10 
REMARK    3  A    between atoms: C10_10  and  C11_11 
REMARK    4  A    between atoms: C11_11  and  O12_12 
ROOT
HETATM    1  C11 UNL     1     -32.167   6.690   3.340  1.00 20.00     0.147 C 
ENDROOT
BRANCH   1   2
HETATM    2  C2  UNL     1     -33.250   6.149   4.226  1.00 20.00    -0.055 C 
HETATM    3  C1  UNL     1     -33.354   6.504   5.519  1.00 20.00    -0.021 C 
HETATM    4  C3  UNL     1     -34.399   5.961   6.449  1.00 20.00     0.027 C 
HETATM    5  C5  UNL     1     -35.121   4.733   5.894  1.00 20.00     0.004 C 
HETATM    6  C6  UNL     1     -35.469   4.922   4.423  1.00 20.00     0.005 C 
HETATM    7  C4  UNL     1     -34.214   5.182   3.586  1.00 20.00     0.036 C 
ENDBRANCH   1   2
BRANCH   1   8
HETATM    8  C10 UNL     1     -32.738   7.357   2.097  1.00 20.00     0.041 C 
BRANCH   8   9
HETATM    9  C9  UNL     1     -31.932   8.569   1.658  1.00 20.00    -0.012 A 
HETATM   10  C7  UNL     1     -32.226   9.240   0.345  1.00 20.00     0.005 A 
HETATM   11  C8  UNL     1     -32.564   9.932   1.637  1.00 20.00     0.005 A 
ENDBRANCH   8   9
ENDBRANCH   1   8
BRANCH   1  12
HETATM   12  O12 UNL     1     -31.498   7.665   4.123  1.00 20.00    -0.391 OA
HETATM   13  H30 UNL     1     -32.099   8.425   4.201  1.00 20.00     0.210 HD
ENDBRANCH   1  12
TORSDOF 4
ENDMDL
MODEL 2
REMARK VINA RESULT:      -5.0      1.413      2.050
REMARK  4 active torsions:
REMARK  status: ('A' for Active; 'I' for Inactive)
REMARK    1  A    between atoms: C2_2  and  C11_11 
REMARK    2  A    between atoms: C9_9  and  C10_10 
REMARK    3  A    between atoms: C10_10  and  C11_11 
REMARK    4  A    between atoms: C11_11  and  O12_12 
ROOT
HETATM    1  C11 UNL     1     -33.559   6.333   2.854  1.00 20.00     0.147 C 
ENDROOT
BRANCH   1   2
HETATM    2  C2  UNL     1     -34.038   5.787   4.167  1.00 20.00    -0.055 C 
HETATM    3  C1  UNL     1     -34.604   4.572   4.268  1.00 20.00    -0.021 C 
HETATM    4  C3  UNL     1     -35.129   4.002   5.553  1.00 20.00     0.027 C 
HETATM    5  C5  UNL     1     -35.264   5.044   6.663  1.00 20.00     0.004 C 
HETATM    6  C6  UNL     1     -34.048   5.961   6.704  1.00 20.00     0.005 C 
HETATM    7  C4  UNL     1     -33.851   6.681   5.368  1.00 20.00     0.036 C 
ENDBRANCH   1   2
BRANCH   1   8
HETATM    8  C10 UNL     1     -32.069   6.642   2.884  1.00 20.00     0.041 C 
BRANCH   8   9
HETATM    9  C9  UNL     1     -31.761   8.084   2.511  1.00 20.00    -0.012 A 
HETATM   10  C7  UNL     1     -31.697   8.496   1.066  1.00 20.00     0.005 A 
HETATM   11  C8  UNL     1     -32.835   8.963   1.932  1.00 20.00     0.005 A 
ENDBRANCH   8   9
ENDBRANCH   1   8
BRANCH   1  12
HETATM   12  O12 UNL     1     -33.800   5.300   1.912  1.00 20.00    -0.391 OA
HETATM   13  H30 UNL     1     -34.708   4.988   2.062  1.00 20.00     0.210 HD
ENDBRANCH   1  12
TORSDOF 4
ENDMDL
MODEL 3
REMARK VINA RESULT:      -5.0     10.924     12.958
REMARK  4 active torsions:
REMARK  status: ('A' for Active; 'I' for Inactive)
REMARK    1  A    between atoms: C2_2  and  C11_11 
REMARK    2  A    between atoms: C9_9  and  C10_10 
REMARK    3  A    between atoms: C10_10  and  C11_11 
REMARK    4  A    between atoms: C11_11  and  O12_12 
ROOT
HETATM    1  C11 UNL     1     -33.232  15.617  -3.726  1.00 20.00     0.147 C 
ENDROOT
BRANCH   1   2
HETATM    2  C2  UNL     1     -33.776  15.888  -5.097  1.00 20.00    -0.055 C 
HETATM    3  C1  UNL     1     -33.738  17.113  -5.649  1.00 20.00    -0.021 C 
HETATM    4  C3  UNL     1     -34.302  17.435  -7.001  1.00 20.00     0.027 C 
HETATM    5  C5  UNL     1     -35.208  16.335  -7.554  1.00 20.00     0.004 C 
HETATM    6  C6  UNL     1     -34.604  14.957  -7.314  1.00 20.00     0.005 C 
HETATM    7  C4  UNL     1     -34.370  14.706  -5.823  1.00 20.00     0.036 C 
ENDBRANCH   1   2
BRANCH   1   8
HETATM    8  C10 UNL     1     -34.346  15.438  -2.704  1.00 20.00     0.041 C 
BRANCH   8   9
HETATM    9  C9  UNL     1     -34.692  16.729  -1.979  1.00 20.00    -0.012 A 
HETATM   10  C7  UNL     1     -34.714  16.772  -0.476  1.00 20.00     0.005 A 
HETATM   11  C8  UNL     1     -33.629  17.487  -1.234  1.00 20.00     0.005 A 
ENDBRANCH   8   9
ENDBRANCH   1   8
BRANCH   1  12
HETATM   12  O12 UNL     1     -32.512  14.401  -3.844  1.00 20.00    -0.391 OA
HETATM   13  H30 UNL     1     -32.309  14.284  -4.788  1.00 20.00     0.210 HD
ENDBRANCH   1  12
TORSDOF 4
ENDMDL
MODEL 4
REMARK VINA RESULT:      -4.8     11.195     13.248
REMARK  4 active torsions:
REMARK  status: ('A' for Active; 'I' for Inactive)
REMARK    1  A    between atoms: C2_2  and  C11_11 
REMARK    2  A    between atoms: C9_9  and  C10_10 
REMARK    3  A    between atoms: C10_10  and  C11_11 
REMARK    4  A    between atoms: C11_11  and  O12_12 
ROOT
HETATM    1  C11 UNL     1     -33.411  16.844  -5.209  1.00 20.00     0.147 C 
ENDROOT
BRANCH   1   2
HETATM    2  C2  UNL     1     -34.527  16.133  -5.913  1.00 20.00    -0.055 C 
HETATM    3  C1  UNL     1     -34.296  15.164  -6.817  1.00 20.00    -0.021 C 
HETATM    4  C3  UNL     1     -35.381  14.453  -7.570  1.00 20.00     0.027 C 
HETATM    5  C5  UNL     1     -36.741  15.145  -7.467  1.00 20.00     0.004 C 
HETATM    6  C6  UNL     1     -37.012  15.607  -6.040  1.00 20.00     0.005 C 
HETATM    7  C4  UNL     1     -35.926  16.568  -5.553  1.00 20.00     0.036 C 
ENDBRANCH   1   2
BRANCH   1   8
HETATM    8  C10 UNL     1     -33.874  17.458  -3.896  1.00 20.00     0.041 C 
BRANCH   8   9
HETATM    9  C9  UNL     1     -33.665  16.532  -2.708  1.00 20.00    -0.012 A 
HETATM   10  C7  UNL     1     -34.048  16.976  -1.323  1.00 20.00     0.005 A 
HETATM   11  C8  UNL     1     -34.845  15.906  -2.018  1.00 20.00     0.005 A 
ENDBRANCH   8   9
ENDBRANCH   1   8
BRANCH   1  12
HETATM   12  O12 UNL     1     -32.445  15.842  -4.936  1.00 20.00    -0.391 OA
HETATM   13  H30 UNL     1     -31.638  16.299  -4.644  1.00 20.00     0.210 HD
ENDBRANCH   1  12
TORSDOF 4
ENDMDL
MODEL 5
REMARK VINA RESULT:      -4.8     10.787     11.741
REMARK  4 active torsions:
REMARK  status: ('A' for Active; 'I' for Inactive)
REMARK    1  A    between atoms: C2_2  and  C11_11 
REMARK    2  A    between atoms: C9_9  and  C10_10 
REMARK    3  A    between atoms: C10_10  and  C11_11 
REMARK    4  A    between atoms: C11_11  and  O12_12 
ROOT
HETATM    1  C11 UNL     1     -33.683  16.660  -2.419  1.00 20.00     0.147 C 
ENDROOT
BRANCH   1   2
HETATM    2  C2  UNL     1     -33.886  17.288  -1.072  1.00 20.00    -0.055 C 
HETATM    3  C1  UNL     1     -34.891  16.916  -0.258  1.00 20.00    -0.021 C 
HETATM    4  C3  UNL     1     -35.152  17.542   1.080  1.00 20.00     0.027 C 
HETATM    5  C5  UNL     1     -34.388  18.848   1.295  1.00 20.00     0.004 C 
HETATM    6  C6  UNL     1     -32.951  18.728   0.804  1.00 20.00     0.005 C 
HETATM    7  C4  UNL     1     -32.901  18.361  -0.681  1.00 20.00     0.036 C 
ENDBRANCH   1   2
BRANCH   1   8
HETATM    8  C10 UNL     1     -34.663  15.523  -2.663  1.00 20.00     0.041 C 
BRANCH   8   9
HETATM    9  C9  UNL     1     -34.083  14.427  -3.544  1.00 20.00    -0.012 A 
HETATM   10  C7  UNL     1     -34.985  13.395  -4.164  1.00 20.00     0.005 A 
HETATM   11  C8  UNL     1     -34.329  14.438  -5.027  1.00 20.00     0.005 A 
ENDBRANCH   8   9
ENDBRANCH   1   8
BRANCH   1  12
HETATM   12  O12 UNL     1     -33.934  17.697  -3.354  1.00 20.00    -0.391 OA
HETATM   13  H30 UNL     1     -33.198  18.329  -3.280  1.00 20.00     0.210 HD
ENDBRANCH   1  12
TORSDOF 4
ENDMDL
MODEL 6
REMARK VINA RESULT:      -4.7     10.376     11.864
REMARK  4 active torsions:
REMARK  status: ('A' for Active; 'I' for Inactive)
REMARK    1  A    between atoms: C2_2  and  C11_11 
REMARK    2  A    between atoms: C9_9  and  C10_10 
REMARK    3  A    between atoms: C10_10  and  C11_11 
REMARK    4  A    between atoms: C11_11  and  O12_12 
ROOT
HETATM    1  C11 UNL     1     -42.487   3.260  -2.637  1.00 20.00     0.147 C 
ENDROOT
BRANCH   1   2
HETATM    2  C2  UNL     1     -42.000   4.572  -2.100  1.00 20.00    -0.055 C 
HETATM    3  C1  UNL     1     -41.124   4.644  -1.083  1.00 20.00    -0.021 C 
HETATM    4  C3  UNL     1     -40.639   5.935  -0.492  1.00 20.00     0.027 C 
HETATM    5  C5  UNL     1     -41.468   7.145  -0.922  1.00 20.00     0.004 C 
HETATM    6  C6  UNL     1     -41.787   7.088  -2.411  1.00 20.00     0.005 C 
HETATM    7  C4  UNL     1     -42.550   5.809  -2.766  1.00 20.00     0.036 C 
ENDBRANCH   1   2
BRANCH   1   8
HETATM    8  C10 UNL     1     -41.348   2.426  -3.205  1.00 20.00     0.041 C 
BRANCH   8   9
HETATM    9  C9  UNL     1     -41.729   1.707  -4.490  1.00 20.00    -0.012 A 
HETATM   10  C7  UNL     1     -42.713   0.571  -4.459  1.00 20.00     0.005 A 
HETATM   11  C8  UNL     1     -43.101   1.885  -5.078  1.00 20.00     0.005 A 
ENDBRANCH   8   9
ENDBRANCH   1   8
BRANCH   1  12
HETATM   12  O12 UNL     1     -43.043   2.584  -1.520  1.00 20.00    -0.391 OA
HETATM   13  H30 UNL     1     -43.922   2.268  -1.790  1.00 20.00     0.210 HD
ENDBRANCH   1  12
TORSDOF 4
ENDMDL
MODEL 7
REMARK VINA RESULT:      -4.7     11.058     12.080
REMARK  4 active torsions:
REMARK  status: ('A' for Active; 'I' for Inactive)
REMARK    1  A    between atoms: C2_2  and  C11_11 
REMARK    2  A    between atoms: C9_9  and  C10_10 
REMARK    3  A    between atoms: C10_10  and  C11_11 
REMARK    4  A    between atoms: C11_11  and  O12_12 
ROOT
HETATM    1  C11 UNL     1     -35.481  13.892  -4.667  1.00 20.00     0.147 C 
ENDROOT
BRANCH   1   2
HETATM    2  C2  UNL     1     -35.271  14.997  -3.675  1.00 20.00    -0.055 C 
HETATM    3  C1  UNL     1     -34.059  15.271  -3.161  1.00 20.00    -0.021 C 
HETATM    4  C3  UNL     1     -33.810  16.343  -2.141  1.00 20.00     0.027 C 
HETATM    5  C5  UNL     1     -35.092  16.871  -1.497  1.00 20.00     0.004 C 
HETATM    6  C6  UNL     1     -36.181  17.083  -2.541  1.00 20.00     0.005 C 
HETATM    7  C4  UNL     1     -36.497  15.783  -3.285  1.00 20.00     0.036 C 
ENDBRANCH   1   2
BRANCH   1   8
HETATM    8  C10 UNL     1     -34.623  14.081  -5.910  1.00 20.00     0.041 C 
BRANCH   8   9
HETATM    9  C9  UNL     1     -35.447  14.376  -7.154  1.00 20.00    -0.012 A 
HETATM   10  C7  UNL     1     -36.709  15.187  -7.051  1.00 20.00     0.005 A 
HETATM   11  C8  UNL     1     -35.492  15.768  -7.719  1.00 20.00     0.005 A 
ENDBRANCH   8   9
ENDBRANCH   1   8
BRANCH   1  12
HETATM   12  O12 UNL     1     -35.073  12.709  -3.998  1.00 20.00    -0.391 OA
HETATM   13  H30 UNL     1     -34.204  12.894  -3.603  1.00 20.00     0.210 HD
ENDBRANCH   1  12
TORSDOF 4
ENDMDL
MODEL 8
REMARK VINA RESULT:      -4.7     11.125     12.639
REMARK  4 active torsions:
REMARK  status: ('A' for Active; 'I' for Inactive)
REMARK    1  A    between atoms: C2_2  and  C11_11 
REMARK    2  A    between atoms: C9_9  and  C10_10 
REMARK    3  A    between atoms: C10_10  and  C11_11 
REMARK    4  A    between atoms: C11_11  and  O12_12 
ROOT
HETATM    1  C11 UNL     1     -33.844  15.958  -4.593  1.00 20.00     0.147 C 
ENDROOT
BRANCH   1   2
HETATM    2  C2  UNL     1     -33.925  16.680  -3.281  1.00 20.00    -0.055 C 
HETATM    3  C1  UNL     1     -33.660  17.994  -3.174  1.00 20.00    -0.021 C 
HETATM    4  C3  UNL     1     -33.694  18.747  -1.876  1.00 20.00     0.027 C 
HETATM    5  C5  UNL     1     -33.730  17.834  -0.651  1.00 20.00     0.004 C 
HETATM    6  C6  UNL     1     -34.700  16.678  -0.859  1.00 20.00     0.005 C 
HETATM    7  C4  UNL     1     -34.317  15.847  -2.086  1.00 20.00     0.036 C 
ENDBRANCH   1   2
BRANCH   1   8
HETATM    8  C10 UNL     1     -34.584  16.707  -5.693  1.00 20.00     0.041 C 
BRANCH   8   9
HETATM    9  C9  UNL     1     -35.382  15.781  -6.598  1.00 20.00    -0.012 A 
HETATM   10  C7  UNL     1     -34.681  14.935  -7.624  1.00 20.00     0.005 A 
HETATM   11  C8  UNL     1     -35.304  14.291  -6.416  1.00 20.00     0.005 A 
ENDBRANCH   8   9
ENDBRANCH   1   8
BRANCH   1  12
HETATM   12  O12 UNL     1     -32.462  15.916  -4.910  1.00 20.00    -0.391 OA
HETATM   13  H30 UNL     1     -32.393  15.961  -5.879  1.00 20.00     0.210 HD
ENDBRANCH   1  12
TORSDOF 4
ENDMDL
MODEL 9
REMARK VINA RESULT:      -4.7     11.026     12.027
REMARK  4 active torsions:
REMARK  status: ('A' for Active; 'I' for Inactive)
REMARK    1  A    between atoms: C2_2  and  C11_11 
REMARK    2  A    between atoms: C9_9  and  C10_10 
REMARK    3  A    between atoms: C10_10  and  C11_11 
REMARK    4  A    between atoms: C11_11  and  O12_12 
ROOT
HETATM    1  C11 UNL     1     -36.456  14.826  -4.116  1.00 20.00     0.147 C 
ENDROOT
BRANCH   1   2
HETATM    2  C2  UNL     1     -35.992  15.820  -3.094  1.00 20.00    -0.055 C 
HETATM    3  C1  UNL     1     -34.875  15.627  -2.369  1.00 20.00    -0.021 C 
HETATM    4  C3  UNL     1     -34.395  16.577  -1.312  1.00 20.00     0.027 C 
HETATM    5  C5  UNL     1     -35.447  17.607  -0.904  1.00 20.00     0.004 C 
HETATM    6  C6  UNL     1     -36.170  18.164  -2.124  1.00 20.00     0.005 C 
HETATM    7  C4  UNL     1     -36.849  17.049  -2.923  1.00 20.00     0.036 C 
ENDBRANCH   1   2
BRANCH   1   8
HETATM    8  C10 UNL     1     -35.438  13.713  -4.322  1.00 20.00     0.041 C 
BRANCH   8   9
HETATM    9  C9  UNL     1     -34.752  13.787  -5.678  1.00 20.00    -0.012 A 
HETATM   10  C7  UNL     1     -35.468  14.385  -6.857  1.00 20.00     0.005 A 
HETATM   11  C8  UNL     1     -34.311  15.113  -6.231  1.00 20.00     0.005 A 
ENDBRANCH   8   9
ENDBRANCH   1   8
BRANCH   1  12
HETATM   12  O12 UNL     1     -37.647  14.271  -3.582  1.00 20.00    -0.391 OA
HETATM   13  H30 UNL     1     -38.244  15.015  -3.392  1.00 20.00     0.210 HD
ENDBRANCH   1  12
TORSDOF 4
ENDMDL
