MODEL 1
REMARK VINA RESULT:      -5.3      0.000      0.000
REMARK  2 active torsions:
REMARK  status: ('A' for Active; 'I' for Inactive)
REMARK    1  A    between atoms: C2_2  and  C3_3 
REMARK    2  A    between atoms: C3_3  and  C9_9 
ROOT
HETATM    1  C1  UNL     1     -34.209   5.623   3.327  1.00 20.00    -0.016 C 
HETATM    2  C2  UNL     1     -33.402   6.504   3.930  1.00 20.00    -0.016 C 
HETATM    3  C4  UNL     1     -35.131   4.965   4.299  1.00 20.00     0.028 C 
HETATM    4  C5  UNL     1     -33.658   6.575   5.402  1.00 20.00     0.042 C 
HETATM    5  C6  UNL     1     -34.523   5.337   5.651  1.00 20.00     0.009 C 
ENDROOT
BRANCH   2   6
HETATM    6  C3  UNL     1     -32.415   7.318   3.296  1.00 20.00     0.159 C 
HETATM    7  O10 UNL     1     -31.291   7.470   3.795  1.00 20.00    -0.292 OA
BRANCH   6   8
HETATM    8  C9  UNL     1     -32.766   7.990   1.985  1.00 20.00     0.060 A 
HETATM    9  C7  UNL     1     -32.561   9.454   1.882  1.00 20.00     0.013 A 
HETATM   10  C8  UNL     1     -31.653   8.509   1.156  1.00 20.00     0.013 A 
ENDBRANCH   6   8
ENDBRANCH   2   6
TORSDOF 2
ENDMDL
MODEL 2
REMARK VINA RESULT:      -5.3      0.204      1.269
REMARK  2 active torsions:
REMARK  status: ('A' for Active; 'I' for Inactive)
REMARK    1  A    between atoms: C2_2  and  C3_3 
REMARK    2  A    between atoms: C3_3  and  C9_9 
ROOT
HETATM    1  C1  UNL     1     -33.580   6.461   5.145  1.00 20.00    -0.016 C 
HETATM    2  C2  UNL     1     -33.298   6.522   3.839  1.00 20.00    -0.016 C 
HETATM    3  C4  UNL     1     -34.615   5.426   5.438  1.00 20.00     0.028 C 
HETATM    4  C5  UNL     1     -34.099   5.535   3.051  1.00 20.00     0.042 C 
HETATM    5  C6  UNL     1     -35.170   5.099   4.053  1.00 20.00     0.009 C 
ENDROOT
BRANCH   2   6
HETATM    6  C3  UNL     1     -32.344   7.386   3.219  1.00 20.00     0.159 C 
HETATM    7  O10 UNL     1     -31.226   7.573   3.720  1.00 20.00    -0.292 OA
BRANCH   6   8
HETATM    8  C9  UNL     1     -32.724   8.070   1.922  1.00 20.00     0.060 A 
HETATM    9  C7  UNL     1     -32.515   9.533   1.825  1.00 20.00     0.013 A 
HETATM   10  C8  UNL     1     -31.629   8.589   1.070  1.00 20.00     0.013 A 
ENDBRANCH   6   8
ENDBRANCH   2   6
TORSDOF 2
ENDMDL
MODEL 3
REMARK VINA RESULT:      -5.1      1.424      1.882
REMARK  2 active torsions:
REMARK  status: ('A' for Active; 'I' for Inactive)
REMARK    1  A    between atoms: C2_2  and  C3_3 
REMARK    2  A    between atoms: C3_3  and  C9_9 
ROOT
HETATM    1  C1  UNL     1     -34.824   4.433   4.545  1.00 20.00    -0.016 C 
HETATM    2  C2  UNL     1     -34.141   5.578   4.427  1.00 20.00    -0.016 C 
HETATM    3  C4  UNL     1     -35.334   4.237   5.934  1.00 20.00     0.028 C 
HETATM    4  C5  UNL     1     -34.086   6.328   5.720  1.00 20.00     0.042 C 
HETATM    5  C6  UNL     1     -34.558   5.283   6.733  1.00 20.00     0.009 C 
ENDROOT
BRANCH   2   6
HETATM    6  C3  UNL     1     -33.534   6.082   3.236  1.00 20.00     0.159 C 
HETATM    7  O10 UNL     1     -33.558   5.434   2.180  1.00 20.00    -0.292 OA
BRANCH   6   8
HETATM    8  C9  UNL     1     -32.864   7.439   3.285  1.00 20.00     0.060 A 
HETATM    9  C7  UNL     1     -31.386   7.476   3.381  1.00 20.00     0.013 A 
HETATM   10  C8  UNL     1     -32.072   7.860   2.105  1.00 20.00     0.013 A 
ENDBRANCH   6   8
ENDBRANCH   2   6
TORSDOF 2
ENDMDL
MODEL 4
REMARK VINA RESULT:      -4.6     10.062     11.319
REMARK  2 active torsions:
REMARK  status: ('A' for Active; 'I' for Inactive)
REMARK    1  A    between atoms: C2_2  and  C3_3 
REMARK    2  A    between atoms: C3_3  and  C9_9 
ROOT
HETATM    1  C1  UNL     1     -41.959   6.367  -2.120  1.00 20.00    -0.016 C 
HETATM    2  C2  UNL     1     -41.741   5.049  -2.040  1.00 20.00    -0.016 C 
HETATM    3  C4  UNL     1     -41.176   7.120  -1.097  1.00 20.00     0.028 C 
HETATM    4  C5  UNL     1     -40.775   4.713  -0.948  1.00 20.00     0.042 C 
HETATM    5  C6  UNL     1     -40.704   6.016  -0.151  1.00 20.00     0.009 C 
ENDROOT
BRANCH   2   6
HETATM    6  C3  UNL     1     -42.314   4.044  -2.877  1.00 20.00     0.159 C 
HETATM    7  O10 UNL     1     -43.256   4.304  -3.639  1.00 20.00    -0.292 OA
BRANCH   6   8
HETATM    8  C9  UNL     1     -41.738   2.644  -2.824  1.00 20.00     0.060 A 
HETATM    9  C7  UNL     1     -42.638   1.514  -3.151  1.00 20.00     0.013 A 
HETATM   10  C8  UNL     1     -41.558   1.924  -4.106  1.00 20.00     0.013 A 
ENDBRANCH   6   8
ENDBRANCH   2   6
TORSDOF 2
ENDMDL
MODEL 5
REMARK VINA RESULT:      -4.6     10.649     11.253
REMARK  2 active torsions:
REMARK  status: ('A' for Active; 'I' for Inactive)
REMARK    1  A    between atoms: C2_2  and  C3_3 
REMARK    2  A    between atoms: C3_3  and  C9_9 
ROOT
HETATM    1  C1  UNL     1     -33.748  14.855  -3.241  1.00 20.00    -0.016 C 
HETATM    2  C2  UNL     1     -34.962  15.370  -3.016  1.00 20.00    -0.016 C 
HETATM    3  C4  UNL     1     -33.801  13.716  -4.204  1.00 20.00     0.028 C 
HETATM    4  C5  UNL     1     -36.021  14.655  -3.794  1.00 20.00     0.042 C 
HETATM    5  C6  UNL     1     -35.294  13.395  -4.268  1.00 20.00     0.009 C 
ENDROOT
BRANCH   2   6
HETATM    6  C3  UNL     1     -35.267  16.476  -2.165  1.00 20.00     0.159 C 
HETATM    7  O10 UNL     1     -36.096  17.335  -2.501  1.00 20.00    -0.292 OA
BRANCH   6   8
HETATM    8  C9  UNL     1     -34.562  16.577  -0.829  1.00 20.00     0.060 A 
HETATM    9  C7  UNL     1     -33.774  17.801  -0.554  1.00 20.00     0.013 A 
HETATM   10  C8  UNL     1     -35.076  17.562   0.150  1.00 20.00     0.013 A 
ENDBRANCH   6   8
ENDBRANCH   2   6
TORSDOF 2
ENDMDL
MODEL 6
REMARK VINA RESULT:      -4.5     10.841     11.616
REMARK  2 active torsions:
REMARK  status: ('A' for Active; 'I' for Inactive)
REMARK    1  A    between atoms: C2_2  and  C3_3 
REMARK    2  A    between atoms: C3_3  and  C9_9 
ROOT
HETATM    1  C1  UNL     1     -33.645  15.322  -3.216  1.00 20.00    -0.016 C 
HETATM    2  C2  UNL     1     -34.770  14.805  -3.723  1.00 20.00    -0.016 C 
HETATM    3  C4  UNL     1     -33.932  16.368  -2.191  1.00 20.00     0.028 C 
HETATM    4  C5  UNL     1     -35.988  15.424  -3.116  1.00 20.00     0.042 C 
HETATM    5  C6  UNL     1     -35.419  16.651  -2.400  1.00 20.00     0.009 C 
ENDROOT
BRANCH   2   6
HETATM    6  C3  UNL     1     -34.858  13.775  -4.709  1.00 20.00     0.159 C 
HETATM    7  O10 UNL     1     -35.029  12.590  -4.386  1.00 20.00    -0.292 OA
BRANCH   6   8
HETATM    8  C9  UNL     1     -34.747  14.160  -6.169  1.00 20.00     0.060 A 
HETATM    9  C7  UNL     1     -35.807  15.026  -6.737  1.00 20.00     0.013 A 
HETATM   10  C8  UNL     1     -34.434  15.573  -6.487  1.00 20.00     0.013 A 
ENDBRANCH   6   8
ENDBRANCH   2   6
TORSDOF 2
ENDMDL
MODEL 7
REMARK VINA RESULT:      -4.5     10.529     11.464
REMARK  2 active torsions:
REMARK  status: ('A' for Active; 'I' for Inactive)
REMARK    1  A    between atoms: C2_2  and  C3_3 
REMARK    2  A    between atoms: C3_3  and  C9_9 
ROOT
HETATM    1  C1  UNL     1     -34.675  16.236  -1.177  1.00 20.00    -0.016 C 
HETATM    2  C2  UNL     1     -34.018  16.576  -2.292  1.00 20.00    -0.016 C 
HETATM    3  C4  UNL     1     -34.782  17.384  -0.228  1.00 20.00     0.028 C 
HETATM    4  C5  UNL     1     -33.581  18.006  -2.265  1.00 20.00     0.042 C 
HETATM    5  C6  UNL     1     -33.781  18.389  -0.798  1.00 20.00     0.009 C 
ENDROOT
BRANCH   2   6
HETATM    6  C3  UNL     1     -33.755  15.727  -3.411  1.00 20.00     0.159 C 
HETATM    7  O10 UNL     1     -33.117  16.137  -4.391  1.00 20.00    -0.292 OA
BRANCH   6   8
HETATM    8  C9  UNL     1     -34.266  14.302  -3.372  1.00 20.00     0.060 A 
HETATM    9  C7  UNL     1     -35.518  13.996  -4.102  1.00 20.00     0.013 A 
HETATM   10  C8  UNL     1     -34.199  13.511  -4.623  1.00 20.00     0.013 A 
ENDBRANCH   6   8
ENDBRANCH   2   6
TORSDOF 2
ENDMDL
MODEL 8
REMARK VINA RESULT:      -4.4      1.698      4.597
REMARK  2 active torsions:
REMARK  status: ('A' for Active; 'I' for Inactive)
REMARK    1  A    between atoms: C2_2  and  C3_3 
REMARK    2  A    between atoms: C3_3  and  C9_9 
ROOT
HETATM    1  C1  UNL     1     -32.301   7.372   4.185  1.00 20.00    -0.016 C 
HETATM    2  C2  UNL     1     -33.313   6.506   4.307  1.00 20.00    -0.016 C 
HETATM    3  C4  UNL     1     -31.800   7.440   2.780  1.00 20.00     0.028 C 
HETATM    4  C5  UNL     1     -33.649   5.856   3.002  1.00 20.00     0.042 C 
HETATM    5  C6  UNL     1     -32.445   6.217   2.130  1.00 20.00     0.009 C 
ENDROOT
BRANCH   2   6
HETATM    6  C3  UNL     1     -34.034   6.211   5.505  1.00 20.00     0.159 C 
HETATM    7  O10 UNL     1     -33.801   6.818   6.560  1.00 20.00    -0.292 OA
BRANCH   6   8
HETATM    8  C9  UNL     1     -35.105   5.141   5.459  1.00 20.00     0.060 A 
HETATM    9  C7  UNL     1     -34.668   3.725   5.479  1.00 20.00     0.013 A 
HETATM   10  C8  UNL     1     -35.326   4.334   6.681  1.00 20.00     0.013 A 
ENDBRANCH   6   8
ENDBRANCH   2   6
TORSDOF 2
ENDMDL
MODEL 9
REMARK VINA RESULT:      -4.4     10.645     12.419
REMARK  2 active torsions:
REMARK  status: ('A' for Active; 'I' for Inactive)
REMARK    1  A    between atoms: C2_2  and  C3_3 
REMARK    2  A    between atoms: C3_3  and  C9_9 
ROOT
HETATM    1  C1  UNL     1     -34.434  14.779  -7.017  1.00 20.00    -0.016 C 
HETATM    2  C2  UNL     1     -35.071  14.508  -5.872  1.00 20.00    -0.016 C 
HETATM    3  C4  UNL     1     -35.258  15.637  -7.918  1.00 20.00     0.028 C 
HETATM    4  C5  UNL     1     -36.425  15.143  -5.827  1.00 20.00     0.042 C 
HETATM    5  C6  UNL     1     -36.646  15.563  -7.281  1.00 20.00     0.009 C 
ENDROOT
BRANCH   2   6
HETATM    6  C3  UNL     1     -34.565  13.731  -4.785  1.00 20.00     0.159 C 
HETATM    7  O10 UNL     1     -34.882  12.542  -4.644  1.00 20.00    -0.292 OA
BRANCH   6   8
HETATM    8  C9  UNL     1     -33.617  14.391  -3.806  1.00 20.00     0.060 A 
HETATM    9  C7  UNL     1     -33.302  15.825  -4.008  1.00 20.00     0.013 A 
HETATM   10  C8  UNL     1     -34.179  15.394  -2.871  1.00 20.00     0.013 A 
ENDBRANCH   6   8
ENDBRANCH   2   6
TORSDOF 2
ENDMDL
