MODEL 1
REMARK VINA RESULT:      -5.5      0.000      0.000
REMARK  2 active torsions:
REMARK  status: ('A' for Active; 'I' for Inactive)
REMARK    1  A    between atoms: C2_2  and  C3_3 
REMARK    2  A    between atoms: C3_3  and  C11_11 
ROOT
HETATM    1  C7  UNL     1     -33.947  18.230   1.013  1.00 20.00     0.005 C 
HETATM    2  C8  UNL     1     -32.823  18.733   0.094  1.00 20.00     0.006 C 
HETATM    3  C9  UNL     1     -34.713  16.623  -0.755  1.00 20.00     0.017 C 
HETATM    4  C10 UNL     1     -34.898  18.979  -1.035  1.00 20.00     0.010 C 
HETATM    5  C11 UNL     1     -33.547  17.091  -1.643  1.00 20.00     0.065 C 
HETATM    6  C12 UNL     1     -35.082  17.898   0.027  1.00 20.00    -0.013 C 
HETATM    7  C13 UNL     1     -33.442  18.594  -1.309  1.00 20.00    -0.003 C 
ENDROOT
BRANCH   5   8
HETATM    8  C3  UNL     1     -33.834  16.863  -3.095  1.00 20.00     0.159 C 
HETATM    9  O14 UNL     1     -33.745  17.764  -3.925  1.00 20.00    -0.292 OA
BRANCH   8  10
HETATM   10  C2  UNL     1     -34.230  15.551  -3.497  1.00 20.00    -0.016 C 
HETATM   11  C1  UNL     1     -35.476  15.150  -3.775  1.00 20.00    -0.016 C 
HETATM   12  C4  UNL     1     -35.521  13.704  -4.142  1.00 20.00     0.028 C 
HETATM   13  C6  UNL     1     -34.049  13.368  -4.377  1.00 20.00     0.009 C 
HETATM   14  C5  UNL     1     -33.245  14.435  -3.634  1.00 20.00     0.042 C 
ENDBRANCH   8  10
ENDBRANCH   5   8
TORSDOF 2
ENDMDL
MODEL 2
REMARK VINA RESULT:      -5.5      0.826      5.053
REMARK  2 active torsions:
REMARK  status: ('A' for Active; 'I' for Inactive)
REMARK    1  A    between atoms: C2_2  and  C3_3 
REMARK    2  A    between atoms: C3_3  and  C11_11 
ROOT
HETATM    1  C7  UNL     1     -35.142  13.307  -4.567  1.00 20.00     0.005 C 
HETATM    2  C8  UNL     1     -36.209  14.167  -3.873  1.00 20.00     0.006 C 
HETATM    3  C9  UNL     1     -33.324  14.772  -3.646  1.00 20.00     0.017 C 
HETATM    4  C10 UNL     1     -34.883  15.569  -5.257  1.00 20.00     0.010 C 
HETATM    5  C11 UNL     1     -34.397  15.588  -2.906  1.00 20.00     0.065 C 
HETATM    6  C12 UNL     1     -34.052  14.332  -4.931  1.00 20.00    -0.013 C 
HETATM    7  C13 UNL     1     -35.583  15.573  -3.894  1.00 20.00    -0.003 C 
ENDROOT
BRANCH   5   8
HETATM    8  C3  UNL     1     -33.930  16.982  -2.620  1.00 20.00     0.159 C 
HETATM    9  O14 UNL     1     -33.477  17.709  -3.500  1.00 20.00    -0.292 OA
BRANCH   8  10
HETATM   10  C2  UNL     1     -34.018  17.450  -1.273  1.00 20.00    -0.016 C 
HETATM   11  C1  UNL     1     -34.834  16.980  -0.323  1.00 20.00    -0.016 C 
HETATM   12  C4  UNL     1     -34.669  17.722   0.962  1.00 20.00     0.028 C 
HETATM   13  C6  UNL     1     -33.373  18.500   0.740  1.00 20.00     0.009 C 
HETATM   14  C5  UNL     1     -33.179  18.583  -0.774  1.00 20.00     0.042 C 
ENDBRANCH   8  10
ENDBRANCH   5   8
TORSDOF 2
ENDMDL
MODEL 3
REMARK VINA RESULT:      -5.4      2.430      3.613
REMARK  2 active torsions:
REMARK  status: ('A' for Active; 'I' for Inactive)
REMARK    1  A    between atoms: C2_2  and  C3_3 
REMARK    2  A    between atoms: C3_3  and  C11_11 
ROOT
HETATM    1  C7  UNL     1     -33.840  17.648  -2.104  1.00 20.00     0.005 C 
HETATM    2  C8  UNL     1     -34.628  16.605  -1.297  1.00 20.00     0.006 C 
HETATM    3  C9  UNL     1     -35.097  17.030  -4.185  1.00 20.00     0.017 C 
HETATM    4  C10 UNL     1     -33.588  15.520  -3.136  1.00 20.00     0.010 C 
HETATM    5  C11 UNL     1     -35.923  16.032  -3.355  1.00 20.00     0.065 C 
HETATM    6  C12 UNL     1     -33.721  16.997  -3.494  1.00 20.00    -0.013 C 
HETATM    7  C13 UNL     1     -34.893  15.500  -2.336  1.00 20.00    -0.003 C 
ENDROOT
BRANCH   5   8
HETATM    8  C3  UNL     1     -36.480  14.934  -4.207  1.00 20.00     0.159 C 
HETATM    9  O14 UNL     1     -37.188  14.045  -3.741  1.00 20.00    -0.292 OA
BRANCH   8  10
HETATM   10  C2  UNL     1     -36.156  14.942  -5.598  1.00 20.00    -0.016 C 
HETATM   11  C1  UNL     1     -36.852  15.543  -6.570  1.00 20.00    -0.016 C 
HETATM   12  C4  UNL     1     -36.230  15.324  -7.909  1.00 20.00     0.028 C 
HETATM   13  C6  UNL     1     -34.848  14.777  -7.556  1.00 20.00     0.009 C 
HETATM   14  C5  UNL     1     -34.959  14.225  -6.134  1.00 20.00     0.042 C 
ENDBRANCH   8  10
ENDBRANCH   5   8
TORSDOF 2
ENDMDL
MODEL 4
REMARK VINA RESULT:      -5.4      1.933      5.331
REMARK  2 active torsions:
REMARK  status: ('A' for Active; 'I' for Inactive)
REMARK    1  A    between atoms: C2_2  and  C3_3 
REMARK    2  A    between atoms: C3_3  and  C11_11 
ROOT
HETATM    1  C7  UNL     1     -36.208  14.874  -6.951  1.00 20.00     0.005 C 
HETATM    2  C8  UNL     1     -36.526  16.087  -6.062  1.00 20.00     0.006 C 
HETATM    3  C9  UNL     1     -34.484  14.088  -5.306  1.00 20.00     0.017 C 
HETATM    4  C10 UNL     1     -34.204  16.093  -6.556  1.00 20.00     0.010 C 
HETATM    5  C11 UNL     1     -34.854  15.271  -4.397  1.00 20.00     0.065 C 
HETATM    6  C12 UNL     1     -34.701  14.659  -6.721  1.00 20.00    -0.013 C 
HETATM    7  C13 UNL     1     -35.168  16.396  -5.406  1.00 20.00    -0.003 C 
ENDROOT
BRANCH   5   8
HETATM    8  C3  UNL     1     -33.724  15.642  -3.486  1.00 20.00     0.159 C 
HETATM    9  O14 UNL     1     -32.591  15.195  -3.642  1.00 20.00    -0.292 OA
BRANCH   8  10
HETATM   10  C2  UNL     1     -34.003  16.537  -2.409  1.00 20.00    -0.016 C 
HETATM   11  C1  UNL     1     -34.647  16.234  -1.275  1.00 20.00    -0.016 C 
HETATM   12  C4  UNL     1     -34.777  17.423  -0.381  1.00 20.00     0.028 C 
HETATM   13  C6  UNL     1     -33.806  18.424  -1.005  1.00 20.00     0.009 C 
HETATM   14  C5  UNL     1     -33.604  17.976  -2.453  1.00 20.00     0.042 C 
ENDBRANCH   8  10
ENDBRANCH   5   8
TORSDOF 2
ENDMDL
MODEL 5
REMARK VINA RESULT:      -5.4      1.012      5.004
REMARK  2 active torsions:
REMARK  status: ('A' for Active; 'I' for Inactive)
REMARK    1  A    between atoms: C2_2  and  C3_3 
REMARK    2  A    between atoms: C3_3  and  C11_11 
ROOT
HETATM    1  C7  UNL     1     -34.422  13.753  -5.258  1.00 20.00     0.005 C 
HETATM    2  C8  UNL     1     -34.868  13.808  -3.789  1.00 20.00     0.006 C 
HETATM    3  C9  UNL     1     -33.292  15.981  -5.029  1.00 20.00     0.017 C 
HETATM    4  C10 UNL     1     -35.657  15.754  -4.899  1.00 20.00     0.010 C 
HETATM    5  C11 UNL     1     -33.690  15.997  -3.543  1.00 20.00     0.065 C 
HETATM    6  C12 UNL     1     -34.463  15.229  -5.691  1.00 20.00    -0.013 C 
HETATM    7  C13 UNL     1     -35.075  15.315  -3.552  1.00 20.00    -0.003 C 
ENDROOT
BRANCH   5   8
HETATM    8  C3  UNL     1     -33.762  17.393  -3.007  1.00 20.00     0.159 C 
HETATM    9  O14 UNL     1     -33.711  18.376  -3.742  1.00 20.00    -0.292 OA
BRANCH   8  10
HETATM   10  C2  UNL     1     -33.885  17.558  -1.593  1.00 20.00    -0.016 C 
HETATM   11  C1  UNL     1     -33.265  18.479  -0.846  1.00 20.00    -0.016 C 
HETATM   12  C4  UNL     1     -33.613  18.342   0.599  1.00 20.00     0.028 C 
HETATM   13  C6  UNL     1     -34.816  17.401   0.570  1.00 20.00     0.009 C 
HETATM   14  C5  UNL     1     -34.744  16.658  -0.764  1.00 20.00     0.042 C 
ENDBRANCH   8  10
ENDBRANCH   5   8
TORSDOF 2
ENDMDL
MODEL 6
REMARK VINA RESULT:      -5.4      2.013      2.677
REMARK  2 active torsions:
REMARK  status: ('A' for Active; 'I' for Inactive)
REMARK    1  A    between atoms: C2_2  and  C3_3 
REMARK    2  A    between atoms: C3_3  and  C11_11 
ROOT
HETATM    1  C7  UNL     1     -35.739  17.703  -1.159  1.00 20.00     0.005 C 
HETATM    2  C8  UNL     1     -34.483  16.987  -0.640  1.00 20.00     0.006 C 
HETATM    3  C9  UNL     1     -35.700  16.318  -3.251  1.00 20.00     0.017 C 
HETATM    4  C10 UNL     1     -34.004  17.917  -2.772  1.00 20.00     0.010 C 
HETATM    5  C11 UNL     1     -34.479  15.565  -2.694  1.00 20.00     0.065 C 
HETATM    6  C12 UNL     1     -35.517  17.738  -2.682  1.00 20.00    -0.013 C 
HETATM    7  C13 UNL     1     -33.712  16.668  -1.934  1.00 20.00    -0.003 C 
ENDROOT
BRANCH   5   8
HETATM    8  C3  UNL     1     -33.653  14.968  -3.790  1.00 20.00     0.159 C 
HETATM    9  O14 UNL     1     -32.544  14.482  -3.579  1.00 20.00    -0.292 OA
BRANCH   8  10
HETATM   10  C2  UNL     1     -34.190  14.985  -5.113  1.00 20.00    -0.016 C 
HETATM   11  C1  UNL     1     -34.962  14.042  -5.666  1.00 20.00    -0.016 C 
HETATM   12  C4  UNL     1     -35.323  14.381  -7.074  1.00 20.00     0.028 C 
HETATM   13  C6  UNL     1     -34.928  15.853  -7.181  1.00 20.00     0.009 C 
HETATM   14  C5  UNL     1     -33.912  16.103  -6.066  1.00 20.00     0.042 C 
ENDBRANCH   8  10
ENDBRANCH   5   8
TORSDOF 2
ENDMDL
MODEL 7
REMARK VINA RESULT:      -5.2      1.822      5.281
REMARK  2 active torsions:
REMARK  status: ('A' for Active; 'I' for Inactive)
REMARK    1  A    between atoms: C2_2  and  C3_3 
REMARK    2  A    between atoms: C3_3  and  C11_11 
ROOT
HETATM    1  C7  UNL     1     -36.326  15.286  -6.877  1.00 20.00     0.005 C 
HETATM    2  C8  UNL     1     -34.840  14.996  -7.135  1.00 20.00     0.006 C 
HETATM    3  C9  UNL     1     -35.781  16.216  -4.611  1.00 20.00     0.017 C 
HETATM    4  C10 UNL     1     -35.490  13.911  -5.125  1.00 20.00     0.010 C 
HETATM    5  C11 UNL     1     -34.290  15.978  -4.905  1.00 20.00     0.065 C 
HETATM    6  C12 UNL     1     -36.468  15.059  -5.361  1.00 20.00    -0.013 C 
HETATM    7  C13 UNL     1     -34.306  14.672  -5.727  1.00 20.00    -0.003 C 
ENDROOT
BRANCH   5   8
HETATM    8  C3  UNL     1     -33.496  15.831  -3.644  1.00 20.00     0.159 C 
HETATM    9  O14 UNL     1     -32.528  15.079  -3.569  1.00 20.00    -0.292 OA
BRANCH   8  10
HETATM   10  C2  UNL     1     -33.904  16.594  -2.508  1.00 20.00    -0.016 C 
HETATM   11  C1  UNL     1     -34.581  16.136  -1.447  1.00 20.00    -0.016 C 
HETATM   12  C4  UNL     1     -34.855  17.219  -0.458  1.00 20.00     0.028 C 
HETATM   13  C6  UNL     1     -33.936  18.347  -0.927  1.00 20.00     0.009 C 
HETATM   14  C5  UNL     1     -33.621  18.058  -2.395  1.00 20.00     0.042 C 
ENDBRANCH   8  10
ENDBRANCH   5   8
TORSDOF 2
ENDMDL
MODEL 8
REMARK VINA RESULT:      -5.1     12.404     14.610
REMARK  2 active torsions:
REMARK  status: ('A' for Active; 'I' for Inactive)
REMARK    1  A    between atoms: C2_2  and  C3_3 
REMARK    2  A    between atoms: C3_3  and  C11_11 
ROOT
HETATM    1  C7  UNL     1     -43.367   7.925  -1.127  1.00 20.00     0.005 C 
HETATM    2  C8  UNL     1     -43.417   6.841  -0.039  1.00 20.00     0.006 C 
HETATM    3  C9  UNL     1     -42.373   6.289  -2.750  1.00 20.00     0.017 C 
HETATM    4  C10 UNL     1     -41.184   7.028  -0.825  1.00 20.00     0.010 C 
HETATM    5  C11 UNL     1     -42.485   5.197  -1.672  1.00 20.00     0.065 C 
HETATM    6  C12 UNL     1     -42.101   7.561  -1.923  1.00 20.00    -0.013 C 
HETATM    7  C13 UNL     1     -42.192   5.969  -0.368  1.00 20.00    -0.003 C 
ENDROOT
BRANCH   5   8
HETATM    8  C3  UNL     1     -41.498   4.095  -1.899  1.00 20.00     0.159 C 
HETATM    9  O14 UNL     1     -40.336   4.172  -1.508  1.00 20.00    -0.292 OA
BRANCH   8  10
HETATM   10  C2  UNL     1     -41.945   2.934  -2.602  1.00 20.00    -0.016 C 
HETATM   11  C1  UNL     1     -41.266   2.267  -3.542  1.00 20.00    -0.016 C 
HETATM   12  C4  UNL     1     -42.050   1.115  -4.075  1.00 20.00     0.028 C 
HETATM   13  C6  UNL     1     -43.186   0.980  -3.063  1.00 20.00     0.009 C 
HETATM   14  C5  UNL     1     -43.292   2.334  -2.359  1.00 20.00     0.042 C 
ENDBRANCH   8  10
ENDBRANCH   5   8
TORSDOF 2
ENDMDL
MODEL 9
REMARK VINA RESULT:      -5.0      2.351      5.568
REMARK  2 active torsions:
REMARK  status: ('A' for Active; 'I' for Inactive)
REMARK    1  A    between atoms: C2_2  and  C3_3 
REMARK    2  A    between atoms: C3_3  and  C11_11 
ROOT
HETATM    1  C7  UNL     1     -34.834  15.380  -7.651  1.00 20.00     0.005 C 
HETATM    2  C8  UNL     1     -34.042  16.251  -6.663  1.00 20.00     0.006 C 
HETATM    3  C9  UNL     1     -36.658  15.068  -5.956  1.00 20.00     0.017 C 
HETATM    4  C10 UNL     1     -34.484  14.153  -5.643  1.00 20.00     0.010 C 
HETATM    5  C11 UNL     1     -35.886  15.992  -4.999  1.00 20.00     0.065 C 
HETATM    6  C12 UNL     1     -35.532  14.360  -6.733  1.00 20.00    -0.013 C 
HETATM    7  C13 UNL     1     -34.413  15.643  -5.298  1.00 20.00    -0.003 C 
ENDROOT
BRANCH   5   8
HETATM    8  C3  UNL     1     -36.241  15.724  -3.569  1.00 20.00     0.159 C 
HETATM    9  O14 UNL     1     -37.063  14.868  -3.252  1.00 20.00    -0.292 OA
BRANCH   8  10
HETATM   10  C2  UNL     1     -35.594  16.507  -2.564  1.00 20.00    -0.016 C 
HETATM   11  C1  UNL     1     -34.729  16.059  -1.646  1.00 20.00    -0.016 C 
HETATM   12  C4  UNL     1     -34.267  17.155  -0.744  1.00 20.00     0.028 C 
HETATM   13  C6  UNL     1     -34.729  18.414  -1.475  1.00 20.00     0.009 C 
HETATM   14  C5  UNL     1     -35.848  17.973  -2.419  1.00 20.00     0.042 C 
ENDBRANCH   8  10
ENDBRANCH   5   8
TORSDOF 2
ENDMDL
