MODEL 1
REMARK VINA RESULT:      -5.6      0.000      0.000
REMARK  2 active torsions:
REMARK  status: ('A' for Active; 'I' for Inactive)
REMARK    1  A    between atoms: C2_2  and  C3_3 
REMARK    2  A    between atoms: C3_3  and  C9_9 
ROOT
HETATM    1  C1  UNL     1     -33.324   6.761   5.290  1.00 20.00    -0.016 C 
HETATM    2  C2  UNL     1     -33.190   6.576   3.968  1.00 20.00    -0.016 C 
HETATM    3  C4  UNL     1     -34.338   6.018   6.110  1.00 20.00     0.028 C 
HETATM    4  C5  UNL     1     -34.048   5.645   3.165  1.00 20.00     0.042 C 
HETATM    5  C6  UNL     1     -34.967   4.833   5.370  1.00 20.00     0.004 C 
HETATM    6  C7  UNL     1     -35.299   5.193   3.924  1.00 20.00     0.005 C 
ENDROOT
BRANCH   2   7
HETATM    7  C3  UNL     1     -32.160   7.349   3.272  1.00 20.00     0.159 C 
HETATM    8  O12 UNL     1     -31.163   7.754   3.876  1.00 20.00    -0.292 OA
BRANCH   7   9
HETATM    9  C9  UNL     1     -32.351   7.625   1.803  1.00 20.00     0.064 A 
HETATM   10  C8  UNL     1     -31.299   8.406   1.094  1.00 20.00     0.018 A 
HETATM   11  C10 UNL     1     -32.651   9.012   1.346  1.00 20.00    -0.006 A 
HETATM   12  C11 UNL     1     -32.787  10.172   2.272  1.00 20.00     0.011 C 
ENDBRANCH   7   9
ENDBRANCH   2   7
TORSDOF 2
ENDMDL
MODEL 2
REMARK VINA RESULT:      -5.0     10.478     11.710
REMARK  2 active torsions:
REMARK  status: ('A' for Active; 'I' for Inactive)
REMARK    1  A    between atoms: C2_2  and  C3_3 
REMARK    2  A    between atoms: C3_3  and  C9_9 
ROOT
HETATM    1  C1  UNL     1     -34.442  16.287  -1.357  1.00 20.00    -0.016 C 
HETATM    2  C2  UNL     1     -33.946  16.723  -2.524  1.00 20.00    -0.016 C 
HETATM    3  C4  UNL     1     -34.850  17.220  -0.253  1.00 20.00     0.028 C 
HETATM    4  C5  UNL     1     -33.714  18.170  -2.843  1.00 20.00     0.042 C 
HETATM    5  C6  UNL     1     -34.940  18.683  -0.698  1.00 20.00     0.004 C 
HETATM    6  C7  UNL     1     -33.769  19.063  -1.601  1.00 20.00     0.005 C 
ENDROOT
BRANCH   2   7
HETATM    7  C3  UNL     1     -33.592  15.722  -3.532  1.00 20.00     0.159 C 
HETATM    8  O12 UNL     1     -32.818  16.002  -4.451  1.00 20.00    -0.292 OA
BRANCH   7   9
HETATM    9  C9  UNL     1     -34.192  14.345  -3.405  1.00 20.00     0.064 A 
HETATM   10  C8  UNL     1     -34.153  13.452  -4.597  1.00 20.00     0.018 A 
HETATM   11  C10 UNL     1     -35.459  14.024  -4.122  1.00 20.00    -0.006 A 
HETATM   12  C11 UNL     1     -36.195  15.004  -4.970  1.00 20.00     0.011 C 
ENDBRANCH   7   9
ENDBRANCH   2   7
TORSDOF 2
ENDMDL
MODEL 3
REMARK VINA RESULT:      -5.0     10.614     11.387
REMARK  2 active torsions:
REMARK  status: ('A' for Active; 'I' for Inactive)
REMARK    1  A    between atoms: C2_2  and  C3_3 
REMARK    2  A    between atoms: C3_3  and  C9_9 
ROOT
HETATM    1  C1  UNL     1     -33.669  15.362  -2.956  1.00 20.00    -0.016 C 
HETATM    2  C2  UNL     1     -34.966  15.677  -2.821  1.00 20.00    -0.016 C 
HETATM    3  C4  UNL     1     -33.195  14.268  -3.869  1.00 20.00     0.028 C 
HETATM    4  C5  UNL     1     -36.077  14.961  -3.529  1.00 20.00     0.042 C 
HETATM    5  C6  UNL     1     -34.274  13.777  -4.839  1.00 20.00     0.004 C 
HETATM    6  C7  UNL     1     -35.625  13.633  -4.142  1.00 20.00     0.005 C 
ENDROOT
BRANCH   2   7
HETATM    7  C3  UNL     1     -35.311  16.770  -1.909  1.00 20.00     0.159 C 
HETATM    8  O12 UNL     1     -36.137  17.625  -2.238  1.00 20.00    -0.292 OA
BRANCH   7   9
HETATM    9  C9  UNL     1     -34.636  16.810  -0.562  1.00 20.00     0.064 A 
HETATM   10  C8  UNL     1     -34.989  17.921   0.365  1.00 20.00     0.018 A 
HETATM   11  C10 UNL     1     -33.630  17.871  -0.274  1.00 20.00    -0.006 A 
HETATM   12  C11 UNL     1     -33.231  18.917  -1.258  1.00 20.00     0.011 C 
ENDBRANCH   7   9
ENDBRANCH   2   7
TORSDOF 2
ENDMDL
MODEL 4
REMARK VINA RESULT:      -4.9     10.358     11.767
REMARK  2 active torsions:
REMARK  status: ('A' for Active; 'I' for Inactive)
REMARK    1  A    between atoms: C2_2  and  C3_3 
REMARK    2  A    between atoms: C3_3  and  C9_9 
ROOT
HETATM    1  C1  UNL     1     -34.655  16.208  -1.520  1.00 20.00    -0.016 C 
HETATM    2  C2  UNL     1     -35.042  16.224  -2.804  1.00 20.00    -0.016 C 
HETATM    3  C4  UNL     1     -33.945  17.363  -0.876  1.00 20.00     0.028 C 
HETATM    4  C5  UNL     1     -34.783  17.367  -3.739  1.00 20.00     0.042 C 
HETATM    5  C6  UNL     1     -33.988  18.645  -1.713  1.00 20.00     0.004 C 
HETATM    6  C7  UNL     1     -33.746  18.352  -3.192  1.00 20.00     0.005 C 
ENDROOT
BRANCH   2   7
HETATM    7  C3  UNL     1     -35.736  15.044  -3.322  1.00 20.00     0.159 C 
HETATM    8  O12 UNL     1     -36.956  15.063  -3.508  1.00 20.00    -0.292 OA
BRANCH   7   9
HETATM    9  C9  UNL     1     -34.918  13.816  -3.628  1.00 20.00     0.064 A 
HETATM   10  C8  UNL     1     -33.468  13.995  -3.919  1.00 20.00     0.018 A 
HETATM   11  C10 UNL     1     -34.416  13.591  -5.013  1.00 20.00    -0.006 A 
HETATM   12  C11 UNL     1     -34.685  14.520  -6.147  1.00 20.00     0.011 C 
ENDBRANCH   7   9
ENDBRANCH   2   7
TORSDOF 2
ENDMDL
MODEL 5
REMARK VINA RESULT:      -4.8     10.395     11.594
REMARK  2 active torsions:
REMARK  status: ('A' for Active; 'I' for Inactive)
REMARK    1  A    between atoms: C2_2  and  C3_3 
REMARK    2  A    between atoms: C3_3  and  C9_9 
ROOT
HETATM    1  C1  UNL     1     -33.211  14.978  -3.429  1.00 20.00    -0.016 C 
HETATM    2  C2  UNL     1     -34.174  15.910  -3.491  1.00 20.00    -0.016 C 
HETATM    3  C4  UNL     1     -33.430  13.560  -3.873  1.00 20.00     0.028 C 
HETATM    4  C5  UNL     1     -35.569  15.638  -3.970  1.00 20.00     0.042 C 
HETATM    5  C6  UNL     1     -34.722  13.367  -4.673  1.00 20.00     0.004 C 
HETATM    6  C7  UNL     1     -35.882  14.141  -4.053  1.00 20.00     0.005 C 
ENDROOT
BRANCH   2   7
HETATM    7  C3  UNL     1     -33.844  17.263  -3.040  1.00 20.00     0.159 C 
HETATM    8  O12 UNL     1     -33.624  18.161  -3.857  1.00 20.00    -0.292 OA
BRANCH   7   9
HETATM    9  C9  UNL     1     -33.790  17.523  -1.557  1.00 20.00     0.064 A 
HETATM   10  C8  UNL     1     -34.619  16.666  -0.665  1.00 20.00     0.018 A 
HETATM   11  C10 UNL     1     -34.973  18.112  -0.868  1.00 20.00    -0.006 A 
HETATM   12  C11 UNL     1     -36.236  18.478  -1.570  1.00 20.00     0.011 C 
ENDBRANCH   7   9
ENDBRANCH   2   7
TORSDOF 2
ENDMDL
MODEL 6
REMARK VINA RESULT:      -4.8     10.530     12.617
REMARK  2 active torsions:
REMARK  status: ('A' for Active; 'I' for Inactive)
REMARK    1  A    between atoms: C2_2  and  C3_3 
REMARK    2  A    between atoms: C3_3  and  C9_9 
ROOT
HETATM    1  C1  UNL     1     -33.815  16.746  -5.677  1.00 20.00    -0.016 C 
HETATM    2  C2  UNL     1     -34.042  15.490  -5.267  1.00 20.00    -0.016 C 
HETATM    3  C4  UNL     1     -34.243  17.245  -7.027  1.00 20.00     0.028 C 
HETATM    4  C5  UNL     1     -34.709  14.445  -6.110  1.00 20.00     0.042 C 
HETATM    5  C6  UNL     1     -35.215  16.302  -7.742  1.00 20.00     0.004 C 
HETATM    6  C7  UNL     1     -34.792  14.843  -7.586  1.00 20.00     0.005 C 
ENDROOT
BRANCH   2   7
HETATM    7  C3  UNL     1     -33.588  15.118  -3.925  1.00 20.00     0.159 C 
HETATM    8  O12 UNL     1     -32.396  14.884  -3.707  1.00 20.00    -0.292 OA
BRANCH   7   9
HETATM    9  C9  UNL     1     -34.615  15.039  -2.825  1.00 20.00     0.064 A 
HETATM   10  C8  UNL     1     -35.764  15.985  -2.871  1.00 20.00     0.018 A 
HETATM   11  C10 UNL     1     -34.702  16.135  -1.819  1.00 20.00    -0.006 A 
HETATM   12  C11 UNL     1     -33.811  17.329  -1.824  1.00 20.00     0.011 C 
ENDBRANCH   7   9
ENDBRANCH   2   7
TORSDOF 2
ENDMDL
MODEL 7
REMARK VINA RESULT:      -4.8     10.850     11.741
REMARK  2 active torsions:
REMARK  status: ('A' for Active; 'I' for Inactive)
REMARK    1  A    between atoms: C2_2  and  C3_3 
REMARK    2  A    between atoms: C3_3  and  C9_9 
ROOT
HETATM    1  C1  UNL     1     -33.762  15.432  -3.133  1.00 20.00    -0.016 C 
HETATM    2  C2  UNL     1     -34.928  15.001  -3.636  1.00 20.00    -0.016 C 
HETATM    3  C4  UNL     1     -33.682  16.510  -2.091  1.00 20.00     0.028 C 
HETATM    4  C5  UNL     1     -36.263  15.561  -3.246  1.00 20.00     0.042 C 
HETATM    5  C6  UNL     1     -35.033  16.834  -1.447  1.00 20.00     0.004 C 
HETATM    6  C7  UNL     1     -36.147  16.888  -2.490  1.00 20.00     0.005 C 
ENDROOT
BRANCH   2   7
HETATM    7  C3  UNL     1     -34.885  13.937  -4.641  1.00 20.00     0.159 C 
HETATM    8  O12 UNL     1     -35.212  12.784  -4.349  1.00 20.00    -0.292 OA
BRANCH   7   9
HETATM    9  C9  UNL     1     -34.441  14.296  -6.036  1.00 20.00     0.064 A 
HETATM   10  C8  UNL     1     -34.429  15.735  -6.419  1.00 20.00     0.018 A 
HETATM   11  C10 UNL     1     -35.440  14.800  -7.020  1.00 20.00    -0.006 A 
HETATM   12  C11 UNL     1     -36.888  14.968  -6.711  1.00 20.00     0.011 C 
ENDBRANCH   7   9
ENDBRANCH   2   7
TORSDOF 2
ENDMDL
MODEL 8
REMARK VINA RESULT:      -4.8     10.773     11.664
REMARK  2 active torsions:
REMARK  status: ('A' for Active; 'I' for Inactive)
REMARK    1  A    between atoms: C2_2  and  C3_3 
REMARK    2  A    between atoms: C3_3  and  C9_9 
ROOT
HETATM    1  C1  UNL     1     -34.873  17.043  -0.426  1.00 20.00    -0.016 C 
HETATM    2  C2  UNL     1     -33.926  17.598  -1.197  1.00 20.00    -0.016 C 
HETATM    3  C4  UNL     1     -35.063  17.419   1.015  1.00 20.00     0.028 C 
HETATM    4  C5  UNL     1     -32.941  18.617  -0.707  1.00 20.00     0.042 C 
HETATM    5  C6  UNL     1     -34.303  18.687   1.417  1.00 20.00     0.004 C 
HETATM    6  C7  UNL     1     -32.897  18.705   0.821  1.00 20.00     0.005 C 
ENDROOT
BRANCH   2   7
HETATM    7  C3  UNL     1     -33.840  17.160  -2.592  1.00 20.00     0.159 C 
HETATM    8  O12 UNL     1     -34.010  17.963  -3.514  1.00 20.00    -0.292 OA
BRANCH   7   9
HETATM    9  C9  UNL     1     -33.530  15.711  -2.863  1.00 20.00     0.064 A 
HETATM   10  C8  UNL     1     -33.613  15.228  -4.270  1.00 20.00     0.018 A 
HETATM   11  C10 UNL     1     -34.628  14.783  -3.256  1.00 20.00    -0.006 A 
HETATM   12  C11 UNL     1     -36.051  15.204  -3.392  1.00 20.00     0.011 C 
ENDBRANCH   7   9
ENDBRANCH   2   7
TORSDOF 2
ENDMDL
MODEL 9
REMARK VINA RESULT:      -4.6     10.534     11.841
REMARK  2 active torsions:
REMARK  status: ('A' for Active; 'I' for Inactive)
REMARK    1  A    between atoms: C2_2  and  C3_3 
REMARK    2  A    between atoms: C3_3  and  C9_9 
ROOT
HETATM    1  C1  UNL     1     -37.242  14.577  -3.991  1.00 20.00    -0.016 C 
HETATM    2  C2  UNL     1     -36.250  14.547  -4.893  1.00 20.00    -0.016 C 
HETATM    3  C4  UNL     1     -38.605  15.123  -4.308  1.00 20.00     0.028 C 
HETATM    4  C5  UNL     1     -36.375  15.078  -6.289  1.00 20.00     0.042 C 
HETATM    5  C6  UNL     1     -38.838  15.340  -5.806  1.00 20.00     0.004 C 
HETATM    6  C7  UNL     1     -37.613  15.959  -6.476  1.00 20.00     0.005 C 
ENDROOT
BRANCH   2   7
HETATM    7  C3  UNL     1     -34.965  13.983  -4.474  1.00 20.00     0.159 C 
HETATM    8  O12 UNL     1     -34.882  12.804  -4.121  1.00 20.00    -0.292 OA
BRANCH   7   9
HETATM    9  C9  UNL     1     -33.755  14.881  -4.496  1.00 20.00     0.064 A 
HETATM   10  C8  UNL     1     -32.648  14.588  -3.544  1.00 20.00     0.018 A 
HETATM   11  C10 UNL     1     -33.505  15.808  -3.357  1.00 20.00    -0.006 A 
HETATM   12  C11 UNL     1     -34.401  15.915  -2.171  1.00 20.00     0.011 C 
ENDBRANCH   7   9
ENDBRANCH   2   7
TORSDOF 2
ENDMDL
