MODEL 1
REMARK VINA RESULT:      -5.8      0.000      0.000
REMARK  2 active torsions:
REMARK  status: ('A' for Active; 'I' for Inactive)
REMARK    1  A    between atoms: C2_2  and  C3_3 
REMARK    2  A    between atoms: C3_3  and  C8_8 
ROOT
HETATM    1  C3  UNL     1     -33.799   5.678   3.022  1.00 20.00     0.159 C 
HETATM    2  O11 UNL     1     -34.569   5.288   2.132  1.00 20.00    -0.292 OA
ENDROOT
BRANCH   1   3
HETATM    3  C2  UNL     1     -34.120   5.512   4.404  1.00 20.00    -0.016 C 
HETATM    4  C1  UNL     1     -34.003   6.440   5.361  1.00 20.00    -0.016 C 
HETATM    5  C4  UNL     1     -34.410   5.909   6.696  1.00 20.00     0.028 C 
HETATM    6  C6  UNL     1     -35.121   4.605   6.339  1.00 20.00     0.009 C 
HETATM    7  C5  UNL     1     -34.623   4.213   4.948  1.00 20.00     0.042 C 
ENDBRANCH   1   3
BRANCH   1   8
HETATM    8  C8  UNL     1     -32.492   6.354   2.659  1.00 20.00     0.064 A 
HETATM    9  C7  UNL     1     -31.878   7.253   3.668  1.00 20.00     0.018 A 
HETATM   10  C9  UNL     1     -32.520   7.830   2.434  1.00 20.00    -0.006 A 
HETATM   11  C10 UNL     1     -31.677   8.408   1.350  1.00 20.00     0.011 C 
ENDBRANCH   1   8
TORSDOF 2
ENDMDL
MODEL 2
REMARK VINA RESULT:      -5.6      1.544      2.213
REMARK  2 active torsions:
REMARK  status: ('A' for Active; 'I' for Inactive)
REMARK    1  A    between atoms: C2_2  and  C3_3 
REMARK    2  A    between atoms: C3_3  and  C8_8 
ROOT
HETATM    1  C3  UNL     1     -32.486   6.878   3.368  1.00 20.00     0.159 C 
HETATM    2  O11 UNL     1     -31.301   6.710   3.695  1.00 20.00    -0.292 OA
ENDROOT
BRANCH   1   3
HETATM    3  C2  UNL     1     -33.544   6.197   4.045  1.00 20.00    -0.016 C 
HETATM    4  C1  UNL     1     -34.441   5.376   3.488  1.00 20.00    -0.016 C 
HETATM    5  C4  UNL     1     -35.416   4.859   4.494  1.00 20.00     0.028 C 
HETATM    6  C6  UNL     1     -34.759   5.230   5.823  1.00 20.00     0.009 C 
HETATM    7  C5  UNL     1     -33.777   6.360   5.514  1.00 20.00     0.042 C 
ENDBRANCH   1   3
BRANCH   1   8
HETATM    8  C8  UNL     1     -32.840   7.811   2.228  1.00 20.00     0.064 A 
HETATM    9  C7  UNL     1     -31.844   7.979   1.141  1.00 20.00     0.018 A 
HETATM   10  C9  UNL     1     -32.080   9.093   2.127  1.00 20.00    -0.006 A 
HETATM   11  C10 UNL     1     -32.803  10.326   1.707  1.00 20.00     0.011 C 
ENDBRANCH   1   8
TORSDOF 2
ENDMDL
MODEL 3
REMARK VINA RESULT:      -5.5     11.463     12.215
REMARK  2 active torsions:
REMARK  status: ('A' for Active; 'I' for Inactive)
REMARK    1  A    between atoms: C2_2  and  C3_3 
REMARK    2  A    between atoms: C3_3  and  C8_8 
ROOT
HETATM    1  C3  UNL     1     -35.206  16.529  -2.167  1.00 20.00     0.159 C 
HETATM    2  O11 UNL     1     -36.159  17.288  -2.401  1.00 20.00    -0.292 OA
ENDROOT
BRANCH   1   3
HETATM    3  C2  UNL     1     -34.930  15.406  -3.005  1.00 20.00    -0.016 C 
HETATM    4  C1  UNL     1     -33.725  14.879  -3.252  1.00 20.00    -0.016 C 
HETATM    5  C4  UNL     1     -33.811  13.723  -4.193  1.00 20.00     0.028 C 
HETATM    6  C6  UNL     1     -35.308  13.413  -4.212  1.00 20.00     0.009 C 
HETATM    7  C5  UNL     1     -36.014  14.685  -3.742  1.00 20.00     0.042 C 
ENDBRANCH   1   3
BRANCH   1   8
HETATM    8  C8  UNL     1     -34.309  16.776  -0.970  1.00 20.00     0.064 A 
HETATM    9  C7  UNL     1     -34.937  17.309   0.264  1.00 20.00     0.018 A 
HETATM   10  C9  UNL     1     -34.059  18.195  -0.579  1.00 20.00    -0.006 A 
HETATM   11  C10 UNL     1     -32.702  18.581  -0.100  1.00 20.00     0.011 C 
ENDBRANCH   1   8
TORSDOF 2
ENDMDL
MODEL 4
REMARK VINA RESULT:      -5.5     11.414     12.285
REMARK  2 active torsions:
REMARK  status: ('A' for Active; 'I' for Inactive)
REMARK    1  A    between atoms: C2_2  and  C3_3 
REMARK    2  A    between atoms: C3_3  and  C8_8 
ROOT
HETATM    1  C3  UNL     1     -33.796  16.395  -3.024  1.00 20.00     0.159 C 
HETATM    2  O11 UNL     1     -33.417  17.052  -4.005  1.00 20.00    -0.292 OA
ENDROOT
BRANCH   1   3
HETATM    3  C2  UNL     1     -33.997  17.014  -1.752  1.00 20.00    -0.016 C 
HETATM    4  C1  UNL     1     -34.764  16.552  -0.758  1.00 20.00    -0.016 C 
HETATM    5  C4  UNL     1     -34.755  17.469   0.419  1.00 20.00     0.028 C 
HETATM    6  C6  UNL     1     -33.583  18.401   0.113  1.00 20.00     0.009 C 
HETATM    7  C5  UNL     1     -33.353  18.317  -1.396  1.00 20.00     0.042 C 
ENDBRANCH   1   3
BRANCH   1   8
HETATM    8  C8  UNL     1     -34.049  14.907  -3.151  1.00 20.00     0.064 A 
HETATM    9  C7  UNL     1     -32.916  14.049  -3.577  1.00 20.00     0.018 A 
HETATM   10  C9  UNL     1     -34.052  14.325  -4.526  1.00 20.00    -0.006 A 
HETATM   11  C10 UNL     1     -35.034  13.254  -4.853  1.00 20.00     0.011 C 
ENDBRANCH   1   8
TORSDOF 2
ENDMDL
MODEL 5
REMARK VINA RESULT:      -5.5     11.289     13.063
REMARK  2 active torsions:
REMARK  status: ('A' for Active; 'I' for Inactive)
REMARK    1  A    between atoms: C2_2  and  C3_3 
REMARK    2  A    between atoms: C3_3  and  C8_8 
ROOT
HETATM    1  C3  UNL     1     -34.061  14.230  -4.012  1.00 20.00     0.159 C 
HETATM    2  O11 UNL     1     -33.187  13.379  -3.787  1.00 20.00    -0.292 OA
ENDROOT
BRANCH   1   3
HETATM    3  C2  UNL     1     -34.324  14.688  -5.340  1.00 20.00    -0.016 C 
HETATM    4  C1  UNL     1     -35.118  14.095  -6.239  1.00 20.00    -0.016 C 
HETATM    5  C4  UNL     1     -35.141  14.842  -7.532  1.00 20.00     0.028 C 
HETATM    6  C6  UNL     1     -34.498  16.178  -7.162  1.00 20.00     0.009 C 
HETATM    7  C5  UNL     1     -33.689  15.925  -5.889  1.00 20.00     0.042 C 
ENDBRANCH   1   3
BRANCH   1   8
HETATM    8  C8  UNL     1     -34.871  14.813  -2.873  1.00 20.00     0.064 A 
HETATM    9  C7  UNL     1     -35.820  15.909  -3.191  1.00 20.00     0.018 A 
HETATM   10  C9  UNL     1     -34.549  16.206  -2.442  1.00 20.00    -0.006 A 
HETATM   11  C10 UNL     1     -34.594  16.540  -0.991  1.00 20.00     0.011 C 
ENDBRANCH   1   8
TORSDOF 2
ENDMDL
MODEL 6
REMARK VINA RESULT:      -5.5     10.150     11.339
REMARK  2 active torsions:
REMARK  status: ('A' for Active; 'I' for Inactive)
REMARK    1  A    between atoms: C2_2  and  C3_3 
REMARK    2  A    between atoms: C3_3  and  C8_8 
ROOT
HETATM    1  C3  UNL     1     -42.472   3.962  -2.922  1.00 20.00     0.159 C 
HETATM    2  O11 UNL     1     -43.396   4.251  -3.697  1.00 20.00    -0.292 OA
ENDROOT
BRANCH   1   3
HETATM    3  C2  UNL     1     -41.839   4.961  -2.121  1.00 20.00    -0.016 C 
HETATM    4  C1  UNL     1     -42.034   6.282  -2.202  1.00 20.00    -0.016 C 
HETATM    5  C4  UNL     1     -41.186   7.026  -1.224  1.00 20.00     0.028 C 
HETATM    6  C6  UNL     1     -40.691   5.919  -0.294  1.00 20.00     0.009 C 
HETATM    7  C5  UNL     1     -40.827   4.612  -1.075  1.00 20.00     0.042 C 
ENDBRANCH   1   3
BRANCH   1   8
HETATM    8  C8  UNL     1     -41.985   2.532  -2.812  1.00 20.00     0.064 A 
HETATM    9  C7  UNL     1     -41.230   1.970  -3.959  1.00 20.00     0.018 A 
HETATM   10  C9  UNL     1     -42.638   1.513  -3.687  1.00 20.00    -0.006 A 
HETATM   11  C10 UNL     1     -42.893   0.151  -3.141  1.00 20.00     0.011 C 
ENDBRANCH   1   8
TORSDOF 2
ENDMDL
MODEL 7
REMARK VINA RESULT:      -5.4     11.875     12.905
REMARK  2 active torsions:
REMARK  status: ('A' for Active; 'I' for Inactive)
REMARK    1  A    between atoms: C2_2  and  C3_3 
REMARK    2  A    between atoms: C3_3  and  C8_8 
ROOT
HETATM    1  C3  UNL     1     -33.832  16.217  -4.280  1.00 20.00     0.159 C 
HETATM    2  O11 UNL     1     -32.869  16.632  -4.942  1.00 20.00    -0.292 OA
ENDROOT
BRANCH   1   3
HETATM    3  C2  UNL     1     -34.038  16.638  -2.930  1.00 20.00    -0.016 C 
HETATM    4  C1  UNL     1     -34.616  15.924  -1.958  1.00 20.00    -0.016 C 
HETATM    5  C4  UNL     1     -34.683  16.688  -0.677  1.00 20.00     0.028 C 
HETATM    6  C6  UNL     1     -33.741  17.863  -0.934  1.00 20.00     0.009 C 
HETATM    7  C5  UNL     1     -33.627  17.995  -2.454  1.00 20.00     0.042 C 
ENDBRANCH   1   3
BRANCH   1   8
HETATM    8  C8  UNL     1     -34.815  15.240  -4.890  1.00 20.00     0.064 A 
HETATM    9  C7  UNL     1     -34.396  13.820  -5.003  1.00 20.00     0.018 A 
HETATM   10  C9  UNL     1     -34.484  14.681  -6.235  1.00 20.00    -0.006 A 
HETATM   11  C10 UNL     1     -35.584  14.473  -7.218  1.00 20.00     0.011 C 
ENDBRANCH   1   8
TORSDOF 2
ENDMDL
MODEL 8
REMARK VINA RESULT:      -5.4     11.700     12.652
REMARK  2 active torsions:
REMARK  status: ('A' for Active; 'I' for Inactive)
REMARK    1  A    between atoms: C2_2  and  C3_3 
REMARK    2  A    between atoms: C3_3  and  C8_8 
ROOT
HETATM    1  C3  UNL     1     -34.802  13.732  -4.813  1.00 20.00     0.159 C 
HETATM    2  O11 UNL     1     -34.825  12.532  -4.503  1.00 20.00    -0.292 OA
ENDROOT
BRANCH   1   3
HETATM    3  C2  UNL     1     -34.702  14.752  -3.817  1.00 20.00    -0.016 C 
HETATM    4  C1  UNL     1     -33.573  15.307  -3.363  1.00 20.00    -0.016 C 
HETATM    5  C4  UNL     1     -33.845  16.326  -2.306  1.00 20.00     0.028 C 
HETATM    6  C6  UNL     1     -35.351  16.550  -2.431  1.00 20.00     0.009 C 
HETATM    7  C5  UNL     1     -35.910  15.312  -3.135  1.00 20.00     0.042 C 
ENDBRANCH   1   3
BRANCH   1   8
HETATM    8  C8  UNL     1     -34.890  14.149  -6.267  1.00 20.00     0.064 A 
HETATM    9  C7  UNL     1     -34.443  15.519  -6.620  1.00 20.00     0.018 A 
HETATM   10  C9  UNL     1     -35.910  15.178  -6.628  1.00 20.00    -0.006 A 
HETATM   11  C10 UNL     1     -36.643  15.044  -7.918  1.00 20.00     0.011 C 
ENDBRANCH   1   8
TORSDOF 2
ENDMDL
MODEL 9
REMARK VINA RESULT:      -5.2     11.629     12.772
REMARK  2 active torsions:
REMARK  status: ('A' for Active; 'I' for Inactive)
REMARK    1  A    between atoms: C2_2  and  C3_3 
REMARK    2  A    between atoms: C3_3  and  C8_8 
ROOT
HETATM    1  C3  UNL     1     -33.996  16.738  -3.433  1.00 20.00     0.159 C 
HETATM    2  O11 UNL     1     -34.100  17.824  -4.023  1.00 20.00    -0.292 OA
ENDROOT
BRANCH   1   3
HETATM    3  C2  UNL     1     -34.210  15.501  -4.115  1.00 20.00    -0.016 C 
HETATM    4  C1  UNL     1     -34.199  14.281  -3.566  1.00 20.00    -0.016 C 
HETATM    5  C4  UNL     1     -34.439  13.215  -4.584  1.00 20.00     0.028 C 
HETATM    6  C6  UNL     1     -34.940  14.007  -5.791  1.00 20.00     0.009 C 
HETATM    7  C5  UNL     1     -34.459  15.444  -5.589  1.00 20.00     0.042 C 
ENDBRANCH   1   3
BRANCH   1   8
HETATM    8  C8  UNL     1     -33.646  16.699  -1.960  1.00 20.00     0.064 A 
HETATM    9  C7  UNL     1     -34.764  16.716  -0.984  1.00 20.00     0.018 A 
HETATM   10  C9  UNL     1     -33.898  17.935  -1.160  1.00 20.00    -0.006 A 
HETATM   11  C10 UNL     1     -32.922  18.320  -0.103  1.00 20.00     0.011 C 
ENDBRANCH   1   8
TORSDOF 2
ENDMDL
