MODEL 1
REMARK VINA RESULT:      -3.9      0.000      0.000
REMARK  4 active torsions:
REMARK  status: ('A' for Active; 'I' for Inactive)
REMARK    1  A    between atoms: C4_4  and  C6_6 
REMARK    2  A    between atoms: C5_5  and  C7_7 
REMARK    3  A    between atoms: C6_6  and  C7_7 
REMARK    4  A    between atoms: C7_7  and  N8_8 
ROOT
HETATM    1  C1  UNL     1     -32.171   7.132   2.794  1.00 20.00     0.158 C 
HETATM    2  N8  UNL     1     -32.119   6.132   3.406  1.00 20.00    -0.270 NA
HETATM    3  S9  UNL     1     -32.207   8.485   1.955  1.00 20.00    -0.055 SA
ENDROOT
BRANCH   2   4
HETATM    4  C7  UNL     1     -33.387   5.727   4.027  1.00 20.00     0.109 C 
BRANCH   4   5
HETATM    5  C5  UNL     1     -34.429   5.487   2.927  1.00 20.00     0.023 C 
HETATM    6  C3  UNL     1     -35.854   5.731   3.408  1.00 20.00     0.007 C 
ENDBRANCH   4   5
BRANCH   4   7
HETATM    7  C6  UNL     1     -33.849   6.828   4.990  1.00 20.00     0.027 C 
BRANCH   7   8
HETATM    8  C4  UNL     1     -34.037   6.313   6.421  1.00 20.00    -0.002 C 
HETATM    9  C2  UNL     1     -34.484   4.859   6.432  1.00 20.00     0.005 C 
ENDBRANCH   7   8
ENDBRANCH   4   7
ENDBRANCH   2   4
TORSDOF 4
ENDMDL
MODEL 2
REMARK VINA RESULT:      -3.9     11.900     12.725
REMARK  4 active torsions:
REMARK  status: ('A' for Active; 'I' for Inactive)
REMARK    1  A    between atoms: C4_4  and  C6_6 
REMARK    2  A    between atoms: C5_5  and  C7_7 
REMARK    3  A    between atoms: C6_6  and  C7_7 
REMARK    4  A    between atoms: C7_7  and  N8_8 
ROOT
HETATM    1  C1  UNL     1     -33.396  17.393  -5.198  1.00 20.00     0.158 C 
HETATM    2  N8  UNL     1     -33.027  16.357  -4.792  1.00 20.00    -0.270 NA
HETATM    3  S9  UNL     1     -33.870  18.801  -5.772  1.00 20.00    -0.055 SA
ENDROOT
BRANCH   2   4
HETATM    4  C7  UNL     1     -33.878  15.769  -3.749  1.00 20.00     0.109 C 
BRANCH   4   5
HETATM    5  C5  UNL     1     -33.580  16.458  -2.411  1.00 20.00     0.023 C 
HETATM    6  C3  UNL     1     -34.732  16.339  -1.422  1.00 20.00     0.007 C 
ENDBRANCH   4   5
BRANCH   4   7
HETATM    7  C6  UNL     1     -33.601  14.262  -3.664  1.00 20.00     0.027 C 
BRANCH   7   8
HETATM    8  C4  UNL     1     -34.765  13.422  -4.199  1.00 20.00    -0.002 C 
HETATM    9  C2  UNL     1     -36.065  14.212  -4.199  1.00 20.00     0.005 C 
ENDBRANCH   7   8
ENDBRANCH   4   7
ENDBRANCH   2   4
TORSDOF 4
ENDMDL
MODEL 3
REMARK VINA RESULT:      -3.8     11.762     12.486
REMARK  4 active torsions:
REMARK  status: ('A' for Active; 'I' for Inactive)
REMARK    1  A    between atoms: C4_4  and  C6_6 
REMARK    2  A    between atoms: C5_5  and  C7_7 
REMARK    3  A    between atoms: C6_6  and  C7_7 
REMARK    4  A    between atoms: C7_7  and  N8_8 
ROOT
HETATM    1  C1  UNL     1     -33.359  17.312  -4.838  1.00 20.00     0.158 C 
HETATM    2  N8  UNL     1     -33.026  16.189  -4.786  1.00 20.00    -0.270 NA
HETATM    3  S9  UNL     1     -33.798  18.839  -4.942  1.00 20.00    -0.055 SA
ENDROOT
BRANCH   2   4
HETATM    4  C7  UNL     1     -33.308  15.525  -3.506  1.00 20.00     0.109 C 
BRANCH   4   5
HETATM    5  C5  UNL     1     -33.308  14.006  -3.718  1.00 20.00     0.023 C 
HETATM    6  C3  UNL     1     -34.690  13.461  -4.054  1.00 20.00     0.007 C 
ENDBRANCH   4   5
BRANCH   4   7
HETATM    7  C6  UNL     1     -34.667  16.006  -2.978  1.00 20.00     0.027 C 
BRANCH   7   8
HETATM    8  C4  UNL     1     -34.645  16.282  -1.472  1.00 20.00    -0.002 C 
HETATM    9  C2  UNL     1     -33.685  17.411  -1.129  1.00 20.00     0.005 C 
ENDBRANCH   7   8
ENDBRANCH   4   7
ENDBRANCH   2   4
TORSDOF 4
ENDMDL
MODEL 4
REMARK VINA RESULT:      -3.7     11.125     12.374
REMARK  4 active torsions:
REMARK  status: ('A' for Active; 'I' for Inactive)
REMARK    1  A    between atoms: C4_4  and  C6_6 
REMARK    2  A    between atoms: C5_5  and  C7_7 
REMARK    3  A    between atoms: C6_6  and  C7_7 
REMARK    4  A    between atoms: C7_7  and  N8_8 
ROOT
HETATM    1  C1  UNL     1     -34.702  16.522  -1.130  1.00 20.00     0.158 C 
HETATM    2  N8  UNL     1     -34.653  15.824  -2.072  1.00 20.00    -0.270 NA
HETATM    3  S9  UNL     1     -34.797  17.452   0.160  1.00 20.00    -0.055 SA
ENDROOT
BRANCH   2   4
HETATM    4  C7  UNL     1     -33.539  16.107  -2.987  1.00 20.00     0.109 C 
BRANCH   4   5
HETATM    5  C5  UNL     1     -33.977  17.180  -3.993  1.00 20.00     0.023 C 
HETATM    6  C3  UNL     1     -33.435  16.925  -5.393  1.00 20.00     0.007 C 
ENDBRANCH   4   5
BRANCH   4   7
HETATM    7  C6  UNL     1     -33.137  14.812  -3.705  1.00 20.00     0.027 C 
BRANCH   7   8
HETATM    8  C4  UNL     1     -34.210  13.725  -3.595  1.00 20.00    -0.002 C 
HETATM    9  C2  UNL     1     -34.750  13.337  -4.963  1.00 20.00     0.005 C 
ENDBRANCH   7   8
ENDBRANCH   4   7
ENDBRANCH   2   4
TORSDOF 4
ENDMDL
MODEL 5
REMARK VINA RESULT:      -3.7      0.983      2.196
REMARK  4 active torsions:
REMARK  status: ('A' for Active; 'I' for Inactive)
REMARK    1  A    between atoms: C4_4  and  C6_6 
REMARK    2  A    between atoms: C5_5  and  C7_7 
REMARK    3  A    between atoms: C6_6  and  C7_7 
REMARK    4  A    between atoms: C7_7  and  N8_8 
ROOT
HETATM    1  C1  UNL     1     -32.184   7.542   2.691  1.00 20.00     0.158 C 
HETATM    2  N8  UNL     1     -32.236   6.703   3.509  1.00 20.00    -0.270 NA
HETATM    3  S9  UNL     1     -32.081   8.672   1.573  1.00 20.00    -0.055 SA
ENDROOT
BRANCH   2   4
HETATM    4  C7  UNL     1     -33.531   6.595   4.195  1.00 20.00     0.109 C 
BRANCH   4   5
HETATM    5  C5  UNL     1     -33.290   6.224   5.664  1.00 20.00     0.023 C 
HETATM    6  C3  UNL     1     -33.750   7.313   6.625  1.00 20.00     0.007 C 
ENDBRANCH   4   5
BRANCH   4   7
HETATM    7  C6  UNL     1     -34.384   5.530   3.492  1.00 20.00     0.027 C 
BRANCH   7   8
HETATM    8  C4  UNL     1     -35.515   5.007   4.383  1.00 20.00    -0.002 C 
HETATM    9  C2  UNL     1     -35.072   3.796   5.190  1.00 20.00     0.005 C 
ENDBRANCH   7   8
ENDBRANCH   4   7
ENDBRANCH   2   4
TORSDOF 4
ENDMDL
MODEL 6
REMARK VINA RESULT:      -3.6     11.737     12.472
REMARK  4 active torsions:
REMARK  status: ('A' for Active; 'I' for Inactive)
REMARK    1  A    between atoms: C4_4  and  C6_6 
REMARK    2  A    between atoms: C5_5  and  C7_7 
REMARK    3  A    between atoms: C6_6  and  C7_7 
REMARK    4  A    between atoms: C7_7  and  N8_8 
ROOT
HETATM    1  C1  UNL     1     -34.443  16.976  -4.971  1.00 20.00     0.158 C 
HETATM    2  N8  UNL     1     -33.400  16.546  -4.649  1.00 20.00    -0.270 NA
HETATM    3  S9  UNL     1     -35.845  17.569  -5.437  1.00 20.00    -0.055 SA
ENDROOT
BRANCH   2   4
HETATM    4  C7  UNL     1     -33.383  15.902  -3.329  1.00 20.00     0.109 C 
BRANCH   4   5
HETATM    5  C5  UNL     1     -34.402  14.756  -3.316  1.00 20.00     0.023 C 
HETATM    6  C3  UNL     1     -33.876  13.496  -3.991  1.00 20.00     0.007 C 
ENDBRANCH   4   5
BRANCH   4   7
HETATM    7  C6  UNL     1     -33.717  16.947  -2.255  1.00 20.00     0.027 C 
BRANCH   7   8
HETATM    8  C4  UNL     1     -34.743  16.434  -1.240  1.00 20.00    -0.002 C 
HETATM    9  C2  UNL     1     -34.706  17.246   0.045  1.00 20.00     0.005 C 
ENDBRANCH   7   8
ENDBRANCH   4   7
ENDBRANCH   2   4
TORSDOF 4
ENDMDL
MODEL 7
REMARK VINA RESULT:      -3.6     11.418     12.595
REMARK  4 active torsions:
REMARK  status: ('A' for Active; 'I' for Inactive)
REMARK    1  A    between atoms: C4_4  and  C6_6 
REMARK    2  A    between atoms: C5_5  and  C7_7 
REMARK    3  A    between atoms: C6_6  and  C7_7 
REMARK    4  A    between atoms: C7_7  and  N8_8 
ROOT
HETATM    1  C1  UNL     1     -37.660  14.818  -3.822  1.00 20.00     0.158 C 
HETATM    2  N8  UNL     1     -36.816  14.014  -3.952  1.00 20.00    -0.270 NA
HETATM    3  S9  UNL     1     -38.826  15.886  -3.627  1.00 20.00    -0.055 SA
ENDROOT
BRANCH   2   4
HETATM    4  C7  UNL     1     -35.624  14.488  -4.667  1.00 20.00     0.109 C 
BRANCH   4   5
HETATM    5  C5  UNL     1     -36.019  14.885  -6.095  1.00 20.00     0.023 C 
HETATM    6  C3  UNL     1     -34.874  14.724  -7.086  1.00 20.00     0.007 C 
ENDBRANCH   4   5
BRANCH   4   7
HETATM    7  C6  UNL     1     -34.569  13.374  -4.680  1.00 20.00     0.027 C 
BRANCH   7   8
HETATM    8  C4  UNL     1     -33.399  13.665  -3.735  1.00 20.00    -0.002 C 
HETATM    9  C2  UNL     1     -33.072  15.151  -3.699  1.00 20.00     0.005 C 
ENDBRANCH   7   8
ENDBRANCH   4   7
ENDBRANCH   2   4
TORSDOF 4
ENDMDL
MODEL 8
REMARK VINA RESULT:      -3.6     11.598     12.377
REMARK  4 active torsions:
REMARK  status: ('A' for Active; 'I' for Inactive)
REMARK    1  A    between atoms: C4_4  and  C6_6 
REMARK    2  A    between atoms: C5_5  and  C7_7 
REMARK    3  A    between atoms: C6_6  and  C7_7 
REMARK    4  A    between atoms: C7_7  and  N8_8 
ROOT
HETATM    1  C1  UNL     1     -37.616  14.804  -3.792  1.00 20.00     0.158 C 
HETATM    2  N8  UNL     1     -36.759  14.029  -3.994  1.00 20.00    -0.270 NA
HETATM    3  S9  UNL     1     -38.801  15.829  -3.509  1.00 20.00    -0.055 SA
ENDROOT
BRANCH   2   4
HETATM    4  C7  UNL     1     -35.471  14.625  -4.375  1.00 20.00     0.109 C 
BRANCH   4   5
HETATM    5  C5  UNL     1     -34.897  13.856  -5.572  1.00 20.00     0.023 C 
HETATM    6  C3  UNL     1     -34.655  14.750  -6.781  1.00 20.00     0.007 C 
ENDBRANCH   4   5
BRANCH   4   7
HETATM    7  C6  UNL     1     -34.516  14.567  -3.176  1.00 20.00     0.027 C 
BRANCH   7   8
HETATM    8  C4  UNL     1     -34.035  15.956  -2.744  1.00 20.00    -0.002 C 
HETATM    9  C2  UNL     1     -34.634  16.359  -1.405  1.00 20.00     0.005 C 
ENDBRANCH   7   8
ENDBRANCH   4   7
ENDBRANCH   2   4
TORSDOF 4
ENDMDL
MODEL 9
REMARK VINA RESULT:      -3.6     11.727     12.671
REMARK  4 active torsions:
REMARK  status: ('A' for Active; 'I' for Inactive)
REMARK    1  A    between atoms: C4_4  and  C6_6 
REMARK    2  A    between atoms: C5_5  and  C7_7 
REMARK    3  A    between atoms: C6_6  and  C7_7 
REMARK    4  A    between atoms: C7_7  and  N8_8 
ROOT
HETATM    1  C1  UNL     1     -35.671  17.209  -4.485  1.00 20.00     0.158 C 
HETATM    2  N8  UNL     1     -34.524  16.983  -4.392  1.00 20.00    -0.270 NA
HETATM    3  S9  UNL     1     -37.222  17.537  -4.639  1.00 20.00    -0.055 SA
ENDROOT
BRANCH   2   4
HETATM    4  C7  UNL     1     -34.164  16.090  -3.283  1.00 20.00     0.109 C 
BRANCH   4   5
HETATM    5  C5  UNL     1     -33.802  16.936  -2.055  1.00 20.00     0.023 C 
HETATM    6  C3  UNL     1     -34.653  16.596  -0.838  1.00 20.00     0.007 C 
ENDBRANCH   4   5
BRANCH   4   7
HETATM    7  C6  UNL     1     -32.981  15.209  -3.709  1.00 20.00     0.027 C 
BRANCH   7   8
HETATM    8  C4  UNL     1     -33.332  13.718  -3.706  1.00 20.00    -0.002 C 
HETATM    9  C2  UNL     1     -34.810  13.495  -3.992  1.00 20.00     0.005 C 
ENDBRANCH   7   8
ENDBRANCH   4   7
ENDBRANCH   2   4
TORSDOF 4
ENDMDL
