MODEL 1
REMARK VINA RESULT:      -4.8      0.000      0.000
REMARK  3 active torsions:
REMARK  status: ('A' for Active; 'I' for Inactive)
REMARK    1  A    between atoms: C6_6  and  N10_10 
REMARK    2  A    between atoms: C7_7  and  C8_8 
REMARK    3  A    between atoms: C8_8  and  N10_10 
ROOT
HETATM    1  C1  UNL     1     -32.175   7.990   2.281  1.00 20.00     0.094 C 
HETATM    2  C2  UNL     1     -32.060   5.558   2.667  1.00 20.00     0.059 C 
HETATM    3  C6  UNL     1     -32.327   6.925   3.280  1.00 20.00     0.322 C 
HETATM    4  N9  UNL     1     -32.053   8.832   1.490  1.00 20.00    -0.195 NA
ENDROOT
BRANCH   3   5
HETATM    5  N10 UNL     1     -33.664   6.977   3.864  1.00 20.00     0.105 N 
HETATM    6  H26 UNL     1     -34.297   7.424   3.196  1.00 20.00     0.318 HD
BRANCH   5   7
HETATM    7  C8  UNL     1     -34.149   5.650   4.184  1.00 20.00     0.221 C 
HETATM    8  C5  UNL     1     -35.575   5.502   3.657  1.00 20.00     0.043 C 
BRANCH   7   9
HETATM    9  C7  UNL     1     -34.031   5.370   5.700  1.00 20.00     0.010 C 
HETATM   10  C3  UNL     1     -34.039   6.631   6.568  1.00 20.00     0.011 C 
HETATM   11  C4  UNL     1     -35.128   4.408   6.173  1.00 20.00     0.011 C 
ENDBRANCH   7   9
ENDBRANCH   5   7
ENDBRANCH   3   5
TORSDOF 3
ENDMDL
MODEL 2
REMARK VINA RESULT:      -4.2     11.276     12.321
REMARK  3 active torsions:
REMARK  status: ('A' for Active; 'I' for Inactive)
REMARK    1  A    between atoms: C6_6  and  N10_10 
REMARK    2  A    between atoms: C7_7  and  C8_8 
REMARK    3  A    between atoms: C8_8  and  N10_10 
ROOT
HETATM    1  C1  UNL     1     -36.706  14.423  -3.985  1.00 20.00     0.094 C 
HETATM    2  C2  UNL     1     -34.715  13.162  -4.709  1.00 20.00     0.059 C 
HETATM    3  C6  UNL     1     -35.270  14.512  -4.276  1.00 20.00     0.322 C 
HETATM    4  N9  UNL     1     -37.843  14.353  -3.758  1.00 20.00    -0.195 NA
ENDROOT
BRANCH   3   5
HETATM    5  N10 UNL     1     -34.555  15.012  -3.105  1.00 20.00     0.105 N 
HETATM    6  H26 UNL     1     -33.656  14.530  -3.037  1.00 20.00     0.318 HD
BRANCH   5   7
HETATM    7  C8  UNL     1     -34.336  16.442  -3.195  1.00 20.00     0.221 C 
HETATM    8  C5  UNL     1     -33.428  16.731  -4.389  1.00 20.00     0.043 C 
BRANCH   7   9
HETATM    9  C7  UNL     1     -33.785  17.001  -1.864  1.00 20.00     0.010 C 
HETATM   10  C3  UNL     1     -33.529  18.511  -1.883  1.00 20.00     0.011 C 
HETATM   11  C4  UNL     1     -34.705  16.646  -0.689  1.00 20.00     0.011 C 
ENDBRANCH   7   9
ENDBRANCH   5   7
ENDBRANCH   3   5
TORSDOF 3
ENDMDL
MODEL 3
REMARK VINA RESULT:      -4.1     11.532     13.080
REMARK  3 active torsions:
REMARK  status: ('A' for Active; 'I' for Inactive)
REMARK    1  A    between atoms: C6_6  and  N10_10 
REMARK    2  A    between atoms: C7_7  and  C8_8 
REMARK    3  A    between atoms: C8_8  and  N10_10 
ROOT
HETATM    1  C1  UNL     1     -34.740  13.720  -5.081  1.00 20.00     0.094 C 
HETATM    2  C2  UNL     1     -34.408  14.961  -7.185  1.00 20.00     0.059 C 
HETATM    3  C6  UNL     1     -34.632  15.055  -5.683  1.00 20.00     0.322 C 
HETATM    4  N9  UNL     1     -34.827  12.664  -4.606  1.00 20.00    -0.195 NA
ENDROOT
BRANCH   3   5
HETATM    5  N10 UNL     1     -33.552  15.802  -5.045  1.00 20.00     0.105 N 
HETATM    6  H26 UNL     1     -32.894  16.109  -5.765  1.00 20.00     0.318 HD
BRANCH   5   7
HETATM    7  C8  UNL     1     -34.063  16.954  -4.329  1.00 20.00     0.221 C 
HETATM    8  C5  UNL     1     -33.529  18.225  -4.988  1.00 20.00     0.043 C 
BRANCH   7   9
HETATM    9  C7  UNL     1     -33.724  16.863  -2.824  1.00 20.00     0.010 C 
HETATM   10  C3  UNL     1     -33.644  18.222  -2.121  1.00 20.00     0.011 C 
HETATM   11  C4  UNL     1     -34.716  15.956  -2.085  1.00 20.00     0.011 C 
ENDBRANCH   7   9
ENDBRANCH   5   7
ENDBRANCH   3   5
TORSDOF 3
ENDMDL
MODEL 4
REMARK VINA RESULT:      -4.0     11.314     12.103
REMARK  3 active torsions:
REMARK  status: ('A' for Active; 'I' for Inactive)
REMARK    1  A    between atoms: C6_6  and  N10_10 
REMARK    2  A    between atoms: C7_7  and  C8_8 
REMARK    3  A    between atoms: C8_8  and  N10_10 
ROOT
HETATM    1  C1  UNL     1     -34.738  13.948  -4.219  1.00 20.00     0.094 C 
HETATM    2  C2  UNL     1     -33.739  15.918  -5.315  1.00 20.00     0.059 C 
HETATM    3  C6  UNL     1     -34.540  15.400  -4.128  1.00 20.00     0.322 C 
HETATM    4  N9  UNL     1     -34.896  12.800  -4.293  1.00 20.00    -0.195 NA
ENDROOT
BRANCH   3   5
HETATM    5  N10 UNL     1     -33.877  15.734  -2.872  1.00 20.00     0.105 N 
HETATM    6  H26 UNL     1     -33.184  16.465  -3.049  1.00 20.00     0.318 HD
BRANCH   5   7
HETATM    7  C8  UNL     1     -34.830  16.196  -1.883  1.00 20.00     0.221 C 
HETATM    8  C5  UNL     1     -35.936  16.981  -2.586  1.00 20.00     0.043 C 
BRANCH   7   9
HETATM    9  C7  UNL     1     -34.124  17.007  -0.772  1.00 20.00     0.010 C 
HETATM   10  C3  UNL     1     -33.438  18.282  -1.272  1.00 20.00     0.011 C 
HETATM   11  C4  UNL     1     -35.094  17.353   0.365  1.00 20.00     0.011 C 
ENDBRANCH   7   9
ENDBRANCH   5   7
ENDBRANCH   3   5
TORSDOF 3
ENDMDL
MODEL 5
REMARK VINA RESULT:      -4.0     11.140     13.539
REMARK  3 active torsions:
REMARK  status: ('A' for Active; 'I' for Inactive)
REMARK    1  A    between atoms: C6_6  and  N10_10 
REMARK    2  A    between atoms: C7_7  and  C8_8 
REMARK    3  A    between atoms: C8_8  and  N10_10 
ROOT
HETATM    1  C1  UNL     1     -34.123  13.802  -4.023  1.00 20.00     0.094 C 
HETATM    2  C2  UNL     1     -33.858  15.892  -2.744  1.00 20.00     0.059 C 
HETATM    3  C6  UNL     1     -33.277  14.984  -3.819  1.00 20.00     0.322 C 
HETATM    4  N9  UNL     1     -34.791  12.865  -4.182  1.00 20.00    -0.195 NA
ENDROOT
BRANCH   3   5
HETATM    5  N10 UNL     1     -33.121  15.707  -5.077  1.00 20.00     0.105 N 
HETATM    6  H26 UNL     1     -32.458  15.200  -5.668  1.00 20.00     0.318 HD
BRANCH   5   7
HETATM    7  C8  UNL     1     -34.388  15.840  -5.767  1.00 20.00     0.221 C 
HETATM    8  C5  UNL     1     -34.313  15.087  -7.094  1.00 20.00     0.043 C 
BRANCH   7   9
HETATM    9  C7  UNL     1     -34.771  17.328  -5.936  1.00 20.00     0.010 C 
HETATM   10  C3  UNL     1     -35.989  17.754  -5.111  1.00 20.00     0.011 C 
HETATM   11  C4  UNL     1     -33.584  18.247  -5.620  1.00 20.00     0.011 C 
ENDBRANCH   7   9
ENDBRANCH   5   7
ENDBRANCH   3   5
TORSDOF 3
ENDMDL
MODEL 6
REMARK VINA RESULT:      -3.9     11.341     12.887
REMARK  3 active torsions:
REMARK  status: ('A' for Active; 'I' for Inactive)
REMARK    1  A    between atoms: C6_6  and  N10_10 
REMARK    2  A    between atoms: C7_7  and  C8_8 
REMARK    3  A    between atoms: C8_8  and  N10_10 
ROOT
HETATM    1  C1  UNL     1     -34.253  15.630  -6.677  1.00 20.00     0.094 C 
HETATM    2  C2  UNL     1     -33.635  17.886  -5.900  1.00 20.00     0.059 C 
HETATM    3  C6  UNL     1     -33.959  16.454  -5.498  1.00 20.00     0.322 C 
HETATM    4  N9  UNL     1     -34.487  14.979  -7.610  1.00 20.00    -0.195 NA
ENDROOT
BRANCH   3   5
HETATM    5  N10 UNL     1     -32.858  15.867  -4.742  1.00 20.00     0.105 N 
HETATM    6  H26 UNL     1     -32.190  16.604  -4.507  1.00 20.00     0.318 HD
BRANCH   5   7
HETATM    7  C8  UNL     1     -33.332  15.233  -3.529  1.00 20.00     0.221 C 
HETATM    8  C5  UNL     1     -33.500  13.736  -3.784  1.00 20.00     0.043 C 
BRANCH   7   9
HETATM    9  C7  UNL     1     -34.625  15.910  -3.021  1.00 20.00     0.010 C 
HETATM   10  C3  UNL     1     -35.883  15.052  -3.187  1.00 20.00     0.011 C 
HETATM   11  C4  UNL     1     -34.486  16.346  -1.557  1.00 20.00     0.011 C 
ENDBRANCH   7   9
ENDBRANCH   5   7
ENDBRANCH   3   5
TORSDOF 3
ENDMDL
MODEL 7
REMARK VINA RESULT:      -3.9     11.753     13.589
REMARK  3 active torsions:
REMARK  status: ('A' for Active; 'I' for Inactive)
REMARK    1  A    between atoms: C6_6  and  N10_10 
REMARK    2  A    between atoms: C7_7  and  C8_8 
REMARK    3  A    between atoms: C8_8  and  N10_10 
ROOT
HETATM    1  C1  UNL     1     -34.701  13.722  -5.025  1.00 20.00     0.094 C 
HETATM    2  C2  UNL     1     -34.384  15.014  -7.100  1.00 20.00     0.059 C 
HETATM    3  C6  UNL     1     -34.416  15.051  -5.578  1.00 20.00     0.322 C 
HETATM    4  N9  UNL     1     -34.928  12.670  -4.587  1.00 20.00    -0.195 NA
ENDROOT
BRANCH   3   5
HETATM    5  N10 UNL     1     -33.152  15.551  -5.047  1.00 20.00     0.105 N 
HETATM    6  H26 UNL     1     -32.555  15.833  -5.828  1.00 20.00     0.318 HD
BRANCH   5   7
HETATM    7  C8  UNL     1     -33.363  16.679  -4.163  1.00 20.00     0.221 C 
HETATM    8  C5  UNL     1     -33.766  16.161  -2.784  1.00 20.00     0.043 C 
BRANCH   7   9
HETATM    9  C7  UNL     1     -34.390  17.667  -4.763  1.00 20.00     0.010 C 
HETATM   10  C3  UNL     1     -35.292  18.335  -3.722  1.00 20.00     0.011 C 
HETATM   11  C4  UNL     1     -33.698  18.739  -5.613  1.00 20.00     0.011 C 
ENDBRANCH   7   9
ENDBRANCH   5   7
ENDBRANCH   3   5
TORSDOF 3
ENDMDL
MODEL 8
REMARK VINA RESULT:      -3.9     11.234     12.753
REMARK  3 active torsions:
REMARK  status: ('A' for Active; 'I' for Inactive)
REMARK    1  A    between atoms: C6_6  and  N10_10 
REMARK    2  A    between atoms: C7_7  and  C8_8 
REMARK    3  A    between atoms: C8_8  and  N10_10 
ROOT
HETATM    1  C1  UNL     1     -37.494  15.349  -3.586  1.00 20.00     0.094 C 
HETATM    2  C2  UNL     1     -37.703  17.727  -4.199  1.00 20.00     0.059 C 
HETATM    3  C6  UNL     1     -37.040  16.711  -3.279  1.00 20.00     0.322 C 
HETATM    4  N9  UNL     1     -37.855  14.272  -3.826  1.00 20.00    -0.195 NA
ENDROOT
BRANCH   3   5
HETATM    5  N10 UNL     1     -35.586  16.787  -3.388  1.00 20.00     0.105 N 
HETATM    6  H26 UNL     1     -35.286  17.731  -3.134  1.00 20.00     0.318 HD
BRANCH   5   7
HETATM    7  C8  UNL     1     -34.944  15.821  -2.519  1.00 20.00     0.221 C 
HETATM    8  C5  UNL     1     -34.577  16.504  -1.203  1.00 20.00     0.043 C 
BRANCH   7   9
HETATM    9  C7  UNL     1     -33.732  15.167  -3.221  1.00 20.00     0.010 C 
HETATM   10  C3  UNL     1     -34.003  13.752  -3.741  1.00 20.00     0.011 C 
HETATM   11  C4  UNL     1     -33.210  16.047  -4.363  1.00 20.00     0.011 C 
ENDBRANCH   7   9
ENDBRANCH   5   7
ENDBRANCH   3   5
TORSDOF 3
ENDMDL
MODEL 9
REMARK VINA RESULT:      -3.9     11.160     12.032
REMARK  3 active torsions:
REMARK  status: ('A' for Active; 'I' for Inactive)
REMARK    1  A    between atoms: C6_6  and  N10_10 
REMARK    2  A    between atoms: C7_7  and  C8_8 
REMARK    3  A    between atoms: C8_8  and  N10_10 
ROOT
HETATM    1  C1  UNL     1     -34.811  17.202   0.003  1.00 20.00     0.094 C 
HETATM    2  C2  UNL     1     -33.786  17.782  -2.162  1.00 20.00     0.059 C 
HETATM    3  C6  UNL     1     -34.313  16.667  -1.270  1.00 20.00     0.322 C 
HETATM    4  N9  UNL     1     -35.203  17.625   1.012  1.00 20.00    -0.195 NA
ENDROOT
BRANCH   3   5
HETATM    5  N10 UNL     1     -35.372  15.923  -1.945  1.00 20.00     0.105 N 
HETATM    6  H26 UNL     1     -36.226  16.485  -1.938  1.00 20.00     0.318 HD
BRANCH   5   7
HETATM    7  C8  UNL     1     -35.005  15.610  -3.311  1.00 20.00     0.221 C 
HETATM    8  C5  UNL     1     -36.226  15.801  -4.210  1.00 20.00     0.043 C 
BRANCH   7   9
HETATM    9  C7  UNL     1     -34.396  14.193  -3.409  1.00 20.00     0.010 C 
HETATM   10  C3  UNL     1     -35.073  13.295  -4.449  1.00 20.00     0.011 C 
HETATM   11  C4  UNL     1     -32.888  14.254  -3.682  1.00 20.00     0.011 C 
ENDBRANCH   7   9
ENDBRANCH   5   7
ENDBRANCH   3   5
TORSDOF 3
ENDMDL
