MODEL 1
REMARK VINA RESULT:      -3.9      0.000      0.000
REMARK  4 active torsions:
REMARK  status: ('A' for Active; 'I' for Inactive)
REMARK    1  A    between atoms: C4_4  and  C6_6 
REMARK    2  A    between atoms: C5_5  and  C7_7 
REMARK    3  A    between atoms: C6_6  and  C7_7 
REMARK    4  A    between atoms: C7_7  and  N8_8 
ROOT
HETATM    1  C1  UNL     1     -32.187   7.087   2.757  1.00 20.00     0.158 C 
HETATM    2  N8  UNL     1     -32.179   6.080   3.356  1.00 20.00    -0.270 NA
HETATM    3  S9  UNL     1     -32.168   8.445   1.926  1.00 20.00    -0.055 SA
ENDROOT
BRANCH   2   4
HETATM    4  C7  UNL     1     -33.284   5.926   4.312  1.00 20.00     0.109 C 
BRANCH   4   5
HETATM    5  C5  UNL     1     -33.407   7.206   5.147  1.00 20.00     0.023 C 
HETATM    6  C3  UNL     1     -33.706   6.921   6.614  1.00 20.00     0.007 C 
ENDBRANCH   4   5
BRANCH   4   7
HETATM    7  C6  UNL     1     -34.581   5.645   3.541  1.00 20.00     0.027 C 
BRANCH   7   8
HETATM    8  C4  UNL     1     -35.582   4.824   4.360  1.00 20.00    -0.002 C 
HETATM    9  C2  UNL     1     -34.871   3.882   5.319  1.00 20.00     0.005 C 
ENDBRANCH   7   8
ENDBRANCH   4   7
ENDBRANCH   2   4
TORSDOF 4
ENDMDL
MODEL 2
REMARK VINA RESULT:      -3.9     11.974     12.862
REMARK  4 active torsions:
REMARK  status: ('A' for Active; 'I' for Inactive)
REMARK    1  A    between atoms: C4_4  and  C6_6 
REMARK    2  A    between atoms: C5_5  and  C7_7 
REMARK    3  A    between atoms: C6_6  and  C7_7 
REMARK    4  A    between atoms: C7_7  and  N8_8 
ROOT
HETATM    1  C1  UNL     1     -33.376  17.411  -5.190  1.00 20.00     0.158 C 
HETATM    2  N8  UNL     1     -33.022  16.339  -4.872  1.00 20.00    -0.270 NA
HETATM    3  S9  UNL     1     -33.829  18.868  -5.644  1.00 20.00    -0.055 SA
ENDROOT
BRANCH   2   4
HETATM    4  C7  UNL     1     -33.881  15.678  -3.881  1.00 20.00     0.109 C 
BRANCH   4   5
HETATM    5  C5  UNL     1     -33.560  14.179  -3.858  1.00 20.00     0.023 C 
HETATM    6  C3  UNL     1     -34.761  13.318  -4.228  1.00 20.00     0.007 C 
ENDBRANCH   4   5
BRANCH   4   7
HETATM    7  C6  UNL     1     -33.641  16.313  -2.504  1.00 20.00     0.027 C 
BRANCH   7   8
HETATM    8  C4  UNL     1     -34.895  16.291  -1.624  1.00 20.00    -0.002 C 
HETATM    9  C2  UNL     1     -34.665  17.028  -0.313  1.00 20.00     0.005 C 
ENDBRANCH   7   8
ENDBRANCH   4   7
ENDBRANCH   2   4
TORSDOF 4
ENDMDL
MODEL 3
REMARK VINA RESULT:      -3.7     11.752     12.488
REMARK  4 active torsions:
REMARK  status: ('A' for Active; 'I' for Inactive)
REMARK    1  A    between atoms: C4_4  and  C6_6 
REMARK    2  A    between atoms: C5_5  and  C7_7 
REMARK    3  A    between atoms: C6_6  and  C7_7 
REMARK    4  A    between atoms: C7_7  and  N8_8 
ROOT
HETATM    1  C1  UNL     1     -34.483  17.153  -4.698  1.00 20.00     0.158 C 
HETATM    2  N8  UNL     1     -33.661  17.301  -3.876  1.00 20.00    -0.270 NA
HETATM    3  S9  UNL     1     -35.594  16.984  -5.827  1.00 20.00    -0.055 SA
ENDROOT
BRANCH   2   4
HETATM    4  C7  UNL     1     -33.483  16.156  -2.973  1.00 20.00     0.109 C 
BRANCH   4   5
HETATM    5  C5  UNL     1     -34.754  15.977  -2.134  1.00 20.00     0.023 C 
HETATM    6  C3  UNL     1     -34.654  16.650  -0.770  1.00 20.00     0.007 C 
ENDBRANCH   4   5
BRANCH   4   7
HETATM    7  C6  UNL     1     -33.192  14.899  -3.805  1.00 20.00     0.027 C 
BRANCH   7   8
HETATM    8  C4  UNL     1     -34.191  13.771  -3.528  1.00 20.00    -0.002 C 
HETATM    9  C2  UNL     1     -34.834  13.273  -4.813  1.00 20.00     0.005 C 
ENDBRANCH   7   8
ENDBRANCH   4   7
ENDBRANCH   2   4
TORSDOF 4
ENDMDL
MODEL 4
REMARK VINA RESULT:      -3.7     11.553     12.682
REMARK  4 active torsions:
REMARK  status: ('A' for Active; 'I' for Inactive)
REMARK    1  A    between atoms: C4_4  and  C6_6 
REMARK    2  A    between atoms: C5_5  and  C7_7 
REMARK    3  A    between atoms: C6_6  and  C7_7 
REMARK    4  A    between atoms: C7_7  and  N8_8 
ROOT
HETATM    1  C1  UNL     1     -36.415  14.046  -4.138  1.00 20.00     0.158 C 
HETATM    2  N8  UNL     1     -35.667  13.211  -4.482  1.00 20.00    -0.270 NA
HETATM    3  S9  UNL     1     -37.456  15.154  -3.664  1.00 20.00    -0.055 SA
ENDROOT
BRANCH   2   4
HETATM    4  C7  UNL     1     -34.367  13.708  -4.953  1.00 20.00     0.109 C 
BRANCH   4   5
HETATM    5  C5  UNL     1     -34.591  14.955  -5.818  1.00 20.00     0.023 C 
HETATM    6  C3  UNL     1     -34.645  14.632  -7.306  1.00 20.00     0.007 C 
ENDBRANCH   4   5
BRANCH   4   7
HETATM    7  C6  UNL     1     -33.483  14.032  -3.741  1.00 20.00     0.027 C 
BRANCH   7   8
HETATM    8  C4  UNL     1     -33.141  15.522  -3.649  1.00 20.00    -0.002 C 
HETATM    9  C2  UNL     1     -33.811  16.171  -2.448  1.00 20.00     0.005 C 
ENDBRANCH   7   8
ENDBRANCH   4   7
ENDBRANCH   2   4
TORSDOF 4
ENDMDL
MODEL 5
REMARK VINA RESULT:      -3.7     11.733     12.738
REMARK  4 active torsions:
REMARK  status: ('A' for Active; 'I' for Inactive)
REMARK    1  A    between atoms: C4_4  and  C6_6 
REMARK    2  A    between atoms: C5_5  and  C7_7 
REMARK    3  A    between atoms: C6_6  and  C7_7 
REMARK    4  A    between atoms: C7_7  and  N8_8 
ROOT
HETATM    1  C1  UNL     1     -33.727  14.416  -4.068  1.00 20.00     0.158 C 
HETATM    2  N8  UNL     1     -33.018  15.187  -3.541  1.00 20.00    -0.270 NA
HETATM    3  S9  UNL     1     -34.662  13.348  -4.789  1.00 20.00    -0.055 SA
ENDROOT
BRANCH   2   4
HETATM    4  C7  UNL     1     -33.687  16.396  -3.043  1.00 20.00     0.109 C 
BRANCH   4   5
HETATM    5  C5  UNL     1     -34.349  17.123  -4.220  1.00 20.00     0.023 C 
HETATM    6  C3  UNL     1     -33.675  18.451  -4.540  1.00 20.00     0.007 C 
ENDBRANCH   4   5
BRANCH   4   7
HETATM    7  C6  UNL     1     -34.727  15.996  -1.988  1.00 20.00     0.027 C 
BRANCH   7   8
HETATM    8  C4  UNL     1     -34.715  16.930  -0.773  1.00 20.00    -0.002 C 
HETATM    9  C2  UNL     1     -33.448  17.771  -0.733  1.00 20.00     0.005 C 
ENDBRANCH   7   8
ENDBRANCH   4   7
ENDBRANCH   2   4
TORSDOF 4
ENDMDL
MODEL 6
REMARK VINA RESULT:      -3.6     11.379     12.804
REMARK  4 active torsions:
REMARK  status: ('A' for Active; 'I' for Inactive)
REMARK    1  A    between atoms: C4_4  and  C6_6 
REMARK    2  A    between atoms: C5_5  and  C7_7 
REMARK    3  A    between atoms: C6_6  and  C7_7 
REMARK    4  A    between atoms: C7_7  and  N8_8 
ROOT
HETATM    1  C1  UNL     1     -34.684  16.246  -1.915  1.00 20.00     0.158 C 
HETATM    2  N8  UNL     1     -34.732  15.680  -2.940  1.00 20.00    -0.270 NA
HETATM    3  S9  UNL     1     -34.655  17.017  -0.522  1.00 20.00    -0.055 SA
ENDROOT
BRANCH   2   4
HETATM    4  C7  UNL     1     -33.426  15.276  -3.479  1.00 20.00     0.109 C 
BRANCH   4   5
HETATM    5  C5  UNL     1     -33.477  13.790  -3.857  1.00 20.00     0.023 C 
HETATM    6  C3  UNL     1     -34.894  13.309  -4.144  1.00 20.00     0.007 C 
ENDBRANCH   4   5
BRANCH   4   7
HETATM    7  C6  UNL     1     -33.096  16.143  -4.702  1.00 20.00     0.027 C 
BRANCH   7   8
HETATM    8  C4  UNL     1     -34.345  16.518  -5.506  1.00 20.00    -0.002 C 
HETATM    9  C2  UNL     1     -34.330  15.876  -6.885  1.00 20.00     0.005 C 
ENDBRANCH   7   8
ENDBRANCH   4   7
ENDBRANCH   2   4
TORSDOF 4
ENDMDL
MODEL 7
REMARK VINA RESULT:      -3.6     11.496     12.923
REMARK  4 active torsions:
REMARK  status: ('A' for Active; 'I' for Inactive)
REMARK    1  A    between atoms: C4_4  and  C6_6 
REMARK    2  A    between atoms: C5_5  and  C7_7 
REMARK    3  A    between atoms: C6_6  and  C7_7 
REMARK    4  A    between atoms: C7_7  and  N8_8 
ROOT
HETATM    1  C1  UNL     1     -34.197  17.068  -2.268  1.00 20.00     0.158 C 
HETATM    2  N8  UNL     1     -33.882  17.300  -3.373  1.00 20.00    -0.270 NA
HETATM    3  S9  UNL     1     -34.622  16.786  -0.760  1.00 20.00    -0.055 SA
ENDROOT
BRANCH   2   4
HETATM    4  C7  UNL     1     -33.838  16.128  -4.258  1.00 20.00     0.109 C 
BRANCH   4   5
HETATM    5  C5  UNL     1     -33.412  16.576  -5.662  1.00 20.00     0.023 C 
HETATM    6  C3  UNL     1     -34.270  15.957  -6.758  1.00 20.00     0.007 C 
ENDBRANCH   4   5
BRANCH   4   7
HETATM    7  C6  UNL     1     -32.850  15.102  -3.685  1.00 20.00     0.027 C 
BRANCH   7   8
HETATM    8  C4  UNL     1     -33.390  13.670  -3.756  1.00 20.00    -0.002 C 
HETATM    9  C2  UNL     1     -34.904  13.655  -3.902  1.00 20.00     0.005 C 
ENDBRANCH   7   8
ENDBRANCH   4   7
ENDBRANCH   2   4
TORSDOF 4
ENDMDL
MODEL 8
REMARK VINA RESULT:      -3.6     11.763     12.685
REMARK  4 active torsions:
REMARK  status: ('A' for Active; 'I' for Inactive)
REMARK    1  A    between atoms: C4_4  and  C6_6 
REMARK    2  A    between atoms: C5_5  and  C7_7 
REMARK    3  A    between atoms: C6_6  and  C7_7 
REMARK    4  A    between atoms: C7_7  and  N8_8 
ROOT
HETATM    1  C1  UNL     1     -35.410  16.334  -5.152  1.00 20.00     0.158 C 
HETATM    2  N8  UNL     1     -35.874  16.204  -4.084  1.00 20.00    -0.270 NA
HETATM    3  S9  UNL     1     -34.807  16.530  -6.613  1.00 20.00    -0.055 SA
ENDROOT
BRANCH   2   4
HETATM    4  C7  UNL     1     -35.074  15.387  -3.161  1.00 20.00     0.109 C 
BRANCH   4   5
HETATM    5  C5  UNL     1     -34.853  14.002  -3.781  1.00 20.00     0.023 C 
HETATM    6  C3  UNL     1     -33.383  13.601  -3.807  1.00 20.00     0.007 C 
ENDBRANCH   4   5
BRANCH   4   7
HETATM    7  C6  UNL     1     -33.736  16.092  -2.898  1.00 20.00     0.027 C 
BRANCH   7   8
HETATM    8  C4  UNL     1     -33.841  17.155  -1.800  1.00 20.00    -0.002 C 
HETATM    9  C2  UNL     1     -34.688  16.666  -0.634  1.00 20.00     0.005 C 
ENDBRANCH   7   8
ENDBRANCH   4   7
ENDBRANCH   2   4
TORSDOF 4
ENDMDL
MODEL 9
REMARK VINA RESULT:      -3.5      0.974      2.079
REMARK  4 active torsions:
REMARK  status: ('A' for Active; 'I' for Inactive)
REMARK    1  A    between atoms: C4_4  and  C6_6 
REMARK    2  A    between atoms: C5_5  and  C7_7 
REMARK    3  A    between atoms: C6_6  and  C7_7 
REMARK    4  A    between atoms: C7_7  and  N8_8 
ROOT
HETATM    1  C1  UNL     1     -32.229   7.570   2.578  1.00 20.00     0.158 C 
HETATM    2  N8  UNL     1     -32.291   6.691   3.351  1.00 20.00    -0.270 NA
HETATM    3  S9  UNL     1     -32.112   8.756   1.522  1.00 20.00    -0.055 SA
ENDROOT
BRANCH   2   4
HETATM    4  C7  UNL     1     -33.588   6.558   4.028  1.00 20.00     0.109 C 
BRANCH   4   5
HETATM    5  C5  UNL     1     -34.416   5.480   3.317  1.00 20.00     0.023 C 
HETATM    6  C3  UNL     1     -35.884   5.865   3.182  1.00 20.00     0.007 C 
ENDBRANCH   4   5
BRANCH   4   7
HETATM    7  C6  UNL     1     -33.353   6.190   5.499  1.00 20.00     0.027 C 
BRANCH   7   8
HETATM    8  C4  UNL     1     -34.657   5.872   6.237  1.00 20.00    -0.002 C 
HETATM    9  C2  UNL     1     -34.873   4.371   6.358  1.00 20.00     0.005 C 
ENDBRANCH   7   8
ENDBRANCH   4   7
ENDBRANCH   2   4
TORSDOF 4
ENDMDL
