MODEL 1
REMARK VINA RESULT:      -5.7      0.000      0.000
REMARK  1 active torsions:
REMARK  status: ('A' for Active; 'I' for Inactive)
REMARK    1  A    between atoms: C9_9  and  O11_11 
ROOT
HETATM    1  C1  UNL     1     -34.093  15.060  -2.867  1.00 20.00     0.052 A 
HETATM    2  C2  UNL     1     -33.738  17.392  -3.467  1.00 20.00     0.049 A 
HETATM    3  C3  UNL     1     -34.241  14.770  -4.214  1.00 20.00    -0.020 A 
HETATM    4  C4  UNL     1     -34.132  15.778  -5.182  1.00 20.00    -0.043 A 
HETATM    5  C5  UNL     1     -33.874  17.091  -4.824  1.00 20.00    -0.052 A 
HETATM    6  C6  UNL     1     -33.846  16.383  -2.495  1.00 20.00     0.117 A 
HETATM    7  C7  UNL     1     -34.280  15.214  -6.561  1.00 20.00     0.042 C 
HETATM    8  C8  UNL     1     -34.958  13.871  -6.257  1.00 20.00     0.041 C 
HETATM    9  C9  UNL     1     -34.468  13.440  -4.865  1.00 20.00     0.152 C 
HETATM   10  C10 UNL     1     -33.741  18.166  -5.845  1.00 20.00     0.049 C 
HETATM   11  F12 UNL     1     -33.703  16.694  -1.200  1.00 20.00    -0.206 F 
ENDROOT
BRANCH   9  12
HETATM   12  O11 UNL     1     -35.454  12.681  -4.193  1.00 20.00    -0.391 OA
HETATM   13  H23 UNL     1     -36.092  13.309  -3.815  1.00 20.00     0.210 HD
ENDBRANCH   9  12
TORSDOF 1
ENDMDL
MODEL 2
REMARK VINA RESULT:      -4.8      2.369      3.543
REMARK  1 active torsions:
REMARK  status: ('A' for Active; 'I' for Inactive)
REMARK    1  A    between atoms: C9_9  and  O11_11 
ROOT
HETATM    1  C1  UNL     1     -33.473  17.285  -5.206  1.00 20.00     0.052 A 
HETATM    2  C2  UNL     1     -34.554  16.763  -7.324  1.00 20.00     0.049 A 
HETATM    3  C3  UNL     1     -33.703  15.979  -4.805  1.00 20.00    -0.020 A 
HETATM    4  C4  UNL     1     -34.345  15.068  -5.655  1.00 20.00    -0.043 A 
HETATM    5  C5  UNL     1     -34.769  15.445  -6.919  1.00 20.00    -0.052 A 
HETATM    6  C6  UNL     1     -33.910  17.677  -6.473  1.00 20.00     0.117 A 
HETATM    7  C7  UNL     1     -34.433  13.715  -5.021  1.00 20.00     0.042 C 
HETATM    8  C8  UNL     1     -34.208  14.067  -3.545  1.00 20.00     0.041 C 
HETATM    9  C9  UNL     1     -33.302  15.309  -3.526  1.00 20.00     0.152 C 
HETATM   10  C10 UNL     1     -35.437  14.480  -7.836  1.00 20.00     0.049 C 
HETATM   11  F12 UNL     1     -33.706  18.935  -6.886  1.00 20.00    -0.206 F 
ENDROOT
BRANCH   9  12
HETATM   12  O11 UNL     1     -33.570  16.116  -2.396  1.00 20.00    -0.391 OA
HETATM   13  H23 UNL     1     -33.477  15.550  -1.611  1.00 20.00     0.210 HD
ENDBRANCH   9  12
TORSDOF 1
ENDMDL
MODEL 3
REMARK VINA RESULT:      -4.8      2.536      3.256
REMARK  1 active torsions:
REMARK  status: ('A' for Active; 'I' for Inactive)
REMARK    1  A    between atoms: C9_9  and  O11_11 
ROOT
HETATM    1  C1  UNL     1     -35.168  14.089  -4.000  1.00 20.00     0.052 A 
HETATM    2  C2  UNL     1     -33.379  15.462  -3.085  1.00 20.00     0.049 A 
HETATM    3  C3  UNL     1     -36.037  15.150  -3.805  1.00 20.00    -0.020 A 
HETATM    4  C4  UNL     1     -35.584  16.361  -3.263  1.00 20.00    -0.043 A 
HETATM    5  C5  UNL     1     -34.257  16.533  -2.905  1.00 20.00    -0.052 A 
HETATM    6  C6  UNL     1     -33.831  14.249  -3.630  1.00 20.00     0.117 A 
HETATM    7  C7  UNL     1     -36.692  17.365  -3.195  1.00 20.00     0.042 C 
HETATM    8  C8  UNL     1     -37.922  16.454  -3.307  1.00 20.00     0.041 C 
HETATM    9  C9  UNL     1     -37.492  15.243  -4.152  1.00 20.00     0.152 C 
HETATM   10  C10 UNL     1     -33.762  17.820  -2.343  1.00 20.00     0.049 C 
HETATM   11  F12 UNL     1     -32.968  13.239  -3.802  1.00 20.00    -0.206 F 
ENDROOT
BRANCH   9  12
HETATM   12  O11 UNL     1     -38.204  14.082  -3.774  1.00 20.00    -0.391 OA
HETATM   13  H23 UNL     1     -37.555  13.364  -3.682  1.00 20.00     0.210 HD
ENDBRANCH   9  12
TORSDOF 1
ENDMDL
MODEL 4
REMARK VINA RESULT:      -4.7      3.255      4.610
REMARK  1 active torsions:
REMARK  status: ('A' for Active; 'I' for Inactive)
REMARK    1  A    between atoms: C9_9  and  O11_11 
ROOT
HETATM    1  C1  UNL     1     -37.210  15.969  -3.291  1.00 20.00     0.052 A 
HETATM    2  C2  UNL     1     -35.996  14.076  -4.220  1.00 20.00     0.049 A 
HETATM    3  C3  UNL     1     -36.037  16.380  -2.681  1.00 20.00    -0.020 A 
HETATM    4  C4  UNL     1     -34.849  15.653  -2.842  1.00 20.00    -0.043 A 
HETATM    5  C5  UNL     1     -34.813  14.504  -3.614  1.00 20.00    -0.052 A 
HETATM    6  C6  UNL     1     -37.186  14.803  -4.060  1.00 20.00     0.117 A 
HETATM    7  C7  UNL     1     -33.713  16.319  -2.130  1.00 20.00     0.042 C 
HETATM    8  C8  UNL     1     -34.471  17.233  -1.158  1.00 20.00     0.041 C 
HETATM    9  C9  UNL     1     -35.794  17.602  -1.848  1.00 20.00     0.152 C 
HETATM   10  C10 UNL     1     -33.553  13.733  -3.805  1.00 20.00     0.049 C 
HETATM   11  F12 UNL     1     -38.307  14.379  -4.659  1.00 20.00    -0.206 F 
ENDROOT
BRANCH   9  12
HETATM   12  O11 UNL     1     -36.821  17.810  -0.898  1.00 20.00    -0.391 OA
HETATM   13  H23 UNL     1     -37.544  17.199  -1.118  1.00 20.00     0.210 HD
ENDBRANCH   9  12
TORSDOF 1
ENDMDL
MODEL 5
REMARK VINA RESULT:      -4.7      2.477      3.073
REMARK  1 active torsions:
REMARK  status: ('A' for Active; 'I' for Inactive)
REMARK    1  A    between atoms: C9_9  and  O11_11 
ROOT
HETATM    1  C1  UNL     1     -36.561  15.052  -5.219  1.00 20.00     0.052 A 
HETATM    2  C2  UNL     1     -35.843  17.186  -6.142  1.00 20.00     0.049 A 
HETATM    3  C3  UNL     1     -35.316  14.928  -4.623  1.00 20.00    -0.020 A 
HETATM    4  C4  UNL     1     -34.344  15.925  -4.777  1.00 20.00    -0.043 A 
HETATM    5  C5  UNL     1     -34.595  17.062  -5.528  1.00 20.00    -0.052 A 
HETATM    6  C6  UNL     1     -36.819  16.188  -5.989  1.00 20.00     0.117 A 
HETATM    7  C7  UNL     1     -33.106  15.589  -4.004  1.00 20.00     0.042 C 
HETATM    8  C8  UNL     1     -33.296  14.083  -3.786  1.00 20.00     0.041 C 
HETATM    9  C9  UNL     1     -34.813  13.838  -3.727  1.00 20.00     0.152 C 
HETATM   10  C10 UNL     1     -33.574  18.135  -5.684  1.00 20.00     0.049 C 
HETATM   11  F12 UNL     1     -38.013  16.333  -6.580  1.00 20.00    -0.206 F 
ENDROOT
BRANCH   9  12
HETATM   12  O11 UNL     1     -35.139  12.553  -4.218  1.00 20.00    -0.391 OA
HETATM   13  H23 UNL     1     -35.758  12.152  -3.585  1.00 20.00     0.210 HD
ENDBRANCH   9  12
TORSDOF 1
ENDMDL
MODEL 6
REMARK VINA RESULT:      -4.7      3.003      4.138
REMARK  1 active torsions:
REMARK  status: ('A' for Active; 'I' for Inactive)
REMARK    1  A    between atoms: C9_9  and  O11_11 
ROOT
HETATM    1  C1  UNL     1     -34.415  14.383  -5.914  1.00 20.00     0.052 A 
HETATM    2  C2  UNL     1     -36.713  15.157  -6.122  1.00 20.00     0.049 A 
HETATM    3  C3  UNL     1     -34.396  14.890  -4.624  1.00 20.00    -0.020 A 
HETATM    4  C4  UNL     1     -35.526  15.518  -4.082  1.00 20.00    -0.043 A 
HETATM    5  C5  UNL     1     -36.692  15.653  -4.817  1.00 20.00    -0.052 A 
HETATM    6  C6  UNL     1     -35.582  14.526  -6.667  1.00 20.00     0.117 A 
HETATM    7  C7  UNL     1     -35.278  15.935  -2.666  1.00 20.00     0.042 C 
HETATM    8  C8  UNL     1     -33.745  15.911  -2.616  1.00 20.00     0.041 C 
HETATM    9  C9  UNL     1     -33.294  14.829  -3.611  1.00 20.00     0.152 C 
HETATM   10  C10 UNL     1     -37.903  16.304  -4.245  1.00 20.00     0.049 C 
HETATM   11  F12 UNL     1     -35.628  14.050  -7.918  1.00 20.00    -0.206 F 
ENDROOT
BRANCH   9  12
HETATM   12  O11 UNL     1     -32.036  15.150  -4.174  1.00 20.00    -0.391 OA
HETATM   13  H23 UNL     1     -31.422  15.301  -3.435  1.00 20.00     0.210 HD
ENDBRANCH   9  12
TORSDOF 1
ENDMDL
MODEL 7
REMARK VINA RESULT:      -4.7      1.984      2.367
REMARK  1 active torsions:
REMARK  status: ('A' for Active; 'I' for Inactive)
REMARK    1  A    between atoms: C9_9  and  O11_11 
ROOT
HETATM    1  C1  UNL     1     -33.511  15.920  -2.571  1.00 20.00     0.052 A 
HETATM    2  C2  UNL     1     -35.454  17.295  -2.061  1.00 20.00     0.049 A 
HETATM    3  C3  UNL     1     -34.311  15.157  -3.406  1.00 20.00    -0.020 A 
HETATM    4  C4  UNL     1     -35.669  15.462  -3.577  1.00 20.00    -0.043 A 
HETATM    5  C5  UNL     1     -36.251  16.531  -2.916  1.00 20.00    -0.052 A 
HETATM    6  C6  UNL     1     -34.093  16.992  -1.890  1.00 20.00     0.117 A 
HETATM    7  C7  UNL     1     -36.307  14.531  -4.560  1.00 20.00     0.042 C 
HETATM    8  C8  UNL     1     -35.297  13.375  -4.568  1.00 20.00     0.041 C 
HETATM    9  C9  UNL     1     -33.923  13.995  -4.268  1.00 20.00     0.152 C 
HETATM   10  C10 UNL     1     -37.689  16.873  -3.103  1.00 20.00     0.049 C 
HETATM   11  F12 UNL     1     -33.345  17.744  -1.072  1.00 20.00    -0.206 F 
ENDROOT
BRANCH   9  12
HETATM   12  O11 UNL     1     -33.092  13.079  -3.582  1.00 20.00    -0.391 OA
HETATM   13  H23 UNL     1     -32.568  13.590  -2.942  1.00 20.00     0.210 HD
ENDBRANCH   9  12
TORSDOF 1
ENDMDL
MODEL 8
REMARK VINA RESULT:      -4.6      2.069      3.287
REMARK  1 active torsions:
REMARK  status: ('A' for Active; 'I' for Inactive)
REMARK    1  A    between atoms: C9_9  and  O11_11 
ROOT
HETATM    1  C1  UNL     1     -33.905  17.339  -3.567  1.00 20.00     0.052 A 
HETATM    2  C2  UNL     1     -34.181  14.996  -2.968  1.00 20.00     0.049 A 
HETATM    3  C3  UNL     1     -34.211  17.006  -4.877  1.00 20.00    -0.020 A 
HETATM    4  C4  UNL     1     -34.508  15.683  -5.232  1.00 20.00    -0.043 A 
HETATM    5  C5  UNL     1     -34.503  14.670  -4.287  1.00 20.00    -0.052 A 
HETATM    6  C6  UNL     1     -33.884  16.321  -2.610  1.00 20.00     0.117 A 
HETATM    7  C7  UNL     1     -34.852  15.583  -6.685  1.00 20.00     0.042 C 
HETATM    8  C8  UNL     1     -34.258  16.894  -7.218  1.00 20.00     0.041 C 
HETATM    9  C9  UNL     1     -34.337  17.909  -6.066  1.00 20.00     0.152 C 
HETATM   10  C10 UNL     1     -34.832  13.264  -4.651  1.00 20.00     0.049 C 
HETATM   11  F12 UNL     1     -33.587  16.612  -1.337  1.00 20.00    -0.206 F 
ENDROOT
BRANCH   9  12
HETATM   12  O11 UNL     1     -33.277  18.842  -6.139  1.00 20.00    -0.391 OA
HETATM   13  H23 UNL     1     -33.012  18.903  -7.073  1.00 20.00     0.210 HD
ENDBRANCH   9  12
TORSDOF 1
ENDMDL
MODEL 9
REMARK VINA RESULT:      -4.6      2.675      3.224
REMARK  1 active torsions:
REMARK  status: ('A' for Active; 'I' for Inactive)
REMARK    1  A    between atoms: C9_9  and  O11_11 
ROOT
HETATM    1  C1  UNL     1     -36.932  14.518  -3.925  1.00 20.00     0.052 A 
HETATM    2  C2  UNL     1     -37.141  16.894  -3.445  1.00 20.00     0.049 A 
HETATM    3  C3  UNL     1     -35.571  14.623  -3.688  1.00 20.00    -0.020 A 
HETATM    4  C4  UNL     1     -34.997  15.849  -3.324  1.00 20.00    -0.043 A 
HETATM    5  C5  UNL     1     -35.771  16.991  -3.194  1.00 20.00    -0.052 A 
HETATM    6  C6  UNL     1     -37.717  15.666  -3.809  1.00 20.00     0.117 A 
HETATM    7  C7  UNL     1     -33.529  15.700  -3.075  1.00 20.00     0.042 C 
HETATM    8  C8  UNL     1     -33.242  14.376  -3.795  1.00 20.00     0.041 C 
HETATM    9  C9  UNL     1     -34.532  13.544  -3.708  1.00 20.00     0.152 C 
HETATM   10  C10 UNL     1     -35.174  18.295  -2.792  1.00 20.00     0.049 C 
HETATM   11  F12 UNL     1     -39.036  15.595  -4.037  1.00 20.00    -0.206 F 
ENDROOT
BRANCH   9  12
HETATM   12  O11 UNL     1     -34.666  12.697  -4.833  1.00 20.00    -0.391 OA
HETATM   13  H23 UNL     1     -33.784  12.336  -5.026  1.00 20.00     0.210 HD
ENDBRANCH   9  12
TORSDOF 1
ENDMDL
