MODEL 1
REMARK VINA RESULT:      -3.7      0.000      0.000
REMARK  3 active torsions:
REMARK  status: ('A' for Active; 'I' for Inactive)
REMARK    1  A    between atoms: C3_3  and  C5_5 
REMARK    2  A    between atoms: C5_5  and  C6_6 
REMARK    3  A    between atoms: C6_6  and  S9_9 
ROOT
HETATM    1  C1  UNL     1     -34.374   6.033   6.416  1.00 20.00     0.281 C 
HETATM    2  C2  UNL     1     -34.921   4.717   5.881  1.00 20.00     0.106 C 
HETATM    3  C3  UNL     1     -33.977   6.445   4.131  1.00 20.00     0.282 C 
HETATM    4  N7  UNL     1     -33.368   6.502   5.462  1.00 20.00     0.098 N 
HETATM    5  S8  UNL     1     -35.097   5.009   4.105  1.00 20.00    -0.132 SA
HETATM    6  H22 UNL     1     -33.079   7.454   5.682  1.00 20.00     0.317 HD
ENDROOT
BRANCH   3   7
HETATM    7  C5  UNL     1     -32.904   6.318   3.062  1.00 20.00     0.056 C 
BRANCH   7   8
HETATM    8  C6  UNL     1     -31.971   7.525   3.072  1.00 20.00     0.076 C 
BRANCH   8   9
HETATM    9  S9  UNL     1     -31.882   8.275   1.421  1.00 20.00    -0.173 SA
HETATM   10  C4  UNL     1     -32.635   9.869   1.817  1.00 20.00     0.089 C 
ENDBRANCH   8   9
ENDBRANCH   7   8
ENDBRANCH   3   7
TORSDOF 3
ENDMDL
MODEL 2
REMARK VINA RESULT:      -3.4     11.268     12.252
REMARK  3 active torsions:
REMARK  status: ('A' for Active; 'I' for Inactive)
REMARK    1  A    between atoms: C3_3  and  C5_5 
REMARK    2  A    between atoms: C5_5  and  C6_6 
REMARK    3  A    between atoms: C6_6  and  S9_9 
ROOT
HETATM    1  C1  UNL     1     -35.441  14.449  -6.746  1.00 20.00     0.281 C 
HETATM    2  C2  UNL     1     -36.552  15.192  -6.018  1.00 20.00     0.106 C 
HETATM    3  C3  UNL     1     -34.868  13.788  -4.559  1.00 20.00     0.282 C 
HETATM    4  N7  UNL     1     -34.323  14.320  -5.810  1.00 20.00     0.098 N 
HETATM    5  S8  UNL     1     -36.545  14.472  -4.360  1.00 20.00    -0.132 SA
HETATM    6  H22 UNL     1     -33.610  13.695  -6.183  1.00 20.00     0.317 HD
ENDROOT
BRANCH   3   7
HETATM    7  C5  UNL     1     -33.981  14.174  -3.387  1.00 20.00     0.056 C 
BRANCH   7   8
HETATM    8  C6  UNL     1     -33.108  15.377  -3.730  1.00 20.00     0.076 C 
BRANCH   8   9
HETATM    9  S9  UNL     1     -33.875  16.911  -3.135  1.00 20.00    -0.173 SA
HETATM   10  C4  UNL     1     -34.561  16.278  -1.588  1.00 20.00     0.089 C 
ENDBRANCH   8   9
ENDBRANCH   7   8
ENDBRANCH   3   7
TORSDOF 3
ENDMDL
MODEL 3
REMARK VINA RESULT:      -3.4     11.079     11.692
REMARK  3 active torsions:
REMARK  status: ('A' for Active; 'I' for Inactive)
REMARK    1  A    between atoms: C3_3  and  C5_5 
REMARK    2  A    between atoms: C5_5  and  C6_6 
REMARK    3  A    between atoms: C6_6  and  S9_9 
ROOT
HETATM    1  C1  UNL     1     -36.423  14.400  -4.187  1.00 20.00     0.281 C 
HETATM    2  C2  UNL     1     -35.181  13.522  -4.138  1.00 20.00     0.106 C 
HETATM    3  C3  UNL     1     -35.061  15.867  -2.945  1.00 20.00     0.282 C 
HETATM    4  N7  UNL     1     -36.392  15.257  -3.001  1.00 20.00     0.098 N 
HETATM    5  S8  UNL     1     -33.875  14.644  -3.590  1.00 20.00    -0.132 SA
HETATM    6  H22 UNL     1     -37.112  15.977  -3.057  1.00 20.00     0.317 HD
ENDROOT
BRANCH   3   7
HETATM    7  C5  UNL     1     -34.717  16.259  -1.517  1.00 20.00     0.056 C 
BRANCH   7   8
HETATM    8  C6  UNL     1     -33.625  17.323  -1.486  1.00 20.00     0.076 C 
BRANCH   8   9
HETATM    9  S9  UNL     1     -33.760  18.332   0.017  1.00 20.00    -0.173 SA
HETATM   10  C4  UNL     1     -35.168  17.487   0.773  1.00 20.00     0.089 C 
ENDBRANCH   8   9
ENDBRANCH   7   8
ENDBRANCH   3   7
TORSDOF 3
ENDMDL
MODEL 4
REMARK VINA RESULT:      -3.3     11.138     13.144
REMARK  3 active torsions:
REMARK  status: ('A' for Active; 'I' for Inactive)
REMARK    1  A    between atoms: C3_3  and  C5_5 
REMARK    2  A    between atoms: C5_5  and  C6_6 
REMARK    3  A    between atoms: C6_6  and  S9_9 
ROOT
HETATM    1  C1  UNL     1     -33.087  15.222  -3.741  1.00 20.00     0.281 C 
HETATM    2  C2  UNL     1     -33.427  13.738  -3.725  1.00 20.00     0.106 C 
HETATM    3  C3  UNL     1     -34.424  15.194  -5.680  1.00 20.00     0.282 C 
HETATM    4  N7  UNL     1     -33.148  15.663  -5.135  1.00 20.00     0.098 N 
HETATM    5  S8  UNL     1     -34.795  13.592  -4.897  1.00 20.00    -0.132 SA
HETATM    6  H22 UNL     1     -33.086  16.678  -5.195  1.00 20.00     0.317 HD
ENDROOT
BRANCH   3   7
HETATM    7  C5  UNL     1     -34.336  15.054  -7.191  1.00 20.00     0.056 C 
BRANCH   7   8
HETATM    8  C6  UNL     1     -35.650  14.546  -7.775  1.00 20.00     0.076 C 
BRANCH   8   9
HETATM    9  S9  UNL     1     -36.851  15.900  -7.917  1.00 20.00    -0.173 SA
HETATM   10  C4  UNL     1     -38.060  15.304  -6.714  1.00 20.00     0.089 C 
ENDBRANCH   8   9
ENDBRANCH   7   8
ENDBRANCH   3   7
TORSDOF 3
ENDMDL
MODEL 5
REMARK VINA RESULT:      -3.3     10.990     12.515
REMARK  3 active torsions:
REMARK  status: ('A' for Active; 'I' for Inactive)
REMARK    1  A    between atoms: C3_3  and  C5_5 
REMARK    2  A    between atoms: C5_5  and  C6_6 
REMARK    3  A    between atoms: C6_6  and  S9_9 
ROOT
HETATM    1  C1  UNL     1     -33.383  13.617  -3.786  1.00 20.00     0.281 C 
HETATM    2  C2  UNL     1     -34.876  13.567  -4.077  1.00 20.00     0.106 C 
HETATM    3  C3  UNL     1     -33.863  15.871  -3.301  1.00 20.00     0.282 C 
HETATM    4  N7  UNL     1     -32.942  14.992  -4.025  1.00 20.00     0.098 N 
HETATM    5  S8  UNL     1     -35.512  15.099  -3.356  1.00 20.00    -0.132 SA
HETATM    6  H22 UNL     1     -31.987  15.126  -3.696  1.00 20.00     0.317 HD
ENDROOT
BRANCH   3   7
HETATM    7  C5  UNL     1     -33.887  17.252  -3.936  1.00 20.00     0.056 C 
BRANCH   7   8
HETATM    8  C6  UNL     1     -33.383  17.206  -5.375  1.00 20.00     0.076 C 
BRANCH   8   9
HETATM    9  S9  UNL     1     -34.776  17.201  -6.539  1.00 20.00    -0.173 SA
HETATM   10  C4  UNL     1     -34.538  15.546  -7.225  1.00 20.00     0.089 C 
ENDBRANCH   8   9
ENDBRANCH   7   8
ENDBRANCH   3   7
TORSDOF 3
ENDMDL
MODEL 6
REMARK VINA RESULT:      -3.3     11.395     11.860
REMARK  3 active torsions:
REMARK  status: ('A' for Active; 'I' for Inactive)
REMARK    1  A    between atoms: C3_3  and  C5_5 
REMARK    2  A    between atoms: C5_5  and  C6_6 
REMARK    3  A    between atoms: C6_6  and  S9_9 
ROOT
HETATM    1  C1  UNL     1     -34.730  13.250  -4.658  1.00 20.00     0.281 C 
HETATM    2  C2  UNL     1     -34.831  14.337  -5.718  1.00 20.00     0.106 C 
HETATM    3  C3  UNL     1     -34.879  15.089  -3.195  1.00 20.00     0.282 C 
HETATM    4  N7  UNL     1     -34.132  13.860  -3.470  1.00 20.00     0.098 N 
HETATM    5  S8  UNL     1     -35.381  15.793  -4.799  1.00 20.00    -0.132 SA
HETATM    6  H22 UNL     1     -34.183  13.226  -2.674  1.00 20.00     0.317 HD
ENDROOT
BRANCH   3   7
HETATM    7  C5  UNL     1     -34.018  16.070  -2.415  1.00 20.00     0.056 C 
BRANCH   7   8
HETATM    8  C6  UNL     1     -34.727  16.539  -1.149  1.00 20.00     0.076 C 
BRANCH   8   9
HETATM    9  S9  UNL     1     -33.845  17.942  -0.408  1.00 20.00    -0.173 SA
HETATM   10  C4  UNL     1     -34.730  18.006   1.166  1.00 20.00     0.089 C 
ENDBRANCH   8   9
ENDBRANCH   7   8
ENDBRANCH   3   7
TORSDOF 3
ENDMDL
MODEL 7
REMARK VINA RESULT:      -3.3     11.671     12.439
REMARK  3 active torsions:
REMARK  status: ('A' for Active; 'I' for Inactive)
REMARK    1  A    between atoms: C3_3  and  C5_5 
REMARK    2  A    between atoms: C5_5  and  C6_6 
REMARK    3  A    between atoms: C6_6  and  S9_9 
ROOT
HETATM    1  C1  UNL     1     -34.442  14.915  -6.624  1.00 20.00     0.281 C 
HETATM    2  C2  UNL     1     -35.846  14.714  -6.072  1.00 20.00     0.106 C 
HETATM    3  C3  UNL     1     -33.855  14.749  -4.349  1.00 20.00     0.282 C 
HETATM    4  N7  UNL     1     -33.648  15.540  -5.564  1.00 20.00     0.098 N 
HETATM    5  S8  UNL     1     -35.571  14.141  -4.380  1.00 20.00    -0.132 SA
HETATM    6  H22 UNL     1     -32.660  15.555  -5.816  1.00 20.00     0.317 HD
ENDROOT
BRANCH   3   7
HETATM    7  C5  UNL     1     -33.601  15.600  -3.114  1.00 20.00     0.056 C 
BRANCH   7   8
HETATM    8  C6  UNL     1     -34.894  15.858  -2.347  1.00 20.00     0.076 C 
BRANCH   8   9
HETATM    9  S9  UNL     1     -34.566  16.843  -0.858  1.00 20.00    -0.173 SA
HETATM   10  C4  UNL     1     -33.645  18.191  -1.634  1.00 20.00     0.089 C 
ENDBRANCH   8   9
ENDBRANCH   7   8
ENDBRANCH   3   7
TORSDOF 3
ENDMDL
MODEL 8
REMARK VINA RESULT:      -3.2     11.078     12.195
REMARK  3 active torsions:
REMARK  status: ('A' for Active; 'I' for Inactive)
REMARK    1  A    between atoms: C3_3  and  C5_5 
REMARK    2  A    between atoms: C5_5  and  C6_6 
REMARK    3  A    between atoms: C6_6  and  S9_9 
ROOT
HETATM    1  C1  UNL     1     -35.052  15.912  -2.378  1.00 20.00     0.281 C 
HETATM    2  C2  UNL     1     -33.749  16.454  -2.949  1.00 20.00     0.106 C 
HETATM    3  C3  UNL     1     -34.479  14.029  -3.671  1.00 20.00     0.282 C 
HETATM    4  N7  UNL     1     -35.575  14.943  -3.342  1.00 20.00     0.098 N 
HETATM    5  S8  UNL     1     -32.935  14.995  -3.638  1.00 20.00    -0.132 SA
HETATM    6  H22 UNL     1     -36.361  14.430  -2.946  1.00 20.00     0.317 HD
ENDROOT
BRANCH   3   7
HETATM    7  C5  UNL     1     -34.702  13.405  -5.039  1.00 20.00     0.056 C 
BRANCH   7   8
HETATM    8  C6  UNL     1     -35.554  14.308  -5.925  1.00 20.00     0.076 C 
BRANCH   8   9
HETATM    9  S9  UNL     1     -34.541  15.066  -7.226  1.00 20.00    -0.173 SA
HETATM   10  C4  UNL     1     -34.573  16.769  -6.625  1.00 20.00     0.089 C 
ENDBRANCH   8   9
ENDBRANCH   7   8
ENDBRANCH   3   7
TORSDOF 3
ENDMDL
MODEL 9
REMARK VINA RESULT:      -3.2     11.133     11.940
REMARK  3 active torsions:
REMARK  status: ('A' for Active; 'I' for Inactive)
REMARK    1  A    between atoms: C3_3  and  C5_5 
REMARK    2  A    between atoms: C5_5  and  C6_6 
REMARK    3  A    between atoms: C6_6  and  S9_9 
ROOT
HETATM    1  C1  UNL     1     -34.821  17.216  -0.010  1.00 20.00     0.281 C 
HETATM    2  C2  UNL     1     -34.847  18.603  -0.635  1.00 20.00     0.106 C 
HETATM    3  C3  UNL     1     -33.870  16.634  -2.085  1.00 20.00     0.282 C 
HETATM    4  N7  UNL     1     -34.889  16.248  -1.107  1.00 20.00     0.098 N 
HETATM    5  S8  UNL     1     -33.768  18.453  -2.077  1.00 20.00    -0.132 SA
HETATM    6  H22 UNL     1     -34.715  15.304  -0.765  1.00 20.00     0.317 HD
ENDROOT
BRANCH   3   7
HETATM    7  C5  UNL     1     -34.238  16.116  -3.466  1.00 20.00     0.056 C 
BRANCH   7   8
HETATM    8  C6  UNL     1     -33.511  14.812  -3.777  1.00 20.00     0.076 C 
BRANCH   8   9
HETATM    9  S9  UNL     1     -34.701  13.493  -4.153  1.00 20.00    -0.173 SA
HETATM   10  C4  UNL     1     -36.216  14.474  -4.066  1.00 20.00     0.089 C 
ENDBRANCH   8   9
ENDBRANCH   7   8
ENDBRANCH   3   7
TORSDOF 3
ENDMDL
