MODEL 1
REMARK VINA RESULT:      -5.8      0.000      0.000
REMARK  3 active torsions:
REMARK  status: ('A' for Active; 'I' for Inactive)
REMARK    1  A    between atoms: C3_3  and  C4_4 
REMARK    2  A    between atoms: C3_3  and  C5_5 
REMARK    3  A    between atoms: C5_5  and  C6_6 
ROOT
HETATM    1  C1  UNL     1     -32.146   8.765   1.614  1.00 20.00     0.012 C 
HETATM    2  C2  UNL     1     -32.100   7.827   2.363  1.00 20.00    -0.110 C 
HETATM    3  C4  UNL     1     -32.033   6.681   3.278  1.00 20.00     0.171 C 
ENDROOT
BRANCH   3   4
HETATM    4  C3  UNL     1     -33.401   6.093   3.575  1.00 20.00     0.146 C 
HETATM    5  O7  UNL     1     -34.024   5.420   2.754  1.00 20.00    -0.297 OA
BRANCH   4   6
HETATM    6  C5  UNL     1     -33.952   6.390   4.961  1.00 20.00     0.196 C 
BRANCH   6   7
HETATM    7  C6  UNL     1     -34.706   5.227   5.562  1.00 20.00     0.394 C 
HETATM    8  F8  UNL     1     -35.122   5.532   6.812  1.00 20.00    -0.171 F 
HETATM    9  F9  UNL     1     -35.800   4.916   4.835  1.00 20.00    -0.171 F 
HETATM   10  F10 UNL     1     -33.931   4.125   5.650  1.00 20.00    -0.171 F 
ENDBRANCH   6   7
ENDBRANCH   4   6
ENDBRANCH   3   4
TORSDOF 3
ENDMDL
MODEL 2
REMARK VINA RESULT:      -5.8      0.058      1.186
REMARK  3 active torsions:
REMARK  status: ('A' for Active; 'I' for Inactive)
REMARK    1  A    between atoms: C3_3  and  C4_4 
REMARK    2  A    between atoms: C3_3  and  C5_5 
REMARK    3  A    between atoms: C5_5  and  C6_6 
ROOT
HETATM    1  C1  UNL     1     -32.159   8.734   1.633  1.00 20.00     0.012 C 
HETATM    2  C2  UNL     1     -32.113   7.815   2.405  1.00 20.00    -0.110 C 
HETATM    3  C4  UNL     1     -32.047   6.694   3.349  1.00 20.00     0.171 C 
ENDROOT
BRANCH   3   4
HETATM    4  C3  UNL     1     -33.411   6.090   3.633  1.00 20.00     0.146 C 
HETATM    5  O7  UNL     1     -34.019   5.412   2.805  1.00 20.00    -0.297 OA
BRANCH   4   6
HETATM    6  C5  UNL     1     -33.978   6.379   5.013  1.00 20.00     0.196 C 
BRANCH   6   7
HETATM    7  C6  UNL     1     -34.722   5.205   5.607  1.00 20.00     0.394 C 
HETATM    8  F8  UNL     1     -35.822   4.925   4.872  1.00 20.00    -0.171 F 
HETATM    9  F9  UNL     1     -33.956   4.094   5.633  1.00 20.00    -0.171 F 
HETATM   10  F10 UNL     1     -35.132   5.464   6.867  1.00 20.00    -0.171 F 
ENDBRANCH   6   7
ENDBRANCH   4   6
ENDBRANCH   3   4
TORSDOF 3
ENDMDL
MODEL 3
REMARK VINA RESULT:      -5.6      1.429      1.726
REMARK  3 active torsions:
REMARK  status: ('A' for Active; 'I' for Inactive)
REMARK    1  A    between atoms: C3_3  and  C4_4 
REMARK    2  A    between atoms: C3_3  and  C5_5 
REMARK    3  A    between atoms: C5_5  and  C6_6 
ROOT
HETATM    1  C1  UNL     1     -31.629   7.305   3.518  1.00 20.00     0.012 C 
HETATM    2  C2  UNL     1     -32.513   6.544   3.234  1.00 20.00    -0.110 C 
HETATM    3  C4  UNL     1     -33.590   5.613   2.878  1.00 20.00     0.171 C 
ENDROOT
BRANCH   3   4
HETATM    4  C3  UNL     1     -34.742   5.648   3.867  1.00 20.00     0.146 C 
HETATM    5  O7  UNL     1     -35.919   5.613   3.510  1.00 20.00    -0.297 OA
BRANCH   4   6
HETATM    6  C5  UNL     1     -34.343   5.729   5.331  1.00 20.00     0.196 C 
BRANCH   6   7
HETATM    7  C6  UNL     1     -34.643   4.462   6.099  1.00 20.00     0.394 C 
HETATM    8  F8  UNL     1     -33.631   4.176   6.948  1.00 20.00    -0.171 F 
HETATM    9  F9  UNL     1     -35.769   4.584   6.835  1.00 20.00    -0.171 F 
HETATM   10  F10 UNL     1     -34.792   3.405   5.274  1.00 20.00    -0.171 F 
ENDBRANCH   6   7
ENDBRANCH   4   6
ENDBRANCH   3   4
TORSDOF 3
ENDMDL
MODEL 4
REMARK VINA RESULT:      -5.4      2.603      3.806
REMARK  3 active torsions:
REMARK  status: ('A' for Active; 'I' for Inactive)
REMARK    1  A    between atoms: C3_3  and  C4_4 
REMARK    2  A    between atoms: C3_3  and  C5_5 
REMARK    3  A    between atoms: C5_5  and  C6_6 
ROOT
HETATM    1  C1  UNL     1     -33.447   7.367   6.735  1.00 20.00     0.012 C 
HETATM    2  C2  UNL     1     -34.083   6.360   6.584  1.00 20.00    -0.110 C 
HETATM    3  C4  UNL     1     -34.861   5.128   6.409  1.00 20.00     0.171 C 
ENDROOT
BRANCH   3   4
HETATM    4  C3  UNL     1     -34.980   4.716   4.952  1.00 20.00     0.146 C 
HETATM    5  O7  UNL     1     -35.124   3.544   4.607  1.00 20.00    -0.297 OA
BRANCH   4   6
HETATM    6  C5  UNL     1     -34.911   5.852   3.945  1.00 20.00     0.196 C 
BRANCH   6   7
HETATM    7  C6  UNL     1     -33.633   5.854   3.138  1.00 20.00     0.394 C 
HETATM    8  F8  UNL     1     -33.761   5.056   2.054  1.00 20.00    -0.171 F 
HETATM    9  F9  UNL     1     -33.326   7.092   2.698  1.00 20.00    -0.171 F 
HETATM   10  F10 UNL     1     -32.590   5.392   3.860  1.00 20.00    -0.171 F 
ENDBRANCH   6   7
ENDBRANCH   4   6
ENDBRANCH   3   4
TORSDOF 3
ENDMDL
MODEL 5
REMARK VINA RESULT:      -5.3      2.990      4.548
REMARK  3 active torsions:
REMARK  status: ('A' for Active; 'I' for Inactive)
REMARK    1  A    between atoms: C3_3  and  C4_4 
REMARK    2  A    between atoms: C3_3  and  C5_5 
REMARK    3  A    between atoms: C5_5  and  C6_6 
ROOT
HETATM    1  C1  UNL     1     -35.195   4.320   6.335  1.00 20.00     0.012 C 
HETATM    2  C2  UNL     1     -34.606   5.172   5.728  1.00 20.00    -0.110 C 
HETATM    3  C4  UNL     1     -33.885   6.219   4.994  1.00 20.00     0.171 C 
ENDROOT
BRANCH   3   4
HETATM    4  C3  UNL     1     -33.693   5.876   3.527  1.00 20.00     0.146 C 
HETATM    5  O7  UNL     1     -34.593   5.396   2.839  1.00 20.00    -0.297 OA
BRANCH   4   6
HETATM    6  C5  UNL     1     -32.312   6.167   2.964  1.00 20.00     0.196 C 
BRANCH   6   7
HETATM    7  C6  UNL     1     -32.059   7.641   2.743  1.00 20.00     0.394 C 
HETATM    8  F8  UNL     1     -31.281   8.138   3.731  1.00 20.00    -0.171 F 
HETATM    9  F9  UNL     1     -31.424   7.865   1.574  1.00 20.00    -0.171 F 
HETATM   10  F10 UNL     1     -33.210   8.346   2.740  1.00 20.00    -0.171 F 
ENDBRANCH   6   7
ENDBRANCH   4   6
ENDBRANCH   3   4
TORSDOF 3
ENDMDL
MODEL 6
REMARK VINA RESULT:      -5.2      2.706      3.995
REMARK  3 active torsions:
REMARK  status: ('A' for Active; 'I' for Inactive)
REMARK    1  A    between atoms: C3_3  and  C4_4 
REMARK    2  A    between atoms: C3_3  and  C5_5 
REMARK    3  A    between atoms: C5_5  and  C6_6 
ROOT
HETATM    1  C1  UNL     1     -33.623   7.254   6.982  1.00 20.00     0.012 C 
HETATM    2  C2  UNL     1     -33.989   6.406   6.214  1.00 20.00    -0.110 C 
HETATM    3  C4  UNL     1     -34.437   5.363   5.284  1.00 20.00     0.171 C 
ENDROOT
BRANCH   3   4
HETATM    4  C3  UNL     1     -34.270   5.768   3.830  1.00 20.00     0.146 C 
HETATM    5  O7  UNL     1     -34.656   5.061   2.900  1.00 20.00    -0.297 OA
BRANCH   4   6
HETATM    6  C5  UNL     1     -33.594   7.109   3.600  1.00 20.00     0.196 C 
BRANCH   6   7
HETATM    7  C6  UNL     1     -32.144   6.981   3.192  1.00 20.00     0.394 C 
HETATM    8  F8  UNL     1     -31.356   7.693   4.028  1.00 20.00    -0.171 F 
HETATM    9  F9  UNL     1     -31.729   5.697   3.237  1.00 20.00    -0.171 F 
HETATM   10  F10 UNL     1     -31.937   7.448   1.942  1.00 20.00    -0.171 F 
ENDBRANCH   6   7
ENDBRANCH   4   6
ENDBRANCH   3   4
TORSDOF 3
ENDMDL
MODEL 7
REMARK VINA RESULT:      -5.2      1.528      2.184
REMARK  3 active torsions:
REMARK  status: ('A' for Active; 'I' for Inactive)
REMARK    1  A    between atoms: C3_3  and  C4_4 
REMARK    2  A    between atoms: C3_3  and  C5_5 
REMARK    3  A    between atoms: C5_5  and  C6_6 
ROOT
HETATM    1  C1  UNL     1     -32.155   8.961   0.971  1.00 20.00     0.012 C 
HETATM    2  C2  UNL     1     -31.999   8.418   2.030  1.00 20.00    -0.110 C 
HETATM    3  C4  UNL     1     -31.803   7.762   3.328  1.00 20.00     0.171 C 
ENDROOT
BRANCH   3   4
HETATM    4  C3  UNL     1     -32.525   6.429   3.423  1.00 20.00     0.146 C 
HETATM    5  O7  UNL     1     -32.016   5.374   3.048  1.00 20.00    -0.297 OA
BRANCH   4   6
HETATM    6  C5  UNL     1     -33.924   6.487   4.016  1.00 20.00     0.196 C 
BRANCH   6   7
HETATM    7  C6  UNL     1     -34.826   5.381   3.517  1.00 20.00     0.394 C 
HETATM    8  F8  UNL     1     -34.477   5.020   2.262  1.00 20.00    -0.171 F 
HETATM    9  F9  UNL     1     -34.739   4.282   4.295  1.00 20.00    -0.171 F 
HETATM   10  F10 UNL     1     -36.118   5.772   3.482  1.00 20.00    -0.171 F 
ENDBRANCH   6   7
ENDBRANCH   4   6
ENDBRANCH   3   4
TORSDOF 3
ENDMDL
MODEL 8
REMARK VINA RESULT:      -4.8      4.303      5.331
REMARK  3 active torsions:
REMARK  status: ('A' for Active; 'I' for Inactive)
REMARK    1  A    between atoms: C3_3  and  C4_4 
REMARK    2  A    between atoms: C3_3  and  C5_5 
REMARK    3  A    between atoms: C5_5  and  C6_6 
ROOT
HETATM    1  C1  UNL     1     -34.828   5.452   3.920  1.00 20.00     0.012 C 
HETATM    2  C2  UNL     1     -33.788   5.735   3.391  1.00 20.00    -0.110 C 
HETATM    3  C4  UNL     1     -32.516   6.071   2.741  1.00 20.00     0.171 C 
ENDROOT
BRANCH   3   4
HETATM    4  C3  UNL     1     -32.126   7.525   2.941  1.00 20.00     0.146 C 
HETATM    5  O7  UNL     1     -31.217   7.868   3.696  1.00 20.00    -0.297 OA
BRANCH   4   6
HETATM    6  C5  UNL     1     -32.936   8.533   2.142  1.00 20.00     0.196 C 
BRANCH   6   7
HETATM    7  C6  UNL     1     -32.194   9.074   0.941  1.00 20.00     0.394 C 
HETATM    8  F8  UNL     1     -31.958  10.397   1.091  1.00 20.00    -0.171 F 
HETATM    9  F9  UNL     1     -31.001   8.464   0.780  1.00 20.00    -0.171 F 
HETATM   10  F10 UNL     1     -32.906   8.915  -0.195  1.00 20.00    -0.171 F 
ENDBRANCH   6   7
ENDBRANCH   4   6
ENDBRANCH   3   4
TORSDOF 3
ENDMDL
MODEL 9
REMARK VINA RESULT:      -4.6      2.800      4.346
REMARK  3 active torsions:
REMARK  status: ('A' for Active; 'I' for Inactive)
REMARK    1  A    between atoms: C3_3  and  C4_4 
REMARK    2  A    between atoms: C3_3  and  C5_5 
REMARK    3  A    between atoms: C5_5  and  C6_6 
ROOT
HETATM    1  C1  UNL     1     -35.211   3.753   4.579  1.00 20.00     0.012 C 
HETATM    2  C2  UNL     1     -34.881   4.552   5.411  1.00 20.00    -0.110 C 
HETATM    3  C4  UNL     1     -34.483   5.524   6.436  1.00 20.00     0.171 C 
ENDROOT
BRANCH   3   4
HETATM    4  C3  UNL     1     -33.683   6.681   5.863  1.00 20.00     0.146 C 
HETATM    5  O7  UNL     1     -32.973   7.403   6.562  1.00 20.00    -0.297 OA
BRANCH   4   6
HETATM    6  C5  UNL     1     -33.818   6.888   4.363  1.00 20.00     0.196 C 
BRANCH   6   7
HETATM    7  C6  UNL     1     -32.504   6.768   3.626  1.00 20.00     0.394 C 
HETATM    8  F8  UNL     1     -32.638   7.202   2.353  1.00 20.00    -0.171 F 
HETATM    9  F9  UNL     1     -31.540   7.511   4.209  1.00 20.00    -0.171 F 
HETATM   10  F10 UNL     1     -32.079   5.488   3.576  1.00 20.00    -0.171 F 
ENDBRANCH   6   7
ENDBRANCH   4   6
ENDBRANCH   3   4
TORSDOF 3
ENDMDL
