MODEL 1
REMARK VINA RESULT:      -5.1      0.000      0.000
REMARK  5 active torsions:
REMARK  status: ('A' for Active; 'I' for Inactive)
REMARK    1  A    between atoms: C1_1  and  C9_9 
REMARK    2  A    between atoms: C6_6  and  C7_7 
REMARK    3  A    between atoms: C7_7  and  C10_10 
REMARK    4  A    between atoms: C8_8  and  C9_9 
REMARK    5  A    between atoms: C8_8  and  C10_10 
ROOT
HETATM    1  C8  UNL     1     -33.810   6.732   4.097  1.00 20.00     0.016 C 
ENDROOT
BRANCH   1   2
HETATM    2  C9  UNL     1     -34.682   5.476   3.918  1.00 20.00     0.051 C 
HETATM    3  C4  UNL     1     -36.091   5.798   3.429  1.00 20.00     0.018 C 
BRANCH   2   4
HETATM    4  C1  UNL     1     -34.782   4.716   5.238  1.00 20.00     0.126 C 
HETATM    5  C2  UNL     1     -34.557   5.512   6.500  1.00 20.00     0.091 C 
HETATM    6  O11 UNL     1     -35.063   3.519   5.290  1.00 20.00    -0.298 OA
ENDBRANCH   2   4
ENDBRANCH   1   2
BRANCH   1   7
HETATM    7  C10 UNL     1     -32.365   6.626   3.562  1.00 20.00    -0.018 C 
HETATM    8  C5  UNL     1     -32.295   5.534   2.488  1.00 20.00     0.010 C 
BRANCH   7   9
HETATM    9  C7  UNL     1     -31.777   7.957   3.049  1.00 20.00     0.004 C 
BRANCH   9  10
HETATM   10  C6  UNL     1     -32.012   8.243   1.563  1.00 20.00    -0.004 C 
HETATM   11  C3  UNL     1     -32.405   9.696   1.339  1.00 20.00     0.005 C 
ENDBRANCH   9  10
ENDBRANCH   7   9
ENDBRANCH   1   7
TORSDOF 5
ENDMDL
MODEL 2
REMARK VINA RESULT:      -4.8      1.128      1.164
REMARK  5 active torsions:
REMARK  status: ('A' for Active; 'I' for Inactive)
REMARK    1  A    between atoms: C1_1  and  C9_9 
REMARK    2  A    between atoms: C6_6  and  C7_7 
REMARK    3  A    between atoms: C7_7  and  C10_10 
REMARK    4  A    between atoms: C8_8  and  C9_9 
REMARK    5  A    between atoms: C8_8  and  C10_10 
ROOT
HETATM    1  C8  UNL     1     -33.658   6.926   3.979  1.00 20.00     0.016 C 
ENDROOT
BRANCH   1   2
HETATM    2  C9  UNL     1     -34.387   5.623   4.354  1.00 20.00     0.051 C 
HETATM    3  C4  UNL     1     -35.767   5.511   3.714  1.00 20.00     0.018 C 
BRANCH   2   4
HETATM    4  C1  UNL     1     -34.540   5.526   5.871  1.00 20.00     0.126 C 
HETATM    5  C2  UNL     1     -35.121   4.245   6.416  1.00 20.00     0.091 C 
HETATM    6  O11 UNL     1     -34.182   6.428   6.628  1.00 20.00    -0.298 OA
ENDBRANCH   2   4
ENDBRANCH   1   2
BRANCH   1   7
HETATM    7  C10 UNL     1     -32.210   6.760   3.469  1.00 20.00    -0.018 C 
HETATM    8  C5  UNL     1     -32.152   5.611   2.455  1.00 20.00     0.010 C 
BRANCH   7   9
HETATM    9  C7  UNL     1     -31.585   8.048   2.895  1.00 20.00     0.004 C 
BRANCH   9  10
HETATM   10  C6  UNL     1     -31.972   8.371   1.448  1.00 20.00    -0.004 C 
HETATM   11  C3  UNL     1     -32.463   9.805   1.317  1.00 20.00     0.005 C 
ENDBRANCH   9  10
ENDBRANCH   7   9
ENDBRANCH   1   7
TORSDOF 5
ENDMDL
MODEL 3
REMARK VINA RESULT:      -4.7      1.252      1.875
REMARK  5 active torsions:
REMARK  status: ('A' for Active; 'I' for Inactive)
REMARK    1  A    between atoms: C1_1  and  C9_9 
REMARK    2  A    between atoms: C6_6  and  C7_7 
REMARK    3  A    between atoms: C7_7  and  C10_10 
REMARK    4  A    between atoms: C8_8  and  C9_9 
REMARK    5  A    between atoms: C8_8  and  C10_10 
ROOT
HETATM    1  C8  UNL     1     -32.915   6.177   3.889  1.00 20.00     0.016 C 
ENDROOT
BRANCH   1   2
HETATM    2  C9  UNL     1     -34.114   6.385   4.832  1.00 20.00     0.051 C 
HETATM    3  C4  UNL     1     -33.696   6.580   6.286  1.00 20.00     0.018 C 
BRANCH   2   4
HETATM    4  C1  UNL     1     -35.060   5.189   4.749  1.00 20.00     0.126 C 
HETATM    5  C2  UNL     1     -34.887   4.112   5.790  1.00 20.00     0.091 C 
HETATM    6  O11 UNL     1     -35.947   5.108   3.899  1.00 20.00    -0.298 OA
ENDBRANCH   2   4
ENDBRANCH   1   2
BRANCH   1   7
HETATM    7  C10 UNL     1     -32.288   7.463   3.308  1.00 20.00    -0.018 C 
HETATM    8  C5  UNL     1     -30.984   7.778   4.049  1.00 20.00     0.010 C 
BRANCH   7   9
HETATM    9  C7  UNL     1     -32.073   7.433   1.781  1.00 20.00     0.004 C 
BRANCH   9  10
HETATM   10  C6  UNL     1     -31.741   8.785   1.143  1.00 20.00    -0.004 C 
HETATM   11  C3  UNL     1     -32.673   9.876   1.649  1.00 20.00     0.005 C 
ENDBRANCH   9  10
ENDBRANCH   7   9
ENDBRANCH   1   7
TORSDOF 5
ENDMDL
MODEL 4
REMARK VINA RESULT:      -4.7      1.012      1.402
REMARK  5 active torsions:
REMARK  status: ('A' for Active; 'I' for Inactive)
REMARK    1  A    between atoms: C1_1  and  C9_9 
REMARK    2  A    between atoms: C6_6  and  C7_7 
REMARK    3  A    between atoms: C7_7  and  C10_10 
REMARK    4  A    between atoms: C8_8  and  C9_9 
REMARK    5  A    between atoms: C8_8  and  C10_10 
ROOT
HETATM    1  C8  UNL     1     -34.031   6.771   3.792  1.00 20.00     0.016 C 
ENDROOT
BRANCH   1   2
HETATM    2  C9  UNL     1     -34.606   6.392   5.169  1.00 20.00     0.051 C 
HETATM    3  C4  UNL     1     -33.637   6.672   6.313  1.00 20.00     0.018 C 
BRANCH   2   4
HETATM    4  C1  UNL     1     -34.976   4.910   5.191  1.00 20.00     0.126 C 
HETATM    5  C2  UNL     1     -35.040   4.245   6.544  1.00 20.00     0.091 C 
HETATM    6  O11 UNL     1     -35.244   4.282   4.166  1.00 20.00    -0.298 OA
ENDBRANCH   2   4
ENDBRANCH   1   2
BRANCH   1   7
HETATM    7  C10 UNL     1     -32.501   6.625   3.643  1.00 20.00    -0.018 C 
HETATM    8  C5  UNL     1     -32.186   5.429   2.737  1.00 20.00     0.010 C 
BRANCH   7   9
HETATM    9  C7  UNL     1     -31.783   7.901   3.159  1.00 20.00     0.004 C 
BRANCH   9  10
HETATM   10  C6  UNL     1     -31.973   8.232   1.675  1.00 20.00    -0.004 C 
HETATM   11  C3  UNL     1     -32.423   9.673   1.486  1.00 20.00     0.005 C 
ENDBRANCH   9  10
ENDBRANCH   7   9
ENDBRANCH   1   7
TORSDOF 5
ENDMDL
MODEL 5
REMARK VINA RESULT:      -4.6     10.927     12.131
REMARK  5 active torsions:
REMARK  status: ('A' for Active; 'I' for Inactive)
REMARK    1  A    between atoms: C1_1  and  C9_9 
REMARK    2  A    between atoms: C6_6  and  C7_7 
REMARK    3  A    between atoms: C7_7  and  C10_10 
REMARK    4  A    between atoms: C8_8  and  C9_9 
REMARK    5  A    between atoms: C8_8  and  C10_10 
ROOT
HETATM    1  C8  UNL     1     -34.701  15.695  -3.317  1.00 20.00     0.016 C 
ENDROOT
BRANCH   1   2
HETATM    2  C9  UNL     1     -34.078  14.298  -3.486  1.00 20.00     0.051 C 
HETATM    3  C4  UNL     1     -32.553  14.329  -3.509  1.00 20.00     0.018 C 
BRANCH   2   4
HETATM    4  C1  UNL     1     -34.575  13.656  -4.780  1.00 20.00     0.126 C 
HETATM    5  C2  UNL     1     -34.619  14.538  -6.004  1.00 20.00     0.091 C 
HETATM    6  O11 UNL     1     -34.896  12.470  -4.847  1.00 20.00    -0.298 OA
ENDBRANCH   2   4
ENDBRANCH   1   2
BRANCH   1   7
HETATM    7  C10 UNL     1     -33.706  16.843  -3.041  1.00 20.00    -0.018 C 
HETATM    8  C5  UNL     1     -33.907  17.956  -4.076  1.00 20.00     0.010 C 
BRANCH   7   9
HETATM    9  C7  UNL     1     -33.757  17.398  -1.603  1.00 20.00     0.004 C 
BRANCH   9  10
HETATM   10  C6  UNL     1     -34.688  16.645  -0.647  1.00 20.00    -0.004 C 
HETATM   11  C3  UNL     1     -35.010  17.484   0.581  1.00 20.00     0.005 C 
ENDBRANCH   9  10
ENDBRANCH   7   9
ENDBRANCH   1   7
TORSDOF 5
ENDMDL
MODEL 6
REMARK VINA RESULT:      -4.4     10.854     12.043
REMARK  5 active torsions:
REMARK  status: ('A' for Active; 'I' for Inactive)
REMARK    1  A    between atoms: C1_1  and  C9_9 
REMARK    2  A    between atoms: C6_6  and  C7_7 
REMARK    3  A    between atoms: C7_7  and  C10_10 
REMARK    4  A    between atoms: C8_8  and  C9_9 
REMARK    5  A    between atoms: C8_8  and  C10_10 
ROOT
HETATM    1  C8  UNL     1     -34.776  15.611  -2.523  1.00 20.00     0.016 C 
ENDROOT
BRANCH   1   2
HETATM    2  C9  UNL     1     -33.511  15.241  -3.318  1.00 20.00     0.051 C 
HETATM    3  C4  UNL     1     -33.258  16.176  -4.496  1.00 20.00     0.018 C 
BRANCH   2   4
HETATM    4  C1  UNL     1     -33.621  13.810  -3.841  1.00 20.00     0.126 C 
HETATM    5  C2  UNL     1     -34.838  13.481  -4.670  1.00 20.00     0.091 C 
HETATM    6  O11 UNL     1     -32.752  12.963  -3.633  1.00 20.00    -0.298 OA
ENDBRANCH   2   4
ENDBRANCH   1   2
BRANCH   1   7
HETATM    7  C10 UNL     1     -34.760  16.999  -1.847  1.00 20.00    -0.018 C 
HETATM    8  C5  UNL     1     -35.900  17.856  -2.409  1.00 20.00     0.010 C 
BRANCH   7   9
HETATM    9  C7  UNL     1     -34.796  16.958  -0.306  1.00 20.00     0.004 C 
BRANCH   9  10
HETATM   10  C6  UNL     1     -34.026  18.082   0.394  1.00 20.00    -0.004 C 
HETATM   11  C3  UNL     1     -32.784  18.473  -0.394  1.00 20.00     0.005 C 
ENDBRANCH   9  10
ENDBRANCH   7   9
ENDBRANCH   1   7
TORSDOF 5
ENDMDL
MODEL 7
REMARK VINA RESULT:      -4.2     11.480     12.608
REMARK  5 active torsions:
REMARK  status: ('A' for Active; 'I' for Inactive)
REMARK    1  A    between atoms: C1_1  and  C9_9 
REMARK    2  A    between atoms: C6_6  and  C7_7 
REMARK    3  A    between atoms: C7_7  and  C10_10 
REMARK    4  A    between atoms: C8_8  and  C9_9 
REMARK    5  A    between atoms: C8_8  and  C10_10 
ROOT
HETATM    1  C8  UNL     1     -33.930  15.094  -3.246  1.00 20.00     0.016 C 
ENDROOT
BRANCH   1   2
HETATM    2  C9  UNL     1     -34.315  16.577  -3.392  1.00 20.00     0.051 C 
HETATM    3  C4  UNL     1     -33.544  17.283  -4.503  1.00 20.00     0.018 C 
BRANCH   2   4
HETATM    4  C1  UNL     1     -34.067  17.315  -2.078  1.00 20.00     0.126 C 
HETATM    5  C2  UNL     1     -34.582  16.658  -0.822  1.00 20.00     0.091 C 
HETATM    6  O11 UNL     1     -33.450  18.379  -2.026  1.00 20.00    -0.298 OA
ENDBRANCH   2   4
ENDBRANCH   1   2
BRANCH   1   7
HETATM    7  C10 UNL     1     -34.961  14.078  -3.783  1.00 20.00    -0.018 C 
HETATM    8  C5  UNL     1     -36.369  14.678  -3.687  1.00 20.00     0.010 C 
BRANCH   7   9
HETATM    9  C7  UNL     1     -34.666  13.564  -5.207  1.00 20.00     0.004 C 
BRANCH   9  10
HETATM   10  C6  UNL     1     -35.384  14.315  -6.333  1.00 20.00    -0.004 C 
HETATM   11  C3  UNL     1     -34.389  14.997  -7.260  1.00 20.00     0.005 C 
ENDBRANCH   9  10
ENDBRANCH   7   9
ENDBRANCH   1   7
TORSDOF 5
ENDMDL
MODEL 8
REMARK VINA RESULT:      -4.2     10.643     12.206
REMARK  5 active torsions:
REMARK  status: ('A' for Active; 'I' for Inactive)
REMARK    1  A    between atoms: C1_1  and  C9_9 
REMARK    2  A    between atoms: C6_6  and  C7_7 
REMARK    3  A    between atoms: C7_7  and  C10_10 
REMARK    4  A    between atoms: C8_8  and  C9_9 
REMARK    5  A    between atoms: C8_8  and  C10_10 
ROOT
HETATM    1  C8  UNL     1     -35.643  15.667  -4.123  1.00 20.00     0.016 C 
ENDROOT
BRANCH   1   2
HETATM    2  C9  UNL     1     -34.724  14.934  -5.117  1.00 20.00     0.051 C 
HETATM    3  C4  UNL     1     -35.389  14.688  -6.468  1.00 20.00     0.018 C 
BRANCH   2   4
HETATM    4  C1  UNL     1     -34.288  13.591  -4.534  1.00 20.00     0.126 C 
HETATM    5  C2  UNL     1     -33.076  13.602  -3.635  1.00 20.00     0.091 C 
HETATM    6  O11 UNL     1     -34.903  12.547  -4.752  1.00 20.00    -0.298 OA
ENDBRANCH   2   4
ENDBRANCH   1   2
BRANCH   1   7
HETATM    7  C10 UNL     1     -34.947  16.691  -3.199  1.00 20.00    -0.018 C 
HETATM    8  C5  UNL     1     -35.687  18.032  -3.270  1.00 20.00     0.010 C 
BRANCH   7   9
HETATM    9  C7  UNL     1     -34.778  16.219  -1.741  1.00 20.00     0.004 C 
BRANCH   9  10
HETATM   10  C6  UNL     1     -34.145  17.244  -0.794  1.00 20.00    -0.004 C 
HETATM   11  C3  UNL     1     -34.956  17.386   0.485  1.00 20.00     0.005 C 
ENDBRANCH   9  10
ENDBRANCH   7   9
ENDBRANCH   1   7
TORSDOF 5
ENDMDL
MODEL 9
REMARK VINA RESULT:      -4.1     11.206     12.071
REMARK  5 active torsions:
REMARK  status: ('A' for Active; 'I' for Inactive)
REMARK    1  A    between atoms: C1_1  and  C9_9 
REMARK    2  A    between atoms: C6_6  and  C7_7 
REMARK    3  A    between atoms: C7_7  and  C10_10 
REMARK    4  A    between atoms: C8_8  and  C9_9 
REMARK    5  A    between atoms: C8_8  and  C10_10 
ROOT
HETATM    1  C8  UNL     1     -34.878  15.611  -2.281  1.00 20.00     0.016 C 
ENDROOT
BRANCH   1   2
HETATM    2  C9  UNL     1     -35.894  15.796  -3.422  1.00 20.00     0.051 C 
HETATM    3  C4  UNL     1     -37.096  16.641  -3.013  1.00 20.00     0.018 C 
BRANCH   2   4
HETATM    4  C1  UNL     1     -36.392  14.435  -3.905  1.00 20.00     0.126 C 
HETATM    5  C2  UNL     1     -35.343  13.443  -4.342  1.00 20.00     0.091 C 
HETATM    6  O11 UNL     1     -37.586  14.135  -3.913  1.00 20.00    -0.298 OA
ENDBRANCH   2   4
ENDBRANCH   1   2
BRANCH   1   7
HETATM    7  C10 UNL     1     -33.716  16.628  -2.248  1.00 20.00    -0.018 C 
HETATM    8  C5  UNL     1     -33.704  17.435  -3.552  1.00 20.00     0.010 C 
BRANCH   7   9
HETATM    9  C7  UNL     1     -33.714  17.554  -1.015  1.00 20.00     0.004 C 
BRANCH   9  10
HETATM   10  C6  UNL     1     -34.774  17.230   0.044  1.00 20.00    -0.004 C 
HETATM   11  C3  UNL     1     -34.620  18.124   1.266  1.00 20.00     0.005 C 
ENDBRANCH   9  10
ENDBRANCH   7   9
ENDBRANCH   1   7
TORSDOF 5
ENDMDL
