MODEL 1
REMARK VINA RESULT:      -5.2      0.000      0.000
REMARK  5 active torsions:
REMARK  status: ('A' for Active; 'I' for Inactive)
REMARK    1  A    between atoms: C1_1  and  C9_9 
REMARK    2  A    between atoms: C6_6  and  C7_7 
REMARK    3  A    between atoms: C7_7  and  C10_10 
REMARK    4  A    between atoms: C8_8  and  C9_9 
REMARK    5  A    between atoms: C8_8  and  C10_10 
ROOT
HETATM    1  C8  UNL     1     -33.843   7.045   3.936  1.00 20.00     0.016 C 
ENDROOT
BRANCH   1   2
HETATM    2  C9  UNL     1     -33.840   6.030   5.093  1.00 20.00     0.051 C 
HETATM    3  C4  UNL     1     -33.934   6.693   6.464  1.00 20.00     0.018 C 
BRANCH   2   4
HETATM    4  C1  UNL     1     -35.007   5.057   4.937  1.00 20.00     0.126 C 
HETATM    5  C2  UNL     1     -35.129   3.971   5.978  1.00 20.00     0.091 C 
HETATM    6  O11 UNL     1     -35.833   5.158   4.031  1.00 20.00    -0.298 OA
ENDBRANCH   2   4
ENDBRANCH   1   2
BRANCH   1   7
HETATM    7  C10 UNL     1     -32.802   6.795   2.823  1.00 20.00    -0.018 C 
HETATM    8  C5  UNL     1     -32.070   5.475   3.093  1.00 20.00     0.010 C 
BRANCH   7   9
HETATM    9  C7  UNL     1     -31.805   7.952   2.604  1.00 20.00     0.004 C 
BRANCH   9  10
HETATM   10  C6  UNL     1     -31.835   8.583   1.210  1.00 20.00    -0.004 C 
HETATM   11  C3  UNL     1     -32.493   9.955   1.241  1.00 20.00     0.005 C 
ENDBRANCH   9  10
ENDBRANCH   7   9
ENDBRANCH   1   7
TORSDOF 5
ENDMDL
MODEL 2
REMARK VINA RESULT:      -5.0      1.539      1.997
REMARK  5 active torsions:
REMARK  status: ('A' for Active; 'I' for Inactive)
REMARK    1  A    between atoms: C1_1  and  C9_9 
REMARK    2  A    between atoms: C6_6  and  C7_7 
REMARK    3  A    between atoms: C7_7  and  C10_10 
REMARK    4  A    between atoms: C8_8  and  C9_9 
REMARK    5  A    between atoms: C8_8  and  C10_10 
ROOT
HETATM    1  C8  UNL     1     -32.695   5.940   3.665  1.00 20.00     0.016 C 
ENDROOT
BRANCH   1   2
HETATM    2  C9  UNL     1     -34.095   6.309   4.191  1.00 20.00     0.051 C 
HETATM    3  C4  UNL     1     -35.213   5.551   3.482  1.00 20.00     0.018 C 
BRANCH   2   4
HETATM    4  C1  UNL     1     -34.182   6.025   5.689  1.00 20.00     0.126 C 
HETATM    5  C2  UNL     1     -34.834   4.727   6.098  1.00 20.00     0.091 C 
HETATM    6  O11 UNL     1     -33.720   6.792   6.533  1.00 20.00    -0.298 OA
ENDBRANCH   2   4
ENDBRANCH   1   2
BRANCH   1   7
HETATM    7  C10 UNL     1     -31.847   7.117   3.137  1.00 20.00    -0.018 C 
HETATM    8  C5  UNL     1     -31.197   7.850   4.316  1.00 20.00     0.010 C 
BRANCH   7   9
HETATM    9  C7  UNL     1     -32.609   8.098   2.221  1.00 20.00     0.004 C 
BRANCH   9  10
HETATM   10  C6  UNL     1     -31.773   8.730   1.106  1.00 20.00    -0.004 C 
HETATM   11  C3  UNL     1     -32.648   9.156  -0.064  1.00 20.00     0.005 C 
ENDBRANCH   9  10
ENDBRANCH   7   9
ENDBRANCH   1   7
TORSDOF 5
ENDMDL
MODEL 3
REMARK VINA RESULT:      -4.7      1.019      1.434
REMARK  5 active torsions:
REMARK  status: ('A' for Active; 'I' for Inactive)
REMARK    1  A    between atoms: C1_1  and  C9_9 
REMARK    2  A    between atoms: C6_6  and  C7_7 
REMARK    3  A    between atoms: C7_7  and  C10_10 
REMARK    4  A    between atoms: C8_8  and  C9_9 
REMARK    5  A    between atoms: C8_8  and  C10_10 
ROOT
HETATM    1  C8  UNL     1     -33.499   6.616   4.458  1.00 20.00     0.016 C 
ENDROOT
BRANCH   1   2
HETATM    2  C9  UNL     1     -34.888   5.953   4.468  1.00 20.00     0.051 C 
HETATM    3  C4  UNL     1     -35.422   5.673   3.067  1.00 20.00     0.018 C 
BRANCH   2   4
HETATM    4  C1  UNL     1     -34.834   4.638   5.244  1.00 20.00     0.126 C 
HETATM    5  C2  UNL     1     -34.334   4.710   6.667  1.00 20.00     0.091 C 
HETATM    6  O11 UNL     1     -35.204   3.570   4.759  1.00 20.00    -0.298 OA
ENDBRANCH   2   4
ENDBRANCH   1   2
BRANCH   1   7
HETATM    7  C10 UNL     1     -32.768   6.620   3.099  1.00 20.00    -0.018 C 
HETATM    8  C5  UNL     1     -31.961   5.325   2.946  1.00 20.00     0.010 C 
BRANCH   7   9
HETATM    9  C7  UNL     1     -31.884   7.860   2.848  1.00 20.00     0.004 C 
BRANCH   9  10
HETATM   10  C6  UNL     1     -31.935   8.419   1.424  1.00 20.00    -0.004 C 
HETATM   11  C3  UNL     1     -32.480   9.840   1.410  1.00 20.00     0.005 C 
ENDBRANCH   9  10
ENDBRANCH   7   9
ENDBRANCH   1   7
TORSDOF 5
ENDMDL
MODEL 4
REMARK VINA RESULT:      -4.7     10.504     12.418
REMARK  5 active torsions:
REMARK  status: ('A' for Active; 'I' for Inactive)
REMARK    1  A    between atoms: C1_1  and  C9_9 
REMARK    2  A    between atoms: C6_6  and  C7_7 
REMARK    3  A    between atoms: C7_7  and  C10_10 
REMARK    4  A    between atoms: C8_8  and  C9_9 
REMARK    5  A    between atoms: C8_8  and  C10_10 
ROOT
HETATM    1  C8  UNL     1     -33.552  16.003  -4.827  1.00 20.00     0.016 C 
ENDROOT
BRANCH   1   2
HETATM    2  C9  UNL     1     -34.578  14.933  -5.242  1.00 20.00     0.051 C 
HETATM    3  C4  UNL     1     -34.590  14.674  -6.745  1.00 20.00     0.018 C 
BRANCH   2   4
HETATM    4  C1  UNL     1     -34.284  13.619  -4.519  1.00 20.00     0.126 C 
HETATM    5  C2  UNL     1     -33.076  13.597  -3.616  1.00 20.00     0.091 C 
HETATM    6  O11 UNL     1     -35.005  12.628  -4.634  1.00 20.00    -0.298 OA
ENDBRANCH   2   4
ENDBRANCH   1   2
BRANCH   1   7
HETATM    7  C10 UNL     1     -34.095  17.141  -3.936  1.00 20.00    -0.018 C 
HETATM    8  C5  UNL     1     -33.711  18.495  -4.543  1.00 20.00     0.010 C 
BRANCH   7   9
HETATM    9  C7  UNL     1     -33.672  17.054  -2.454  1.00 20.00     0.004 C 
BRANCH   9  10
HETATM   10  C6  UNL     1     -34.663  16.336  -1.535  1.00 20.00    -0.004 C 
HETATM   11  C3  UNL     1     -34.790  17.049  -0.197  1.00 20.00     0.005 C 
ENDBRANCH   9  10
ENDBRANCH   7   9
ENDBRANCH   1   7
TORSDOF 5
ENDMDL
MODEL 5
REMARK VINA RESULT:      -4.6     11.010     12.056
REMARK  5 active torsions:
REMARK  status: ('A' for Active; 'I' for Inactive)
REMARK    1  A    between atoms: C1_1  and  C9_9 
REMARK    2  A    between atoms: C6_6  and  C7_7 
REMARK    3  A    between atoms: C7_7  and  C10_10 
REMARK    4  A    between atoms: C8_8  and  C9_9 
REMARK    5  A    between atoms: C8_8  and  C10_10 
ROOT
HETATM    1  C8  UNL     1     -33.763  15.371  -3.308  1.00 20.00     0.016 C 
ENDROOT
BRANCH   1   2
HETATM    2  C9  UNL     1     -34.919  14.375  -3.518  1.00 20.00     0.051 C 
HETATM    3  C4  UNL     1     -36.291  15.039  -3.463  1.00 20.00     0.018 C 
BRANCH   2   4
HETATM    4  C1  UNL     1     -34.765  13.674  -4.866  1.00 20.00     0.126 C 
HETATM    5  C2  UNL     1     -34.606  14.559  -6.078  1.00 20.00     0.091 C 
HETATM    6  O11 UNL     1     -34.740  12.448  -4.973  1.00 20.00    -0.298 OA
ENDBRANCH   2   4
ENDBRANCH   1   2
BRANCH   1   7
HETATM    7  C10 UNL     1     -34.179  16.816  -2.961  1.00 20.00    -0.018 C 
HETATM    8  C5  UNL     1     -33.649  17.774  -4.035  1.00 20.00     0.010 C 
BRANCH   7   9
HETATM    9  C7  UNL     1     -33.770  17.281  -1.547  1.00 20.00     0.004 C 
BRANCH   9  10
HETATM   10  C6  UNL     1     -34.703  16.833  -0.420  1.00 20.00    -0.004 C 
HETATM   11  C3  UNL     1     -34.719  17.845   0.716  1.00 20.00     0.005 C 
ENDBRANCH   9  10
ENDBRANCH   7   9
ENDBRANCH   1   7
TORSDOF 5
ENDMDL
MODEL 6
REMARK VINA RESULT:      -4.6      2.099      5.065
REMARK  5 active torsions:
REMARK  status: ('A' for Active; 'I' for Inactive)
REMARK    1  A    between atoms: C1_1  and  C9_9 
REMARK    2  A    between atoms: C6_6  and  C7_7 
REMARK    3  A    between atoms: C7_7  and  C10_10 
REMARK    4  A    between atoms: C8_8  and  C9_9 
REMARK    5  A    between atoms: C8_8  and  C10_10 
ROOT
HETATM    1  C8  UNL     1     -32.771   6.266   2.896  1.00 20.00     0.016 C 
ENDROOT
BRANCH   1   2
HETATM    2  C9  UNL     1     -32.307   7.702   3.199  1.00 20.00     0.051 C 
HETATM    3  C4  UNL     1     -30.988   7.750   3.965  1.00 20.00     0.018 C 
BRANCH   2   4
HETATM    4  C1  UNL     1     -32.148   8.486   1.897  1.00 20.00     0.126 C 
HETATM    5  C2  UNL     1     -32.726   9.880   1.869  1.00 20.00     0.091 C 
HETATM    6  O11 UNL     1     -31.554   8.029   0.921  1.00 20.00    -0.298 OA
ENDBRANCH   2   4
ENDBRANCH   1   2
BRANCH   1   7
HETATM    7  C10 UNL     1     -33.863   5.704   3.832  1.00 20.00    -0.018 C 
HETATM    8  C5  UNL     1     -35.226   5.782   3.135  1.00 20.00     0.010 C 
BRANCH   7   9
HETATM    9  C7  UNL     1     -33.912   6.359   5.229  1.00 20.00     0.004 C 
BRANCH   9  10
HETATM   10  C6  UNL     1     -34.597   5.526   6.315  1.00 20.00    -0.004 C 
HETATM   11  C3  UNL     1     -34.670   4.059   5.919  1.00 20.00     0.005 C 
ENDBRANCH   9  10
ENDBRANCH   7   9
ENDBRANCH   1   7
TORSDOF 5
ENDMDL
MODEL 7
REMARK VINA RESULT:      -4.5     10.926     12.244
REMARK  5 active torsions:
REMARK  status: ('A' for Active; 'I' for Inactive)
REMARK    1  A    between atoms: C1_1  and  C9_9 
REMARK    2  A    between atoms: C6_6  and  C7_7 
REMARK    3  A    between atoms: C7_7  and  C10_10 
REMARK    4  A    between atoms: C8_8  and  C9_9 
REMARK    5  A    between atoms: C8_8  and  C10_10 
ROOT
HETATM    1  C8  UNL     1     -34.840  15.363  -3.305  1.00 20.00     0.016 C 
ENDROOT
BRANCH   1   2
HETATM    2  C9  UNL     1     -33.711  16.405  -3.202  1.00 20.00     0.051 C 
HETATM    3  C4  UNL     1     -33.658  17.342  -4.405  1.00 20.00     0.018 C 
BRANCH   2   4
HETATM    4  C1  UNL     1     -33.886  17.241  -1.935  1.00 20.00     0.126 C 
HETATM    5  C2  UNL     1     -34.647  16.602  -0.800  1.00 20.00     0.091 C 
HETATM    6  O11 UNL     1     -33.408  18.369  -1.819  1.00 20.00    -0.298 OA
ENDBRANCH   2   4
ENDBRANCH   1   2
BRANCH   1   7
HETATM    7  C10 UNL     1     -34.394  13.923  -3.637  1.00 20.00    -0.018 C 
HETATM    8  C5  UNL     1     -32.870  13.817  -3.513  1.00 20.00     0.010 C 
BRANCH   7   9
HETATM    9  C7  UNL     1     -34.880  13.400  -5.005  1.00 20.00     0.004 C 
BRANCH   9  10
HETATM   10  C6  UNL     1     -35.478  14.460  -5.933  1.00 20.00    -0.004 C 
HETATM   11  C3  UNL     1     -34.500  14.844  -7.033  1.00 20.00     0.005 C 
ENDBRANCH   9  10
ENDBRANCH   7   9
ENDBRANCH   1   7
TORSDOF 5
ENDMDL
MODEL 8
REMARK VINA RESULT:      -4.4     10.939     11.981
REMARK  5 active torsions:
REMARK  status: ('A' for Active; 'I' for Inactive)
REMARK    1  A    between atoms: C1_1  and  C9_9 
REMARK    2  A    between atoms: C6_6  and  C7_7 
REMARK    3  A    between atoms: C7_7  and  C10_10 
REMARK    4  A    between atoms: C8_8  and  C9_9 
REMARK    5  A    between atoms: C8_8  and  C10_10 
ROOT
HETATM    1  C8  UNL     1     -33.681  16.063  -2.444  1.00 20.00     0.016 C 
ENDROOT
BRANCH   1   2
HETATM    2  C9  UNL     1     -34.074  15.582  -3.853  1.00 20.00     0.051 C 
HETATM    3  C4  UNL     1     -33.171  16.147  -4.946  1.00 20.00     0.018 C 
BRANCH   2   4
HETATM    4  C1  UNL     1     -34.027  14.057  -3.917  1.00 20.00     0.126 C 
HETATM    5  C2  UNL     1     -35.295  13.355  -4.338  1.00 20.00     0.091 C 
HETATM    6  O11 UNL     1     -33.004  13.417  -3.671  1.00 20.00    -0.298 OA
ENDBRANCH   2   4
ENDBRANCH   1   2
BRANCH   1   7
HETATM    7  C10 UNL     1     -34.854  16.441  -1.515  1.00 20.00    -0.018 C 
HETATM    8  C5  UNL     1     -35.956  17.124  -2.332  1.00 20.00     0.010 C 
BRANCH   7   9
HETATM    9  C7  UNL     1     -34.455  17.294  -0.292  1.00 20.00     0.004 C 
BRANCH   9  10
HETATM   10  C6  UNL     1     -33.234  18.195  -0.497  1.00 20.00    -0.004 C 
HETATM   11  C3  UNL     1     -32.779  18.812   0.817  1.00 20.00     0.005 C 
ENDBRANCH   9  10
ENDBRANCH   7   9
ENDBRANCH   1   7
TORSDOF 5
ENDMDL
MODEL 9
REMARK VINA RESULT:      -4.3     11.275     13.377
REMARK  5 active torsions:
REMARK  status: ('A' for Active; 'I' for Inactive)
REMARK    1  A    between atoms: C1_1  and  C9_9 
REMARK    2  A    between atoms: C6_6  and  C7_7 
REMARK    3  A    between atoms: C7_7  and  C10_10 
REMARK    4  A    between atoms: C8_8  and  C9_9 
REMARK    5  A    between atoms: C8_8  and  C10_10 
ROOT
HETATM    1  C8  UNL     1     -33.044  15.996  -4.596  1.00 20.00     0.016 C 
ENDROOT
BRANCH   1   2
HETATM    2  C9  UNL     1     -34.050  16.977  -5.226  1.00 20.00     0.051 C 
HETATM    3  C4  UNL     1     -33.588  18.429  -5.154  1.00 20.00     0.018 C 
BRANCH   2   4
HETATM    4  C1  UNL     1     -34.291  16.610  -6.689  1.00 20.00     0.126 C 
HETATM    5  C2  UNL     1     -34.405  15.140  -7.010  1.00 20.00     0.091 C 
HETATM    6  O11 UNL     1     -34.419  17.460  -7.570  1.00 20.00    -0.298 OA
ENDBRANCH   2   4
ENDBRANCH   1   2
BRANCH   1   7
HETATM    7  C10 UNL     1     -33.536  15.247  -3.339  1.00 20.00    -0.018 C 
HETATM    8  C5  UNL     1     -33.676  13.753  -3.654  1.00 20.00     0.010 C 
BRANCH   7   9
HETATM    9  C7  UNL     1     -34.834  15.811  -2.722  1.00 20.00     0.004 C 
BRANCH   9  10
HETATM   10  C6  UNL     1     -34.692  16.365  -1.302  1.00 20.00    -0.004 C 
HETATM   11  C3  UNL     1     -33.628  17.451  -1.238  1.00 20.00     0.005 C 
ENDBRANCH   9  10
ENDBRANCH   7   9
ENDBRANCH   1   7
TORSDOF 5
ENDMDL
