MODEL 1
REMARK VINA RESULT:      -5.3      0.000      0.000
REMARK  2 active torsions:
REMARK  status: ('A' for Active; 'I' for Inactive)
REMARK    1  A    between atoms: C2_2  and  C11_11 
REMARK    2  A    between atoms: C7_7  and  C11_11 
ROOT
HETATM    1  C1  UNL     1     -34.897  17.298   0.421  1.00 20.00    -0.111 C 
HETATM    2  C2  UNL     1     -34.445  17.015  -0.655  1.00 20.00    -0.106 C 
HETATM    3  C9  UNL     1     -35.448  17.644   1.730  1.00 20.00     0.112 C 
ENDROOT
BRANCH   2   4
HETATM    4  C11 UNL     1     -33.887  16.674  -1.967  1.00 20.00     0.106 C 
BRANCH   4   5
HETATM    5  C7  UNL     1     -34.554  15.428  -2.540  1.00 20.00     0.067 C 
HETATM    6  C3  UNL     1     -33.656  14.718  -3.547  1.00 20.00     0.132 C 
HETATM    7  C4  UNL     1     -34.272  13.539  -4.267  1.00 20.00     0.079 C 
HETATM    8  O12 UNL     1     -32.473  15.013  -3.709  1.00 20.00    -0.298 OA
HETATM    9  C5  UNL     1     -35.606  13.929  -4.887  1.00 20.00     0.011 C 
HETATM   10  C8  UNL     1     -36.550  14.559  -3.854  1.00 20.00    -0.017 C 
HETATM   11  C6  UNL     1     -35.888  15.785  -3.205  1.00 20.00     0.017 C 
HETATM   12  C10 UNL     1     -37.877  14.946  -4.505  1.00 20.00     0.010 C 
ENDBRANCH   4   5
ENDBRANCH   2   4
TORSDOF 2
ENDMDL
MODEL 2
REMARK VINA RESULT:      -5.1      2.023      2.453
REMARK  2 active torsions:
REMARK  status: ('A' for Active; 'I' for Inactive)
REMARK    1  A    between atoms: C2_2  and  C11_11 
REMARK    2  A    between atoms: C7_7  and  C11_11 
ROOT
HETATM    1  C1  UNL     1     -34.485  16.864  -0.855  1.00 20.00    -0.111 C 
HETATM    2  C2  UNL     1     -33.929  16.451  -1.835  1.00 20.00    -0.106 C 
HETATM    3  C9  UNL     1     -35.163  17.369   0.338  1.00 20.00     0.112 C 
ENDROOT
BRANCH   2   4
HETATM    4  C11 UNL     1     -33.242  15.945  -3.028  1.00 20.00     0.106 C 
BRANCH   4   5
HETATM    5  C7  UNL     1     -34.235  15.644  -4.146  1.00 20.00     0.067 C 
HETATM    6  C3  UNL     1     -34.190  14.178  -4.562  1.00 20.00     0.132 C 
HETATM    7  C4  UNL     1     -35.049  13.801  -5.749  1.00 20.00     0.079 C 
HETATM    8  O12 UNL     1     -33.575  13.323  -3.928  1.00 20.00    -0.298 OA
HETATM    9  C5  UNL     1     -34.768  14.724  -6.927  1.00 20.00     0.011 C 
HETATM   10  C8  UNL     1     -34.904  16.202  -6.535  1.00 20.00    -0.017 C 
HETATM   11  C6  UNL     1     -33.963  16.531  -5.366  1.00 20.00     0.017 C 
HETATM   12  C10 UNL     1     -34.610  17.104  -7.733  1.00 20.00     0.010 C 
ENDBRANCH   4   5
ENDBRANCH   2   4
TORSDOF 2
ENDMDL
MODEL 3
REMARK VINA RESULT:      -4.6      2.876      4.989
REMARK  2 active torsions:
REMARK  status: ('A' for Active; 'I' for Inactive)
REMARK    1  A    between atoms: C2_2  and  C11_11 
REMARK    2  A    between atoms: C7_7  and  C11_11 
ROOT
HETATM    1  C1  UNL     1     -37.699  15.588  -6.418  1.00 20.00    -0.111 C 
HETATM    2  C2  UNL     1     -36.674  15.022  -6.682  1.00 20.00    -0.106 C 
HETATM    3  C9  UNL     1     -38.947  16.278  -6.095  1.00 20.00     0.112 C 
ENDROOT
BRANCH   2   4
HETATM    4  C11 UNL     1     -35.426  14.323  -7.007  1.00 20.00     0.106 C 
BRANCH   4   5
HETATM    5  C7  UNL     1     -34.326  14.676  -6.011  1.00 20.00     0.067 C 
HETATM    6  C3  UNL     1     -34.296  13.707  -4.835  1.00 20.00     0.132 C 
HETATM    7  C4  UNL     1     -33.322  14.040  -3.727  1.00 20.00     0.079 C 
HETATM    8  O12 UNL     1     -34.948  12.665  -4.813  1.00 20.00    -0.298 OA
HETATM    9  C5  UNL     1     -33.512  15.477  -3.262  1.00 20.00     0.011 C 
HETATM   10  C8  UNL     1     -33.449  16.467  -4.434  1.00 20.00    -0.017 C 
HETATM   11  C6  UNL     1     -34.503  16.107  -5.492  1.00 20.00     0.017 C 
HETATM   12  C10 UNL     1     -33.650  17.898  -3.939  1.00 20.00     0.010 C 
ENDBRANCH   4   5
ENDBRANCH   2   4
TORSDOF 2
ENDMDL
MODEL 4
REMARK VINA RESULT:      -4.6     11.960     13.931
REMARK  2 active torsions:
REMARK  status: ('A' for Active; 'I' for Inactive)
REMARK    1  A    between atoms: C2_2  and  C11_11 
REMARK    2  A    between atoms: C7_7  and  C11_11 
ROOT
HETATM    1  C1  UNL     1     -42.084   1.314  -3.414  1.00 20.00    -0.111 C 
HETATM    2  C2  UNL     1     -42.517   2.209  -2.741  1.00 20.00    -0.106 C 
HETATM    3  C9  UNL     1     -41.557   0.224  -4.234  1.00 20.00     0.112 C 
ENDROOT
BRANCH   2   4
HETATM    4  C11 UNL     1     -43.037   3.302  -1.914  1.00 20.00     0.106 C 
BRANCH   4   5
HETATM    5  C7  UNL     1     -42.103   4.507  -1.947  1.00 20.00     0.067 C 
HETATM    6  C3  UNL     1     -41.700   4.948  -0.544  1.00 20.00     0.132 C 
HETATM    7  C4  UNL     1     -40.873   6.212  -0.459  1.00 20.00     0.079 C 
HETATM    8  O12 UNL     1     -41.942   4.281   0.460  1.00 20.00    -0.298 OA
HETATM    9  C5  UNL     1     -41.543   7.341  -1.228  1.00 20.00     0.011 C 
HETATM   10  C8  UNL     1     -41.867   6.933  -2.672  1.00 20.00    -0.017 C 
HETATM   11  C6  UNL     1     -42.757   5.680  -2.684  1.00 20.00     0.017 C 
HETATM   12  C10 UNL     1     -42.544   8.082  -3.416  1.00 20.00     0.010 C 
ENDBRANCH   4   5
ENDBRANCH   2   4
TORSDOF 2
ENDMDL
MODEL 5
REMARK VINA RESULT:      -4.5      2.377      3.094
REMARK  2 active torsions:
REMARK  status: ('A' for Active; 'I' for Inactive)
REMARK    1  A    between atoms: C2_2  and  C11_11 
REMARK    2  A    between atoms: C7_7  and  C11_11 
ROOT
HETATM    1  C1  UNL     1     -34.755  16.692  -0.814  1.00 20.00    -0.111 C 
HETATM    2  C2  UNL     1     -34.717  16.037  -1.819  1.00 20.00    -0.106 C 
HETATM    3  C9  UNL     1     -34.803  17.490   0.410  1.00 20.00     0.112 C 
ENDROOT
BRANCH   2   4
HETATM    4  C11 UNL     1     -34.663  15.242  -3.050  1.00 20.00     0.106 C 
BRANCH   4   5
HETATM    5  C7  UNL     1     -35.533  15.861  -4.140  1.00 20.00     0.067 C 
HETATM    6  C3  UNL     1     -36.748  14.994  -4.452  1.00 20.00     0.132 C 
HETATM    7  C4  UNL     1     -37.611  15.455  -5.606  1.00 20.00     0.079 C 
HETATM    8  O12 UNL     1     -37.075  14.030  -3.763  1.00 20.00    -0.298 OA
HETATM    9  C5  UNL     1     -36.761  15.694  -6.846  1.00 20.00     0.011 C 
HETATM   10  C8  UNL     1     -35.589  16.642  -6.559  1.00 20.00    -0.017 C 
HETATM   11  C6  UNL     1     -34.721  16.085  -5.420  1.00 20.00     0.017 C 
HETATM   12  C10 UNL     1     -34.751  16.858  -7.818  1.00 20.00     0.010 C 
ENDBRANCH   4   5
ENDBRANCH   2   4
TORSDOF 2
ENDMDL
MODEL 6
REMARK VINA RESULT:      -4.5      1.627      5.185
REMARK  2 active torsions:
REMARK  status: ('A' for Active; 'I' for Inactive)
REMARK    1  A    between atoms: C2_2  and  C11_11 
REMARK    2  A    between atoms: C7_7  and  C11_11 
ROOT
HETATM    1  C1  UNL     1     -35.149  14.448  -6.517  1.00 20.00    -0.111 C 
HETATM    2  C2  UNL     1     -34.811  14.506  -5.366  1.00 20.00    -0.106 C 
HETATM    3  C9  UNL     1     -35.560  14.376  -7.918  1.00 20.00     0.112 C 
ENDROOT
BRANCH   2   4
HETATM    4  C11 UNL     1     -34.392  14.573  -3.962  1.00 20.00     0.106 C 
BRANCH   4   5
HETATM    5  C7  UNL     1     -34.662  15.955  -3.375  1.00 20.00     0.067 C 
HETATM    6  C3  UNL     1     -33.643  16.981  -3.855  1.00 20.00     0.132 C 
HETATM    7  C4  UNL     1     -33.747  18.357  -3.234  1.00 20.00     0.079 C 
HETATM    8  O12 UNL     1     -32.840  16.752  -4.758  1.00 20.00    -0.298 OA
HETATM    9  C5  UNL     1     -33.766  18.258  -1.715  1.00 20.00     0.011 C 
HETATM   10  C8  UNL     1     -34.855  17.295  -1.222  1.00 20.00    -0.017 C 
HETATM   11  C6  UNL     1     -34.655  15.903  -1.843  1.00 20.00     0.017 C 
HETATM   12  C10 UNL     1     -34.846  17.210   0.302  1.00 20.00     0.010 C 
ENDBRANCH   4   5
ENDBRANCH   2   4
TORSDOF 2
ENDMDL
MODEL 7
REMARK VINA RESULT:      -4.5      1.342      2.170
REMARK  2 active torsions:
REMARK  status: ('A' for Active; 'I' for Inactive)
REMARK    1  A    between atoms: C2_2  and  C11_11 
REMARK    2  A    between atoms: C7_7  and  C11_11 
ROOT
HETATM    1  C1  UNL     1     -34.544  16.468  -1.259  1.00 20.00    -0.111 C 
HETATM    2  C2  UNL     1     -34.246  15.794  -2.207  1.00 20.00    -0.106 C 
HETATM    3  C9  UNL     1     -34.907  17.289  -0.105  1.00 20.00     0.112 C 
ENDROOT
BRANCH   2   4
HETATM    4  C11 UNL     1     -33.879  14.965  -3.360  1.00 20.00     0.106 C 
BRANCH   4   5
HETATM    5  C7  UNL     1     -35.111  14.583  -4.174  1.00 20.00     0.067 C 
HETATM    6  C3  UNL     1     -35.073  15.187  -5.573  1.00 20.00     0.132 C 
HETATM    7  C4  UNL     1     -36.307  14.971  -6.421  1.00 20.00     0.079 C 
HETATM    8  O12 UNL     1     -34.075  15.737  -6.035  1.00 20.00    -0.298 OA
HETATM    9  C5  UNL     1     -37.557  15.397  -5.663  1.00 20.00     0.011 C 
HETATM   10  C8  UNL     1     -37.648  14.718  -4.289  1.00 20.00    -0.017 C 
HETATM   11  C6  UNL     1     -36.392  15.027  -3.459  1.00 20.00     0.017 C 
HETATM   12  C10 UNL     1     -38.906  15.168  -3.550  1.00 20.00     0.010 C 
ENDBRANCH   4   5
ENDBRANCH   2   4
TORSDOF 2
ENDMDL
MODEL 8
REMARK VINA RESULT:      -4.4      2.018      5.513
REMARK  2 active torsions:
REMARK  status: ('A' for Active; 'I' for Inactive)
REMARK    1  A    between atoms: C2_2  and  C11_11 
REMARK    2  A    between atoms: C7_7  and  C11_11 
ROOT
HETATM    1  C1  UNL     1     -34.484  14.486  -3.456  1.00 20.00    -0.111 C 
HETATM    2  C2  UNL     1     -34.234  15.477  -2.826  1.00 20.00    -0.106 C 
HETATM    3  C9  UNL     1     -34.788  13.279  -4.223  1.00 20.00     0.112 C 
ENDROOT
BRANCH   2   4
HETATM    4  C11 UNL     1     -33.936  16.686  -2.051  1.00 20.00     0.106 C 
BRANCH   4   5
HETATM    5  C7  UNL     1     -35.051  16.988  -1.056  1.00 20.00     0.067 C 
HETATM    6  C3  UNL     1     -35.967  18.101  -1.554  1.00 20.00     0.132 C 
HETATM    7  C4  UNL     1     -37.033  18.563  -0.586  1.00 20.00     0.079 C 
HETATM    8  O12 UNL     1     -35.916  18.543  -2.700  1.00 20.00    -0.298 OA
HETATM    9  C5  UNL     1     -36.418  18.908   0.763  1.00 20.00     0.011 C 
HETATM   10  C8  UNL     1     -35.570  17.752   1.313  1.00 20.00    -0.017 C 
HETATM   11  C6  UNL     1     -34.470  17.374   0.309  1.00 20.00     0.017 C 
HETATM   12  C10 UNL     1     -34.961  18.128   2.662  1.00 20.00     0.010 C 
ENDBRANCH   4   5
ENDBRANCH   2   4
TORSDOF 2
ENDMDL
MODEL 9
REMARK VINA RESULT:      -4.3      2.309      2.846
REMARK  2 active torsions:
REMARK  status: ('A' for Active; 'I' for Inactive)
REMARK    1  A    between atoms: C2_2  and  C11_11 
REMARK    2  A    between atoms: C7_7  and  C11_11 
ROOT
HETATM    1  C1  UNL     1     -34.318  17.372  -1.500  1.00 20.00    -0.111 C 
HETATM    2  C2  UNL     1     -33.993  17.616  -2.629  1.00 20.00    -0.106 C 
HETATM    3  C9  UNL     1     -34.715  17.073  -0.124  1.00 20.00     0.112 C 
ENDROOT
BRANCH   2   4
HETATM    4  C11 UNL     1     -33.599  17.924  -4.008  1.00 20.00     0.106 C 
BRANCH   4   5
HETATM    5  C7  UNL     1     -33.548  16.658  -4.858  1.00 20.00     0.067 C 
HETATM    6  C3  UNL     1     -34.129  16.889  -6.249  1.00 20.00     0.132 C 
HETATM    7  C4  UNL     1     -34.241  15.665  -7.131  1.00 20.00     0.079 C 
HETATM    8  O12 UNL     1     -34.408  18.007  -6.678  1.00 20.00    -0.298 OA
HETATM    9  C5  UNL     1     -34.968  14.545  -6.400  1.00 20.00     0.011 C 
HETATM   10  C8  UNL     1     -34.328  14.245  -5.038  1.00 20.00    -0.017 C 
HETATM   11  C6  UNL     1     -34.301  15.514  -4.171  1.00 20.00     0.017 C 
HETATM   12  C10 UNL     1     -35.082  13.123  -4.326  1.00 20.00     0.010 C 
ENDBRANCH   4   5
ENDBRANCH   2   4
TORSDOF 2
ENDMDL
