MODEL 1
REMARK VINA RESULT:      -5.2      0.000      0.000
REMARK  3 active torsions:
REMARK  status: ('A' for Active; 'I' for Inactive)
REMARK    1  A    between atoms: C2_2  and  C9_9 
REMARK    2  A    between atoms: C7_7  and  N10_10 
REMARK    3  A    between atoms: C9_9  and  N10_10 
ROOT
HETATM    1  C1  UNL     1     -32.188   8.592   1.540  1.00 20.00    -0.109 C 
HETATM    2  C2  UNL     1     -32.047   7.861   2.482  1.00 20.00    -0.077 C 
HETATM    3  C8  UNL     1     -32.359   9.483   0.394  1.00 20.00     0.112 C 
ENDROOT
BRANCH   2   4
HETATM    4  C9  UNL     1     -31.875   6.962   3.627  1.00 20.00     0.363 C 
BRANCH   4   5
HETATM    5  N10 UNL     1     -32.874   5.906   3.612  1.00 20.00     0.099 N 
HETATM    6  H26 UNL     1     -32.548   5.121   4.170  1.00 20.00     0.317 HD
BRANCH   5   7
HETATM    7  C7  UNL     1     -34.123   6.379   4.162  1.00 20.00     0.225 C 
HETATM    8  C3  UNL     1     -34.020   6.559   5.678  1.00 20.00     0.062 C 
HETATM    9  C5  UNL     1     -34.056   5.219   6.407  1.00 20.00     0.169 C 
HETATM   10  O11 UNL     1     -35.221   4.479   6.045  1.00 20.00    -0.391 OA
HETATM   11  C6  UNL     1     -35.249   4.165   4.653  1.00 20.00     0.169 C 
HETATM   12  C4  UNL     1     -35.277   5.437   3.810  1.00 20.00     0.062 C 
ENDBRANCH   5   7
ENDBRANCH   4   5
ENDBRANCH   2   4
TORSDOF 3
ENDMDL
MODEL 2
REMARK VINA RESULT:      -4.5     11.204     12.355
REMARK  3 active torsions:
REMARK  status: ('A' for Active; 'I' for Inactive)
REMARK    1  A    between atoms: C2_2  and  C9_9 
REMARK    2  A    between atoms: C7_7  and  N10_10 
REMARK    3  A    between atoms: C9_9  and  N10_10 
ROOT
HETATM    1  C1  UNL     1     -34.875  17.338   0.382  1.00 20.00    -0.109 C 
HETATM    2  C2  UNL     1     -34.440  17.164  -0.724  1.00 20.00    -0.077 C 
HETATM    3  C8  UNL     1     -35.406  17.548   1.728  1.00 20.00     0.112 C 
ENDROOT
BRANCH   2   4
HETATM    4  C9  UNL     1     -33.909  16.960  -2.075  1.00 20.00     0.363 C 
BRANCH   4   5
HETATM    5  N10 UNL     1     -34.266  15.644  -2.579  1.00 20.00     0.099 N 
HETATM    6  H26 UNL     1     -35.158  15.695  -3.064  1.00 20.00     0.317 HD
BRANCH   5   7
HETATM    7  C7  UNL     1     -33.263  15.165  -3.503  1.00 20.00     0.225 C 
HETATM    8  C3  UNL     1     -33.229  16.025  -4.767  1.00 20.00     0.062 C 
HETATM    9  C5  UNL     1     -34.407  15.722  -5.686  1.00 20.00     0.169 C 
HETATM   10  O11 UNL     1     -34.458  14.331  -6.000  1.00 20.00    -0.391 OA
HETATM   11  C6  UNL     1     -34.652  13.523  -4.839  1.00 20.00     0.169 C 
HETATM   12  C4  UNL     1     -33.495  13.695  -3.859  1.00 20.00     0.062 C 
ENDBRANCH   5   7
ENDBRANCH   4   5
ENDBRANCH   2   4
TORSDOF 3
ENDMDL
MODEL 3
REMARK VINA RESULT:      -4.4     10.918     11.907
REMARK  3 active torsions:
REMARK  status: ('A' for Active; 'I' for Inactive)
REMARK    1  A    between atoms: C2_2  and  C9_9 
REMARK    2  A    between atoms: C7_7  and  N10_10 
REMARK    3  A    between atoms: C9_9  and  N10_10 
ROOT
HETATM    1  C1  UNL     1     -35.047  17.392   0.688  1.00 20.00    -0.109 C 
HETATM    2  C2  UNL     1     -34.595  17.092  -0.383  1.00 20.00    -0.077 C 
HETATM    3  C8  UNL     1     -35.597  17.757   1.992  1.00 20.00     0.112 C 
ENDROOT
BRANCH   2   4
HETATM    4  C9  UNL     1     -34.048  16.720  -1.691  1.00 20.00     0.363 C 
BRANCH   4   5
HETATM    5  N10 UNL     1     -34.992  15.904  -2.436  1.00 20.00     0.099 N 
HETATM    6  H26 UNL     1     -35.911  16.337  -2.411  1.00 20.00     0.317 HD
BRANCH   5   7
HETATM    7  C7  UNL     1     -34.578  15.776  -3.814  1.00 20.00     0.225 C 
HETATM    8  C3  UNL     1     -35.548  14.889  -4.597  1.00 20.00     0.062 C 
HETATM    9  C5  UNL     1     -35.353  13.413  -4.265  1.00 20.00     0.169 C 
HETATM   10  O11 UNL     1     -33.997  13.023  -4.479  1.00 20.00    -0.391 OA
HETATM   11  C6  UNL     1     -33.092  13.735  -3.635  1.00 20.00     0.169 C 
HETATM   12  C4  UNL     1     -33.151  15.233  -3.916  1.00 20.00     0.062 C 
ENDBRANCH   5   7
ENDBRANCH   4   5
ENDBRANCH   2   4
TORSDOF 3
ENDMDL
MODEL 4
REMARK VINA RESULT:      -4.2     11.574     12.418
REMARK  3 active torsions:
REMARK  status: ('A' for Active; 'I' for Inactive)
REMARK    1  A    between atoms: C2_2  and  C9_9 
REMARK    2  A    between atoms: C7_7  and  N10_10 
REMARK    3  A    between atoms: C9_9  and  N10_10 
ROOT
HETATM    1  C1  UNL     1     -34.858  17.208   0.175  1.00 20.00    -0.109 C 
HETATM    2  C2  UNL     1     -34.462  16.951  -0.929  1.00 20.00    -0.077 C 
HETATM    3  C8  UNL     1     -35.340  17.523   1.519  1.00 20.00     0.112 C 
ENDROOT
BRANCH   2   4
HETATM    4  C9  UNL     1     -33.983  16.630  -2.276  1.00 20.00     0.363 C 
BRANCH   4   5
HETATM    5  N10 UNL     1     -34.379  15.286  -2.662  1.00 20.00     0.099 N 
HETATM    6  H26 UNL     1     -34.692  14.773  -1.842  1.00 20.00     0.317 HD
BRANCH   5   7
HETATM    7  C7  UNL     1     -35.460  15.330  -3.621  1.00 20.00     0.225 C 
HETATM    8  C3  UNL     1     -35.802  13.926  -4.124  1.00 20.00     0.062 C 
HETATM    9  C5  UNL     1     -34.765  13.418  -5.121  1.00 20.00     0.169 C 
HETATM   10  O11 UNL     1     -34.609  14.338  -6.200  1.00 20.00    -0.391 OA
HETATM   11  C6  UNL     1     -34.135  15.610  -5.759  1.00 20.00     0.169 C 
HETATM   12  C4  UNL     1     -35.125  16.255  -4.793  1.00 20.00     0.062 C 
ENDBRANCH   5   7
ENDBRANCH   4   5
ENDBRANCH   2   4
TORSDOF 3
ENDMDL
MODEL 5
REMARK VINA RESULT:      -4.0     11.787     12.611
REMARK  3 active torsions:
REMARK  status: ('A' for Active; 'I' for Inactive)
REMARK    1  A    between atoms: C2_2  and  C9_9 
REMARK    2  A    between atoms: C7_7  and  N10_10 
REMARK    3  A    between atoms: C9_9  and  N10_10 
ROOT
HETATM    1  C1  UNL     1     -34.058  16.555  -1.779  1.00 20.00    -0.109 C 
HETATM    2  C2  UNL     1     -33.609  15.893  -2.675  1.00 20.00    -0.077 C 
HETATM    3  C8  UNL     1     -34.604  17.362  -0.689  1.00 20.00     0.112 C 
ENDROOT
BRANCH   2   4
HETATM    4  C9  UNL     1     -33.063  15.079  -3.765  1.00 20.00     0.363 C 
BRANCH   4   5
HETATM    5  N10 UNL     1     -33.756  15.350  -5.013  1.00 20.00     0.099 N 
HETATM    6  H26 UNL     1     -33.080  15.570  -5.738  1.00 20.00     0.317 HD
BRANCH   5   7
HETATM    7  C7  UNL     1     -34.525  14.199  -5.429  1.00 20.00     0.225 C 
HETATM    8  C3  UNL     1     -35.255  14.475  -6.744  1.00 20.00     0.062 C 
HETATM    9  C5  UNL     1     -36.469  15.373  -6.536  1.00 20.00     0.169 C 
HETATM   10  O11 UNL     1     -37.346  14.818  -5.557  1.00 20.00    -0.391 OA
HETATM   11  C6  UNL     1     -36.722  14.703  -4.278  1.00 20.00     0.169 C 
HETATM   12  C4  UNL     1     -35.515  13.772  -4.343  1.00 20.00     0.062 C 
ENDBRANCH   5   7
ENDBRANCH   4   5
ENDBRANCH   2   4
TORSDOF 3
ENDMDL
MODEL 6
REMARK VINA RESULT:      -3.9     12.299     13.636
REMARK  3 active torsions:
REMARK  status: ('A' for Active; 'I' for Inactive)
REMARK    1  A    between atoms: C2_2  and  C9_9 
REMARK    2  A    between atoms: C7_7  and  N10_10 
REMARK    3  A    between atoms: C9_9  and  N10_10 
ROOT
HETATM    1  C1  UNL     1     -34.162  16.409  -1.769  1.00 20.00    -0.109 C 
HETATM    2  C2  UNL     1     -33.596  15.936  -2.717  1.00 20.00    -0.077 C 
HETATM    3  C8  UNL     1     -34.852  16.984  -0.615  1.00 20.00     0.112 C 
ENDROOT
BRANCH   2   4
HETATM    4  C9  UNL     1     -32.899  15.357  -3.869  1.00 20.00     0.363 C 
BRANCH   4   5
HETATM    5  N10 UNL     1     -33.467  15.841  -5.116  1.00 20.00     0.099 N 
HETATM    6  H26 UNL     1     -32.945  15.460  -5.900  1.00 20.00     0.317 HD
BRANCH   5   7
HETATM    7  C7  UNL     1     -34.848  15.435  -5.237  1.00 20.00     0.225 C 
HETATM    8  C3  UNL     1     -34.999  14.311  -6.265  1.00 20.00     0.062 C 
HETATM    9  C5  UNL     1     -34.892  14.837  -7.693  1.00 20.00     0.169 C 
HETATM   10  O11 UNL     1     -35.836  15.883  -7.918  1.00 20.00    -0.391 OA
HETATM   11  C6  UNL     1     -35.605  17.008  -7.071  1.00 20.00     0.169 C 
HETATM   12  C4  UNL     1     -35.745  16.620  -5.601  1.00 20.00     0.062 C 
ENDBRANCH   5   7
ENDBRANCH   4   5
ENDBRANCH   2   4
TORSDOF 3
ENDMDL
MODEL 7
REMARK VINA RESULT:      -3.9     12.068     13.121
REMARK  3 active torsions:
REMARK  status: ('A' for Active; 'I' for Inactive)
REMARK    1  A    between atoms: C2_2  and  C9_9 
REMARK    2  A    between atoms: C7_7  and  N10_10 
REMARK    3  A    between atoms: C9_9  and  N10_10 
ROOT
HETATM    1  C1  UNL     1     -34.650  16.976  -0.453  1.00 20.00    -0.109 C 
HETATM    2  C2  UNL     1     -34.201  16.609  -1.505  1.00 20.00    -0.077 C 
HETATM    3  C8  UNL     1     -35.196  17.423   0.827  1.00 20.00     0.112 C 
ENDROOT
BRANCH   2   4
HETATM    4  C9  UNL     1     -33.654  16.154  -2.786  1.00 20.00     0.363 C 
BRANCH   4   5
HETATM    5  N10 UNL     1     -34.627  15.355  -3.512  1.00 20.00     0.099 N 
HETATM    6  H26 UNL     1     -35.477  15.894  -3.649  1.00 20.00     0.317 HD
BRANCH   5   7
HETATM    7  C7  UNL     1     -34.107  14.972  -4.805  1.00 20.00     0.225 C 
HETATM    8  C3  UNL     1     -33.693  16.202  -5.613  1.00 20.00     0.062 C 
HETATM    9  C5  UNL     1     -34.904  16.941  -6.174  1.00 20.00     0.169 C 
HETATM   10  O11 UNL     1     -35.721  16.060  -6.943  1.00 20.00    -0.391 OA
HETATM   11  C6  UNL     1     -36.247  14.990  -6.157  1.00 20.00     0.169 C 
HETATM   12  C4  UNL     1     -35.122  14.133  -5.584  1.00 20.00     0.062 C 
ENDBRANCH   5   7
ENDBRANCH   4   5
ENDBRANCH   2   4
TORSDOF 3
ENDMDL
MODEL 8
REMARK VINA RESULT:      -3.8      9.635     11.325
REMARK  3 active torsions:
REMARK  status: ('A' for Active; 'I' for Inactive)
REMARK    1  A    between atoms: C2_2  and  C9_9 
REMARK    2  A    between atoms: C7_7  and  N10_10 
REMARK    3  A    between atoms: C9_9  and  N10_10 
ROOT
HETATM    1  C1  UNL     1     -41.738   0.722  -3.762  1.00 20.00    -0.109 C 
HETATM    2  C2  UNL     1     -41.994   1.856  -3.461  1.00 20.00    -0.077 C 
HETATM    3  C8  UNL     1     -41.426  -0.658  -4.128  1.00 20.00     0.112 C 
ENDROOT
BRANCH   2   4
HETATM    4  C9  UNL     1     -42.300   3.243  -3.097  1.00 20.00     0.363 C 
BRANCH   4   5
HETATM    5  N10 UNL     1     -41.646   3.609  -1.852  1.00 20.00     0.099 N 
HETATM    6  H26 UNL     1     -40.754   4.052  -2.052  1.00 20.00     0.317 HD
BRANCH   5   7
HETATM    7  C7  UNL     1     -42.465   4.534  -1.101  1.00 20.00     0.225 C 
HETATM    8  C3  UNL     1     -42.867   5.732  -1.964  1.00 20.00     0.062 C 
HETATM    9  C5  UNL     1     -41.709   6.705  -2.152  1.00 20.00     0.169 C 
HETATM   10  O11 UNL     1     -41.189   7.120  -0.889  1.00 20.00    -0.391 OA
HETATM   11  C6  UNL     1     -40.662   6.027  -0.138  1.00 20.00     0.169 C 
HETATM   12  C4  UNL     1     -41.750   5.003   0.168  1.00 20.00     0.062 C 
ENDBRANCH   5   7
ENDBRANCH   4   5
ENDBRANCH   2   4
TORSDOF 3
ENDMDL
MODEL 9
REMARK VINA RESULT:      -3.7      9.782     10.716
REMARK  3 active torsions:
REMARK  status: ('A' for Active; 'I' for Inactive)
REMARK    1  A    between atoms: C2_2  and  C9_9 
REMARK    2  A    between atoms: C7_7  and  N10_10 
REMARK    3  A    between atoms: C9_9  and  N10_10 
ROOT
HETATM    1  C1  UNL     1     -41.843   9.138  -5.611  1.00 20.00    -0.109 C 
HETATM    2  C2  UNL     1     -42.210   8.676  -4.565  1.00 20.00    -0.077 C 
HETATM    3  C8  UNL     1     -41.396   9.700  -6.884  1.00 20.00     0.112 C 
ENDROOT
BRANCH   2   4
HETATM    4  C9  UNL     1     -42.665   8.112  -3.291  1.00 20.00     0.363 C 
BRANCH   4   5
HETATM    5  N10 UNL     1     -41.580   7.427  -2.609  1.00 20.00     0.099 N 
HETATM    6  H26 UNL     1     -40.717   7.950  -2.730  1.00 20.00     0.317 HD
BRANCH   5   7
HETATM    7  C7  UNL     1     -41.859   7.314  -1.195  1.00 20.00     0.225 C 
HETATM    8  C3  UNL     1     -40.766   6.511  -0.486  1.00 20.00     0.062 C 
HETATM    9  C5  UNL     1     -40.895   5.017  -0.764  1.00 20.00     0.169 C 
HETATM   10  O11 UNL     1     -42.198   4.550  -0.417  1.00 20.00    -0.391 OA
HETATM   11  C6  UNL     1     -43.220   5.179  -1.190  1.00 20.00     0.169 C 
HETATM   12  C4  UNL     1     -43.232   6.686  -0.950  1.00 20.00     0.062 C 
ENDBRANCH   5   7
ENDBRANCH   4   5
ENDBRANCH   2   4
TORSDOF 3
ENDMDL
