MODEL 1
REMARK VINA RESULT:      -4.1      0.000      0.000
REMARK  4 active torsions:
REMARK  status: ('A' for Active; 'I' for Inactive)
REMARK    1  A    between atoms: C2_2  and  C7_7 
REMARK    2  A    between atoms: C7_7  and  N11_11 
REMARK    3  A    between atoms: C8_8  and  C9_9 
REMARK    4  A    between atoms: C8_8  and  N11_11 
ROOT
HETATM    1  C1  UNL     1     -34.178  16.701  -2.096  1.00 20.00    -0.109 C 
HETATM    2  C2  UNL     1     -33.846  16.698  -3.250  1.00 20.00    -0.079 C 
HETATM    3  C4  UNL     1     -34.580  16.703  -0.690  1.00 20.00     0.112 C 
ENDROOT
BRANCH   2   4
HETATM    4  C7  UNL     1     -33.448  16.691  -4.655  1.00 20.00     0.327 C 
BRANCH   4   5
HETATM    5  N11 UNL     1     -34.373  15.795  -5.441  1.00 20.00    -0.064 N 
HETATM    6  C6  UNL     1     -34.044  15.828  -6.914  1.00 20.00     0.270 C 
HETATM    7  H26 UNL     1     -34.176  14.831  -5.125  1.00 20.00     0.280 HD
BRANCH   5   8
HETATM    8  C8  UNL     1     -35.806  16.076  -5.170  1.00 20.00     0.254 C 
BRANCH   8   9
HETATM    9  C9  UNL     1     -36.571  14.811  -4.770  1.00 20.00     0.114 C 
HETATM   10  C3  UNL     1     -35.653  13.691  -4.490  1.00 20.00     0.065 C 
HETATM   11  N10 UNL     1     -34.931  12.808  -4.270  1.00 20.00    -0.197 NA
HETATM   12  C5  UNL     1     -37.518  15.032  -3.590  1.00 20.00     0.027 C 
ENDBRANCH   8   9
ENDBRANCH   5   8
ENDBRANCH   4   5
ENDBRANCH   2   4
TORSDOF 4
ENDMDL
MODEL 2
REMARK VINA RESULT:      -4.1      1.525      1.943
REMARK  4 active torsions:
REMARK  status: ('A' for Active; 'I' for Inactive)
REMARK    1  A    between atoms: C2_2  and  C7_7 
REMARK    2  A    between atoms: C7_7  and  N11_11 
REMARK    3  A    between atoms: C8_8  and  C9_9 
REMARK    4  A    between atoms: C8_8  and  N11_11 
ROOT
HETATM    1  C1  UNL     1     -34.179  16.545  -1.676  1.00 20.00    -0.109 C 
HETATM    2  C2  UNL     1     -33.618  16.220  -2.687  1.00 20.00    -0.079 C 
HETATM    3  C4  UNL     1     -34.861  16.944  -0.445  1.00 20.00     0.112 C 
ENDROOT
BRANCH   2   4
HETATM    4  C7  UNL     1     -32.934  15.819  -3.913  1.00 20.00     0.327 C 
BRANCH   4   5
HETATM    5  N11 UNL     1     -33.510  16.573  -5.086  1.00 20.00    -0.064 N 
HETATM    6  C6  UNL     1     -33.600  18.051  -4.794  1.00 20.00     0.270 C 
HETATM    7  H26 UNL     1     -32.825  16.475  -5.855  1.00 20.00     0.280 HD
BRANCH   5   8
HETATM    8  C8  UNL     1     -34.800  16.004  -5.552  1.00 20.00     0.254 C 
BRANCH   8   9
HETATM    9  C9  UNL     1     -34.616  14.631  -6.206  1.00 20.00     0.114 C 
HETATM   10  C3  UNL     1     -34.861  13.539  -5.244  1.00 20.00     0.065 C 
HETATM   11  N10 UNL     1     -35.053  12.679  -4.487  1.00 20.00    -0.197 NA
HETATM   12  C5  UNL     1     -35.476  14.443  -7.455  1.00 20.00     0.027 C 
ENDBRANCH   8   9
ENDBRANCH   5   8
ENDBRANCH   4   5
ENDBRANCH   2   4
TORSDOF 4
ENDMDL
MODEL 3
REMARK VINA RESULT:      -4.1      1.543      2.047
REMARK  4 active torsions:
REMARK  status: ('A' for Active; 'I' for Inactive)
REMARK    1  A    between atoms: C2_2  and  C7_7 
REMARK    2  A    between atoms: C7_7  and  N11_11 
REMARK    3  A    between atoms: C8_8  and  C9_9 
REMARK    4  A    between atoms: C8_8  and  N11_11 
ROOT
HETATM    1  C1  UNL     1     -34.375  16.421  -1.562  1.00 20.00    -0.109 C 
HETATM    2  C2  UNL     1     -34.049  15.921  -2.604  1.00 20.00    -0.079 C 
HETATM    3  C4  UNL     1     -34.775  17.029  -0.294  1.00 20.00     0.112 C 
ENDROOT
BRANCH   2   4
HETATM    4  C7  UNL     1     -33.648  15.318  -3.873  1.00 20.00     0.327 C 
BRANCH   4   5
HETATM    5  N11 UNL     1     -34.830  14.618  -4.498  1.00 20.00    -0.064 N 
HETATM    6  C6  UNL     1     -34.489  13.195  -4.866  1.00 20.00     0.270 C 
HETATM    7  H26 UNL     1     -35.551  14.558  -3.761  1.00 20.00     0.280 HD
BRANCH   5   8
HETATM    8  C8  UNL     1     -35.406  15.379  -5.636  1.00 20.00     0.254 C 
BRANCH   8   9
HETATM    9  C9  UNL     1     -36.795  15.937  -5.306  1.00 20.00     0.114 C 
HETATM   10  C3  UNL     1     -37.531  15.044  -4.390  1.00 20.00     0.065 C 
HETATM   11  N10 UNL     1     -38.111  14.342  -3.669  1.00 20.00    -0.197 NA
HETATM   12  C5  UNL     1     -36.751  17.358  -4.745  1.00 20.00     0.027 C 
ENDBRANCH   8   9
ENDBRANCH   5   8
ENDBRANCH   4   5
ENDBRANCH   2   4
TORSDOF 4
ENDMDL
MODEL 4
REMARK VINA RESULT:      -4.0     11.249     12.567
REMARK  4 active torsions:
REMARK  status: ('A' for Active; 'I' for Inactive)
REMARK    1  A    between atoms: C2_2  and  C7_7 
REMARK    2  A    between atoms: C7_7  and  N11_11 
REMARK    3  A    between atoms: C8_8  and  C9_9 
REMARK    4  A    between atoms: C8_8  and  N11_11 
ROOT
HETATM    1  C1  UNL     1     -32.188   8.504   1.826  1.00 20.00    -0.109 C 
HETATM    2  C2  UNL     1     -32.121   7.492   2.469  1.00 20.00    -0.079 C 
HETATM    3  C4  UNL     1     -32.269   9.736   1.041  1.00 20.00     0.112 C 
ENDROOT
BRANCH   2   4
HETATM    4  C7  UNL     1     -32.034   6.262   3.251  1.00 20.00     0.327 C 
BRANCH   4   5
HETATM    5  N11 UNL     1     -33.420   5.717   3.497  1.00 20.00    -0.064 N 
HETATM    6  C6  UNL     1     -34.031   5.187   2.223  1.00 20.00     0.270 C 
HETATM    7  H26 UNL     1     -33.301   4.900   4.118  1.00 20.00     0.280 HD
BRANCH   5   8
HETATM    8  C8  UNL     1     -34.301   6.690   4.191  1.00 20.00     0.254 C 
BRANCH   8   9
HETATM    9  C9  UNL     1     -34.635   6.243   5.618  1.00 20.00     0.114 C 
HETATM   10  C3  UNL     1     -34.799   4.779   5.699  1.00 20.00     0.065 C 
HETATM   11  N10 UNL     1     -34.929   3.627   5.765  1.00 20.00    -0.197 NA
HETATM   12  C5  UNL     1     -33.614   6.724   6.649  1.00 20.00     0.027 C 
ENDBRANCH   8   9
ENDBRANCH   5   8
ENDBRANCH   4   5
ENDBRANCH   2   4
TORSDOF 4
ENDMDL
MODEL 5
REMARK VINA RESULT:      -4.0      0.941      1.102
REMARK  4 active torsions:
REMARK  status: ('A' for Active; 'I' for Inactive)
REMARK    1  A    between atoms: C2_2  and  C7_7 
REMARK    2  A    between atoms: C7_7  and  N11_11 
REMARK    3  A    between atoms: C8_8  and  C9_9 
REMARK    4  A    between atoms: C8_8  and  N11_11 
ROOT
HETATM    1  C1  UNL     1     -34.352  16.746  -1.139  1.00 20.00    -0.109 C 
HETATM    2  C2  UNL     1     -33.852  16.286  -2.130  1.00 20.00    -0.079 C 
HETATM    3  C4  UNL     1     -34.961  17.308   0.066  1.00 20.00     0.112 C 
ENDROOT
BRANCH   2   4
HETATM    4  C7  UNL     1     -33.239  15.729  -3.333  1.00 20.00     0.327 C 
BRANCH   4   5
HETATM    5  N11 UNL     1     -34.101  16.038  -4.532  1.00 20.00    -0.064 N 
HETATM    6  C6  UNL     1     -33.578  17.236  -5.286  1.00 20.00     0.270 C 
HETATM    7  H26 UNL     1     -34.002  15.232  -5.172  1.00 20.00     0.280 HD
BRANCH   5   8
HETATM    8  C8  UNL     1     -35.539  16.166  -4.183  1.00 20.00     0.254 C 
BRANCH   8   9
HETATM    9  C9  UNL     1     -36.348  14.947  -4.636  1.00 20.00     0.114 C 
HETATM   10  C3  UNL     1     -35.550  13.708  -4.553  1.00 20.00     0.065 C 
HETATM   11  N10 UNL     1     -34.922  12.733  -4.488  1.00 20.00    -0.197 NA
HETATM   12  C5  UNL     1     -37.664  14.785  -3.876  1.00 20.00     0.027 C 
ENDBRANCH   8   9
ENDBRANCH   5   8
ENDBRANCH   4   5
ENDBRANCH   2   4
TORSDOF 4
ENDMDL
MODEL 6
REMARK VINA RESULT:      -3.9      1.495      1.957
REMARK  4 active torsions:
REMARK  status: ('A' for Active; 'I' for Inactive)
REMARK    1  A    between atoms: C2_2  and  C7_7 
REMARK    2  A    between atoms: C7_7  and  N11_11 
REMARK    3  A    between atoms: C8_8  and  C9_9 
REMARK    4  A    between atoms: C8_8  and  N11_11 
ROOT
HETATM    1  C1  UNL     1     -34.258  16.650  -1.418  1.00 20.00    -0.109 C 
HETATM    2  C2  UNL     1     -33.841  16.286  -2.483  1.00 20.00    -0.079 C 
HETATM    3  C4  UNL     1     -34.769  17.094  -0.121  1.00 20.00     0.112 C 
ENDROOT
BRANCH   2   4
HETATM    4  C7  UNL     1     -33.330  15.849  -3.780  1.00 20.00     0.327 C 
BRANCH   4   5
HETATM    5  N11 UNL     1     -33.923  16.703  -4.874  1.00 20.00    -0.064 N 
HETATM    6  C6  UNL     1     -33.564  18.156  -4.686  1.00 20.00     0.270 C 
HETATM    7  H26 UNL     1     -33.463  16.405  -5.751  1.00 20.00     0.280 HD
BRANCH   5   8
HETATM    8  C8  UNL     1     -35.384  16.492  -5.034  1.00 20.00     0.254 C 
BRANCH   8   9
HETATM    9  C9  UNL     1     -35.729  15.014  -5.244  1.00 20.00     0.114 C 
HETATM   10  C3  UNL     1     -36.901  14.614  -4.441  1.00 20.00     0.065 C 
HETATM   11  N10 UNL     1     -37.823  14.298  -3.809  1.00 20.00    -0.197 NA
HETATM   12  C5  UNL     1     -35.941  14.652  -6.714  1.00 20.00     0.027 C 
ENDBRANCH   8   9
ENDBRANCH   5   8
ENDBRANCH   4   5
ENDBRANCH   2   4
TORSDOF 4
ENDMDL
MODEL 7
REMARK VINA RESULT:      -3.8      1.544      2.894
REMARK  4 active torsions:
REMARK  status: ('A' for Active; 'I' for Inactive)
REMARK    1  A    between atoms: C2_2  and  C7_7 
REMARK    2  A    between atoms: C7_7  and  N11_11 
REMARK    3  A    between atoms: C8_8  and  C9_9 
REMARK    4  A    between atoms: C8_8  and  N11_11 
ROOT
HETATM    1  C1  UNL     1     -34.691  16.499  -1.426  1.00 20.00    -0.109 C 
HETATM    2  C2  UNL     1     -35.048  15.840  -2.364  1.00 20.00    -0.079 C 
HETATM    3  C4  UNL     1     -34.256  17.300  -0.282  1.00 20.00     0.112 C 
ENDROOT
BRANCH   2   4
HETATM    4  C7  UNL     1     -35.488  15.042  -3.505  1.00 20.00     0.327 C 
BRANCH   4   5
HETATM    5  N11 UNL     1     -34.308  14.730  -4.392  1.00 20.00    -0.064 N 
HETATM    6  C6  UNL     1     -33.393  13.718  -3.748  1.00 20.00     0.270 C 
HETATM    7  H26 UNL     1     -34.695  14.271  -5.234  1.00 20.00     0.280 HD
BRANCH   5   8
HETATM    8  C8  UNL     1     -33.587  15.952  -4.832  1.00 20.00     0.254 C 
BRANCH   8   9
HETATM    9  C9  UNL     1     -33.886  16.296  -6.295  1.00 20.00     0.114 C 
HETATM   10  C3  UNL     1     -34.626  15.209  -6.965  1.00 20.00     0.065 C 
HETATM   11  N10 UNL     1     -35.208  14.354  -7.493  1.00 20.00    -0.197 NA
HETATM   12  C5  UNL     1     -34.625  17.624  -6.458  1.00 20.00     0.027 C 
ENDBRANCH   8   9
ENDBRANCH   5   8
ENDBRANCH   4   5
ENDBRANCH   2   4
TORSDOF 4
ENDMDL
MODEL 8
REMARK VINA RESULT:      -3.8      2.065      3.253
REMARK  4 active torsions:
REMARK  status: ('A' for Active; 'I' for Inactive)
REMARK    1  A    between atoms: C2_2  and  C7_7 
REMARK    2  A    between atoms: C7_7  and  N11_11 
REMARK    3  A    between atoms: C8_8  and  C9_9 
REMARK    4  A    between atoms: C8_8  and  N11_11 
ROOT
HETATM    1  C1  UNL     1     -34.834  17.652   0.818  1.00 20.00    -0.109 C 
HETATM    2  C2  UNL     1     -34.323  17.763  -0.263  1.00 20.00    -0.079 C 
HETATM    3  C4  UNL     1     -35.457  17.514   2.134  1.00 20.00     0.112 C 
ENDROOT
BRANCH   2   4
HETATM    4  C7  UNL     1     -33.707  17.900  -1.580  1.00 20.00     0.327 C 
BRANCH   4   5
HETATM    5  N11 UNL     1     -34.571  17.228  -2.618  1.00 20.00    -0.064 N 
HETATM    6  C6  UNL     1     -35.928  17.882  -2.704  1.00 20.00     0.270 C 
HETATM    7  H26 UNL     1     -34.112  17.400  -3.528  1.00 20.00     0.280 HD
BRANCH   5   8
HETATM    8  C8  UNL     1     -34.657  15.758  -2.424  1.00 20.00     0.254 C 
BRANCH   8   9
HETATM    9  C9  UNL     1     -33.757  14.998  -3.404  1.00 20.00     0.114 C 
HETATM   10  C3  UNL     1     -34.421  13.783  -3.913  1.00 20.00     0.065 C 
HETATM   11  N10 UNL     1     -34.942  12.826  -4.315  1.00 20.00    -0.197 NA
HETATM   12  C5  UNL     1     -33.269  15.866  -4.564  1.00 20.00     0.027 C 
ENDBRANCH   8   9
ENDBRANCH   5   8
ENDBRANCH   4   5
ENDBRANCH   2   4
TORSDOF 4
ENDMDL
MODEL 9
REMARK VINA RESULT:      -3.8      1.742      2.590
REMARK  4 active torsions:
REMARK  status: ('A' for Active; 'I' for Inactive)
REMARK    1  A    between atoms: C2_2  and  C7_7 
REMARK    2  A    between atoms: C7_7  and  N11_11 
REMARK    3  A    between atoms: C8_8  and  C9_9 
REMARK    4  A    between atoms: C8_8  and  N11_11 
ROOT
HETATM    1  C1  UNL     1     -34.653  17.161  -0.413  1.00 20.00    -0.109 C 
HETATM    2  C2  UNL     1     -34.250  16.988  -1.531  1.00 20.00    -0.079 C 
HETATM    3  C4  UNL     1     -35.143  17.370   0.949  1.00 20.00     0.112 C 
ENDROOT
BRANCH   2   4
HETATM    4  C7  UNL     1     -33.766  16.778  -2.893  1.00 20.00     0.327 C 
BRANCH   4   5
HETATM    5  N11 UNL     1     -34.908  16.338  -3.776  1.00 20.00    -0.064 N 
HETATM    6  C6  UNL     1     -36.010  17.368  -3.797  1.00 20.00     0.270 C 
HETATM    7  H26 UNL     1     -34.530  16.303  -4.737  1.00 20.00     0.280 HD
BRANCH   5   8
HETATM    8  C8  UNL     1     -35.402  14.980  -3.434  1.00 20.00     0.254 C 
BRANCH   8   9
HETATM    9  C9  UNL     1     -34.802  13.906  -4.346  1.00 20.00     0.114 C 
HETATM   10  C3  UNL     1     -34.632  14.402  -5.725  1.00 20.00     0.065 C 
HETATM   11  N10 UNL     1     -34.499  14.792  -6.811  1.00 20.00    -0.197 NA
HETATM   12  C5  UNL     1     -33.484  13.340  -3.817  1.00 20.00     0.027 C 
ENDBRANCH   8   9
ENDBRANCH   5   8
ENDBRANCH   4   5
ENDBRANCH   2   4
TORSDOF 4
ENDMDL
