MODEL 1
REMARK VINA RESULT:      -4.5      0.000      0.000
REMARK  4 active torsions:
REMARK  status: ('A' for Active; 'I' for Inactive)
REMARK    1  A    between atoms: C1_1  and  C3_3 
REMARK    2  A    between atoms: C4_4  and  C10_10 
REMARK    3  A    between atoms: C8_8  and  C10_10 
REMARK    4  A    between atoms: C9_9  and  C10_10 
ROOT
HETATM    1  C2  UNL     1     -33.299  16.126  -4.468  1.00 20.00     0.018 A 
HETATM    2  C3  UNL     1     -33.283  14.669  -4.083  1.00 20.00     0.060 A 
HETATM    3  C4  UNL     1     -33.506  15.731  -3.034  1.00 20.00     0.002 A 
ENDROOT
BRANCH   3   4
HETATM    4  C10 UNL     1     -34.870  15.946  -2.369  1.00 20.00    -0.010 C 
BRANCH   4   5
HETATM    5  C8  UNL     1     -35.763  16.892  -3.200  1.00 20.00     0.000 C 
HETATM    6  C6  UNL     1     -37.136  16.319  -3.521  1.00 20.00     0.005 C 
ENDBRANCH   4   5
BRANCH   4   7
HETATM    7  C9  UNL     1     -34.723  16.516  -0.944  1.00 20.00     0.000 C 
HETATM    8  C7  UNL     1     -33.671  17.611  -0.823  1.00 20.00     0.005 C 
ENDBRANCH   4   7
ENDBRANCH   3   4
BRANCH   2   9
HETATM    9  C1  UNL     1     -34.380  13.797  -4.520  1.00 20.00     0.127 C 
HETATM   10  C5  UNL     1     -35.083  14.182  -5.794  1.00 20.00     0.091 C 
HETATM   11  O11 UNL     1     -34.707  12.801  -3.878  1.00 20.00    -0.298 OA
ENDBRANCH   2   9
TORSDOF 4
ENDMDL
MODEL 2
REMARK VINA RESULT:      -4.3      1.670      2.633
REMARK  4 active torsions:
REMARK  status: ('A' for Active; 'I' for Inactive)
REMARK    1  A    between atoms: C1_1  and  C3_3 
REMARK    2  A    between atoms: C4_4  and  C10_10 
REMARK    3  A    between atoms: C8_8  and  C10_10 
REMARK    4  A    between atoms: C9_9  and  C10_10 
ROOT
HETATM    1  C2  UNL     1     -34.581  13.774  -5.162  1.00 20.00     0.018 A 
HETATM    2  C3  UNL     1     -35.646  13.760  -4.095  1.00 20.00     0.060 A 
HETATM    3  C4  UNL     1     -34.315  14.421  -3.832  1.00 20.00     0.002 A 
ENDROOT
BRANCH   3   4
HETATM    4  C10 UNL     1     -34.165  15.942  -3.736  1.00 20.00    -0.010 C 
BRANCH   4   5
HETATM    5  C8  UNL     1     -33.210  16.488  -4.819  1.00 20.00     0.000 C 
HETATM    6  C6  UNL     1     -33.874  17.441  -5.802  1.00 20.00     0.005 C 
ENDBRANCH   4   5
BRANCH   4   7
HETATM    7  C9  UNL     1     -33.652  16.375  -2.347  1.00 20.00     0.000 C 
HETATM    8  C7  UNL     1     -34.731  16.409  -1.274  1.00 20.00     0.005 C 
ENDBRANCH   4   7
ENDBRANCH   3   4
BRANCH   2   9
HETATM    9  C1  UNL     1     -36.863  14.560  -4.281  1.00 20.00     0.127 C 
HETATM   10  C5  UNL     1     -37.086  15.142  -5.650  1.00 20.00     0.091 C 
HETATM   11  O11 UNL     1     -37.661  14.743  -3.363  1.00 20.00    -0.298 OA
ENDBRANCH   2   9
TORSDOF 4
ENDMDL
MODEL 3
REMARK VINA RESULT:      -4.1      1.636      3.703
REMARK  4 active torsions:
REMARK  status: ('A' for Active; 'I' for Inactive)
REMARK    1  A    between atoms: C1_1  and  C3_3 
REMARK    2  A    between atoms: C4_4  and  C10_10 
REMARK    3  A    between atoms: C8_8  and  C10_10 
REMARK    4  A    between atoms: C9_9  and  C10_10 
ROOT
HETATM    1  C2  UNL     1     -36.091  17.154  -4.467  1.00 20.00     0.018 A 
HETATM    2  C3  UNL     1     -36.871  15.918  -4.837  1.00 20.00     0.060 A 
HETATM    3  C4  UNL     1     -35.400  15.821  -4.514  1.00 20.00     0.002 A 
ENDROOT
BRANCH   3   4
HETATM    4  C10 UNL     1     -34.890  15.176  -3.222  1.00 20.00    -0.010 C 
BRANCH   4   5
HETATM    5  C8  UNL     1     -34.036  16.160  -2.395  1.00 20.00     0.000 C 
HETATM    6  C6  UNL     1     -34.651  16.533  -1.054  1.00 20.00     0.005 C 
ENDBRANCH   4   5
BRANCH   4   7
HETATM    7  C9  UNL     1     -34.060  13.908  -3.510  1.00 20.00     0.000 C 
HETATM    8  C7  UNL     1     -34.484  13.167  -4.771  1.00 20.00     0.005 C 
ENDBRANCH   4   7
ENDBRANCH   3   4
BRANCH   2   9
HETATM    9  C1  UNL     1     -37.884  15.400  -3.909  1.00 20.00     0.127 C 
HETATM   10  C5  UNL     1     -38.659  16.418  -3.118  1.00 20.00     0.091 C 
HETATM   11  O11 UNL     1     -38.089  14.194  -3.787  1.00 20.00    -0.298 OA
ENDBRANCH   2   9
TORSDOF 4
ENDMDL
MODEL 4
REMARK VINA RESULT:      -4.1      1.702      3.737
REMARK  4 active torsions:
REMARK  status: ('A' for Active; 'I' for Inactive)
REMARK    1  A    between atoms: C1_1  and  C3_3 
REMARK    2  A    between atoms: C4_4  and  C10_10 
REMARK    3  A    between atoms: C8_8  and  C10_10 
REMARK    4  A    between atoms: C9_9  and  C10_10 
ROOT
HETATM    1  C2  UNL     1     -35.123  13.316  -4.359  1.00 20.00     0.018 A 
HETATM    2  C3  UNL     1     -34.507  14.233  -3.334  1.00 20.00     0.060 A 
HETATM    3  C4  UNL     1     -34.033  14.266  -4.766  1.00 20.00     0.002 A 
ENDROOT
BRANCH   3   4
HETATM    4  C10 UNL     1     -34.348  15.437  -5.702  1.00 20.00    -0.010 C 
BRANCH   4   5
HETATM    5  C8  UNL     1     -34.384  14.990  -7.179  1.00 20.00     0.000 C 
HETATM    6  C6  UNL     1     -35.780  14.657  -7.687  1.00 20.00     0.005 C 
ENDBRANCH   4   5
BRANCH   4   7
HETATM    7  C9  UNL     1     -33.322  16.579  -5.547  1.00 20.00     0.000 C 
HETATM    8  C7  UNL     1     -33.939  17.913  -5.149  1.00 20.00     0.005 C 
ENDBRANCH   4   7
ENDBRANCH   3   4
BRANCH   2   9
HETATM    9  C1  UNL     1     -35.305  15.332  -2.777  1.00 20.00     0.127 C 
HETATM   10  C5  UNL     1     -34.611  16.245  -1.803  1.00 20.00     0.091 C 
HETATM   11  O11 UNL     1     -36.482  15.498  -3.093  1.00 20.00    -0.298 OA
ENDBRANCH   2   9
TORSDOF 4
ENDMDL
MODEL 5
REMARK VINA RESULT:      -4.1      2.072      3.257
REMARK  4 active torsions:
REMARK  status: ('A' for Active; 'I' for Inactive)
REMARK    1  A    between atoms: C1_1  and  C3_3 
REMARK    2  A    between atoms: C4_4  and  C10_10 
REMARK    3  A    between atoms: C8_8  and  C10_10 
REMARK    4  A    between atoms: C9_9  and  C10_10 
ROOT
HETATM    1  C2  UNL     1     -33.671  17.699  -5.450  1.00 20.00     0.018 A 
HETATM    2  C3  UNL     1     -33.946  16.511  -6.336  1.00 20.00     0.060 A 
HETATM    3  C4  UNL     1     -33.280  16.322  -4.995  1.00 20.00     0.002 A 
ENDROOT
BRANCH   3   4
HETATM    4  C10 UNL     1     -34.003  15.672  -3.810  1.00 20.00    -0.010 C 
BRANCH   4   5
HETATM    5  C8  UNL     1     -33.639  16.359  -2.477  1.00 20.00     0.000 C 
HETATM    6  C6  UNL     1     -34.756  16.330  -1.444  1.00 20.00     0.005 C 
ENDBRANCH   4   5
BRANCH   4   7
HETATM    7  C9  UNL     1     -33.680  14.167  -3.705  1.00 20.00     0.000 C 
HETATM    8  C7  UNL     1     -34.830  13.259  -4.121  1.00 20.00     0.005 C 
ENDBRANCH   4   7
ENDBRANCH   3   4
BRANCH   2   9
HETATM    9  C1  UNL     1     -35.332  16.083  -6.558  1.00 20.00     0.127 C 
HETATM   10  C5  UNL     1     -35.530  14.790  -7.300  1.00 20.00     0.091 C 
HETATM   11  O11 UNL     1     -36.285  16.748  -6.154  1.00 20.00    -0.298 OA
ENDBRANCH   2   9
TORSDOF 4
ENDMDL
MODEL 6
REMARK VINA RESULT:      -4.1      1.675      3.731
REMARK  4 active torsions:
REMARK  status: ('A' for Active; 'I' for Inactive)
REMARK    1  A    between atoms: C1_1  and  C3_3 
REMARK    2  A    between atoms: C4_4  and  C10_10 
REMARK    3  A    between atoms: C8_8  and  C10_10 
REMARK    4  A    between atoms: C9_9  and  C10_10 
ROOT
HETATM    1  C2  UNL     1     -34.555  15.924  -2.778  1.00 20.00     0.018 A 
HETATM    2  C3  UNL     1     -35.255  14.778  -3.462  1.00 20.00     0.060 A 
HETATM    3  C4  UNL     1     -35.121  16.111  -4.157  1.00 20.00     0.002 A 
ENDROOT
BRANCH   3   4
HETATM    4  C10 UNL     1     -34.182  16.318  -5.350  1.00 20.00    -0.010 C 
BRANCH   4   5
HETATM    5  C8  UNL     1     -33.493  17.699  -5.296  1.00 20.00     0.000 C 
HETATM    6  C6  UNL     1     -33.850  18.611  -6.462  1.00 20.00     0.005 C 
ENDBRANCH   4   5
BRANCH   4   7
HETATM    7  C9  UNL     1     -34.930  16.181  -6.691  1.00 20.00     0.000 C 
HETATM    8  C7  UNL     1     -34.625  14.889  -7.438  1.00 20.00     0.005 C 
ENDBRANCH   4   7
ENDBRANCH   3   4
BRANCH   2   9
HETATM    9  C1  UNL     1     -34.474  13.616  -3.902  1.00 20.00     0.127 C 
HETATM   10  C5  UNL     1     -33.016  13.603  -3.533  1.00 20.00     0.091 C 
HETATM   11  O11 UNL     1     -34.987  12.698  -4.540  1.00 20.00    -0.298 OA
ENDBRANCH   2   9
TORSDOF 4
ENDMDL
MODEL 7
REMARK VINA RESULT:      -4.0      1.222      2.177
REMARK  4 active torsions:
REMARK  status: ('A' for Active; 'I' for Inactive)
REMARK    1  A    between atoms: C1_1  and  C3_3 
REMARK    2  A    between atoms: C4_4  and  C10_10 
REMARK    3  A    between atoms: C8_8  and  C10_10 
REMARK    4  A    between atoms: C9_9  and  C10_10 
ROOT
HETATM    1  C2  UNL     1     -35.817  14.851  -6.158  1.00 20.00     0.018 A 
HETATM    2  C3  UNL     1     -34.486  14.705  -5.465  1.00 20.00     0.060 A 
HETATM    3  C4  UNL     1     -35.427  15.822  -5.080  1.00 20.00     0.002 A 
ENDROOT
BRANCH   3   4
HETATM    4  C10 UNL     1     -36.180  15.828  -3.745  1.00 20.00    -0.010 C 
BRANCH   4   5
HETATM    5  C8  UNL     1     -37.684  16.113  -3.944  1.00 20.00     0.000 C 
HETATM    6  C6  UNL     1     -38.579  14.911  -3.678  1.00 20.00     0.005 C 
ENDBRANCH   4   5
BRANCH   4   7
HETATM    7  C9  UNL     1     -35.595  16.870  -2.769  1.00 20.00     0.000 C 
HETATM    8  C7  UNL     1     -34.745  16.266  -1.660  1.00 20.00     0.005 C 
ENDBRANCH   4   7
ENDBRANCH   3   4
BRANCH   2   9
HETATM    9  C1  UNL     1     -34.261  13.565  -4.570  1.00 20.00     0.127 C 
HETATM   10  C5  UNL     1     -33.083  13.659  -3.639  1.00 20.00     0.091 C 
HETATM   11  O11 UNL     1     -35.000  12.582  -4.578  1.00 20.00    -0.298 OA
ENDBRANCH   2   9
TORSDOF 4
ENDMDL
MODEL 8
REMARK VINA RESULT:      -4.0      1.966      3.968
REMARK  4 active torsions:
REMARK  status: ('A' for Active; 'I' for Inactive)
REMARK    1  A    between atoms: C1_1  and  C3_3 
REMARK    2  A    between atoms: C4_4  and  C10_10 
REMARK    3  A    between atoms: C8_8  and  C10_10 
REMARK    4  A    between atoms: C9_9  and  C10_10 
ROOT
HETATM    1  C2  UNL     1     -33.894  13.983  -3.435  1.00 20.00     0.018 A 
HETATM    2  C3  UNL     1     -33.312  15.350  -3.690  1.00 20.00     0.060 A 
HETATM    3  C4  UNL     1     -34.171  14.681  -4.736  1.00 20.00     0.002 A 
ENDROOT
BRANCH   3   4
HETATM    4  C10 UNL     1     -35.588  15.167  -5.058  1.00 20.00    -0.010 C 
BRANCH   4   5
HETATM    5  C8  UNL     1     -36.654  14.355  -4.292  1.00 20.00     0.000 C 
HETATM    6  C6  UNL     1     -37.685  15.215  -3.575  1.00 20.00     0.005 C 
ENDBRANCH   4   5
BRANCH   4   7
HETATM    7  C9  UNL     1     -35.885  15.087  -6.570  1.00 20.00     0.000 C 
HETATM    8  C7  UNL     1     -34.647  14.871  -7.430  1.00 20.00     0.005 C 
ENDBRANCH   4   7
ENDBRANCH   3   4
BRANCH   2   9
HETATM    9  C1  UNL     1     -33.810  16.499  -2.926  1.00 20.00     0.127 C 
HETATM   10  C5  UNL     1     -34.556  16.194  -1.656  1.00 20.00     0.091 C 
HETATM   11  O11 UNL     1     -33.624  17.655  -3.304  1.00 20.00    -0.298 OA
ENDBRANCH   2   9
TORSDOF 4
ENDMDL
MODEL 9
REMARK VINA RESULT:      -4.0      1.482      2.694
REMARK  4 active torsions:
REMARK  status: ('A' for Active; 'I' for Inactive)
REMARK    1  A    between atoms: C1_1  and  C3_3 
REMARK    2  A    between atoms: C4_4  and  C10_10 
REMARK    3  A    between atoms: C8_8  and  C10_10 
REMARK    4  A    between atoms: C9_9  and  C10_10 
ROOT
HETATM    1  C2  UNL     1     -33.754  13.714  -4.071  1.00 20.00     0.018 A 
HETATM    2  C3  UNL     1     -35.027  13.792  -4.875  1.00 20.00     0.060 A 
HETATM    3  C4  UNL     1     -34.945  14.442  -3.515  1.00 20.00     0.002 A 
ENDROOT
BRANCH   3   4
HETATM    4  C10 UNL     1     -34.901  15.964  -3.341  1.00 20.00    -0.010 C 
BRANCH   4   5
HETATM    5  C8  UNL     1     -33.921  16.378  -2.222  1.00 20.00     0.000 C 
HETATM    6  C6  UNL     1     -34.592  16.634  -0.880  1.00 20.00     0.005 C 
ENDBRANCH   4   5
BRANCH   4   7
HETATM    7  C9  UNL     1     -36.297  16.540  -3.026  1.00 20.00     0.000 C 
HETATM    8  C7  UNL     1     -36.765  17.597  -4.017  1.00 20.00     0.005 C 
ENDBRANCH   4   7
ENDBRANCH   3   4
BRANCH   2   9
HETATM    9  C1  UNL     1     -35.058  14.601  -6.098  1.00 20.00     0.127 C 
HETATM   10  C5  UNL     1     -36.416  14.943  -6.649  1.00 20.00     0.091 C 
HETATM   11  O11 UNL     1     -34.025  14.984  -6.645  1.00 20.00    -0.298 OA
ENDBRANCH   2   9
TORSDOF 4
ENDMDL
