MODEL 1
REMARK VINA RESULT:      -4.4      0.000      0.000
REMARK  4 active torsions:
REMARK  status: ('A' for Active; 'I' for Inactive)
REMARK    1  A    between atoms: C2_2  and  C6_6 
REMARK    2  A    between atoms: C6_6  and  N10_10 
REMARK    3  A    between atoms: C7_7  and  N10_10 
REMARK    4  A    between atoms: C8_8  and  N10_10 
ROOT
HETATM    1  C1  UNL     1     -34.718  16.892  -0.574  1.00 20.00    -0.109 C 
HETATM    2  C2  UNL     1     -34.725  16.381  -1.661  1.00 20.00    -0.077 C 
HETATM    3  C4  UNL     1     -34.711  17.514   0.750  1.00 20.00     0.112 C 
ENDROOT
BRANCH   2   4
HETATM    4  C6  UNL     1     -34.738  15.762  -2.989  1.00 20.00     0.366 C 
BRANCH   4   5
HETATM    5  N10 UNL     1     -33.387  15.686  -3.544  1.00 20.00     0.111 N 
BRANCH   5   6
HETATM    6  C7  UNL     1     -32.936  14.296  -3.603  1.00 20.00     0.396 C 
HETATM    7  C3  UNL     1     -33.940  13.449  -4.242  1.00 20.00     0.089 C 
HETATM    8  N9  UNL     1     -34.736  12.773  -4.750  1.00 20.00    -0.195 NA
ENDBRANCH   5   6
BRANCH   5   9
HETATM    9  C8  UNL     1     -33.347  16.294  -4.874  1.00 20.00     0.270 C 
HETATM   10  C5  UNL     1     -33.558  17.767  -4.799  1.00 20.00     0.037 C 
ENDBRANCH   5   9
ENDBRANCH   4   5
ENDBRANCH   2   4
TORSDOF 4
ENDMDL
MODEL 2
REMARK VINA RESULT:      -4.3      1.881      2.766
REMARK  4 active torsions:
REMARK  status: ('A' for Active; 'I' for Inactive)
REMARK    1  A    between atoms: C2_2  and  C6_6 
REMARK    2  A    between atoms: C6_6  and  N10_10 
REMARK    3  A    between atoms: C7_7  and  N10_10 
REMARK    4  A    between atoms: C8_8  and  N10_10 
ROOT
HETATM    1  C1  UNL     1     -34.757  16.966  -0.343  1.00 20.00    -0.109 C 
HETATM    2  C2  UNL     1     -34.478  16.464  -1.398  1.00 20.00    -0.077 C 
HETATM    3  C4  UNL     1     -35.096  17.577   0.942  1.00 20.00     0.112 C 
ENDROOT
BRANCH   2   4
HETATM    4  C6  UNL     1     -34.137  15.846  -2.682  1.00 20.00     0.366 C 
BRANCH   4   5
HETATM    5  N10 UNL     1     -35.198  14.944  -3.126  1.00 20.00     0.111 N 
BRANCH   5   6
HETATM    6  C7  UNL     1     -36.273  15.697  -3.771  1.00 20.00     0.396 C 
HETATM    7  C3  UNL     1     -37.504  14.910  -3.818  1.00 20.00     0.089 C 
HETATM    8  N9  UNL     1     -38.483  14.288  -3.857  1.00 20.00    -0.195 NA
ENDBRANCH   5   6
BRANCH   5   9
HETATM    9  C8  UNL     1     -34.661  13.935  -4.040  1.00 20.00     0.270 C 
HETATM   10  C5  UNL     1     -33.238  13.627  -3.725  1.00 20.00     0.037 C 
ENDBRANCH   5   9
ENDBRANCH   4   5
ENDBRANCH   2   4
TORSDOF 4
ENDMDL
MODEL 3
REMARK VINA RESULT:      -4.2     10.923     12.136
REMARK  4 active torsions:
REMARK  status: ('A' for Active; 'I' for Inactive)
REMARK    1  A    between atoms: C2_2  and  C6_6 
REMARK    2  A    between atoms: C6_6  and  N10_10 
REMARK    3  A    between atoms: C7_7  and  N10_10 
REMARK    4  A    between atoms: C8_8  and  N10_10 
ROOT
HETATM    1  C1  UNL     1     -32.254   8.390   1.874  1.00 20.00    -0.109 C 
HETATM    2  C2  UNL     1     -32.355   7.508   2.683  1.00 20.00    -0.077 C 
HETATM    3  C4  UNL     1     -32.130   9.463   0.888  1.00 20.00     0.112 C 
ENDROOT
BRANCH   2   4
HETATM    4  C6  UNL     1     -32.485   6.434   3.672  1.00 20.00     0.366 C 
BRANCH   4   5
HETATM    5  N10 UNL     1     -33.760   6.529   4.381  1.00 20.00     0.111 N 
BRANCH   5   6
HETATM    6  C7  UNL     1     -34.769   5.689   3.735  1.00 20.00     0.396 C 
HETATM    7  C3  UNL     1     -35.059   4.508   4.545  1.00 20.00     0.089 C 
HETATM    8  N9  UNL     1     -35.293   3.569   5.186  1.00 20.00    -0.195 NA
ENDBRANCH   5   6
BRANCH   5   9
HETATM    9  C8  UNL     1     -33.595   6.143   5.783  1.00 20.00     0.270 C 
HETATM   10  C5  UNL     1     -33.584   7.339   6.672  1.00 20.00     0.037 C 
ENDBRANCH   5   9
ENDBRANCH   4   5
ENDBRANCH   2   4
TORSDOF 4
ENDMDL
MODEL 4
REMARK VINA RESULT:      -4.0      1.432      1.744
REMARK  4 active torsions:
REMARK  status: ('A' for Active; 'I' for Inactive)
REMARK    1  A    between atoms: C2_2  and  C6_6 
REMARK    2  A    between atoms: C6_6  and  N10_10 
REMARK    3  A    between atoms: C7_7  and  N10_10 
REMARK    4  A    between atoms: C8_8  and  N10_10 
ROOT
HETATM    1  C1  UNL     1     -34.443  16.863  -0.914  1.00 20.00    -0.109 C 
HETATM    2  C2  UNL     1     -34.045  16.526  -1.996  1.00 20.00    -0.077 C 
HETATM    3  C4  UNL     1     -34.927  17.274   0.403  1.00 20.00     0.112 C 
ENDROOT
BRANCH   2   4
HETATM    4  C6  UNL     1     -33.555  16.109  -3.313  1.00 20.00     0.366 C 
BRANCH   4   5
HETATM    5  N10 UNL     1     -34.644  16.073  -4.288  1.00 20.00     0.111 N 
BRANCH   5   6
HETATM    6  C7  UNL     1     -35.675  15.123  -3.869  1.00 20.00     0.396 C 
HETATM    7  C3  UNL     1     -35.304  13.758  -4.234  1.00 20.00     0.089 C 
HETATM    8  N9  UNL     1     -35.012  12.672  -4.522  1.00 20.00    -0.195 NA
ENDBRANCH   5   6
BRANCH   5   9
HETATM    9  C8  UNL     1     -35.219  17.407  -4.461  1.00 20.00     0.270 C 
HETATM   10  C5  UNL     1     -36.708  17.363  -4.402  1.00 20.00     0.037 C 
ENDBRANCH   5   9
ENDBRANCH   4   5
ENDBRANCH   2   4
TORSDOF 4
ENDMDL
MODEL 5
REMARK VINA RESULT:      -3.9      1.546      2.740
REMARK  4 active torsions:
REMARK  status: ('A' for Active; 'I' for Inactive)
REMARK    1  A    between atoms: C2_2  and  C6_6 
REMARK    2  A    between atoms: C6_6  and  N10_10 
REMARK    3  A    between atoms: C7_7  and  N10_10 
REMARK    4  A    between atoms: C8_8  and  N10_10 
ROOT
HETATM    1  C1  UNL     1     -34.764  16.893  -0.385  1.00 20.00    -0.109 C 
HETATM    2  C2  UNL     1     -34.511  16.385  -1.443  1.00 20.00    -0.077 C 
HETATM    3  C4  UNL     1     -35.072  17.511   0.904  1.00 20.00     0.112 C 
ENDROOT
BRANCH   2   4
HETATM    4  C6  UNL     1     -34.206  15.769  -2.738  1.00 20.00     0.366 C 
BRANCH   4   5
HETATM    5  N10 UNL     1     -35.370  15.058  -3.265  1.00 20.00     0.111 N 
BRANCH   5   6
HETATM    6  C7  UNL     1     -36.145  15.929  -4.149  1.00 20.00     0.396 C 
HETATM    7  C3  UNL     1     -35.335  16.376  -5.279  1.00 20.00     0.089 C 
HETATM    8  N9  UNL     1     -34.694  16.734  -6.179  1.00 20.00    -0.195 NA
ENDBRANCH   5   6
BRANCH   5   9
HETATM    9  C8  UNL     1     -34.952  13.849  -3.976  1.00 20.00     0.270 C 
HETATM   10  C5  UNL     1     -33.486  13.623  -3.835  1.00 20.00     0.037 C 
ENDBRANCH   5   9
ENDBRANCH   4   5
ENDBRANCH   2   4
TORSDOF 4
ENDMDL
MODEL 6
REMARK VINA RESULT:      -3.7      2.177      2.732
REMARK  4 active torsions:
REMARK  status: ('A' for Active; 'I' for Inactive)
REMARK    1  A    between atoms: C2_2  and  C6_6 
REMARK    2  A    between atoms: C6_6  and  N10_10 
REMARK    3  A    between atoms: C7_7  and  N10_10 
REMARK    4  A    between atoms: C8_8  and  N10_10 
ROOT
HETATM    1  C1  UNL     1     -34.087  16.321  -1.957  1.00 20.00    -0.109 C 
HETATM    2  C2  UNL     1     -34.332  15.397  -2.684  1.00 20.00    -0.077 C 
HETATM    3  C4  UNL     1     -33.789  17.445  -1.070  1.00 20.00     0.112 C 
ENDROOT
BRANCH   2   4
HETATM    4  C6  UNL     1     -34.625  14.272  -3.577  1.00 20.00     0.366 C 
BRANCH   4   5
HETATM    5  N10 UNL     1     -35.139  14.744  -4.862  1.00 20.00     0.111 N 
BRANCH   5   6
HETATM    6  C7  UNL     1     -36.286  15.628  -4.660  1.00 20.00     0.396 C 
HETATM    7  C3  UNL     1     -37.446  14.876  -4.186  1.00 20.00     0.089 C 
HETATM    8  N9  UNL     1     -38.369  14.282  -3.809  1.00 20.00    -0.195 NA
ENDBRANCH   5   6
BRANCH   5   9
HETATM    9  C8  UNL     1     -34.088  15.434  -5.610  1.00 20.00     0.270 C 
HETATM   10  C5  UNL     1     -34.445  15.554  -7.052  1.00 20.00     0.037 C 
ENDBRANCH   5   9
ENDBRANCH   4   5
ENDBRANCH   2   4
TORSDOF 4
ENDMDL
MODEL 7
REMARK VINA RESULT:      -3.7      1.222      3.824
REMARK  4 active torsions:
REMARK  status: ('A' for Active; 'I' for Inactive)
REMARK    1  A    between atoms: C2_2  and  C6_6 
REMARK    2  A    between atoms: C6_6  and  N10_10 
REMARK    3  A    between atoms: C7_7  and  N10_10 
REMARK    4  A    between atoms: C8_8  and  N10_10 
ROOT
HETATM    1  C1  UNL     1     -33.887  18.166  -6.093  1.00 20.00    -0.109 C 
HETATM    2  C2  UNL     1     -33.772  17.746  -4.974  1.00 20.00    -0.077 C 
HETATM    3  C4  UNL     1     -34.028  18.678  -7.455  1.00 20.00     0.112 C 
ENDROOT
BRANCH   2   4
HETATM    4  C6  UNL     1     -33.628  17.227  -3.611  1.00 20.00     0.366 C 
BRANCH   4   5
HETATM    5  N10 UNL     1     -34.364  15.974  -3.448  1.00 20.00     0.111 N 
BRANCH   5   6
HETATM    6  C7  UNL     1     -33.505  14.832  -3.760  1.00 20.00     0.396 C 
HETATM    7  C3  UNL     1     -34.303  13.667  -4.134  1.00 20.00     0.089 C 
HETATM    8  N9  UNL     1     -34.935  12.739  -4.432  1.00 20.00    -0.195 NA
ENDBRANCH   5   6
BRANCH   5   9
HETATM    9  C8  UNL     1     -34.888  15.862  -2.087  1.00 20.00     0.270 C 
HETATM   10  C5  UNL     1     -34.238  16.848  -1.178  1.00 20.00     0.037 C 
ENDBRANCH   5   9
ENDBRANCH   4   5
ENDBRANCH   2   4
TORSDOF 4
ENDMDL
MODEL 8
REMARK VINA RESULT:      -3.6     11.605     13.662
REMARK  4 active torsions:
REMARK  status: ('A' for Active; 'I' for Inactive)
REMARK    1  A    between atoms: C2_2  and  C6_6 
REMARK    2  A    between atoms: C6_6  and  N10_10 
REMARK    3  A    between atoms: C7_7  and  N10_10 
REMARK    4  A    between atoms: C8_8  and  N10_10 
ROOT
HETATM    1  C1  UNL     1     -41.659   2.591  -3.193  1.00 20.00    -0.109 C 
HETATM    2  C2  UNL     1     -41.911   3.537  -2.498  1.00 20.00    -0.077 C 
HETATM    3  C4  UNL     1     -41.352   1.439  -4.040  1.00 20.00     0.112 C 
ENDROOT
BRANCH   2   4
HETATM    4  C6  UNL     1     -42.225   4.693  -1.653  1.00 20.00     0.366 C 
BRANCH   4   5
HETATM    5  N10 UNL     1     -41.837   5.941  -2.309  1.00 20.00     0.111 N 
BRANCH   5   6
HETATM    6  C7  UNL     1     -42.983   6.533  -2.998  1.00 20.00     0.396 C 
HETATM    7  C3  UNL     1     -42.565   7.659  -3.830  1.00 20.00     0.089 C 
HETATM    8  N9  UNL     1     -42.236   8.554  -4.492  1.00 20.00    -0.195 NA
ENDBRANCH   5   6
BRANCH   5   9
HETATM    9  C8  UNL     1     -41.286   6.881  -1.333  1.00 20.00     0.270 C 
HETATM   10  C5  UNL     1     -40.748   6.166  -0.141  1.00 20.00     0.037 C 
ENDBRANCH   5   9
ENDBRANCH   4   5
ENDBRANCH   2   4
TORSDOF 4
ENDMDL
MODEL 9
REMARK VINA RESULT:      -3.6      2.254      3.010
REMARK  4 active torsions:
REMARK  status: ('A' for Active; 'I' for Inactive)
REMARK    1  A    between atoms: C2_2  and  C6_6 
REMARK    2  A    between atoms: C6_6  and  N10_10 
REMARK    3  A    between atoms: C7_7  and  N10_10 
REMARK    4  A    between atoms: C8_8  and  N10_10 
ROOT
HETATM    1  C1  UNL     1     -34.618  16.639  -1.205  1.00 20.00    -0.109 C 
HETATM    2  C2  UNL     1     -34.426  16.221  -2.314  1.00 20.00    -0.077 C 
HETATM    3  C4  UNL     1     -34.853  17.148   0.146  1.00 20.00     0.112 C 
ENDROOT
BRANCH   2   4
HETATM    4  C6  UNL     1     -34.194  15.706  -3.667  1.00 20.00     0.366 C 
BRANCH   4   5
HETATM    5  N10 UNL     1     -35.451  15.301  -4.293  1.00 20.00     0.111 N 
BRANCH   5   6
HETATM    6  C7  UNL     1     -35.494  15.742  -5.687  1.00 20.00     0.396 C 
HETATM    7  C3  UNL     1     -36.810  15.498  -6.271  1.00 20.00     0.089 C 
HETATM    8  N9  UNL     1     -37.856  15.305  -6.738  1.00 20.00    -0.195 NA
ENDBRANCH   5   6
BRANCH   5   9
HETATM    9  C8  UNL     1     -35.619  13.849  -4.212  1.00 20.00     0.270 C 
HETATM   10  C5  UNL     1     -34.400  13.140  -4.693  1.00 20.00     0.037 C 
ENDBRANCH   5   9
ENDBRANCH   4   5
ENDBRANCH   2   4
TORSDOF 4
ENDMDL
