MODEL 1
REMARK VINA RESULT:      -5.9      0.000      0.000
REMARK  3 active torsions:
REMARK  status: ('A' for Active; 'I' for Inactive)
REMARK    1  A    between atoms: C2_2  and  C10_10 
REMARK    2  A    between atoms: C7_7  and  N11_11 
REMARK    3  A    between atoms: C10_10  and  N11_11 
ROOT
HETATM    1  C1  UNL     1     -32.253   8.458   1.862  1.00 20.00    -0.109 C 
HETATM    2  C2  UNL     1     -32.316   7.442   2.500  1.00 20.00    -0.077 C 
HETATM    3  C8  UNL     1     -32.178   9.696   1.087  1.00 20.00     0.112 C 
ENDROOT
BRANCH   2   4
HETATM    4  C10 UNL     1     -32.398   6.200   3.275  1.00 20.00     0.363 C 
BRANCH   4   5
HETATM    5  N11 UNL     1     -33.604   5.461   2.944  1.00 20.00     0.103 N 
HETATM    6  H28 UNL     1     -33.364   4.503   2.704  1.00 20.00     0.318 HD
BRANCH   5   7
HETATM    7  C7  UNL     1     -34.511   5.442   4.070  1.00 20.00     0.155 C 
HETATM    8  C5  UNL     1     -33.945   6.242   5.249  1.00 20.00     0.041 C 
HETATM    9  C3  UNL     1     -34.629   5.667   6.486  1.00 20.00     0.003 C 
HETATM   10  C4  UNL     1     -35.060   4.249   6.114  1.00 20.00     0.003 C 
HETATM   11  C6  UNL     1     -34.614   4.034   4.669  1.00 20.00     0.041 C 
HETATM   12  C9  UNL     1     -35.878   5.973   3.627  1.00 20.00     0.049 C 
ENDBRANCH   5   7
ENDBRANCH   4   5
ENDBRANCH   2   4
TORSDOF 3
ENDMDL
MODEL 2
REMARK VINA RESULT:      -4.6     11.295     12.264
REMARK  3 active torsions:
REMARK  status: ('A' for Active; 'I' for Inactive)
REMARK    1  A    between atoms: C2_2  and  C10_10 
REMARK    2  A    between atoms: C7_7  and  N11_11 
REMARK    3  A    between atoms: C10_10  and  N11_11 
ROOT
HETATM    1  C1  UNL     1     -34.853  17.148   0.142  1.00 20.00    -0.109 C 
HETATM    2  C2  UNL     1     -34.584  16.698  -0.939  1.00 20.00    -0.077 C 
HETATM    3  C8  UNL     1     -35.181  17.697   1.458  1.00 20.00     0.112 C 
ENDROOT
BRANCH   2   4
HETATM    4  C10 UNL     1     -34.249  16.150  -2.256  1.00 20.00     0.363 C 
BRANCH   4   5
HETATM    5  N11 UNL     1     -35.316  16.401  -3.210  1.00 20.00     0.103 N 
HETATM    6  H28 UNL     1     -35.044  17.154  -3.836  1.00 20.00     0.318 HD
BRANCH   5   7
HETATM    7  C7  UNL     1     -35.582  15.219  -3.996  1.00 20.00     0.155 C 
HETATM    8  C5  UNL     1     -34.621  14.083  -3.627  1.00 20.00     0.041 C 
HETATM    9  C3  UNL     1     -34.579  13.180  -4.857  1.00 20.00     0.003 C 
HETATM   10  C4  UNL     1     -34.976  14.058  -6.043  1.00 20.00     0.003 C 
HETATM   11  C6  UNL     1     -35.239  15.450  -5.472  1.00 20.00     0.041 C 
HETATM   12  C9  UNL     1     -37.046  14.807  -3.811  1.00 20.00     0.049 C 
ENDBRANCH   5   7
ENDBRANCH   4   5
ENDBRANCH   2   4
TORSDOF 3
ENDMDL
MODEL 3
REMARK VINA RESULT:      -4.6     11.157     12.627
REMARK  3 active torsions:
REMARK  status: ('A' for Active; 'I' for Inactive)
REMARK    1  A    between atoms: C2_2  and  C10_10 
REMARK    2  A    between atoms: C7_7  and  N11_11 
REMARK    3  A    between atoms: C10_10  and  N11_11 
ROOT
HETATM    1  C1  UNL     1     -34.801  17.084  -0.076  1.00 20.00    -0.109 C 
HETATM    2  C2  UNL     1     -34.456  16.672  -1.150  1.00 20.00    -0.077 C 
HETATM    3  C8  UNL     1     -35.219  17.586   1.233  1.00 20.00     0.112 C 
ENDROOT
BRANCH   2   4
HETATM    4  C10 UNL     1     -34.037  16.163  -2.459  1.00 20.00     0.363 C 
BRANCH   4   5
HETATM    5  N11 UNL     1     -35.089  15.369  -3.069  1.00 20.00     0.103 N 
HETATM    6  H28 UNL     1     -35.903  15.953  -3.239  1.00 20.00     0.318 HD
BRANCH   5   7
HETATM    7  C7  UNL     1     -34.644  14.819  -4.329  1.00 20.00     0.155 C 
HETATM    8  C5  UNL     1     -33.969  15.891  -5.191  1.00 20.00     0.041 C 
HETATM    9  C3  UNL     1     -34.103  15.391  -6.627  1.00 20.00     0.003 C 
HETATM   10  C4  UNL     1     -35.303  14.444  -6.637  1.00 20.00     0.003 C 
HETATM   11  C6  UNL     1     -35.835  14.417  -5.206  1.00 20.00     0.041 C 
HETATM   12  C9  UNL     1     -33.710  13.634  -4.061  1.00 20.00     0.049 C 
ENDBRANCH   5   7
ENDBRANCH   4   5
ENDBRANCH   2   4
TORSDOF 3
ENDMDL
MODEL 4
REMARK VINA RESULT:      -4.5     11.230     12.289
REMARK  3 active torsions:
REMARK  status: ('A' for Active; 'I' for Inactive)
REMARK    1  A    between atoms: C2_2  and  C10_10 
REMARK    2  A    between atoms: C7_7  and  N11_11 
REMARK    3  A    between atoms: C10_10  and  N11_11 
ROOT
HETATM    1  C1  UNL     1     -34.837  17.328   0.124  1.00 20.00    -0.109 C 
HETATM    2  C2  UNL     1     -34.289  17.064  -0.912  1.00 20.00    -0.077 C 
HETATM    3  C8  UNL     1     -35.504  17.650   1.385  1.00 20.00     0.112 C 
ENDROOT
BRANCH   2   4
HETATM    4  C10 UNL     1     -33.614  16.743  -2.173  1.00 20.00     0.363 C 
BRANCH   4   5
HETATM    5  N11 UNL     1     -34.517  16.905  -3.300  1.00 20.00     0.103 N 
HETATM    6  H28 UNL     1     -34.216  17.691  -3.870  1.00 20.00     0.318 HD
BRANCH   5   7
HETATM    7  C7  UNL     1     -34.522  15.716  -4.121  1.00 20.00     0.155 C 
HETATM    8  C5  UNL     1     -35.760  14.857  -3.839  1.00 20.00     0.041 C 
HETATM    9  C3  UNL     1     -35.368  13.443  -4.258  1.00 20.00     0.003 C 
HETATM   10  C4  UNL     1     -33.842  13.384  -4.182  1.00 20.00     0.003 C 
HETATM   11  C6  UNL     1     -33.386  14.766  -3.721  1.00 20.00     0.041 C 
HETATM   12  C9  UNL     1     -34.432  16.119  -5.596  1.00 20.00     0.049 C 
ENDBRANCH   5   7
ENDBRANCH   4   5
ENDBRANCH   2   4
TORSDOF 3
ENDMDL
MODEL 5
REMARK VINA RESULT:      -4.4      8.996     11.052
REMARK  3 active torsions:
REMARK  status: ('A' for Active; 'I' for Inactive)
REMARK    1  A    between atoms: C2_2  and  C10_10 
REMARK    2  A    between atoms: C7_7  and  N11_11 
REMARK    3  A    between atoms: C10_10  and  N11_11 
ROOT
HETATM    1  C1  UNL     1     -41.722   0.675  -3.793  1.00 20.00    -0.109 C 
HETATM    2  C2  UNL     1     -41.890   1.819  -3.470  1.00 20.00    -0.077 C 
HETATM    3  C8  UNL     1     -41.519  -0.719  -4.188  1.00 20.00     0.112 C 
ENDROOT
BRANCH   2   4
HETATM    4  C10 UNL     1     -42.098   3.215  -3.070  1.00 20.00     0.363 C 
BRANCH   4   5
HETATM    5  N11 UNL     1     -41.266   3.557  -1.929  1.00 20.00     0.103 N 
HETATM    6  H28 UNL     1     -40.306   3.691  -2.234  1.00 20.00     0.318 HD
BRANCH   5   7
HETATM    7  C7  UNL     1     -41.730   4.779  -1.313  1.00 20.00     0.155 C 
HETATM    8  C5  UNL     1     -42.127   5.815  -2.371  1.00 20.00     0.041 C 
HETATM    9  C3  UNL     1     -42.002   7.166  -1.672  1.00 20.00     0.003 C 
HETATM   10  C4  UNL     1     -41.012   6.963  -0.526  1.00 20.00     0.003 C 
HETATM   11  C6  UNL     1     -40.587   5.497  -0.586  1.00 20.00     0.041 C 
HETATM   12  C9  UNL     1     -42.891   4.459  -0.367  1.00 20.00     0.049 C 
ENDBRANCH   5   7
ENDBRANCH   4   5
ENDBRANCH   2   4
TORSDOF 3
ENDMDL
MODEL 6
REMARK VINA RESULT:      -4.3     11.766     13.285
REMARK  3 active torsions:
REMARK  status: ('A' for Active; 'I' for Inactive)
REMARK    1  A    between atoms: C2_2  and  C10_10 
REMARK    2  A    between atoms: C7_7  and  N11_11 
REMARK    3  A    between atoms: C10_10  and  N11_11 
ROOT
HETATM    1  C1  UNL     1     -34.680  16.930  -0.493  1.00 20.00    -0.109 C 
HETATM    2  C2  UNL     1     -34.268  16.506  -1.538  1.00 20.00    -0.077 C 
HETATM    3  C8  UNL     1     -35.180  17.447   0.781  1.00 20.00     0.112 C 
ENDROOT
BRANCH   2   4
HETATM    4  C10 UNL     1     -33.765  15.983  -2.812  1.00 20.00     0.363 C 
BRANCH   4   5
HETATM    5  N11 UNL     1     -34.849  15.453  -3.620  1.00 20.00     0.103 N 
HETATM    6  H28 UNL     1     -35.719  15.914  -3.371  1.00 20.00     0.318 HD
BRANCH   5   7
HETATM    7  C7  UNL     1     -34.592  15.678  -5.025  1.00 20.00     0.155 C 
HETATM    8  C5  UNL     1     -35.767  16.403  -5.691  1.00 20.00     0.041 C 
HETATM    9  C3  UNL     1     -35.668  16.047  -7.171  1.00 20.00     0.003 C 
HETATM   10  C4  UNL     1     -34.894  14.730  -7.241  1.00 20.00     0.003 C 
HETATM   11  C6  UNL     1     -34.563  14.355  -5.798  1.00 20.00     0.041 C 
HETATM   12  C9  UNL     1     -33.281  16.456  -5.180  1.00 20.00     0.049 C 
ENDBRANCH   5   7
ENDBRANCH   4   5
ENDBRANCH   2   4
TORSDOF 3
ENDMDL
MODEL 7
REMARK VINA RESULT:      -4.1     11.857     13.240
REMARK  3 active torsions:
REMARK  status: ('A' for Active; 'I' for Inactive)
REMARK    1  A    between atoms: C2_2  and  C10_10 
REMARK    2  A    between atoms: C7_7  and  N11_11 
REMARK    3  A    between atoms: C10_10  and  N11_11 
ROOT
HETATM    1  C1  UNL     1     -34.599  15.197  -6.734  1.00 20.00    -0.109 C 
HETATM    2  C2  UNL     1     -34.005  15.576  -5.762  1.00 20.00    -0.077 C 
HETATM    3  C8  UNL     1     -35.323  14.734  -7.918  1.00 20.00     0.112 C 
ENDROOT
BRANCH   2   4
HETATM    4  C10 UNL     1     -33.277  16.033  -4.574  1.00 20.00     0.363 C 
BRANCH   4   5
HETATM    5  N11 UNL     1     -33.576  17.425  -4.286  1.00 20.00     0.103 N 
HETATM    6  H28 UNL     1     -34.136  17.817  -5.037  1.00 20.00     0.318 HD
BRANCH   5   7
HETATM    7  C7  UNL     1     -34.316  17.539  -3.050  1.00 20.00     0.155 C 
HETATM    8  C5  UNL     1     -33.587  18.447  -2.052  1.00 20.00     0.041 C 
HETATM    9  C3  UNL     1     -34.093  18.017  -0.678  1.00 20.00     0.003 C 
HETATM   10  C4  UNL     1     -34.577  16.576  -0.835  1.00 20.00     0.003 C 
HETATM   11  C6  UNL     1     -34.339  16.204  -2.296  1.00 20.00     0.041 C 
HETATM   12  C9  UNL     1     -35.730  18.045  -3.352  1.00 20.00     0.049 C 
ENDBRANCH   5   7
ENDBRANCH   4   5
ENDBRANCH   2   4
TORSDOF 3
ENDMDL
MODEL 8
REMARK VINA RESULT:      -4.1      9.425     10.715
REMARK  3 active torsions:
REMARK  status: ('A' for Active; 'I' for Inactive)
REMARK    1  A    between atoms: C2_2  and  C10_10 
REMARK    2  A    between atoms: C7_7  and  N11_11 
REMARK    3  A    between atoms: C10_10  and  N11_11 
ROOT
HETATM    1  C1  UNL     1     -41.936   9.499  -5.644  1.00 20.00    -0.109 C 
HETATM    2  C2  UNL     1     -42.259   8.714  -4.795  1.00 20.00    -0.077 C 
HETATM    3  C8  UNL     1     -41.543  10.457  -6.678  1.00 20.00     0.112 C 
ENDROOT
BRANCH   2   4
HETATM    4  C10 UNL     1     -42.660   7.756  -3.760  1.00 20.00     0.363 C 
BRANCH   4   5
HETATM    5  N11 UNL     1     -41.959   8.013  -2.515  1.00 20.00     0.103 N 
HETATM    6  H28 UNL     1     -42.359   8.828  -2.058  1.00 20.00     0.318 HD
BRANCH   5   7
HETATM    7  C7  UNL     1     -42.075   6.881  -1.624  1.00 20.00     0.155 C 
HETATM    8  C5  UNL     1     -40.793   6.689  -0.806  1.00 20.00     0.041 C 
HETATM    9  C3  UNL     1     -40.793   5.216  -0.406  1.00 20.00     0.003 C 
HETATM   10  C4  UNL     1     -41.661   4.495  -1.436  1.00 20.00     0.003 C 
HETATM   11  C6  UNL     1     -42.144   5.567  -2.410  1.00 20.00     0.041 C 
HETATM   12  C9  UNL     1     -43.300   7.070  -0.724  1.00 20.00     0.049 C 
ENDBRANCH   5   7
ENDBRANCH   4   5
ENDBRANCH   2   4
TORSDOF 3
ENDMDL
MODEL 9
REMARK VINA RESULT:      -4.1     11.347     12.838
REMARK  3 active torsions:
REMARK  status: ('A' for Active; 'I' for Inactive)
REMARK    1  A    between atoms: C2_2  and  C10_10 
REMARK    2  A    between atoms: C7_7  and  N11_11 
REMARK    3  A    between atoms: C10_10  and  N11_11 
ROOT
HETATM    1  C1  UNL     1     -39.556  14.764  -4.329  1.00 20.00    -0.109 C 
HETATM    2  C2  UNL     1     -38.369  14.734  -4.151  1.00 20.00    -0.077 C 
HETATM    3  C8  UNL     1     -41.002  14.800  -4.545  1.00 20.00     0.112 C 
ENDROOT
BRANCH   2   4
HETATM    4  C10 UNL     1     -36.919  14.692  -3.933  1.00 20.00     0.363 C 
BRANCH   4   5
HETATM    5  N11 UNL     1     -36.549  15.457  -2.755  1.00 20.00     0.103 N 
HETATM    6  H28 UNL     1     -36.707  14.899  -1.920  1.00 20.00     0.318 HD
BRANCH   5   7
HETATM    7  C7  UNL     1     -35.153  15.825  -2.808  1.00 20.00     0.155 C 
HETATM    8  C5  UNL     1     -34.891  16.838  -3.929  1.00 20.00     0.041 C 
HETATM    9  C3  UNL     1     -33.413  16.678  -4.273  1.00 20.00     0.003 C 
HETATM   10  C4  UNL     1     -33.024  15.266  -3.837  1.00 20.00     0.003 C 
HETATM   11  C6  UNL     1     -34.287  14.640  -3.250  1.00 20.00     0.041 C 
HETATM   12  C9  UNL     1     -34.720  16.366  -1.441  1.00 20.00     0.049 C 
ENDBRANCH   5   7
ENDBRANCH   4   5
ENDBRANCH   2   4
TORSDOF 3
ENDMDL
