MODEL 1
REMARK VINA RESULT:      -4.6      0.000      0.000
REMARK  4 active torsions:
REMARK  status: ('A' for Active; 'I' for Inactive)
REMARK    1  A    between atoms: C2_2  and  C7_7 
REMARK    2  A    between atoms: C7_7  and  N11_11 
REMARK    3  A    between atoms: C8_8  and  C9_9 
REMARK    4  A    between atoms: C8_8  and  N11_11 
ROOT
HETATM    1  C1  UNL     1     -34.178  16.561  -1.641  1.00 20.00    -0.109 C 
HETATM    2  C2  UNL     1     -33.660  16.245  -2.678  1.00 20.00    -0.077 C 
HETATM    3  C4  UNL     1     -34.809  16.945  -0.379  1.00 20.00     0.112 C 
ENDROOT
BRANCH   2   4
HETATM    4  C7  UNL     1     -33.025  15.867  -3.944  1.00 20.00     0.365 C 
BRANCH   4   5
HETATM    5  N11 UNL     1     -33.715  16.489  -5.082  1.00 20.00     0.096 N 
HETATM    6  C6  UNL     1     -33.572  17.950  -5.012  1.00 20.00     0.311 C 
BRANCH   5   7
HETATM    7  C8  UNL     1     -35.107  16.104  -5.120  1.00 20.00     0.291 C 
BRANCH   7   8
HETATM    8  C9  UNL     1     -35.337  14.868  -5.999  1.00 20.00     0.117 C 
HETATM    9  C3  UNL     1     -35.065  13.620  -5.260  1.00 20.00     0.065 C 
HETATM   10  N10 UNL     1     -34.853  12.638  -4.679  1.00 20.00    -0.197 NA
HETATM   11  C5  UNL     1     -34.519  14.917  -7.288  1.00 20.00     0.027 C 
ENDBRANCH   7   8
ENDBRANCH   5   7
ENDBRANCH   4   5
ENDBRANCH   2   4
TORSDOF 4
ENDMDL
MODEL 2
REMARK VINA RESULT:      -4.5      0.988      1.413
REMARK  4 active torsions:
REMARK  status: ('A' for Active; 'I' for Inactive)
REMARK    1  A    between atoms: C2_2  and  C7_7 
REMARK    2  A    between atoms: C7_7  and  N11_11 
REMARK    3  A    between atoms: C8_8  and  C9_9 
REMARK    4  A    between atoms: C8_8  and  N11_11 
ROOT
HETATM    1  C1  UNL     1     -34.754  17.005  -0.290  1.00 20.00    -0.109 C 
HETATM    2  C2  UNL     1     -34.544  16.411  -1.313  1.00 20.00    -0.077 C 
HETATM    3  C4  UNL     1     -35.011  17.728   0.955  1.00 20.00     0.112 C 
ENDROOT
BRANCH   2   4
HETATM    4  C7  UNL     1     -34.295  15.683  -2.561  1.00 20.00     0.365 C 
BRANCH   4   5
HETATM    5  N11 UNL     1     -34.179  16.611  -3.694  1.00 20.00     0.096 N 
HETATM    6  C6  UNL     1     -35.501  17.162  -4.022  1.00 20.00     0.311 C 
BRANCH   5   7
HETATM    7  C8  UNL     1     -33.588  15.959  -4.841  1.00 20.00     0.291 C 
BRANCH   7   8
HETATM    8  C9  UNL     1     -34.622  15.156  -5.641  1.00 20.00     0.117 C 
HETATM    9  C3  UNL     1     -34.692  13.755  -5.182  1.00 20.00     0.065 C 
HETATM   10  N10 UNL     1     -34.750  12.654  -4.820  1.00 20.00    -0.197 NA
HETATM   11  C5  UNL     1     -34.359  15.215  -7.145  1.00 20.00     0.027 C 
ENDBRANCH   7   8
ENDBRANCH   5   7
ENDBRANCH   4   5
ENDBRANCH   2   4
TORSDOF 4
ENDMDL
MODEL 3
REMARK VINA RESULT:      -4.3      2.096      2.466
REMARK  4 active torsions:
REMARK  status: ('A' for Active; 'I' for Inactive)
REMARK    1  A    between atoms: C2_2  and  C7_7 
REMARK    2  A    between atoms: C7_7  and  N11_11 
REMARK    3  A    between atoms: C8_8  and  C9_9 
REMARK    4  A    between atoms: C8_8  and  N11_11 
ROOT
HETATM    1  C1  UNL     1     -33.013  18.168  -0.448  1.00 20.00    -0.109 C 
HETATM    2  C2  UNL     1     -33.693  17.373  -1.039  1.00 20.00    -0.077 C 
HETATM    3  C4  UNL     1     -32.186  19.136   0.271  1.00 20.00     0.112 C 
ENDROOT
BRANCH   2   4
HETATM    4  C7  UNL     1     -34.517  16.400  -1.764  1.00 20.00     0.365 C 
BRANCH   4   5
HETATM    5  N11 UNL     1     -33.762  15.796  -2.870  1.00 20.00     0.096 N 
HETATM    6  C6  UNL     1     -33.682  16.742  -3.991  1.00 20.00     0.311 C 
BRANCH   5   7
HETATM    7  C8  UNL     1     -34.360  14.547  -3.284  1.00 20.00     0.291 C 
BRANCH   7   8
HETATM    8  C9  UNL     1     -35.323  14.735  -4.464  1.00 20.00     0.117 C 
HETATM    9  C3  UNL     1     -36.724  14.509  -4.059  1.00 20.00     0.065 C 
HETATM   10  N10 UNL     1     -37.826  14.333  -3.741  1.00 20.00    -0.197 NA
HETATM   11  C5  UNL     1     -34.959  13.848  -5.653  1.00 20.00     0.027 C 
ENDBRANCH   7   8
ENDBRANCH   5   7
ENDBRANCH   4   5
ENDBRANCH   2   4
TORSDOF 4
ENDMDL
MODEL 4
REMARK VINA RESULT:      -4.3      1.505      3.722
REMARK  4 active torsions:
REMARK  status: ('A' for Active; 'I' for Inactive)
REMARK    1  A    between atoms: C2_2  and  C7_7 
REMARK    2  A    between atoms: C7_7  and  N11_11 
REMARK    3  A    between atoms: C8_8  and  C9_9 
REMARK    4  A    between atoms: C8_8  and  N11_11 
ROOT
HETATM    1  C1  UNL     1     -34.580  15.573  -6.971  1.00 20.00    -0.109 C 
HETATM    2  C2  UNL     1     -34.049  16.320  -6.193  1.00 20.00    -0.077 C 
HETATM    3  C4  UNL     1     -35.226  14.666  -7.918  1.00 20.00     0.112 C 
ENDROOT
BRANCH   2   4
HETATM    4  C7  UNL     1     -33.407  17.235  -5.244  1.00 20.00     0.365 C 
BRANCH   4   5
HETATM    5  N11 UNL     1     -34.016  17.119  -3.912  1.00 20.00     0.096 N 
HETATM    6  C6  UNL     1     -33.710  18.319  -3.120  1.00 20.00     0.311 C 
BRANCH   5   7
HETATM    7  C8  UNL     1     -33.567  15.923  -3.238  1.00 20.00     0.291 C 
BRANCH   7   8
HETATM    8  C9  UNL     1     -34.725  14.962  -2.941  1.00 20.00     0.117 C 
HETATM    9  C3  UNL     1     -34.652  13.751  -3.781  1.00 20.00     0.065 C 
HETATM   10  N10 UNL     1     -34.595  12.797  -4.440  1.00 20.00    -0.197 NA
HETATM   11  C5  UNL     1     -36.087  15.637  -3.091  1.00 20.00     0.027 C 
ENDBRANCH   7   8
ENDBRANCH   5   7
ENDBRANCH   4   5
ENDBRANCH   2   4
TORSDOF 4
ENDMDL
MODEL 5
REMARK VINA RESULT:      -4.3      1.822      2.283
REMARK  4 active torsions:
REMARK  status: ('A' for Active; 'I' for Inactive)
REMARK    1  A    between atoms: C2_2  and  C7_7 
REMARK    2  A    between atoms: C7_7  and  N11_11 
REMARK    3  A    between atoms: C8_8  and  C9_9 
REMARK    4  A    between atoms: C8_8  and  N11_11 
ROOT
HETATM    1  C1  UNL     1     -34.426  16.741  -1.152  1.00 20.00    -0.109 C 
HETATM    2  C2  UNL     1     -34.104  16.378  -2.251  1.00 20.00    -0.077 C 
HETATM    3  C4  UNL     1     -34.819  17.184   0.185  1.00 20.00     0.112 C 
ENDROOT
BRANCH   2   4
HETATM    4  C7  UNL     1     -33.708  15.942  -3.594  1.00 20.00     0.365 C 
BRANCH   4   5
HETATM    5  N11 UNL     1     -34.392  14.696  -3.963  1.00 20.00     0.096 N 
HETATM    6  C6  UNL     1     -33.474  13.559  -3.809  1.00 20.00     0.311 C 
BRANCH   5   7
HETATM    7  C8  UNL     1     -34.909  14.768  -5.311  1.00 20.00     0.291 C 
BRANCH   7   8
HETATM    8  C9  UNL     1     -36.284  15.446  -5.364  1.00 20.00     0.117 C 
HETATM    9  C3  UNL     1     -37.235  14.813  -4.429  1.00 20.00     0.065 C 
HETATM   10  N10 UNL     1     -37.983  14.318  -3.694  1.00 20.00    -0.197 NA
HETATM   11  C5  UNL     1     -36.860  15.473  -6.779  1.00 20.00     0.027 C 
ENDBRANCH   7   8
ENDBRANCH   5   7
ENDBRANCH   4   5
ENDBRANCH   2   4
TORSDOF 4
ENDMDL
MODEL 6
REMARK VINA RESULT:      -4.1      1.297      2.857
REMARK  4 active torsions:
REMARK  status: ('A' for Active; 'I' for Inactive)
REMARK    1  A    between atoms: C2_2  and  C7_7 
REMARK    2  A    between atoms: C7_7  and  N11_11 
REMARK    3  A    between atoms: C8_8  and  C9_9 
REMARK    4  A    between atoms: C8_8  and  N11_11 
ROOT
HETATM    1  C1  UNL     1     -34.569  16.572  -1.029  1.00 20.00    -0.109 C 
HETATM    2  C2  UNL     1     -34.330  15.922  -2.011  1.00 20.00    -0.077 C 
HETATM    3  C4  UNL     1     -34.860  17.363   0.165  1.00 20.00     0.112 C 
ENDROOT
BRANCH   2   4
HETATM    4  C7  UNL     1     -34.043  15.122  -3.206  1.00 20.00     0.365 C 
BRANCH   4   5
HETATM    5  N11 UNL     1     -35.283  14.759  -3.904  1.00 20.00     0.096 N 
HETATM    6  C6  UNL     1     -35.226  13.351  -4.319  1.00 20.00     0.311 C 
BRANCH   5   7
HETATM    7  C8  UNL     1     -35.513  15.626  -5.037  1.00 20.00     0.291 C 
BRANCH   7   8
HETATM    8  C9  UNL     1     -34.239  15.843  -5.864  1.00 20.00     0.117 C 
HETATM    9  C3  UNL     1     -33.895  17.274  -5.962  1.00 20.00     0.065 C 
HETATM   10  N10 UNL     1     -33.622  18.400  -6.039  1.00 20.00    -0.197 NA
HETATM   11  C5  UNL     1     -34.342  15.219  -7.255  1.00 20.00     0.027 C 
ENDBRANCH   7   8
ENDBRANCH   5   7
ENDBRANCH   4   5
ENDBRANCH   2   4
TORSDOF 4
ENDMDL
MODEL 7
REMARK VINA RESULT:      -4.1     11.428     13.019
REMARK  4 active torsions:
REMARK  status: ('A' for Active; 'I' for Inactive)
REMARK    1  A    between atoms: C2_2  and  C7_7 
REMARK    2  A    between atoms: C7_7  and  N11_11 
REMARK    3  A    between atoms: C8_8  and  C9_9 
REMARK    4  A    between atoms: C8_8  and  N11_11 
ROOT
HETATM    1  C1  UNL     1     -32.259   8.567   1.898  1.00 20.00    -0.109 C 
HETATM    2  C2  UNL     1     -32.143   7.489   2.416  1.00 20.00    -0.077 C 
HETATM    3  C4  UNL     1     -32.400   9.878   1.267  1.00 20.00     0.112 C 
ENDROOT
BRANCH   2   4
HETATM    4  C7  UNL     1     -31.994   6.174   3.048  1.00 20.00     0.365 C 
BRANCH   4   5
HETATM    5  N11 UNL     1     -33.250   5.750   3.679  1.00 20.00     0.096 N 
HETATM    6  C6  UNL     1     -34.257   5.473   2.645  1.00 20.00     0.311 C 
BRANCH   5   7
HETATM    7  C8  UNL     1     -33.724   6.746   4.613  1.00 20.00     0.291 C 
BRANCH   7   8
HETATM    8  C9  UNL     1     -33.693   6.236   6.060  1.00 20.00     0.117 C 
HETATM    9  C3  UNL     1     -34.625   5.108   6.256  1.00 20.00     0.065 C 
HETATM   10  N10 UNL     1     -35.355   4.220   6.411  1.00 20.00    -0.197 NA
HETATM   11  C5  UNL     1     -33.977   7.348   7.069  1.00 20.00     0.027 C 
ENDBRANCH   7   8
ENDBRANCH   5   7
ENDBRANCH   4   5
ENDBRANCH   2   4
TORSDOF 4
ENDMDL
MODEL 8
REMARK VINA RESULT:      -4.1      1.775      2.131
REMARK  4 active torsions:
REMARK  status: ('A' for Active; 'I' for Inactive)
REMARK    1  A    between atoms: C2_2  and  C7_7 
REMARK    2  A    between atoms: C7_7  and  N11_11 
REMARK    3  A    between atoms: C8_8  and  C9_9 
REMARK    4  A    between atoms: C8_8  and  N11_11 
ROOT
HETATM    1  C1  UNL     1     -34.195  16.805  -1.850  1.00 20.00    -0.109 C 
HETATM    2  C2  UNL     1     -33.852  16.817  -3.002  1.00 20.00    -0.077 C 
HETATM    3  C4  UNL     1     -34.612  16.790  -0.449  1.00 20.00     0.112 C 
ENDROOT
BRANCH   2   4
HETATM    4  C7  UNL     1     -33.433  16.840  -4.407  1.00 20.00     0.365 C 
BRANCH   4   5
HETATM    5  N11 UNL     1     -34.164  15.835  -5.189  1.00 20.00     0.096 N 
HETATM    6  C6  UNL     1     -33.895  16.027  -6.620  1.00 20.00     0.311 C 
BRANCH   5   7
HETATM    7  C8  UNL     1     -35.581  15.893  -4.913  1.00 20.00     0.291 C 
BRANCH   7   8
HETATM    8  C9  UNL     1     -36.204  14.494  -4.810  1.00 20.00     0.117 C 
HETATM    9  C3  UNL     1     -37.471  14.521  -4.054  1.00 20.00     0.065 C 
HETATM   10  N10 UNL     1     -38.468  14.540  -3.461  1.00 20.00    -0.197 NA
HETATM   11  C5  UNL     1     -35.239  13.477  -4.205  1.00 20.00     0.027 C 
ENDBRANCH   7   8
ENDBRANCH   5   7
ENDBRANCH   4   5
ENDBRANCH   2   4
TORSDOF 4
ENDMDL
MODEL 9
REMARK VINA RESULT:      -4.1     11.426     12.942
REMARK  4 active torsions:
REMARK  status: ('A' for Active; 'I' for Inactive)
REMARK    1  A    between atoms: C2_2  and  C7_7 
REMARK    2  A    between atoms: C7_7  and  N11_11 
REMARK    3  A    between atoms: C8_8  and  C9_9 
REMARK    4  A    between atoms: C8_8  and  N11_11 
ROOT
HETATM    1  C1  UNL     1     -32.283   8.401   1.940  1.00 20.00    -0.109 C 
HETATM    2  C2  UNL     1     -32.234   7.410   2.618  1.00 20.00    -0.077 C 
HETATM    3  C4  UNL     1     -32.341   9.606   1.115  1.00 20.00     0.112 C 
ENDROOT
BRANCH   2   4
HETATM    4  C7  UNL     1     -32.170   6.204   3.450  1.00 20.00     0.365 C 
BRANCH   4   5
HETATM    5  N11 UNL     1     -33.465   5.513   3.472  1.00 20.00     0.096 N 
HETATM    6  C6  UNL     1     -33.857   5.149   2.104  1.00 20.00     0.311 C 
BRANCH   5   7
HETATM    7  C8  UNL     1     -34.478   6.327   4.104  1.00 20.00     0.291 C 
BRANCH   7   8
HETATM    8  C9  UNL     1     -34.673   5.956   5.581  1.00 20.00     0.117 C 
HETATM    9  C3  UNL     1     -33.831   6.788   6.462  1.00 20.00     0.065 C 
HETATM   10  N10 UNL     1     -33.172   7.443   7.157  1.00 20.00    -0.197 NA
HETATM   11  C5  UNL     1     -34.419   4.472   5.841  1.00 20.00     0.027 C 
ENDBRANCH   7   8
ENDBRANCH   5   7
ENDBRANCH   4   5
ENDBRANCH   2   4
TORSDOF 4
ENDMDL
