MODEL 1
REMARK VINA RESULT:      -5.0      0.000      0.000
REMARK  2 active torsions:
REMARK  status: ('A' for Active; 'I' for Inactive)
REMARK    1  A    between atoms: C1_1  and  C5_5 
REMARK    2  A    between atoms: C6_6  and  C7_7 
ROOT
HETATM    1  C4  UNL     1     -33.745   5.764   2.745  1.00 20.00     0.021 A 
HETATM    2  C5  UNL     1     -32.446   6.161   3.395  1.00 20.00     0.091 A 
HETATM    3  C7  UNL     1     -33.725   6.115   4.209  1.00 20.00     0.005 A 
ENDROOT
BRANCH   2   4
HETATM    4  C1  UNL     1     -31.904   7.465   3.071  1.00 20.00     0.177 C 
HETATM    5  O8  UNL     1     -32.296   7.955   1.976  1.00 20.00    -0.648 OA
HETATM    6  O9  UNL     1     -31.109   7.937   3.931  1.00 20.00    -0.648 OA
ENDBRANCH   2   4
BRANCH   3   7
HETATM    7  C6  UNL     1     -33.955   5.084   5.303  1.00 20.00    -0.010 A 
HETATM    8  C2  UNL     1     -34.837   5.348   6.493  1.00 20.00     0.005 A 
HETATM    9  C3  UNL     1     -35.254   4.341   5.457  1.00 20.00     0.005 A 
ENDBRANCH   3   7
TORSDOF 2
ENDMDL
MODEL 2
REMARK VINA RESULT:      -4.8      2.779      4.225
REMARK  2 active torsions:
REMARK  status: ('A' for Active; 'I' for Inactive)
REMARK    1  A    between atoms: C1_1  and  C5_5 
REMARK    2  A    between atoms: C6_6  and  C7_7 
ROOT
HETATM    1  C4  UNL     1     -34.635   5.388   3.080  1.00 20.00     0.021 A 
HETATM    2  C5  UNL     1     -34.692   5.713   4.550  1.00 20.00     0.091 A 
HETATM    3  C7  UNL     1     -33.410   5.930   3.768  1.00 20.00     0.005 A 
ENDROOT
BRANCH   2   4
HETATM    4  C1  UNL     1     -34.729   4.604   5.482  1.00 20.00     0.177 C 
HETATM    5  O8  UNL     1     -35.149   3.513   5.005  1.00 20.00    -0.648 OA
HETATM    6  O9  UNL     1     -34.334   4.880   6.650  1.00 20.00    -0.648 OA
ENDBRANCH   2   4
BRANCH   3   7
HETATM    7  C6  UNL     1     -32.857   7.318   3.485  1.00 20.00    -0.010 A 
HETATM    8  C2  UNL     1     -31.390   7.639   3.570  1.00 20.00     0.005 A 
HETATM    9  C3  UNL     1     -32.084   7.643   2.236  1.00 20.00     0.005 A 
ENDBRANCH   3   7
TORSDOF 2
ENDMDL
MODEL 3
REMARK VINA RESULT:      -4.6     10.987     11.912
REMARK  2 active torsions:
REMARK  status: ('A' for Active; 'I' for Inactive)
REMARK    1  A    between atoms: C1_1  and  C5_5 
REMARK    2  A    between atoms: C6_6  and  C7_7 
ROOT
HETATM    1  C4  UNL     1     -33.190  15.825  -4.281  1.00 20.00     0.021 A 
HETATM    2  C5  UNL     1     -34.328  14.902  -3.936  1.00 20.00     0.091 A 
HETATM    3  C7  UNL     1     -33.621  15.683  -2.846  1.00 20.00     0.005 A 
ENDROOT
BRANCH   2   4
HETATM    4  C1  UNL     1     -34.081  13.475  -4.006  1.00 20.00     0.177 C 
HETATM    5  O8  UNL     1     -32.894  13.122  -3.765  1.00 20.00    -0.648 OA
HETATM    6  O9  UNL     1     -35.091  12.776  -4.299  1.00 20.00    -0.648 OA
ENDBRANCH   2   4
BRANCH   3   7
HETATM    7  C6  UNL     1     -34.302  16.807  -2.079  1.00 20.00    -0.010 A 
HETATM    8  C2  UNL     1     -34.675  16.686  -0.626  1.00 20.00     0.005 A 
HETATM    9  C3  UNL     1     -33.586  17.634  -1.047  1.00 20.00     0.005 A 
ENDBRANCH   3   7
TORSDOF 2
ENDMDL
MODEL 4
REMARK VINA RESULT:      -4.6     10.983     11.870
REMARK  2 active torsions:
REMARK  status: ('A' for Active; 'I' for Inactive)
REMARK    1  A    between atoms: C1_1  and  C5_5 
REMARK    2  A    between atoms: C6_6  and  C7_7 
ROOT
HETATM    1  C4  UNL     1     -33.184  15.815  -4.266  1.00 20.00     0.021 A 
HETATM    2  C5  UNL     1     -34.333  14.901  -3.929  1.00 20.00     0.091 A 
HETATM    3  C7  UNL     1     -33.625  15.675  -2.833  1.00 20.00     0.005 A 
ENDROOT
BRANCH   2   4
HETATM    4  C1  UNL     1     -34.098  13.473  -4.000  1.00 20.00     0.177 C 
HETATM    5  O8  UNL     1     -35.110  12.774  -4.285  1.00 20.00    -0.648 OA
HETATM    6  O9  UNL     1     -32.909  13.119  -3.767  1.00 20.00    -0.648 OA
ENDBRANCH   2   4
BRANCH   3   7
HETATM    7  C6  UNL     1     -34.302  16.803  -2.070  1.00 20.00    -0.010 A 
HETATM    8  C2  UNL     1     -34.678  16.687  -0.617  1.00 20.00     0.005 A 
HETATM    9  C3  UNL     1     -33.583  17.628  -1.037  1.00 20.00     0.005 A 
ENDBRANCH   3   7
TORSDOF 2
ENDMDL
MODEL 5
REMARK VINA RESULT:      -4.2      1.390      1.945
REMARK  2 active torsions:
REMARK  status: ('A' for Active; 'I' for Inactive)
REMARK    1  A    between atoms: C1_1  and  C5_5 
REMARK    2  A    between atoms: C6_6  and  C7_7 
ROOT
HETATM    1  C4  UNL     1     -31.894   6.393   3.083  1.00 20.00     0.021 A 
HETATM    2  C5  UNL     1     -32.373   7.821   3.091  1.00 20.00     0.091 A 
HETATM    3  C7  UNL     1     -33.371   6.680   3.030  1.00 20.00     0.005 A 
ENDROOT
BRANCH   2   4
HETATM    4  C1  UNL     1     -32.175   8.603   1.886  1.00 20.00     0.177 C 
HETATM    5  O8  UNL     1     -31.461   8.055   1.001  1.00 20.00    -0.648 OA
HETATM    6  O9  UNL     1     -32.745   9.729   1.886  1.00 20.00    -0.648 OA
ENDBRANCH   2   4
BRANCH   3   7
HETATM    7  C6  UNL     1     -34.310   6.361   4.183  1.00 20.00    -0.010 A 
HETATM    8  C2  UNL     1     -35.313   5.241   4.126  1.00 20.00     0.005 A 
HETATM    9  C3  UNL     1     -34.137   5.150   5.058  1.00 20.00     0.005 A 
ENDBRANCH   3   7
TORSDOF 2
ENDMDL
MODEL 6
REMARK VINA RESULT:      -4.2      2.380      4.769
REMARK  2 active torsions:
REMARK  status: ('A' for Active; 'I' for Inactive)
REMARK    1  A    between atoms: C1_1  and  C5_5 
REMARK    2  A    between atoms: C6_6  and  C7_7 
ROOT
HETATM    1  C4  UNL     1     -31.546   7.373   3.716  1.00 20.00     0.021 A 
HETATM    2  C5  UNL     1     -32.465   6.485   2.919  1.00 20.00     0.091 A 
HETATM    3  C7  UNL     1     -32.423   7.977   2.652  1.00 20.00     0.005 A 
ENDROOT
BRANCH   2   4
HETATM    4  C1  UNL     1     -33.637   5.956   3.590  1.00 20.00     0.177 C 
HETATM    5  O8  UNL     1     -33.725   6.235   4.818  1.00 20.00    -0.648 OA
HETATM    6  O9  UNL     1     -34.412   5.287   2.852  1.00 20.00    -0.648 OA
ENDBRANCH   2   4
BRANCH   3   7
HETATM    7  C6  UNL     1     -31.865   8.555   1.360  1.00 20.00    -0.010 A 
HETATM    8  C2  UNL     1     -32.725   8.824   0.155  1.00 20.00     0.005 A 
HETATM    9  C3  UNL     1     -32.129   9.970   0.925  1.00 20.00     0.005 A 
ENDBRANCH   3   7
TORSDOF 2
ENDMDL
MODEL 7
REMARK VINA RESULT:      -3.9     11.947     12.367
REMARK  2 active torsions:
REMARK  status: ('A' for Active; 'I' for Inactive)
REMARK    1  A    between atoms: C1_1  and  C5_5 
REMARK    2  A    between atoms: C6_6  and  C7_7 
ROOT
HETATM    1  C4  UNL     1     -35.414  14.944  -3.059  1.00 20.00     0.021 A 
HETATM    2  C5  UNL     1     -33.969  15.202  -3.394  1.00 20.00     0.091 A 
HETATM    3  C7  UNL     1     -34.756  16.210  -2.578  1.00 20.00     0.005 A 
ENDROOT
BRANCH   2   4
HETATM    4  C1  UNL     1     -33.648  15.552  -4.763  1.00 20.00     0.177 C 
HETATM    5  O8  UNL     1     -34.298  14.925  -5.645  1.00 20.00    -0.648 OA
HETATM    6  O9  UNL     1     -32.759  16.439  -4.889  1.00 20.00    -0.648 OA
ENDBRANCH   2   4
BRANCH   3   7
HETATM    7  C6  UNL     1     -34.461  16.474  -1.110  1.00 20.00    -0.010 A 
HETATM    8  C2  UNL     1     -33.706  17.688  -0.641  1.00 20.00     0.005 A 
HETATM    9  C3  UNL     1     -35.168  17.543  -0.321  1.00 20.00     0.005 A 
ENDBRANCH   3   7
TORSDOF 2
ENDMDL
MODEL 8
REMARK VINA RESULT:      -3.8     11.960     12.738
REMARK  2 active torsions:
REMARK  status: ('A' for Active; 'I' for Inactive)
REMARK    1  A    between atoms: C1_1  and  C5_5 
REMARK    2  A    between atoms: C6_6  and  C7_7 
ROOT
HETATM    1  C4  UNL     1     -34.719  18.010   0.364  1.00 20.00     0.021 A 
HETATM    2  C5  UNL     1     -33.524  18.723  -0.211  1.00 20.00     0.091 A 
HETATM    3  C7  UNL     1     -33.856  17.310  -0.651  1.00 20.00     0.005 A 
ENDROOT
BRANCH   2   4
HETATM    4  C1  UNL     1     -32.371  18.903   0.649  1.00 20.00     0.177 C 
HETATM    5  O8  UNL     1     -31.308  19.245   0.061  1.00 20.00    -0.648 OA
HETATM    6  O9  UNL     1     -32.587  18.694   1.875  1.00 20.00    -0.648 OA
ENDBRANCH   2   4
BRANCH   3   7
HETATM    7  C6  UNL     1     -34.339  16.990  -2.058  1.00 20.00    -0.010 A 
HETATM    8  C2  UNL     1     -33.615  16.033  -2.965  1.00 20.00     0.005 A 
HETATM    9  C3  UNL     1     -34.969  15.672  -2.418  1.00 20.00     0.005 A 
ENDBRANCH   3   7
TORSDOF 2
ENDMDL
MODEL 9
REMARK VINA RESULT:      -3.8     10.995     12.977
REMARK  2 active torsions:
REMARK  status: ('A' for Active; 'I' for Inactive)
REMARK    1  A    between atoms: C1_1  and  C5_5 
REMARK    2  A    between atoms: C6_6  and  C7_7 
ROOT
HETATM    1  C4  UNL     1     -35.587  15.400  -3.798  1.00 20.00     0.021 A 
HETATM    2  C5  UNL     1     -34.300  14.747  -3.367  1.00 20.00     0.091 A 
HETATM    3  C7  UNL     1     -34.287  15.843  -4.415  1.00 20.00     0.005 A 
ENDROOT
BRANCH   2   4
HETATM    4  C1  UNL     1     -34.053  13.390  -3.812  1.00 20.00     0.177 C 
HETATM    5  O8  UNL     1     -32.855  13.004  -3.725  1.00 20.00    -0.648 OA
HETATM    6  O9  UNL     1     -35.074  12.775  -4.229  1.00 20.00    -0.648 OA
ENDBRANCH   2   4
BRANCH   3   7
HETATM    7  C6  UNL     1     -33.678  17.211  -4.151  1.00 20.00    -0.010 A 
HETATM    8  C2  UNL     1     -33.542  18.258  -5.223  1.00 20.00     0.005 A 
HETATM    9  C3  UNL     1     -34.504  18.467  -4.086  1.00 20.00     0.005 A 
ENDBRANCH   3   7
TORSDOF 2
ENDMDL
