MODEL 1
REMARK VINA RESULT:      -5.2      0.000      0.000
REMARK  4 active torsions:
REMARK  status: ('A' for Active; 'I' for Inactive)
REMARK    1  A    between atoms: C2_2  and  C6_6 
REMARK    2  A    between atoms: C6_6  and  C7_7 
REMARK    3  A    between atoms: C7_7  and  C8_8 
REMARK    4  A    between atoms: C8_8  and  O9_9 
ROOT
HETATM    1  C1  UNL     1     -32.212   7.875   2.201  1.00 20.00    -0.111 C 
HETATM    2  C2  UNL     1     -32.567   7.236   3.153  1.00 20.00    -0.107 C 
HETATM    3  C3  UNL     1     -31.774   8.654   1.043  1.00 20.00     0.112 C 
ENDROOT
BRANCH   2   4
HETATM    4  C6  UNL     1     -33.008   6.456   4.319  1.00 20.00     0.100 C 
BRANCH   4   5
HETATM    5  C7  UNL     1     -33.947   5.288   3.959  1.00 20.00     0.021 C 
HETATM    6  C4  UNL     1     -34.556   5.485   2.562  1.00 20.00     0.013 C 
BRANCH   5   7
HETATM    7  C8  UNL     1     -35.052   5.018   5.008  1.00 20.00     0.118 C 
HETATM    8  C5  UNL     1     -34.654   5.415   6.426  1.00 20.00     0.040 C 
BRANCH   7   9
HETATM    9  O9  UNL     1     -35.340   3.618   5.011  1.00 20.00    -0.396 OA
HETATM   10  H23 UNL     1     -34.496   3.167   4.863  1.00 20.00     0.210 HD
ENDBRANCH   7   9
ENDBRANCH   5   7
ENDBRANCH   4   5
ENDBRANCH   2   4
TORSDOF 4
ENDMDL
MODEL 2
REMARK VINA RESULT:      -5.1      1.248      1.754
REMARK  4 active torsions:
REMARK  status: ('A' for Active; 'I' for Inactive)
REMARK    1  A    between atoms: C2_2  and  C6_6 
REMARK    2  A    between atoms: C6_6  and  C7_7 
REMARK    3  A    between atoms: C7_7  and  C8_8 
REMARK    4  A    between atoms: C8_8  and  O9_9 
ROOT
HETATM    1  C1  UNL     1     -32.194   8.060   2.075  1.00 20.00    -0.111 C 
HETATM    2  C2  UNL     1     -32.386   7.260   2.949  1.00 20.00    -0.107 C 
HETATM    3  C3  UNL     1     -31.959   9.037   1.013  1.00 20.00     0.112 C 
ENDROOT
BRANCH   2   4
HETATM    4  C6  UNL     1     -32.626   6.278   4.018  1.00 20.00     0.100 C 
BRANCH   4   5
HETATM    5  C7  UNL     1     -33.991   6.448   4.714  1.00 20.00     0.021 C 
HETATM    6  C4  UNL     1     -33.823   6.515   6.241  1.00 20.00     0.013 C 
BRANCH   5   7
HETATM    7  C8  UNL     1     -35.038   5.379   4.322  1.00 20.00     0.118 C 
HETATM    8  C5  UNL     1     -35.008   4.142   5.215  1.00 20.00     0.040 C 
BRANCH   7   9
HETATM    9  O9  UNL     1     -34.774   4.958   2.982  1.00 20.00    -0.396 OA
HETATM   10  H23 UNL     1     -34.598   4.007   3.026  1.00 20.00     0.210 HD
ENDBRANCH   7   9
ENDBRANCH   5   7
ENDBRANCH   4   5
ENDBRANCH   2   4
TORSDOF 4
ENDMDL
MODEL 3
REMARK VINA RESULT:      -4.8     11.057     11.811
REMARK  4 active torsions:
REMARK  status: ('A' for Active; 'I' for Inactive)
REMARK    1  A    between atoms: C2_2  and  C6_6 
REMARK    2  A    between atoms: C6_6  and  C7_7 
REMARK    3  A    between atoms: C7_7  and  C8_8 
REMARK    4  A    between atoms: C8_8  and  O9_9 
ROOT
HETATM    1  C1  UNL     1     -34.474  16.892  -0.961  1.00 20.00    -0.111 C 
HETATM    2  C2  UNL     1     -34.769  16.154  -1.860  1.00 20.00    -0.107 C 
HETATM    3  C3  UNL     1     -34.110  17.790   0.135  1.00 20.00     0.112 C 
ENDROOT
BRANCH   2   4
HETATM    4  C6  UNL     1     -35.136  15.248  -2.960  1.00 20.00     0.100 C 
BRANCH   4   5
HETATM    5  C7  UNL     1     -33.982  14.332  -3.413  1.00 20.00     0.021 C 
HETATM    6  C4  UNL     1     -32.724  15.155  -3.738  1.00 20.00     0.013 C 
BRANCH   5   7
HETATM    7  C8  UNL     1     -34.344  13.393  -4.588  1.00 20.00     0.118 C 
HETATM    8  C5  UNL     1     -34.832  14.133  -5.830  1.00 20.00     0.040 C 
BRANCH   7   9
HETATM    9  O9  UNL     1     -35.390  12.518  -4.161  1.00 20.00    -0.396 OA
HETATM   10  H23 UNL     1     -36.173  13.073  -4.034  1.00 20.00     0.210 HD
ENDBRANCH   7   9
ENDBRANCH   5   7
ENDBRANCH   4   5
ENDBRANCH   2   4
TORSDOF 4
ENDMDL
MODEL 4
REMARK VINA RESULT:      -4.7     10.838     11.607
REMARK  4 active torsions:
REMARK  status: ('A' for Active; 'I' for Inactive)
REMARK    1  A    between atoms: C2_2  and  C6_6 
REMARK    2  A    between atoms: C6_6  and  C7_7 
REMARK    3  A    between atoms: C7_7  and  C8_8 
REMARK    4  A    between atoms: C8_8  and  O9_9 
ROOT
HETATM    1  C1  UNL     1     -34.718  16.877  -0.662  1.00 20.00    -0.111 C 
HETATM    2  C2  UNL     1     -34.478  16.471  -1.766  1.00 20.00    -0.107 C 
HETATM    3  C3  UNL     1     -35.007  17.371   0.683  1.00 20.00     0.112 C 
ENDROOT
BRANCH   2   4
HETATM    4  C6  UNL     1     -34.187  15.970  -3.118  1.00 20.00     0.100 C 
BRANCH   4   5
HETATM    5  C7  UNL     1     -34.302  14.438  -3.244  1.00 20.00     0.021 C 
HETATM    6  C4  UNL     1     -32.938  13.812  -3.579  1.00 20.00     0.013 C 
BRANCH   5   7
HETATM    7  C8  UNL     1     -35.385  13.965  -4.242  1.00 20.00     0.118 C 
HETATM    8  C5  UNL     1     -36.775  14.515  -3.937  1.00 20.00     0.040 C 
BRANCH   7   9
HETATM    9  O9  UNL     1     -35.457  12.539  -4.188  1.00 20.00    -0.396 OA
HETATM   10  H23 UNL     1     -34.688  12.247  -3.678  1.00 20.00     0.210 HD
ENDBRANCH   7   9
ENDBRANCH   5   7
ENDBRANCH   4   5
ENDBRANCH   2   4
TORSDOF 4
ENDMDL
MODEL 5
REMARK VINA RESULT:      -4.5     11.091     12.273
REMARK  4 active torsions:
REMARK  status: ('A' for Active; 'I' for Inactive)
REMARK    1  A    between atoms: C2_2  and  C6_6 
REMARK    2  A    between atoms: C6_6  and  C7_7 
REMARK    3  A    between atoms: C7_7  and  C8_8 
REMARK    4  A    between atoms: C8_8  and  O9_9 
ROOT
HETATM    1  C1  UNL     1     -34.705  17.372   0.262  1.00 20.00    -0.111 C 
HETATM    2  C2  UNL     1     -34.745  16.729  -0.752  1.00 20.00    -0.107 C 
HETATM    3  C3  UNL     1     -34.652  18.152   1.497  1.00 20.00     0.112 C 
ENDROOT
BRANCH   2   4
HETATM    4  C6  UNL     1     -34.799  15.941  -1.992  1.00 20.00     0.100 C 
BRANCH   4   5
HETATM    5  C7  UNL     1     -33.608  16.198  -2.936  1.00 20.00     0.021 C 
HETATM    6  C4  UNL     1     -33.809  17.498  -3.732  1.00 20.00     0.013 C 
BRANCH   5   7
HETATM    7  C8  UNL     1     -33.286  15.018  -3.884  1.00 20.00     0.118 C 
HETATM    8  C5  UNL     1     -34.155  13.788  -3.639  1.00 20.00     0.040 C 
BRANCH   7   9
HETATM    9  O9  UNL     1     -31.923  14.637  -3.683  1.00 20.00    -0.396 OA
HETATM   10  H23 UNL     1     -31.531  14.556  -4.565  1.00 20.00     0.210 HD
ENDBRANCH   7   9
ENDBRANCH   5   7
ENDBRANCH   4   5
ENDBRANCH   2   4
TORSDOF 4
ENDMDL
MODEL 6
REMARK VINA RESULT:      -4.4     11.400     12.691
REMARK  4 active torsions:
REMARK  status: ('A' for Active; 'I' for Inactive)
REMARK    1  A    between atoms: C2_2  and  C6_6 
REMARK    2  A    between atoms: C6_6  and  C7_7 
REMARK    3  A    between atoms: C7_7  and  C8_8 
REMARK    4  A    between atoms: C8_8  and  O9_9 
ROOT
HETATM    1  C1  UNL     1     -34.551  16.582  -1.429  1.00 20.00    -0.111 C 
HETATM    2  C2  UNL     1     -34.984  15.852  -2.279  1.00 20.00    -0.107 C 
HETATM    3  C3  UNL     1     -34.021  17.471  -0.397  1.00 20.00     0.112 C 
ENDROOT
BRANCH   2   4
HETATM    4  C6  UNL     1     -35.514  14.955  -3.316  1.00 20.00     0.100 C 
BRANCH   4   5
HETATM    5  C7  UNL     1     -34.474  14.570  -4.387  1.00 20.00     0.021 C 
HETATM    6  C4  UNL     1     -33.300  13.801  -3.760  1.00 20.00     0.013 C 
BRANCH   5   7
HETATM    7  C8  UNL     1     -33.963  15.763  -5.229  1.00 20.00     0.118 C 
HETATM    8  C5  UNL     1     -34.144  15.568  -6.732  1.00 20.00     0.040 C 
BRANCH   7   9
HETATM    9  O9  UNL     1     -32.567  15.930  -4.975  1.00 20.00    -0.396 OA
HETATM   10  H23 UNL     1     -32.159  15.063  -5.118  1.00 20.00     0.210 HD
ENDBRANCH   7   9
ENDBRANCH   5   7
ENDBRANCH   4   5
ENDBRANCH   2   4
TORSDOF 4
ENDMDL
MODEL 7
REMARK VINA RESULT:      -4.2     11.396     12.627
REMARK  4 active torsions:
REMARK  status: ('A' for Active; 'I' for Inactive)
REMARK    1  A    between atoms: C2_2  and  C6_6 
REMARK    2  A    between atoms: C6_6  and  C7_7 
REMARK    3  A    between atoms: C7_7  and  C8_8 
REMARK    4  A    between atoms: C8_8  and  O9_9 
ROOT
HETATM    1  C1  UNL     1     -34.546  16.817  -0.773  1.00 20.00    -0.111 C 
HETATM    2  C2  UNL     1     -34.104  16.375  -1.798  1.00 20.00    -0.107 C 
HETATM    3  C3  UNL     1     -35.082  17.358   0.475  1.00 20.00     0.112 C 
ENDROOT
BRANCH   2   4
HETATM    4  C6  UNL     1     -33.563  15.829  -3.052  1.00 20.00     0.100 C 
BRANCH   4   5
HETATM    5  C7  UNL     1     -34.622  15.130  -3.926  1.00 20.00     0.021 C 
HETATM    6  C4  UNL     1     -34.540  13.603  -3.771  1.00 20.00     0.013 C 
BRANCH   5   7
HETATM    7  C8  UNL     1     -34.577  15.534  -5.419  1.00 20.00     0.118 C 
HETATM    8  C5  UNL     1     -34.996  14.412  -6.365  1.00 20.00     0.040 C 
BRANCH   7   9
HETATM    9  O9  UNL     1     -33.236  15.904  -5.747  1.00 20.00    -0.396 OA
HETATM   10  H23 UNL     1     -33.300  16.531  -6.482  1.00 20.00     0.210 HD
ENDBRANCH   7   9
ENDBRANCH   5   7
ENDBRANCH   4   5
ENDBRANCH   2   4
TORSDOF 4
ENDMDL
MODEL 8
REMARK VINA RESULT:      -4.1     11.311     12.307
REMARK  4 active torsions:
REMARK  status: ('A' for Active; 'I' for Inactive)
REMARK    1  A    between atoms: C2_2  and  C6_6 
REMARK    2  A    between atoms: C6_6  and  C7_7 
REMARK    3  A    between atoms: C7_7  and  C8_8 
REMARK    4  A    between atoms: C8_8  and  O9_9 
ROOT
HETATM    1  C1  UNL     1     -34.657  16.929  -0.493  1.00 20.00    -0.111 C 
HETATM    2  C2  UNL     1     -34.241  16.545  -1.552  1.00 20.00    -0.107 C 
HETATM    3  C3  UNL     1     -35.160  17.399   0.797  1.00 20.00     0.112 C 
ENDROOT
BRANCH   2   4
HETATM    4  C6  UNL     1     -33.734  16.070  -2.848  1.00 20.00     0.100 C 
BRANCH   4   5
HETATM    5  C7  UNL     1     -34.405  14.769  -3.331  1.00 20.00     0.021 C 
HETATM    6  C4  UNL     1     -33.352  13.708  -3.689  1.00 20.00     0.013 C 
BRANCH   5   7
HETATM    7  C8  UNL     1     -35.404  14.968  -4.496  1.00 20.00     0.118 C 
HETATM    8  C5  UNL     1     -35.098  14.100  -5.714  1.00 20.00     0.040 C 
BRANCH   7   9
HETATM    9  O9  UNL     1     -35.350  16.335  -4.909  1.00 20.00    -0.396 OA
HETATM   10  H23 UNL     1     -35.905  16.402  -5.699  1.00 20.00     0.210 HD
ENDBRANCH   7   9
ENDBRANCH   5   7
ENDBRANCH   4   5
ENDBRANCH   2   4
TORSDOF 4
ENDMDL
MODEL 9
REMARK VINA RESULT:      -4.0     11.103     12.575
REMARK  4 active torsions:
REMARK  status: ('A' for Active; 'I' for Inactive)
REMARK    1  A    between atoms: C2_2  and  C6_6 
REMARK    2  A    between atoms: C6_6  and  C7_7 
REMARK    3  A    between atoms: C7_7  and  C8_8 
REMARK    4  A    between atoms: C8_8  and  O9_9 
ROOT
HETATM    1  C1  UNL     1     -34.489  15.287  -6.717  1.00 20.00    -0.111 C 
HETATM    2  C2  UNL     1     -33.928  15.678  -5.730  1.00 20.00    -0.107 C 
HETATM    3  C3  UNL     1     -35.170  14.806  -7.918  1.00 20.00     0.112 C 
ENDROOT
BRANCH   2   4
HETATM    4  C6  UNL     1     -33.239  16.162  -4.524  1.00 20.00     0.100 C 
BRANCH   4   5
HETATM    5  C7  UNL     1     -33.743  15.506  -3.223  1.00 20.00     0.021 C 
HETATM    6  C4  UNL     1     -34.142  14.042  -3.466  1.00 20.00     0.013 C 
BRANCH   5   7
HETATM    7  C8  UNL     1     -34.889  16.280  -2.528  1.00 20.00     0.118 C 
HETATM    8  C5  UNL     1     -34.635  16.540  -1.047  1.00 20.00     0.040 C 
BRANCH   7   9
HETATM    9  O9  UNL     1     -36.087  15.507  -2.637  1.00 20.00    -0.396 OA
HETATM   10  H23 UNL     1     -35.954  14.905  -3.384  1.00 20.00     0.210 HD
ENDBRANCH   7   9
ENDBRANCH   5   7
ENDBRANCH   4   5
ENDBRANCH   2   4
TORSDOF 4
ENDMDL
