MODEL 1
REMARK VINA RESULT:      -5.3      0.000      0.000
REMARK  2 active torsions:
REMARK  status: ('A' for Active; 'I' for Inactive)
REMARK    1  A    between atoms: C2_2  and  C11_11 
REMARK    2  A    between atoms: C7_7  and  C11_11 
ROOT
HETATM    1  C1  UNL     1     -34.728  16.659  -1.166  1.00 20.00    -0.111 C 
HETATM    2  C2  UNL     1     -34.375  15.870  -2.000  1.00 20.00    -0.106 C 
HETATM    3  C9  UNL     1     -35.158  17.620  -0.152  1.00 20.00     0.112 C 
ENDROOT
BRANCH   2   4
HETATM    4  C11 UNL     1     -33.937  14.904  -3.010  1.00 20.00     0.106 C 
BRANCH   4   5
HETATM    5  C7  UNL     1     -34.571  15.203  -4.366  1.00 20.00     0.067 C 
HETATM    6  C3  UNL     1     -34.859  13.923  -5.145  1.00 20.00     0.132 C 
HETATM    7  C4  UNL     1     -35.352  14.102  -6.564  1.00 20.00     0.079 C 
HETATM    8  O12 UNL     1     -34.791  12.805  -4.636  1.00 20.00    -0.298 OA
HETATM    9  C5  UNL     1     -34.435  15.040  -7.338  1.00 20.00     0.011 C 
HETATM   10  C8  UNL     1     -34.185  16.372  -6.618  1.00 20.00    -0.017 C 
HETATM   11  C6  UNL     1     -33.662  16.117  -5.195  1.00 20.00     0.017 C 
HETATM   12  C10 UNL     1     -35.425  17.268  -6.623  1.00 20.00     0.010 C 
ENDBRANCH   4   5
ENDBRANCH   2   4
TORSDOF 2
ENDMDL
MODEL 2
REMARK VINA RESULT:      -5.2      1.775      2.263
REMARK  2 active torsions:
REMARK  status: ('A' for Active; 'I' for Inactive)
REMARK    1  A    between atoms: C2_2  and  C11_11 
REMARK    2  A    between atoms: C7_7  and  C11_11 
ROOT
HETATM    1  C1  UNL     1     -34.787  17.148   0.006  1.00 20.00    -0.111 C 
HETATM    2  C2  UNL     1     -34.310  16.783  -1.034  1.00 20.00    -0.106 C 
HETATM    3  C9  UNL     1     -35.368  17.594   1.271  1.00 20.00     0.112 C 
ENDROOT
BRANCH   2   4
HETATM    4  C11 UNL     1     -33.721  16.332  -2.298  1.00 20.00     0.106 C 
BRANCH   4   5
HETATM    5  C7  UNL     1     -34.666  15.388  -3.037  1.00 20.00     0.067 C 
HETATM    6  C3  UNL     1     -33.901  14.289  -3.769  1.00 20.00     0.132 C 
HETATM    7  C4  UNL     1     -34.724  13.381  -4.657  1.00 20.00     0.079 C 
HETATM    8  O12 UNL     1     -32.703  14.078  -3.587  1.00 20.00    -0.298 OA
HETATM    9  C5  UNL     1     -35.587  14.199  -5.609  1.00 20.00     0.011 C 
HETATM   10  C8  UNL     1     -36.430  15.265  -4.897  1.00 20.00    -0.017 C 
HETATM   11  C6  UNL     1     -35.530  16.166  -4.036  1.00 20.00     0.017 C 
HETATM   12  C10 UNL     1     -37.570  14.647  -4.086  1.00 20.00     0.010 C 
ENDBRANCH   4   5
ENDBRANCH   2   4
TORSDOF 2
ENDMDL
MODEL 3
REMARK VINA RESULT:      -5.0     11.271     13.105
REMARK  2 active torsions:
REMARK  status: ('A' for Active; 'I' for Inactive)
REMARK    1  A    between atoms: C2_2  and  C11_11 
REMARK    2  A    between atoms: C7_7  and  C11_11 
ROOT
HETATM    1  C1  UNL     1     -32.128   8.498   1.602  1.00 20.00    -0.111 C 
HETATM    2  C2  UNL     1     -32.083   7.989   2.689  1.00 20.00    -0.106 C 
HETATM    3  C9  UNL     1     -32.182   9.116   0.279  1.00 20.00     0.112 C 
ENDROOT
BRANCH   2   4
HETATM    4  C11 UNL     1     -32.028   7.377   4.020  1.00 20.00     0.106 C 
BRANCH   4   5
HETATM    5  C7  UNL     1     -33.382   6.789   4.409  1.00 20.00     0.067 C 
HETATM    6  C3  UNL     1     -33.518   6.649   5.922  1.00 20.00     0.132 C 
HETATM    7  C4  UNL     1     -34.760   5.941   6.417  1.00 20.00     0.079 C 
HETATM    8  O12 UNL     1     -32.725   7.160   6.711  1.00 20.00    -0.298 OA
HETATM    9  C5  UNL     1     -34.934   4.604   5.710  1.00 20.00     0.011 C 
HETATM   10  C8  UNL     1     -34.880   4.717   4.180  1.00 20.00    -0.017 C 
HETATM   11  C6  UNL     1     -33.584   5.422   3.745  1.00 20.00     0.017 C 
HETATM   12  C10 UNL     1     -36.125   5.401   3.611  1.00 20.00     0.010 C 
ENDBRANCH   4   5
ENDBRANCH   2   4
TORSDOF 2
ENDMDL
MODEL 4
REMARK VINA RESULT:      -4.9      2.378      3.623
REMARK  2 active torsions:
REMARK  status: ('A' for Active; 'I' for Inactive)
REMARK    1  A    between atoms: C2_2  and  C11_11 
REMARK    2  A    between atoms: C7_7  and  C11_11 
ROOT
HETATM    1  C1  UNL     1     -32.838  18.427   0.187  1.00 20.00    -0.111 C 
HETATM    2  C2  UNL     1     -33.666  17.817  -0.434  1.00 20.00    -0.106 C 
HETATM    3  C9  UNL     1     -31.831  19.170   0.942  1.00 20.00     0.112 C 
ENDROOT
BRANCH   2   4
HETATM    4  C11 UNL     1     -34.672  17.064  -1.188  1.00 20.00     0.106 C 
BRANCH   4   5
HETATM    5  C7  UNL     1     -34.032  16.301  -2.345  1.00 20.00     0.067 C 
HETATM    6  C3  UNL     1     -33.758  17.215  -3.535  1.00 20.00     0.132 C 
HETATM    7  C4  UNL     1     -33.261  16.539  -4.794  1.00 20.00     0.079 C 
HETATM    8  O12 UNL     1     -33.839  18.441  -3.466  1.00 20.00    -0.298 OA
HETATM    9  C5  UNL     1     -34.166  15.375  -5.174  1.00 20.00     0.011 C 
HETATM   10  C8  UNL     1     -34.402  14.391  -4.019  1.00 20.00    -0.017 C 
HETATM   11  C6  UNL     1     -34.930  15.139  -2.784  1.00 20.00     0.017 C 
HETATM   12  C10 UNL     1     -33.152  13.569  -3.703  1.00 20.00     0.010 C 
ENDBRANCH   4   5
ENDBRANCH   2   4
TORSDOF 2
ENDMDL
MODEL 5
REMARK VINA RESULT:      -4.8      1.341      1.386
REMARK  2 active torsions:
REMARK  status: ('A' for Active; 'I' for Inactive)
REMARK    1  A    between atoms: C2_2  and  C11_11 
REMARK    2  A    between atoms: C7_7  and  C11_11 
ROOT
HETATM    1  C1  UNL     1     -34.672  16.633  -1.075  1.00 20.00    -0.111 C 
HETATM    2  C2  UNL     1     -34.597  15.852  -1.985  1.00 20.00    -0.106 C 
HETATM    3  C9  UNL     1     -34.763  17.583   0.031  1.00 20.00     0.112 C 
ENDROOT
BRANCH   2   4
HETATM    4  C11 UNL     1     -34.510  14.892  -3.089  1.00 20.00     0.106 C 
BRANCH   4   5
HETATM    5  C7  UNL     1     -35.126  15.464  -4.363  1.00 20.00     0.067 C 
HETATM    6  C3  UNL     1     -36.495  14.852  -4.647  1.00 20.00     0.132 C 
HETATM    7  C4  UNL     1     -37.136  15.234  -5.963  1.00 20.00     0.079 C 
HETATM    8  O12 UNL     1     -37.099  14.162  -3.827  1.00 20.00    -0.298 OA
HETATM    9  C5  UNL     1     -36.168  15.012  -7.118  1.00 20.00     0.011 C 
HETATM   10  C8  UNL     1     -34.803  15.681  -6.900  1.00 20.00    -0.017 C 
HETATM   11  C6  UNL     1     -34.199  15.230  -5.560  1.00 20.00     0.017 C 
HETATM   12  C10 UNL     1     -34.889  17.205  -7.008  1.00 20.00     0.010 C 
ENDBRANCH   4   5
ENDBRANCH   2   4
TORSDOF 2
ENDMDL
MODEL 6
REMARK VINA RESULT:      -4.6      1.941      2.615
REMARK  2 active torsions:
REMARK  status: ('A' for Active; 'I' for Inactive)
REMARK    1  A    between atoms: C2_2  and  C11_11 
REMARK    2  A    between atoms: C7_7  and  C11_11 
ROOT
HETATM    1  C1  UNL     1     -34.796  17.188   0.078  1.00 20.00    -0.111 C 
HETATM    2  C2  UNL     1     -34.244  16.933  -0.958  1.00 20.00    -0.106 C 
HETATM    3  C9  UNL     1     -35.468  17.499   1.338  1.00 20.00     0.112 C 
ENDROOT
BRANCH   2   4
HETATM    4  C11 UNL     1     -33.568  16.631  -2.223  1.00 20.00     0.106 C 
BRANCH   4   5
HETATM    5  C7  UNL     1     -34.517  15.945  -3.202  1.00 20.00     0.067 C 
HETATM    6  C3  UNL     1     -33.936  15.909  -4.612  1.00 20.00     0.132 C 
HETATM    7  C4  UNL     1     -34.851  15.384  -5.697  1.00 20.00     0.079 C 
HETATM    8  O12 UNL     1     -32.764  16.194  -4.857  1.00 20.00    -0.298 OA
HETATM    9  C5  UNL     1     -36.195  16.099  -5.659  1.00 20.00     0.011 C 
HETATM   10  C8  UNL     1     -36.846  16.088  -4.269  1.00 20.00    -0.017 C 
HETATM   11  C6  UNL     1     -35.874  16.657  -3.223  1.00 20.00     0.017 C 
HETATM   12  C10 UNL     1     -37.356  14.698  -3.886  1.00 20.00     0.010 C 
ENDBRANCH   4   5
ENDBRANCH   2   4
TORSDOF 2
ENDMDL
MODEL 7
REMARK VINA RESULT:      -4.5      1.637      2.404
REMARK  2 active torsions:
REMARK  status: ('A' for Active; 'I' for Inactive)
REMARK    1  A    between atoms: C2_2  and  C11_11 
REMARK    2  A    between atoms: C7_7  and  C11_11 
ROOT
HETATM    1  C1  UNL     1     -34.486  15.876  -2.050  1.00 20.00    -0.111 C 
HETATM    2  C2  UNL     1     -34.263  15.150  -2.981  1.00 20.00    -0.106 C 
HETATM    3  C9  UNL     1     -34.756  16.759  -0.917  1.00 20.00     0.112 C 
ENDROOT
BRANCH   2   4
HETATM    4  C11 UNL     1     -34.001  14.260  -4.115  1.00 20.00     0.106 C 
BRANCH   4   5
HETATM    5  C7  UNL     1     -34.541  14.853  -5.414  1.00 20.00     0.067 C 
HETATM    6  C3  UNL     1     -33.839  16.161  -5.767  1.00 20.00     0.132 C 
HETATM    7  C4  UNL     1     -34.393  16.916  -6.956  1.00 20.00     0.079 C 
HETATM    8  O12 UNL     1     -32.823  16.548  -5.191  1.00 20.00    -0.298 OA
HETATM    9  C5  UNL     1     -35.898  17.102  -6.821  1.00 20.00     0.011 C 
HETATM   10  C8  UNL     1     -36.647  15.792  -6.541  1.00 20.00    -0.017 C 
HETATM   11  C6  UNL     1     -36.051  15.092  -5.309  1.00 20.00     0.017 C 
HETATM   12  C10 UNL     1     -36.675  14.875  -7.766  1.00 20.00     0.010 C 
ENDBRANCH   4   5
ENDBRANCH   2   4
TORSDOF 2
ENDMDL
MODEL 8
REMARK VINA RESULT:      -4.4     11.016     12.740
REMARK  2 active torsions:
REMARK  status: ('A' for Active; 'I' for Inactive)
REMARK    1  A    between atoms: C2_2  and  C11_11 
REMARK    2  A    between atoms: C7_7  and  C11_11 
ROOT
HETATM    1  C1  UNL     1     -42.096   8.795  -5.118  1.00 20.00    -0.111 C 
HETATM    2  C2  UNL     1     -42.688   8.237  -4.234  1.00 20.00    -0.106 C 
HETATM    3  C9  UNL     1     -41.374   9.473  -6.193  1.00 20.00     0.112 C 
ENDROOT
BRANCH   2   4
HETATM    4  C11 UNL     1     -43.417   7.565  -3.156  1.00 20.00     0.106 C 
BRANCH   4   5
HETATM    5  C7  UNL     1     -42.494   6.648  -2.358  1.00 20.00     0.067 C 
HETATM    6  C3  UNL     1     -42.707   5.182  -2.723  1.00 20.00     0.132 C 
HETATM    7  C4  UNL     1     -41.951   4.170  -1.890  1.00 20.00     0.079 C 
HETATM    8  O12 UNL     1     -43.375   4.828  -3.693  1.00 20.00    -0.298 OA
HETATM    9  C5  UNL     1     -42.176   4.421  -0.404  1.00 20.00     0.011 C 
HETATM   10  C8  UNL     1     -41.895   5.871   0.014  1.00 20.00    -0.017 C 
HETATM   11  C6  UNL     1     -42.714   6.841  -0.853  1.00 20.00     0.017 C 
HETATM   12  C10 UNL     1     -40.401   6.196  -0.012  1.00 20.00     0.010 C 
ENDBRANCH   4   5
ENDBRANCH   2   4
TORSDOF 2
ENDMDL
MODEL 9
REMARK VINA RESULT:      -4.4      2.272      3.058
REMARK  2 active torsions:
REMARK  status: ('A' for Active; 'I' for Inactive)
REMARK    1  A    between atoms: C2_2  and  C11_11 
REMARK    2  A    between atoms: C7_7  and  C11_11 
ROOT
HETATM    1  C1  UNL     1     -34.620  17.380  -0.499  1.00 20.00    -0.111 C 
HETATM    2  C2  UNL     1     -34.195  17.375  -1.623  1.00 20.00    -0.106 C 
HETATM    3  C9  UNL     1     -35.136  17.385   0.868  1.00 20.00     0.112 C 
ENDROOT
BRANCH   2   4
HETATM    4  C11 UNL     1     -33.685  17.375  -2.996  1.00 20.00     0.106 C 
BRANCH   4   5
HETATM    5  C7  UNL     1     -34.371  16.300  -3.836  1.00 20.00     0.067 C 
HETATM    6  C3  UNL     1     -35.763  16.739  -4.280  1.00 20.00     0.132 C 
HETATM    7  C4  UNL     1     -36.595  15.696  -4.993  1.00 20.00     0.079 C 
HETATM    8  O12 UNL     1     -36.167  17.895  -4.159  1.00 20.00    -0.298 OA
HETATM    9  C5  UNL     1     -36.640  14.403  -4.191  1.00 20.00     0.011 C 
HETATM   10  C8  UNL     1     -35.249  13.889  -3.792  1.00 20.00    -0.017 C 
HETATM   11  C6  UNL     1     -34.470  14.988  -3.050  1.00 20.00     0.017 C 
HETATM   12  C10 UNL     1     -34.473  13.345  -4.993  1.00 20.00     0.010 C 
ENDBRANCH   4   5
ENDBRANCH   2   4
TORSDOF 2
ENDMDL
