MODEL 1
REMARK VINA RESULT:      -5.4      0.000      0.000
REMARK  4 active torsions:
REMARK  status: ('A' for Active; 'I' for Inactive)
REMARK    1  A    between atoms: C2_2  and  C7_7 
REMARK    2  A    between atoms: C5_5  and  C8_8 
REMARK    3  A    between atoms: C7_7  and  C8_8 
REMARK    4  A    between atoms: C8_8  and  O9_9 
ROOT
HETATM    1  C1  UNL     1     -32.258   8.407   1.900  1.00 20.00    -0.111 C 
HETATM    2  C2  UNL     1     -32.321   7.438   2.606  1.00 20.00    -0.104 C 
HETATM    3  C6  UNL     1     -32.181   9.588   1.040  1.00 20.00     0.112 C 
ENDROOT
BRANCH   2   4
HETATM    4  C7  UNL     1     -32.397   6.250   3.472  1.00 20.00     0.126 C 
BRANCH   4   5
HETATM    5  C8  UNL     1     -33.825   6.015   3.971  1.00 20.00     0.133 C 
BRANCH   5   6
HETATM    6  C5  UNL     1     -33.832   5.196   5.255  1.00 20.00     0.015 A 
HETATM    7  C3  UNL     1     -34.700   5.607   6.412  1.00 20.00     0.007 A 
HETATM    8  C4  UNL     1     -35.035   4.373   5.622  1.00 20.00     0.007 A 
ENDBRANCH   5   6
BRANCH   5   9
HETATM    9  O9  UNL     1     -34.549   5.299   2.971  1.00 20.00    -0.394 OA
HETATM   10  H21 UNL     1     -35.125   5.944   2.535  1.00 20.00     0.210 HD
ENDBRANCH   5   9
ENDBRANCH   4   5
ENDBRANCH   2   4
TORSDOF 4
ENDMDL
MODEL 2
REMARK VINA RESULT:      -4.4     10.772     12.098
REMARK  4 active torsions:
REMARK  status: ('A' for Active; 'I' for Inactive)
REMARK    1  A    between atoms: C2_2  and  C7_7 
REMARK    2  A    between atoms: C5_5  and  C8_8 
REMARK    3  A    between atoms: C7_7  and  C8_8 
REMARK    4  A    between atoms: C8_8  and  O9_9 
ROOT
HETATM    1  C1  UNL     1     -34.438  15.797  -2.323  1.00 20.00    -0.111 C 
HETATM    2  C2  UNL     1     -33.970  14.922  -2.998  1.00 20.00    -0.104 C 
HETATM    3  C6  UNL     1     -35.010  16.864  -1.502  1.00 20.00     0.112 C 
ENDROOT
BRANCH   2   4
HETATM    4  C7  UNL     1     -33.394  13.847  -3.823  1.00 20.00     0.126 C 
BRANCH   4   5
HETATM    5  C8  UNL     1     -34.392  13.359  -4.876  1.00 20.00     0.133 C 
BRANCH   5   6
HETATM    6  C5  UNL     1     -35.022  14.528  -5.621  1.00 20.00     0.015 A 
HETATM    7  C3  UNL     1     -34.303  15.166  -6.778  1.00 20.00     0.007 A 
HETATM    8  C4  UNL     1     -35.537  14.344  -7.021  1.00 20.00     0.007 A 
ENDBRANCH   5   6
BRANCH   5   9
HETATM    9  O9  UNL     1     -35.427  12.626  -4.222  1.00 20.00    -0.394 OA
HETATM   10  H21 UNL     1     -35.963  13.276  -3.744  1.00 20.00     0.210 HD
ENDBRANCH   5   9
ENDBRANCH   4   5
ENDBRANCH   2   4
TORSDOF 4
ENDMDL
MODEL 3
REMARK VINA RESULT:      -4.2     11.238     12.301
REMARK  4 active torsions:
REMARK  status: ('A' for Active; 'I' for Inactive)
REMARK    1  A    between atoms: C2_2  and  C7_7 
REMARK    2  A    between atoms: C5_5  and  C8_8 
REMARK    3  A    between atoms: C7_7  and  C8_8 
REMARK    4  A    between atoms: C8_8  and  O9_9 
ROOT
HETATM    1  C1  UNL     1     -35.062  14.304  -6.495  1.00 20.00    -0.111 C 
HETATM    2  C2  UNL     1     -34.531  14.045  -5.450  1.00 20.00    -0.104 C 
HETATM    3  C6  UNL     1     -35.709  14.618  -7.769  1.00 20.00     0.112 C 
ENDROOT
BRANCH   2   4
HETATM    4  C7  UNL     1     -33.880  13.729  -4.168  1.00 20.00     0.126 C 
BRANCH   4   5
HETATM    5  C8  UNL     1     -33.233  14.972  -3.552  1.00 20.00     0.133 C 
BRANCH   5   6
HETATM    6  C5  UNL     1     -34.287  15.974  -3.098  1.00 20.00     0.015 A 
HETATM    7  C3  UNL     1     -34.482  16.260  -1.634  1.00 20.00     0.007 A 
HETATM    8  C4  UNL     1     -33.874  17.303  -2.530  1.00 20.00     0.007 A 
ENDBRANCH   5   6
BRANCH   5   9
HETATM    9  O9  UNL     1     -32.408  15.595  -4.535  1.00 20.00    -0.394 OA
HETATM   10  H21 UNL     1     -32.568  16.548  -4.464  1.00 20.00     0.210 HD
ENDBRANCH   5   9
ENDBRANCH   4   5
ENDBRANCH   2   4
TORSDOF 4
ENDMDL
MODEL 4
REMARK VINA RESULT:      -4.2     11.473     12.771
REMARK  4 active torsions:
REMARK  status: ('A' for Active; 'I' for Inactive)
REMARK    1  A    between atoms: C2_2  and  C7_7 
REMARK    2  A    between atoms: C5_5  and  C8_8 
REMARK    3  A    between atoms: C7_7  and  C8_8 
REMARK    4  A    between atoms: C8_8  and  O9_9 
ROOT
HETATM    1  C1  UNL     1     -34.555  16.506  -1.308  1.00 20.00    -0.111 C 
HETATM    2  C2  UNL     1     -34.312  15.756  -2.214  1.00 20.00    -0.104 C 
HETATM    3  C6  UNL     1     -34.852  17.417  -0.203  1.00 20.00     0.112 C 
ENDROOT
BRANCH   2   4
HETATM    4  C7  UNL     1     -34.013  14.839  -3.326  1.00 20.00     0.126 C 
BRANCH   4   5
HETATM    5  C8  UNL     1     -34.031  15.571  -4.671  1.00 20.00     0.133 C 
BRANCH   5   6
HETATM    6  C5  UNL     1     -34.474  14.644  -5.796  1.00 20.00     0.015 A 
HETATM    7  C3  UNL     1     -35.695  14.971  -6.610  1.00 20.00     0.007 A 
HETATM    8  C4  UNL     1     -34.329  15.070  -7.229  1.00 20.00     0.007 A 
ENDBRANCH   5   6
BRANCH   5   9
HETATM    9  O9  UNL     1     -32.713  16.036  -4.959  1.00 20.00    -0.394 OA
HETATM   10  H21 UNL     1     -32.108  15.482  -4.442  1.00 20.00     0.210 HD
ENDBRANCH   5   9
ENDBRANCH   4   5
ENDBRANCH   2   4
TORSDOF 4
ENDMDL
MODEL 5
REMARK VINA RESULT:      -4.1     10.784     11.582
REMARK  4 active torsions:
REMARK  status: ('A' for Active; 'I' for Inactive)
REMARK    1  A    between atoms: C2_2  and  C7_7 
REMARK    2  A    between atoms: C5_5  and  C8_8 
REMARK    3  A    between atoms: C7_7  and  C8_8 
REMARK    4  A    between atoms: C8_8  and  O9_9 
ROOT
HETATM    1  C1  UNL     1     -34.933  17.264   0.418  1.00 20.00    -0.111 C 
HETATM    2  C2  UNL     1     -34.575  16.918  -0.674  1.00 20.00    -0.104 C 
HETATM    3  C6  UNL     1     -35.370  17.683   1.750  1.00 20.00     0.112 C 
ENDROOT
BRANCH   2   4
HETATM    4  C7  UNL     1     -34.135  16.496  -2.014  1.00 20.00     0.126 C 
BRANCH   4   5
HETATM    5  C8  UNL     1     -34.916  15.271  -2.497  1.00 20.00     0.133 C 
BRANCH   5   6
HETATM    6  C5  UNL     1     -34.375  14.762  -3.827  1.00 20.00     0.015 A 
HETATM    7  C3  UNL     1     -33.555  13.503  -3.879  1.00 20.00     0.007 A 
HETATM    8  C4  UNL     1     -34.946  13.519  -4.450  1.00 20.00     0.007 A 
ENDBRANCH   5   6
BRANCH   5   9
HETATM    9  O9  UNL     1     -36.284  15.639  -2.673  1.00 20.00    -0.394 OA
HETATM   10  H21 UNL     1     -36.537  15.334  -3.558  1.00 20.00     0.210 HD
ENDBRANCH   5   9
ENDBRANCH   4   5
ENDBRANCH   2   4
TORSDOF 4
ENDMDL
MODEL 6
REMARK VINA RESULT:      -4.1      1.511      5.104
REMARK  4 active torsions:
REMARK  status: ('A' for Active; 'I' for Inactive)
REMARK    1  A    between atoms: C2_2  and  C7_7 
REMARK    2  A    between atoms: C5_5  and  C8_8 
REMARK    3  A    between atoms: C7_7  and  C8_8 
REMARK    4  A    between atoms: C8_8  and  O9_9 
ROOT
HETATM    1  C1  UNL     1     -34.362   5.375   5.144  1.00 20.00    -0.111 C 
HETATM    2  C2  UNL     1     -33.750   5.707   4.165  1.00 20.00    -0.104 C 
HETATM    3  C6  UNL     1     -35.108   4.972   6.336  1.00 20.00     0.112 C 
ENDROOT
BRANCH   2   4
HETATM    4  C7  UNL     1     -33.000   6.111   2.965  1.00 20.00     0.126 C 
BRANCH   4   5
HETATM    5  C8  UNL     1     -32.561   7.575   3.050  1.00 20.00     0.133 C 
BRANCH   5   6
HETATM    6  C5  UNL     1     -32.655   8.258   1.692  1.00 20.00     0.015 A 
HETATM    7  C3  UNL     1     -32.528   9.752   1.584  1.00 20.00     0.007 A 
HETATM    8  C4  UNL     1     -31.432   8.865   1.064  1.00 20.00     0.007 A 
ENDBRANCH   5   6
BRANCH   5   9
HETATM    9  O9  UNL     1     -31.205   7.623   3.490  1.00 20.00    -0.394 OA
HETATM   10  H21 UNL     1     -30.896   6.705   3.524  1.00 20.00     0.210 HD
ENDBRANCH   5   9
ENDBRANCH   4   5
ENDBRANCH   2   4
TORSDOF 4
ENDMDL
MODEL 7
REMARK VINA RESULT:      -3.9     10.750     12.155
REMARK  4 active torsions:
REMARK  status: ('A' for Active; 'I' for Inactive)
REMARK    1  A    between atoms: C2_2  and  C7_7 
REMARK    2  A    between atoms: C5_5  and  C8_8 
REMARK    3  A    between atoms: C7_7  and  C8_8 
REMARK    4  A    between atoms: C8_8  and  O9_9 
ROOT
HETATM    1  C1  UNL     1     -34.312  17.181  -1.466  1.00 20.00    -0.111 C 
HETATM    2  C2  UNL     1     -34.018  17.198  -2.630  1.00 20.00    -0.104 C 
HETATM    3  C6  UNL     1     -34.671  17.159  -0.048  1.00 20.00     0.112 C 
ENDROOT
BRANCH   2   4
HETATM    4  C7  UNL     1     -33.656  17.220  -4.056  1.00 20.00     0.126 C 
BRANCH   4   5
HETATM    5  C8  UNL     1     -33.490  15.802  -4.610  1.00 20.00     0.133 C 
BRANCH   5   6
HETATM    6  C5  UNL     1     -34.458  14.834  -3.942  1.00 20.00     0.015 A 
HETATM    7  C3  UNL     1     -35.107  13.738  -4.742  1.00 20.00     0.007 A 
HETATM    8  C4  UNL     1     -34.061  13.402  -3.715  1.00 20.00     0.007 A 
ENDBRANCH   5   6
BRANCH   5   9
HETATM    9  O9  UNL     1     -32.158  15.361  -4.353  1.00 20.00    -0.394 OA
HETATM   10  H21 UNL     1     -31.810  15.934  -3.652  1.00 20.00     0.210 HD
ENDBRANCH   5   9
ENDBRANCH   4   5
ENDBRANCH   2   4
TORSDOF 4
ENDMDL
MODEL 8
REMARK VINA RESULT:      -3.8     11.366     11.840
REMARK  4 active torsions:
REMARK  status: ('A' for Active; 'I' for Inactive)
REMARK    1  A    between atoms: C2_2  and  C7_7 
REMARK    2  A    between atoms: C5_5  and  C8_8 
REMARK    3  A    between atoms: C7_7  and  C8_8 
REMARK    4  A    between atoms: C8_8  and  O9_9 
ROOT
HETATM    1  C1  UNL     1     -34.291  16.552  -1.384  1.00 20.00    -0.111 C 
HETATM    2  C2  UNL     1     -33.814  16.036  -2.357  1.00 20.00    -0.104 C 
HETATM    3  C6  UNL     1     -34.870  17.180  -0.197  1.00 20.00     0.112 C 
ENDROOT
BRANCH   2   4
HETATM    4  C7  UNL     1     -33.230  15.405  -3.552  1.00 20.00     0.126 C 
BRANCH   4   5
HETATM    5  C8  UNL     1     -34.259  14.538  -4.283  1.00 20.00     0.133 C 
BRANCH   5   6
HETATM    6  C5  UNL     1     -35.602  15.250  -4.391  1.00 20.00     0.015 A 
HETATM    7  C3  UNL     1     -36.534  14.941  -5.529  1.00 20.00     0.007 A 
HETATM    8  C4  UNL     1     -36.878  14.500  -4.134  1.00 20.00     0.007 A 
ENDBRANCH   5   6
BRANCH   5   9
HETATM    9  O9  UNL     1     -34.444  13.328  -3.549  1.00 20.00    -0.394 OA
HETATM   10  H21 UNL     1     -35.065  12.789  -4.061  1.00 20.00     0.210 HD
ENDBRANCH   5   9
ENDBRANCH   4   5
ENDBRANCH   2   4
TORSDOF 4
ENDMDL
MODEL 9
REMARK VINA RESULT:      -3.8     11.243     12.074
REMARK  4 active torsions:
REMARK  status: ('A' for Active; 'I' for Inactive)
REMARK    1  A    between atoms: C2_2  and  C7_7 
REMARK    2  A    between atoms: C5_5  and  C8_8 
REMARK    3  A    between atoms: C7_7  and  C8_8 
REMARK    4  A    between atoms: C8_8  and  O9_9 
ROOT
HETATM    1  C1  UNL     1     -36.672  14.461  -4.043  1.00 20.00    -0.111 C 
HETATM    2  C2  UNL     1     -35.492  14.249  -3.974  1.00 20.00    -0.104 C 
HETATM    3  C6  UNL     1     -38.110  14.716  -4.125  1.00 20.00     0.112 C 
ENDROOT
BRANCH   2   4
HETATM    4  C7  UNL     1     -34.045  13.993  -3.890  1.00 20.00     0.126 C 
BRANCH   4   5
HETATM    5  C8  UNL     1     -33.287  15.233  -3.409  1.00 20.00     0.133 C 
BRANCH   5   6
HETATM    6  C5  UNL     1     -34.242  16.279  -2.850  1.00 20.00     0.015 A 
HETATM    7  C3  UNL     1     -34.324  16.516  -1.367  1.00 20.00     0.007 A 
HETATM    8  C4  UNL     1     -33.707  17.554  -2.261  1.00 20.00     0.007 A 
ENDBRANCH   5   6
BRANCH   5   9
HETATM    9  O9  UNL     1     -32.588  15.801  -4.515  1.00 20.00    -0.394 OA
HETATM   10  H21 UNL     1     -32.783  15.239  -5.280  1.00 20.00     0.210 HD
ENDBRANCH   5   9
ENDBRANCH   4   5
ENDBRANCH   2   4
TORSDOF 4
ENDMDL
