MODEL 1
REMARK VINA RESULT:      -4.9      0.000      0.000
REMARK  3 active torsions:
REMARK  status: ('A' for Active; 'I' for Inactive)
REMARK    1  A    between atoms: C2_2  and  C11_11 
REMARK    2  A    between atoms: C7_7  and  C11_11 
REMARK    3  A    between atoms: C8_8  and  C12_12 
ROOT
HETATM    1  C1  UNL     1     -34.312  14.692  -3.225  1.00 20.00    -0.111 C 
HETATM    2  C2  UNL     1     -34.729  15.630  -2.601  1.00 20.00    -0.106 C 
HETATM    3  C9  UNL     1     -33.805  13.552  -3.985  1.00 20.00     0.112 C 
ENDROOT
BRANCH   2   4
HETATM    4  C11 UNL     1     -35.247  16.770  -1.838  1.00 20.00     0.106 C 
BRANCH   4   5
HETATM    5  C7  UNL     1     -34.319  17.122  -0.680  1.00 20.00     0.067 C 
HETATM    6  C3  UNL     1     -33.395  18.285  -1.030  1.00 20.00     0.132 C 
HETATM    7  C4  UNL     1     -32.521  18.796   0.093  1.00 20.00     0.079 C 
HETATM    8  O13 UNL     1     -33.287  18.731  -2.171  1.00 20.00    -0.298 OA
HETATM    9  C5  UNL     1     -33.358  19.100   1.328  1.00 20.00     0.012 C 
HETATM   10  C8  UNL     1     -34.219  17.897   1.739  1.00 20.00    -0.014 C 
HETATM   11  C6  UNL     1     -35.126  17.469   0.575  1.00 20.00     0.017 C 
BRANCH  10  12
HETATM   12  C12 UNL     1     -35.052  18.231   2.976  1.00 20.00     0.000 C 
HETATM   13  C10 UNL     1     -34.213  18.271   4.211  1.00 20.00     0.005 C 
ENDBRANCH  10  12
ENDBRANCH   4   5
ENDBRANCH   2   4
TORSDOF 3
ENDMDL
MODEL 2
REMARK VINA RESULT:      -4.8      3.152      5.371
REMARK  3 active torsions:
REMARK  status: ('A' for Active; 'I' for Inactive)
REMARK    1  A    between atoms: C2_2  and  C11_11 
REMARK    2  A    between atoms: C7_7  and  C11_11 
REMARK    3  A    between atoms: C8_8  and  C12_12 
ROOT
HETATM    1  C1  UNL     1     -39.406  15.602  -3.145  1.00 20.00    -0.111 C 
HETATM    2  C2  UNL     1     -38.497  15.248  -3.845  1.00 20.00    -0.106 C 
HETATM    3  C9  UNL     1     -40.514  16.032  -2.293  1.00 20.00     0.112 C 
ENDROOT
BRANCH   2   4
HETATM    4  C11 UNL     1     -37.382  14.826  -4.699  1.00 20.00     0.106 C 
BRANCH   4   5
HETATM    5  C7  UNL     1     -36.130  14.555  -3.872  1.00 20.00     0.067 C 
HETATM    6  C3  UNL     1     -34.983  14.041  -4.736  1.00 20.00     0.132 C 
HETATM    7  C4  UNL     1     -33.654  13.861  -4.034  1.00 20.00     0.079 C 
HETATM    8  O13 UNL     1     -35.130  13.701  -5.909  1.00 20.00    -0.298 OA
HETATM    9  C5  UNL     1     -33.267  15.130  -3.289  1.00 20.00     0.012 C 
HETATM   10  C8  UNL     1     -34.384  15.598  -2.345  1.00 20.00    -0.014 C 
HETATM   11  C6  UNL     1     -35.686  15.821  -3.131  1.00 20.00     0.017 C 
BRANCH  10  12
HETATM   12  C12 UNL     1     -33.971  16.875  -1.616  1.00 20.00     0.000 C 
HETATM   13  C10 UNL     1     -34.688  17.024  -0.315  1.00 20.00     0.005 C 
ENDBRANCH  10  12
ENDBRANCH   4   5
ENDBRANCH   2   4
TORSDOF 3
ENDMDL
MODEL 3
REMARK VINA RESULT:      -4.8      2.772      4.693
REMARK  3 active torsions:
REMARK  status: ('A' for Active; 'I' for Inactive)
REMARK    1  A    between atoms: C2_2  and  C11_11 
REMARK    2  A    between atoms: C7_7  and  C11_11 
REMARK    3  A    between atoms: C8_8  and  C12_12 
ROOT
HETATM    1  C1  UNL     1     -37.955  14.843  -3.814  1.00 20.00    -0.111 C 
HETATM    2  C2  UNL     1     -36.878  14.342  -3.995  1.00 20.00    -0.106 C 
HETATM    3  C9  UNL     1     -39.265  15.452  -3.593  1.00 20.00     0.112 C 
ENDROOT
BRANCH   2   4
HETATM    4  C11 UNL     1     -35.568  13.723  -4.215  1.00 20.00     0.106 C 
BRANCH   4   5
HETATM    5  C7  UNL     1     -34.445  14.740  -4.041  1.00 20.00     0.067 C 
HETATM    6  C3  UNL     1     -34.307  15.643  -5.263  1.00 20.00     0.132 C 
HETATM    7  C4  UNL     1     -33.305  16.770  -5.143  1.00 20.00     0.079 C 
HETATM    8  O13 UNL     1     -34.897  15.429  -6.321  1.00 20.00    -0.298 OA
HETATM    9  C5  UNL     1     -33.556  17.577  -3.878  1.00 20.00     0.012 C 
HETATM   10  C8  UNL     1     -33.600  16.680  -2.632  1.00 20.00    -0.014 C 
HETATM   11  C6  UNL     1     -34.679  15.598  -2.793  1.00 20.00     0.017 C 
BRANCH  10  12
HETATM   12  C12 UNL     1     -33.859  17.516  -1.379  1.00 20.00     0.000 C 
HETATM   13  C10 UNL     1     -34.754  16.805  -0.419  1.00 20.00     0.005 C 
ENDBRANCH  10  12
ENDBRANCH   4   5
ENDBRANCH   2   4
TORSDOF 3
ENDMDL
MODEL 4
REMARK VINA RESULT:      -4.8      1.472      5.910
REMARK  3 active torsions:
REMARK  status: ('A' for Active; 'I' for Inactive)
REMARK    1  A    between atoms: C2_2  and  C11_11 
REMARK    2  A    between atoms: C7_7  and  C11_11 
REMARK    3  A    between atoms: C8_8  and  C12_12 
ROOT
HETATM    1  C1  UNL     1     -35.168  17.612   1.286  1.00 20.00    -0.111 C 
HETATM    2  C2  UNL     1     -34.721  17.384   0.195  1.00 20.00    -0.106 C 
HETATM    3  C9  UNL     1     -35.714  17.889   2.614  1.00 20.00     0.112 C 
ENDROOT
BRANCH   2   4
HETATM    4  C11 UNL     1     -34.171  17.116  -1.138  1.00 20.00     0.106 C 
BRANCH   4   5
HETATM    5  C7  UNL     1     -35.230  16.514  -2.056  1.00 20.00     0.067 C 
HETATM    6  C3  UNL     1     -35.710  17.519  -3.099  1.00 20.00     0.132 C 
HETATM    7  C4  UNL     1     -36.669  16.986  -4.140  1.00 20.00     0.079 C 
HETATM    8  O13 UNL     1     -35.419  18.713  -3.059  1.00 20.00    -0.298 OA
HETATM    9  C5  UNL     1     -36.108  15.729  -4.791  1.00 20.00     0.012 C 
HETATM   10  C8  UNL     1     -35.712  14.676  -3.746  1.00 20.00    -0.014 C 
HETATM   11  C6  UNL     1     -34.691  15.264  -2.759  1.00 20.00     0.017 C 
BRANCH  10  12
HETATM   12  C12 UNL     1     -35.147  13.431  -4.427  1.00 20.00     0.000 C 
HETATM   13  C10 UNL     1     -33.679  13.293  -4.193  1.00 20.00     0.005 C 
ENDBRANCH  10  12
ENDBRANCH   4   5
ENDBRANCH   2   4
TORSDOF 3
ENDMDL
MODEL 5
REMARK VINA RESULT:      -4.8      3.074      6.650
REMARK  3 active torsions:
REMARK  status: ('A' for Active; 'I' for Inactive)
REMARK    1  A    between atoms: C2_2  and  C11_11 
REMARK    2  A    between atoms: C7_7  and  C11_11 
REMARK    3  A    between atoms: C8_8  and  C12_12 
ROOT
HETATM    1  C1  UNL     1     -33.465  17.789  -0.720  1.00 20.00    -0.111 C 
HETATM    2  C2  UNL     1     -34.047  16.936  -1.333  1.00 20.00    -0.106 C 
HETATM    3  C9  UNL     1     -32.757  18.827   0.026  1.00 20.00     0.112 C 
ENDROOT
BRANCH   2   4
HETATM    4  C11 UNL     1     -34.752  15.896  -2.090  1.00 20.00     0.106 C 
BRANCH   4   5
HETATM    5  C7  UNL     1     -34.155  15.733  -3.483  1.00 20.00     0.067 C 
HETATM    6  C3  UNL     1     -34.888  14.665  -4.290  1.00 20.00     0.132 C 
HETATM    7  C4  UNL     1     -34.456  14.513  -5.732  1.00 20.00     0.079 C 
HETATM    8  O13 UNL     1     -35.716  13.904  -3.793  1.00 20.00    -0.298 OA
HETATM    9  C5  UNL     1     -34.473  15.859  -6.441  1.00 20.00     0.012 C 
HETATM   10  C8  UNL     1     -33.655  16.913  -5.680  1.00 20.00    -0.014 C 
HETATM   11  C6  UNL     1     -34.185  17.062  -4.245  1.00 20.00     0.017 C 
BRANCH  10  12
HETATM   12  C12 UNL     1     -33.695  18.253  -6.410  1.00 20.00     0.000 C 
HETATM   13  C10 UNL     1     -34.424  18.152  -7.709  1.00 20.00     0.005 C 
ENDBRANCH  10  12
ENDBRANCH   4   5
ENDBRANCH   2   4
TORSDOF 3
ENDMDL
MODEL 6
REMARK VINA RESULT:      -4.8      1.767      2.609
REMARK  3 active torsions:
REMARK  status: ('A' for Active; 'I' for Inactive)
REMARK    1  A    between atoms: C2_2  and  C11_11 
REMARK    2  A    between atoms: C7_7  and  C11_11 
REMARK    3  A    between atoms: C8_8  and  C12_12 
ROOT
HETATM    1  C1  UNL     1     -36.730  14.878  -3.721  1.00 20.00    -0.111 C 
HETATM    2  C2  UNL     1     -35.540  14.955  -3.576  1.00 20.00    -0.106 C 
HETATM    3  C9  UNL     1     -38.178  14.784  -3.898  1.00 20.00     0.112 C 
ENDROOT
BRANCH   2   4
HETATM    4  C11 UNL     1     -34.086  15.046  -3.408  1.00 20.00     0.106 C 
BRANCH   4   5
HETATM    5  C7  UNL     1     -33.711  16.227  -2.519  1.00 20.00     0.067 C 
HETATM    6  C3  UNL     1     -33.806  17.552  -3.270  1.00 20.00     0.132 C 
HETATM    7  C4  UNL     1     -33.577  18.798  -2.444  1.00 20.00     0.079 C 
HETATM    8  O13 UNL     1     -33.968  17.619  -4.487  1.00 20.00    -0.298 OA
HETATM    9  C5  UNL     1     -34.463  18.792  -1.207  1.00 20.00     0.012 C 
HETATM   10  C8  UNL     1     -34.298  17.498  -0.397  1.00 20.00    -0.014 C 
HETATM   11  C6  UNL     1     -34.606  16.276  -1.276  1.00 20.00     0.017 C 
BRANCH  10  12
HETATM   12  C12 UNL     1     -35.203  17.517   0.834  1.00 20.00     0.000 C 
HETATM   13  C10 UNL     1     -34.603  18.309   1.948  1.00 20.00     0.005 C 
ENDBRANCH  10  12
ENDBRANCH   4   5
ENDBRANCH   2   4
TORSDOF 3
ENDMDL
MODEL 7
REMARK VINA RESULT:      -4.8      2.561      5.941
REMARK  3 active torsions:
REMARK  status: ('A' for Active; 'I' for Inactive)
REMARK    1  A    between atoms: C2_2  and  C11_11 
REMARK    2  A    between atoms: C7_7  and  C11_11 
REMARK    3  A    between atoms: C8_8  and  C12_12 
ROOT
HETATM    1  C1  UNL     1     -34.822  17.226   0.149  1.00 20.00    -0.111 C 
HETATM    2  C2  UNL     1     -34.313  16.912  -0.893  1.00 20.00    -0.106 C 
HETATM    3  C9  UNL     1     -35.441  17.608   1.417  1.00 20.00     0.112 C 
ENDROOT
BRANCH   2   4
HETATM    4  C11 UNL     1     -33.699  16.523  -2.167  1.00 20.00     0.106 C 
BRANCH   4   5
HETATM    5  C7  UNL     1     -34.702  16.624  -3.312  1.00 20.00     0.067 C 
HETATM    6  C3  UNL     1     -34.039  16.385  -4.665  1.00 20.00     0.132 C 
HETATM    7  C4  UNL     1     -34.969  16.338  -5.858  1.00 20.00     0.079 C 
HETATM    8  O13 UNL     1     -32.820  16.323  -4.809  1.00 20.00    -0.298 OA
HETATM    9  C5  UNL     1     -36.106  15.358  -5.611  1.00 20.00     0.012 C 
HETATM   10  C8  UNL     1     -36.837  15.655  -4.294  1.00 20.00    -0.014 C 
HETATM   11  C6  UNL     1     -35.848  15.626  -3.118  1.00 20.00     0.017 C 
BRANCH  10  12
HETATM   12  C12 UNL     1     -37.969  14.653  -4.070  1.00 20.00     0.000 C 
HETATM   13  C10 UNL     1     -39.198  15.318  -3.544  1.00 20.00     0.005 C 
ENDBRANCH  10  12
ENDBRANCH   4   5
ENDBRANCH   2   4
TORSDOF 3
ENDMDL
MODEL 8
REMARK VINA RESULT:      -4.7      3.346      6.965
REMARK  3 active torsions:
REMARK  status: ('A' for Active; 'I' for Inactive)
REMARK    1  A    between atoms: C2_2  and  C11_11 
REMARK    2  A    between atoms: C7_7  and  C11_11 
REMARK    3  A    between atoms: C8_8  and  C12_12 
ROOT
HETATM    1  C1  UNL     1     -34.678  16.599  -0.933  1.00 20.00    -0.111 C 
HETATM    2  C2  UNL     1     -34.654  15.932  -1.932  1.00 20.00    -0.106 C 
HETATM    3  C9  UNL     1     -34.706  17.411   0.282  1.00 20.00     0.112 C 
ENDROOT
BRANCH   2   4
HETATM    4  C11 UNL     1     -34.619  15.111  -3.146  1.00 20.00     0.106 C 
BRANCH   4   5
HETATM    5  C7  UNL     1     -35.036  15.923  -4.368  1.00 20.00     0.067 C 
HETATM    6  C3  UNL     1     -33.828  16.395  -5.172  1.00 20.00     0.132 C 
HETATM    7  C4  UNL     1     -34.134  17.102  -6.474  1.00 20.00     0.079 C 
HETATM    8  O13 UNL     1     -32.673  16.297  -4.760  1.00 20.00    -0.298 OA
HETATM    9  C5  UNL     1     -35.080  16.268  -7.326  1.00 20.00     0.012 C 
HETATM   10  C8  UNL     1     -36.344  15.872  -6.548  1.00 20.00    -0.014 C 
HETATM   11  C6  UNL     1     -35.964  15.104  -5.272  1.00 20.00     0.017 C 
BRANCH  10  12
HETATM   12  C12 UNL     1     -37.271  15.032  -7.425  1.00 20.00     0.000 C 
HETATM   13  C10 UNL     1     -38.708  15.292  -7.114  1.00 20.00     0.005 C 
ENDBRANCH  10  12
ENDBRANCH   4   5
ENDBRANCH   2   4
TORSDOF 3
ENDMDL
MODEL 9
REMARK VINA RESULT:      -4.6      3.394      6.802
REMARK  3 active torsions:
REMARK  status: ('A' for Active; 'I' for Inactive)
REMARK    1  A    between atoms: C2_2  and  C11_11 
REMARK    2  A    between atoms: C7_7  and  C11_11 
REMARK    3  A    between atoms: C8_8  and  C12_12 
ROOT
HETATM    1  C1  UNL     1     -34.454  16.189  -1.772  1.00 20.00    -0.111 C 
HETATM    2  C2  UNL     1     -34.424  15.274  -2.549  1.00 20.00    -0.106 C 
HETATM    3  C9  UNL     1     -34.490  17.303  -0.825  1.00 20.00     0.112 C 
ENDROOT
BRANCH   2   4
HETATM    4  C11 UNL     1     -34.397  14.157  -3.499  1.00 20.00     0.106 C 
BRANCH   4   5
HETATM    5  C7  UNL     1     -34.952  14.579  -4.855  1.00 20.00     0.067 C 
HETATM    6  C3  UNL     1     -36.476  14.642  -4.847  1.00 20.00     0.132 C 
HETATM    7  C4  UNL     1     -37.124  15.172  -6.107  1.00 20.00     0.079 C 
HETATM    8  O13 UNL     1     -37.157  14.208  -3.919  1.00 20.00    -0.298 OA
HETATM    9  C5  UNL     1     -36.511  16.508  -6.502  1.00 20.00     0.012 C 
HETATM   10  C8  UNL     1     -34.981  16.424  -6.604  1.00 20.00    -0.014 C 
HETATM   11  C6  UNL     1     -34.385  15.940  -5.273  1.00 20.00     0.017 C 
BRANCH  10  12
HETATM   12  C12 UNL     1     -34.395  17.779  -6.996  1.00 20.00     0.000 C 
HETATM   13  C10 UNL     1     -33.662  18.412  -5.859  1.00 20.00     0.005 C 
ENDBRANCH  10  12
ENDBRANCH   4   5
ENDBRANCH   2   4
TORSDOF 3
ENDMDL
