MODEL 1
REMARK VINA RESULT:      -5.8      0.000      0.000
REMARK  3 active torsions:
REMARK  status: ('A' for Active; 'I' for Inactive)
REMARK    1  A    between atoms: C2_2  and  C9_9 
REMARK    2  A    between atoms: C6_6  and  C9_9 
REMARK    3  A    between atoms: C7_7  and  O10_10 
ROOT
HETATM    1  C1  UNL     1     -32.215   8.516   1.751  1.00 20.00    -0.111 C 
HETATM    2  C2  UNL     1     -32.211   7.682   2.616  1.00 20.00    -0.107 C 
HETATM    3  C8  UNL     1     -32.219   9.530   0.698  1.00 20.00     0.112 C 
ENDROOT
BRANCH   2   4
HETATM    4  C9  UNL     1     -32.212   6.665   3.674  1.00 20.00     0.101 C 
BRANCH   4   5
HETATM    5  C6  UNL     1     -33.622   6.390   4.171  1.00 20.00     0.025 C 
HETATM    6  C4  UNL     1     -34.335   5.294   3.383  1.00 20.00     0.008 C 
HETATM    7  C3  UNL     1     -35.443   4.799   4.314  1.00 20.00     0.003 C 
HETATM    8  C5  UNL     1     -35.082   5.296   5.714  1.00 20.00     0.032 C 
HETATM    9  C7  UNL     1     -33.665   5.846   5.596  1.00 20.00     0.123 C 
BRANCH   9  10
HETATM   10  O10 UNL     1     -33.427   6.871   6.542  1.00 20.00    -0.395 OA
HETATM   11  H24 UNL     1     -32.624   6.626   7.034  1.00 20.00     0.210 HD
ENDBRANCH   9  10
ENDBRANCH   4   5
ENDBRANCH   2   4
TORSDOF 3
ENDMDL
MODEL 2
REMARK VINA RESULT:      -5.0     11.016     11.556
REMARK  3 active torsions:
REMARK  status: ('A' for Active; 'I' for Inactive)
REMARK    1  A    between atoms: C2_2  and  C9_9 
REMARK    2  A    between atoms: C6_6  and  C9_9 
REMARK    3  A    between atoms: C7_7  and  O10_10 
ROOT
HETATM    1  C1  UNL     1     -34.787  17.204   0.032  1.00 20.00    -0.111 C 
HETATM    2  C2  UNL     1     -34.384  16.974  -1.077  1.00 20.00    -0.107 C 
HETATM    3  C8  UNL     1     -35.278  17.483   1.380  1.00 20.00     0.112 C 
ENDROOT
BRANCH   2   4
HETATM    4  C9  UNL     1     -33.887  16.697  -2.429  1.00 20.00     0.101 C 
BRANCH   4   5
HETATM    5  C6  UNL     1     -34.167  15.259  -2.834  1.00 20.00     0.025 C 
HETATM    6  C4  UNL     1     -35.598  15.038  -3.320  1.00 20.00     0.008 C 
HETATM    7  C3  UNL     1     -35.535  13.758  -4.155  1.00 20.00     0.003 C 
HETATM    8  C5  UNL     1     -34.059  13.526  -4.476  1.00 20.00     0.032 C 
HETATM    9  C7  UNL     1     -33.342  14.796  -4.032  1.00 20.00     0.123 C 
BRANCH   9  10
HETATM   10  O10 UNL     1     -32.003  14.533  -3.659  1.00 20.00    -0.395 OA
HETATM   11  H24 UNL     1     -32.002  13.695  -3.165  1.00 20.00     0.210 HD
ENDBRANCH   9  10
ENDBRANCH   4   5
ENDBRANCH   2   4
TORSDOF 3
ENDMDL
MODEL 3
REMARK VINA RESULT:      -5.0      1.595      2.166
REMARK  3 active torsions:
REMARK  status: ('A' for Active; 'I' for Inactive)
REMARK    1  A    between atoms: C2_2  and  C9_9 
REMARK    2  A    between atoms: C6_6  and  C9_9 
REMARK    3  A    between atoms: C7_7  and  O10_10 
ROOT
HETATM    1  C1  UNL     1     -32.433   7.718   2.193  1.00 20.00    -0.111 C 
HETATM    2  C2  UNL     1     -33.042   6.746   2.553  1.00 20.00    -0.107 C 
HETATM    3  C8  UNL     1     -31.693   8.901   1.757  1.00 20.00     0.112 C 
ENDROOT
BRANCH   2   4
HETATM    4  C9  UNL     1     -33.787   5.559   2.986  1.00 20.00     0.101 C 
BRANCH   4   5
HETATM    5  C6  UNL     1     -33.770   5.421   4.500  1.00 20.00     0.025 C 
HETATM    6  C4  UNL     1     -33.548   6.747   5.223  1.00 20.00     0.008 C 
HETATM    7  C3  UNL     1     -34.087   6.518   6.636  1.00 20.00     0.003 C 
HETATM    8  C5  UNL     1     -34.962   5.267   6.564  1.00 20.00     0.032 C 
HETATM    9  C7  UNL     1     -35.102   4.954   5.079  1.00 20.00     0.123 C 
BRANCH   9  10
HETATM   10  O10 UNL     1     -35.300   3.570   4.857  1.00 20.00    -0.395 OA
HETATM   11  H24 UNL     1     -35.526   3.460   3.917  1.00 20.00     0.210 HD
ENDBRANCH   9  10
ENDBRANCH   4   5
ENDBRANCH   2   4
TORSDOF 3
ENDMDL
MODEL 4
REMARK VINA RESULT:      -4.8     11.299     12.240
REMARK  3 active torsions:
REMARK  status: ('A' for Active; 'I' for Inactive)
REMARK    1  A    between atoms: C2_2  and  C9_9 
REMARK    2  A    between atoms: C6_6  and  C9_9 
REMARK    3  A    between atoms: C7_7  and  O10_10 
ROOT
HETATM    1  C1  UNL     1     -34.454  16.594  -1.270  1.00 20.00    -0.111 C 
HETATM    2  C2  UNL     1     -33.961  16.002  -2.192  1.00 20.00    -0.107 C 
HETATM    3  C8  UNL     1     -35.054  17.314  -0.149  1.00 20.00     0.112 C 
ENDROOT
BRANCH   2   4
HETATM    4  C9  UNL     1     -33.354  15.278  -3.315  1.00 20.00     0.101 C 
BRANCH   4   5
HETATM    5  C6  UNL     1     -34.336  15.123  -4.465  1.00 20.00     0.025 C 
HETATM    6  C4  UNL     1     -33.952  15.939  -5.697  1.00 20.00     0.008 C 
HETATM    7  C3  UNL     1     -34.689  15.267  -6.857  1.00 20.00     0.003 C 
HETATM    8  C5  UNL     1     -35.110  13.885  -6.356  1.00 20.00     0.032 C 
HETATM    9  C7  UNL     1     -34.398  13.703  -5.020  1.00 20.00     0.123 C 
BRANCH   9  10
HETATM   10  O10 UNL     1     -35.123  12.848  -4.158  1.00 20.00    -0.395 OA
HETATM   11  H24 UNL     1     -34.511  12.151  -3.865  1.00 20.00     0.210 HD
ENDBRANCH   9  10
ENDBRANCH   4   5
ENDBRANCH   2   4
TORSDOF 3
ENDMDL
MODEL 5
REMARK VINA RESULT:      -4.5     11.469     13.103
REMARK  3 active torsions:
REMARK  status: ('A' for Active; 'I' for Inactive)
REMARK    1  A    between atoms: C2_2  and  C9_9 
REMARK    2  A    between atoms: C6_6  and  C9_9 
REMARK    3  A    between atoms: C7_7  and  O10_10 
ROOT
HETATM    1  C1  UNL     1     -34.695  16.639  -0.953  1.00 20.00    -0.111 C 
HETATM    2  C2  UNL     1     -34.772  15.941  -1.928  1.00 20.00    -0.107 C 
HETATM    3  C8  UNL     1     -34.603  17.489   0.232  1.00 20.00     0.112 C 
ENDROOT
BRANCH   2   4
HETATM    4  C9  UNL     1     -34.861  15.086  -3.117  1.00 20.00     0.101 C 
BRANCH   4   5
HETATM    5  C6  UNL     1     -34.721  15.900  -4.393  1.00 20.00     0.025 C 
HETATM    6  C4  UNL     1     -35.741  17.030  -4.500  1.00 20.00     0.008 C 
HETATM    7  C3  UNL     1     -35.131  18.015  -5.499  1.00 20.00     0.003 C 
HETATM    8  C5  UNL     1     -33.649  17.659  -5.603  1.00 20.00     0.032 C 
HETATM    9  C7  UNL     1     -33.395  16.648  -4.490  1.00 20.00     0.123 C 
BRANCH   9  10
HETATM   10  O10 UNL     1     -32.335  15.770  -4.818  1.00 20.00    -0.395 OA
HETATM   11  H24 UNL     1     -32.646  14.866  -4.640  1.00 20.00     0.210 HD
ENDBRANCH   9  10
ENDBRANCH   4   5
ENDBRANCH   2   4
TORSDOF 3
ENDMDL
MODEL 6
REMARK VINA RESULT:      -4.4     11.238     12.249
REMARK  3 active torsions:
REMARK  status: ('A' for Active; 'I' for Inactive)
REMARK    1  A    between atoms: C2_2  and  C9_9 
REMARK    2  A    between atoms: C6_6  and  C9_9 
REMARK    3  A    between atoms: C7_7  and  O10_10 
ROOT
HETATM    1  C1  UNL     1     -34.318  16.959  -1.266  1.00 20.00    -0.111 C 
HETATM    2  C2  UNL     1     -33.930  16.814  -2.394  1.00 20.00    -0.107 C 
HETATM    3  C8  UNL     1     -34.789  17.134   0.107  1.00 20.00     0.112 C 
ENDROOT
BRANCH   2   4
HETATM    4  C9  UNL     1     -33.460  16.643  -3.773  1.00 20.00     0.101 C 
BRANCH   4   5
HETATM    5  C6  UNL     1     -33.694  15.222  -4.261  1.00 20.00     0.025 C 
HETATM    6  C4  UNL     1     -34.588  14.405  -3.332  1.00 20.00     0.008 C 
HETATM    7  C3  UNL     1     -35.131  13.273  -4.205  1.00 20.00     0.003 C 
HETATM    8  C5  UNL     1     -34.895  13.698  -5.655  1.00 20.00     0.032 C 
HETATM    9  C7  UNL     1     -34.451  15.154  -5.584  1.00 20.00     0.123 C 
BRANCH   9  10
HETATM   10  O10 UNL     1     -33.614  15.495  -6.672  1.00 20.00    -0.395 OA
HETATM   11  H24 UNL     1     -34.178  15.901  -7.353  1.00 20.00     0.210 HD
ENDBRANCH   9  10
ENDBRANCH   4   5
ENDBRANCH   2   4
TORSDOF 3
ENDMDL
MODEL 7
REMARK VINA RESULT:      -4.4     10.881     12.007
REMARK  3 active torsions:
REMARK  status: ('A' for Active; 'I' for Inactive)
REMARK    1  A    between atoms: C2_2  and  C9_9 
REMARK    2  A    between atoms: C6_6  and  C9_9 
REMARK    3  A    between atoms: C7_7  and  O10_10 
ROOT
HETATM    1  C1  UNL     1     -34.809  14.698  -6.625  1.00 20.00    -0.111 C 
HETATM    2  C2  UNL     1     -34.803  14.137  -5.562  1.00 20.00    -0.107 C 
HETATM    3  C8  UNL     1     -34.817  15.378  -7.918  1.00 20.00     0.112 C 
ENDROOT
BRANCH   2   4
HETATM    4  C9  UNL     1     -34.791  13.457  -4.261  1.00 20.00     0.101 C 
BRANCH   4   5
HETATM    5  C6  UNL     1     -34.748  14.458  -3.118  1.00 20.00     0.025 C 
HETATM    6  C4  UNL     1     -33.467  15.288  -3.092  1.00 20.00     0.008 C 
HETATM    7  C3  UNL     1     -33.823  16.533  -2.278  1.00 20.00     0.003 C 
HETATM    8  C5  UNL     1     -35.350  16.592  -2.229  1.00 20.00     0.032 C 
HETATM    9  C7  UNL     1     -35.829  15.530  -3.212  1.00 20.00     0.123 C 
BRANCH   9  10
HETATM   10  O10 UNL     1     -37.095  15.015  -2.843  1.00 20.00    -0.395 OA
HETATM   11  H24 UNL     1     -37.358  14.381  -3.532  1.00 20.00     0.210 HD
ENDBRANCH   9  10
ENDBRANCH   4   5
ENDBRANCH   2   4
TORSDOF 3
ENDMDL
MODEL 8
REMARK VINA RESULT:      -4.3     10.947     12.036
REMARK  3 active torsions:
REMARK  status: ('A' for Active; 'I' for Inactive)
REMARK    1  A    between atoms: C2_2  and  C9_9 
REMARK    2  A    between atoms: C6_6  and  C9_9 
REMARK    3  A    between atoms: C7_7  and  O10_10 
ROOT
HETATM    1  C1  UNL     1     -33.601  17.867  -4.853  1.00 20.00    -0.111 C 
HETATM    2  C2  UNL     1     -33.577  17.118  -3.914  1.00 20.00    -0.107 C 
HETATM    3  C8  UNL     1     -33.631  18.779  -5.996  1.00 20.00     0.112 C 
ENDROOT
BRANCH   2   4
HETATM    4  C9  UNL     1     -33.543  16.201  -2.769  1.00 20.00     0.101 C 
BRANCH   4   5
HETATM    5  C6  UNL     1     -34.438  14.995  -3.003  1.00 20.00     0.025 C 
HETATM    6  C4  UNL     1     -35.862  15.372  -3.404  1.00 20.00     0.008 C 
HETATM    7  C3  UNL     1     -36.417  14.125  -4.096  1.00 20.00     0.003 C 
HETATM    8  C5  UNL     1     -35.210  13.257  -4.449  1.00 20.00     0.032 C 
HETATM    9  C7  UNL     1     -33.989  14.127  -4.175  1.00 20.00     0.123 C 
BRANCH   9  10
HETATM   10  O10 UNL     1     -32.861  13.346  -3.830  1.00 20.00    -0.395 OA
HETATM   11  H24 UNL     1     -32.577  12.881  -4.636  1.00 20.00     0.210 HD
ENDBRANCH   9  10
ENDBRANCH   4   5
ENDBRANCH   2   4
TORSDOF 3
ENDMDL
MODEL 9
REMARK VINA RESULT:      -4.2      9.501     11.030
REMARK  3 active torsions:
REMARK  status: ('A' for Active; 'I' for Inactive)
REMARK    1  A    between atoms: C2_2  and  C9_9 
REMARK    2  A    between atoms: C6_6  and  C9_9 
REMARK    3  A    between atoms: C7_7  and  O10_10 
ROOT
HETATM    1  C1  UNL     1     -42.025   1.921  -3.436  1.00 20.00    -0.111 C 
HETATM    2  C2  UNL     1     -42.414   2.987  -3.040  1.00 20.00    -0.107 C 
HETATM    3  C8  UNL     1     -41.551   0.625  -3.918  1.00 20.00     0.112 C 
ENDROOT
BRANCH   2   4
HETATM    4  C9  UNL     1     -42.893   4.288  -2.561  1.00 20.00     0.101 C 
BRANCH   4   5
HETATM    5  C6  UNL     1     -41.786   5.058  -1.858  1.00 20.00     0.025 C 
HETATM    6  C4  UNL     1     -41.768   6.543  -2.211  1.00 20.00     0.008 C 
HETATM    7  C3  UNL     1     -41.006   7.209  -1.064  1.00 20.00     0.003 C 
HETATM    8  C5  UNL     1     -40.987   6.199   0.083  1.00 20.00     0.032 C 
HETATM    9  C7  UNL     1     -41.939   5.086  -0.340  1.00 20.00     0.123 C 
BRANCH   9  10
HETATM   10  O10 UNL     1     -41.575   3.846   0.234  1.00 20.00    -0.395 OA
HETATM   11  H24 UNL     1     -40.658   3.933   0.546  1.00 20.00     0.210 HD
ENDBRANCH   9  10
ENDBRANCH   4   5
ENDBRANCH   2   4
TORSDOF 3
ENDMDL
