MODEL 1
REMARK VINA RESULT:      -5.4      0.000      0.000
REMARK  4 active torsions:
REMARK  status: ('A' for Active; 'I' for Inactive)
REMARK    1  A    between atoms: C2_2  and  C6_6 
REMARK    2  A    between atoms: C3_3  and  C6_6 
REMARK    3  A    between atoms: C3_3  and  C7_7 
REMARK    4  A    between atoms: C7_7  and  C8_8 
ROOT
HETATM    1  C1  UNL     1     -32.258   8.394   1.925  1.00 20.00    -0.111 C 
HETATM    2  C2  UNL     1     -32.330   7.416   2.619  1.00 20.00    -0.100 C 
HETATM    3  C4  UNL     1     -32.169   9.586   1.083  1.00 20.00     0.112 C 
ENDROOT
BRANCH   2   4
HETATM    4  C6  UNL     1     -32.425   6.220   3.462  1.00 20.00     0.172 C 
BRANCH   4   5
HETATM    5  C3  UNL     1     -33.798   6.056   4.088  1.00 20.00     0.137 C 
HETATM    6  O9  UNL     1     -34.786   5.718   3.438  1.00 20.00    -0.297 OA
BRANCH   5   7
HETATM    7  C7  UNL     1     -33.873   6.340   5.582  1.00 20.00     0.079 C 
BRANCH   7   8
HETATM    8  C8  UNL     1     -34.806   5.382   6.316  1.00 20.00     0.003 C 
HETATM    9  C5  UNL     1     -34.556   3.939   5.909  1.00 20.00     0.005 C 
ENDBRANCH   7   8
ENDBRANCH   5   7
ENDBRANCH   4   5
ENDBRANCH   2   4
TORSDOF 4
ENDMDL
MODEL 2
REMARK VINA RESULT:      -5.3      1.144      1.313
REMARK  4 active torsions:
REMARK  status: ('A' for Active; 'I' for Inactive)
REMARK    1  A    between atoms: C2_2  and  C6_6 
REMARK    2  A    between atoms: C3_3  and  C6_6 
REMARK    3  A    between atoms: C3_3  and  C7_7 
REMARK    4  A    between atoms: C7_7  and  C8_8 
ROOT
HETATM    1  C1  UNL     1     -32.221   8.564   1.810  1.00 20.00    -0.111 C 
HETATM    2  C2  UNL     1     -32.196   7.574   2.489  1.00 20.00    -0.100 C 
HETATM    3  C4  UNL     1     -32.250   9.769   0.982  1.00 20.00     0.112 C 
ENDROOT
BRANCH   2   4
HETATM    4  C6  UNL     1     -32.171   6.369   3.324  1.00 20.00     0.172 C 
BRANCH   4   5
HETATM    5  C3  UNL     1     -33.403   6.242   4.202  1.00 20.00     0.137 C 
HETATM    6  O9  UNL     1     -33.482   6.766   5.312  1.00 20.00    -0.297 OA
BRANCH   5   7
HETATM    7  C7  UNL     1     -34.542   5.420   3.614  1.00 20.00     0.079 C 
BRANCH   7   8
HETATM    8  C8  UNL     1     -35.502   4.899   4.679  1.00 20.00     0.003 C 
HETATM    9  C5  UNL     1     -34.823   3.900   5.601  1.00 20.00     0.005 C 
ENDBRANCH   7   8
ENDBRANCH   5   7
ENDBRANCH   4   5
ENDBRANCH   2   4
TORSDOF 4
ENDMDL
MODEL 3
REMARK VINA RESULT:      -5.0      1.541      2.042
REMARK  4 active torsions:
REMARK  status: ('A' for Active; 'I' for Inactive)
REMARK    1  A    between atoms: C2_2  and  C6_6 
REMARK    2  A    between atoms: C3_3  and  C6_6 
REMARK    3  A    between atoms: C3_3  and  C7_7 
REMARK    4  A    between atoms: C7_7  and  C8_8 
ROOT
HETATM    1  C1  UNL     1     -32.156   6.969   3.364  1.00 20.00    -0.111 C 
HETATM    2  C2  UNL     1     -33.018   6.172   3.111  1.00 20.00    -0.100 C 
HETATM    3  C4  UNL     1     -31.108   7.941   3.671  1.00 20.00     0.112 C 
ENDROOT
BRANCH   2   4
HETATM    4  C6  UNL     1     -34.065   5.192   2.803  1.00 20.00     0.172 C 
BRANCH   4   5
HETATM    5  C3  UNL     1     -35.153   5.149   3.862  1.00 20.00     0.137 C 
HETATM    6  O9  UNL     1     -36.228   5.731   3.730  1.00 20.00    -0.297 OA
BRANCH   5   7
HETATM    7  C7  UNL     1     -34.823   4.333   5.104  1.00 20.00     0.079 C 
BRANCH   7   8
HETATM    8  C8  UNL     1     -34.997   5.129   6.394  1.00 20.00     0.003 C 
HETATM    9  C5  UNL     1     -34.088   6.347   6.424  1.00 20.00     0.005 C 
ENDBRANCH   7   8
ENDBRANCH   5   7
ENDBRANCH   4   5
ENDBRANCH   2   4
TORSDOF 4
ENDMDL
MODEL 4
REMARK VINA RESULT:      -4.7      1.270      5.124
REMARK  4 active torsions:
REMARK  status: ('A' for Active; 'I' for Inactive)
REMARK    1  A    between atoms: C2_2  and  C6_6 
REMARK    2  A    between atoms: C3_3  and  C6_6 
REMARK    3  A    between atoms: C3_3  and  C7_7 
REMARK    4  A    between atoms: C7_7  and  C8_8 
ROOT
HETATM    1  C1  UNL     1     -34.781   5.083   5.306  1.00 20.00    -0.111 C 
HETATM    2  C2  UNL     1     -34.424   5.805   4.414  1.00 20.00    -0.100 C 
HETATM    3  C4  UNL     1     -35.218   4.204   6.389  1.00 20.00     0.112 C 
ENDROOT
BRANCH   2   4
HETATM    4  C6  UNL     1     -33.981   6.689   3.331  1.00 20.00     0.172 C 
BRANCH   4   5
HETATM    5  C3  UNL     1     -32.485   6.611   3.090  1.00 20.00     0.137 C 
HETATM    6  O9  UNL     1     -31.869   5.546   3.091  1.00 20.00    -0.297 OA
BRANCH   5   7
HETATM    7  C7  UNL     1     -31.792   7.944   2.845  1.00 20.00     0.079 C 
BRANCH   7   8
HETATM    8  C8  UNL     1     -31.903   8.407   1.395  1.00 20.00     0.003 C 
HETATM    9  C5  UNL     1     -32.441   9.825   1.303  1.00 20.00     0.005 C 
ENDBRANCH   7   8
ENDBRANCH   5   7
ENDBRANCH   4   5
ENDBRANCH   2   4
TORSDOF 4
ENDMDL
MODEL 5
REMARK VINA RESULT:      -4.5     10.932     11.845
REMARK  4 active torsions:
REMARK  status: ('A' for Active; 'I' for Inactive)
REMARK    1  A    between atoms: C2_2  and  C6_6 
REMARK    2  A    between atoms: C3_3  and  C6_6 
REMARK    3  A    between atoms: C3_3  and  C7_7 
REMARK    4  A    between atoms: C7_7  and  C8_8 
ROOT
HETATM    1  C1  UNL     1     -34.307  16.475  -1.518  1.00 20.00    -0.111 C 
HETATM    2  C2  UNL     1     -33.889  15.995  -2.537  1.00 20.00    -0.100 C 
HETATM    3  C4  UNL     1     -34.813  17.062  -0.279  1.00 20.00     0.112 C 
ENDROOT
BRANCH   2   4
HETATM    4  C6  UNL     1     -33.383  15.400  -3.778  1.00 20.00     0.172 C 
BRANCH   4   5
HETATM    5  C3  UNL     1     -33.760  13.936  -3.919  1.00 20.00     0.137 C 
HETATM    6  O9  UNL     1     -32.951  13.025  -3.752  1.00 20.00    -0.297 OA
BRANCH   5   7
HETATM    7  C7  UNL     1     -35.214  13.668  -4.282  1.00 20.00     0.079 C 
BRANCH   7   8
HETATM    8  C8  UNL     1     -35.736  14.616  -5.357  1.00 20.00     0.003 C 
HETATM    9  C5  UNL     1     -35.202  14.248  -6.732  1.00 20.00     0.005 C 
ENDBRANCH   7   8
ENDBRANCH   5   7
ENDBRANCH   4   5
ENDBRANCH   2   4
TORSDOF 4
ENDMDL
MODEL 6
REMARK VINA RESULT:      -4.4      1.426      5.177
REMARK  4 active torsions:
REMARK  status: ('A' for Active; 'I' for Inactive)
REMARK    1  A    between atoms: C2_2  and  C6_6 
REMARK    2  A    between atoms: C3_3  and  C6_6 
REMARK    3  A    between atoms: C3_3  and  C7_7 
REMARK    4  A    between atoms: C7_7  and  C8_8 
ROOT
HETATM    1  C1  UNL     1     -34.544   5.085   5.089  1.00 20.00    -0.111 C 
HETATM    2  C2  UNL     1     -34.075   5.568   4.095  1.00 20.00    -0.100 C 
HETATM    3  C4  UNL     1     -35.119   4.495   6.297  1.00 20.00     0.112 C 
ENDROOT
BRANCH   2   4
HETATM    4  C6  UNL     1     -33.494   6.161   2.886  1.00 20.00     0.172 C 
BRANCH   4   5
HETATM    5  C3  UNL     1     -32.343   7.103   3.194  1.00 20.00     0.137 C 
HETATM    6  O9  UNL     1     -31.923   7.283   4.335  1.00 20.00    -0.297 OA
BRANCH   5   7
HETATM    7  C7  UNL     1     -31.740   7.812   1.989  1.00 20.00     0.079 C 
BRANCH   7   8
HETATM    8  C8  UNL     1     -32.426   9.140   1.684  1.00 20.00     0.003 C 
HETATM    9  C5  UNL     1     -32.501   9.397   0.188  1.00 20.00     0.005 C 
ENDBRANCH   7   8
ENDBRANCH   5   7
ENDBRANCH   4   5
ENDBRANCH   2   4
TORSDOF 4
ENDMDL
MODEL 7
REMARK VINA RESULT:      -4.4     11.171     12.313
REMARK  4 active torsions:
REMARK  status: ('A' for Active; 'I' for Inactive)
REMARK    1  A    between atoms: C2_2  and  C6_6 
REMARK    2  A    between atoms: C3_3  and  C6_6 
REMARK    3  A    between atoms: C3_3  and  C7_7 
REMARK    4  A    between atoms: C7_7  and  C8_8 
ROOT
HETATM    1  C1  UNL     1     -34.382  16.098  -1.896  1.00 20.00    -0.111 C 
HETATM    2  C2  UNL     1     -34.043  15.361  -2.781  1.00 20.00    -0.100 C 
HETATM    3  C4  UNL     1     -34.792  16.998  -0.819  1.00 20.00     0.112 C 
ENDROOT
BRANCH   2   4
HETATM    4  C6  UNL     1     -33.634  14.454  -3.859  1.00 20.00     0.172 C 
BRANCH   4   5
HETATM    5  C3  UNL     1     -34.817  13.801  -4.551  1.00 20.00     0.137 C 
HETATM    6  O9  UNL     1     -34.997  12.585  -4.548  1.00 20.00    -0.297 OA
BRANCH   5   7
HETATM    7  C7  UNL     1     -35.771  14.757  -5.254  1.00 20.00     0.079 C 
BRANCH   7   8
HETATM    8  C8  UNL     1     -35.082  15.591  -6.330  1.00 20.00     0.003 C 
HETATM    9  C5  UNL     1     -34.830  14.778  -7.589  1.00 20.00     0.005 C 
ENDBRANCH   7   8
ENDBRANCH   5   7
ENDBRANCH   4   5
ENDBRANCH   2   4
TORSDOF 4
ENDMDL
MODEL 8
REMARK VINA RESULT:      -4.4     11.087     12.362
REMARK  4 active torsions:
REMARK  status: ('A' for Active; 'I' for Inactive)
REMARK    1  A    between atoms: C2_2  and  C6_6 
REMARK    2  A    between atoms: C3_3  and  C6_6 
REMARK    3  A    between atoms: C3_3  and  C7_7 
REMARK    4  A    between atoms: C7_7  and  C8_8 
ROOT
HETATM    1  C1  UNL     1     -34.639  16.638  -1.043  1.00 20.00    -0.111 C 
HETATM    2  C2  UNL     1     -34.819  15.881  -1.958  1.00 20.00    -0.100 C 
HETATM    3  C4  UNL     1     -34.419  17.562   0.068  1.00 20.00     0.112 C 
ENDROOT
BRANCH   2   4
HETATM    4  C6  UNL     1     -35.042  14.951  -3.070  1.00 20.00     0.172 C 
BRANCH   4   5
HETATM    5  C3  UNL     1     -33.745  14.480  -3.704  1.00 20.00     0.137 C 
HETATM    6  O9  UNL     1     -33.450  13.290  -3.802  1.00 20.00    -0.297 OA
BRANCH   5   7
HETATM    7  C7  UNL     1     -32.830  15.584  -4.216  1.00 20.00     0.079 C 
BRANCH   7   8
HETATM    8  C8  UNL     1     -33.458  16.390  -5.350  1.00 20.00     0.003 C 
HETATM    9  C5  UNL     1     -33.554  17.865  -4.998  1.00 20.00     0.005 C 
ENDBRANCH   7   8
ENDBRANCH   5   7
ENDBRANCH   4   5
ENDBRANCH   2   4
TORSDOF 4
ENDMDL
MODEL 9
REMARK VINA RESULT:      -4.3     11.042     11.915
REMARK  4 active torsions:
REMARK  status: ('A' for Active; 'I' for Inactive)
REMARK    1  A    between atoms: C2_2  and  C6_6 
REMARK    2  A    between atoms: C3_3  and  C6_6 
REMARK    3  A    between atoms: C3_3  and  C7_7 
REMARK    4  A    between atoms: C7_7  and  C8_8 
ROOT
HETATM    1  C1  UNL     1     -34.733  16.947  -0.347  1.00 20.00    -0.111 C 
HETATM    2  C2  UNL     1     -34.367  16.489  -1.395  1.00 20.00    -0.100 C 
HETATM    3  C4  UNL     1     -35.181  17.504   0.928  1.00 20.00     0.112 C 
ENDROOT
BRANCH   2   4
HETATM    4  C6  UNL     1     -33.912  15.929  -2.672  1.00 20.00     0.172 C 
BRANCH   4   5
HETATM    5  C3  UNL     1     -34.898  14.933  -3.256  1.00 20.00     0.137 C 
HETATM    6  O9  UNL     1     -36.115  15.053  -3.126  1.00 20.00    -0.297 OA
BRANCH   5   7
HETATM    7  C7  UNL     1     -34.278  13.770  -4.018  1.00 20.00     0.079 C 
BRANCH   7   8
HETATM    8  C8  UNL     1     -34.880  13.590  -5.408  1.00 20.00     0.003 C 
HETATM    9  C5  UNL     1     -34.519  14.746  -6.327  1.00 20.00     0.005 C 
ENDBRANCH   7   8
ENDBRANCH   5   7
ENDBRANCH   4   5
ENDBRANCH   2   4
TORSDOF 4
ENDMDL
