MODEL 1
REMARK VINA RESULT:      -4.6      0.000      0.000
REMARK  4 active torsions:
REMARK  status: ('A' for Active; 'I' for Inactive)
REMARK    1  A    between atoms: C2_2  and  C5_5 
REMARK    2  A    between atoms: C2_2  and  C9_9 
REMARK    3  A    between atoms: C7_7  and  C9_9 
REMARK    4  A    between atoms: C8_8  and  C9_9 
ROOT
HETATM    1  C1  UNL     1     -34.018  13.546  -4.123  1.00 20.00     0.059 C 
HETATM    2  C7  UNL     1     -33.003  14.499  -3.646  1.00 20.00     0.136 C 
HETATM    3  N10 UNL     1     -34.816  12.793  -4.500  1.00 20.00    -0.197 NA
ENDROOT
BRANCH   2   4
HETATM    4  C9  UNL     1     -33.461  15.966  -3.718  1.00 20.00     0.068 C 
BRANCH   4   5
HETATM    5  C2  UNL     1     -34.727  16.161  -2.888  1.00 20.00     0.136 C 
HETATM    6  O11 UNL     1     -35.858  16.201  -3.357  1.00 20.00    -0.297 OA
BRANCH   5   7
HETATM    7  C5  UNL     1     -34.529  16.331  -1.418  1.00 20.00     0.056 A 
HETATM    8  C3  UNL     1     -33.688  17.467  -0.940  1.00 20.00     0.013 A 
HETATM    9  C4  UNL     1     -35.174  17.496  -0.746  1.00 20.00     0.013 A 
ENDBRANCH   5   7
ENDBRANCH   4   5
BRANCH   4  10
HETATM   10  C8  UNL     1     -33.643  16.444  -5.171  1.00 20.00     0.008 C 
HETATM   11  C6  UNL     1     -33.529  17.958  -5.304  1.00 20.00     0.006 C 
ENDBRANCH   4  10
ENDBRANCH   2   4
TORSDOF 4
ENDMDL
MODEL 2
REMARK VINA RESULT:      -4.4      2.252      3.737
REMARK  4 active torsions:
REMARK  status: ('A' for Active; 'I' for Inactive)
REMARK    1  A    between atoms: C2_2  and  C5_5 
REMARK    2  A    between atoms: C2_2  and  C9_9 
REMARK    3  A    between atoms: C7_7  and  C9_9 
REMARK    4  A    between atoms: C8_8  and  C9_9 
ROOT
HETATM    1  C1  UNL     1     -34.257  16.855  -1.647  1.00 20.00     0.059 C 
HETATM    2  C7  UNL     1     -33.680  17.282  -2.931  1.00 20.00     0.136 C 
HETATM    3  N10 UNL     1     -34.710  16.519  -0.633  1.00 20.00    -0.197 NA
ENDROOT
BRANCH   2   4
HETATM    4  C9  UNL     1     -33.917  16.279  -4.072  1.00 20.00     0.068 C 
BRANCH   4   5
HETATM    5  C2  UNL     1     -33.308  14.926  -3.715  1.00 20.00     0.136 C 
HETATM    6  O11 UNL     1     -32.111  14.737  -3.529  1.00 20.00    -0.297 OA
BRANCH   5   7
HETATM    7  C5  UNL     1     -34.261  13.781  -3.619  1.00 20.00     0.056 A 
HETATM    8  C3  UNL     1     -35.673  13.991  -4.052  1.00 20.00     0.013 A 
HETATM    9  C4  UNL     1     -34.748  13.155  -4.883  1.00 20.00     0.013 A 
ENDBRANCH   5   7
ENDBRANCH   4   5
BRANCH   4  10
HETATM   10  C8  UNL     1     -33.400  16.806  -5.424  1.00 20.00     0.008 C 
HETATM   11  C6  UNL     1     -34.330  16.456  -6.579  1.00 20.00     0.006 C 
ENDBRANCH   4  10
ENDBRANCH   2   4
TORSDOF 4
ENDMDL
MODEL 3
REMARK VINA RESULT:      -4.4      1.716      3.282
REMARK  4 active torsions:
REMARK  status: ('A' for Active; 'I' for Inactive)
REMARK    1  A    between atoms: C2_2  and  C5_5 
REMARK    2  A    between atoms: C2_2  and  C9_9 
REMARK    3  A    between atoms: C7_7  and  C9_9 
REMARK    4  A    between atoms: C8_8  and  C9_9 
ROOT
HETATM    1  C1  UNL     1     -34.213  13.470  -4.207  1.00 20.00     0.059 C 
HETATM    2  C7  UNL     1     -33.446  14.482  -3.463  1.00 20.00     0.136 C 
HETATM    3  N10 UNL     1     -34.814  12.671  -4.795  1.00 20.00    -0.197 NA
ENDROOT
BRANCH   2   4
HETATM    4  C9  UNL     1     -34.182  15.826  -3.324  1.00 20.00     0.068 C 
BRANCH   4   5
HETATM    5  C2  UNL     1     -34.062  16.625  -4.619  1.00 20.00     0.136 C 
HETATM    6  O11 UNL     1     -32.997  16.927  -5.145  1.00 20.00    -0.297 OA
BRANCH   5   7
HETATM    7  C5  UNL     1     -35.346  17.066  -5.241  1.00 20.00     0.056 A 
HETATM    8  C3  UNL     1     -36.050  16.128  -6.163  1.00 20.00     0.013 A 
HETATM    9  C4  UNL     1     -36.610  16.407  -4.801  1.00 20.00     0.013 A 
ENDBRANCH   5   7
ENDBRANCH   4   5
BRANCH   4  10
HETATM   10  C8  UNL     1     -33.696  16.629  -2.103  1.00 20.00     0.008 C 
HETATM   11  C6  UNL     1     -34.687  16.588  -0.947  1.00 20.00     0.006 C 
ENDBRANCH   4  10
ENDBRANCH   2   4
TORSDOF 4
ENDMDL
MODEL 4
REMARK VINA RESULT:      -4.4      1.101      1.243
REMARK  4 active torsions:
REMARK  status: ('A' for Active; 'I' for Inactive)
REMARK    1  A    between atoms: C2_2  and  C5_5 
REMARK    2  A    between atoms: C2_2  and  C9_9 
REMARK    3  A    between atoms: C7_7  and  C9_9 
REMARK    4  A    between atoms: C8_8  and  C9_9 
ROOT
HETATM    1  C1  UNL     1     -34.154  13.645  -4.078  1.00 20.00     0.059 C 
HETATM    2  C7  UNL     1     -33.221  14.740  -3.771  1.00 20.00     0.136 C 
HETATM    3  N10 UNL     1     -34.888  12.779  -4.319  1.00 20.00    -0.197 NA
ENDROOT
BRANCH   2   4
HETATM    4  C9  UNL     1     -33.650  16.093  -4.364  1.00 20.00     0.068 C 
BRANCH   4   5
HETATM    5  C2  UNL     1     -34.099  17.034  -3.249  1.00 20.00     0.136 C 
HETATM    6  O11 UNL     1     -34.729  18.068  -3.433  1.00 20.00    -0.297 OA
BRANCH   5   7
HETATM    7  C5  UNL     1     -33.705  16.644  -1.862  1.00 20.00     0.056 A 
HETATM    8  C3  UNL     1     -33.641  17.704  -0.814  1.00 20.00     0.013 A 
HETATM    9  C4  UNL     1     -34.742  16.687  -0.791  1.00 20.00     0.013 A 
ENDBRANCH   5   7
ENDBRANCH   4   5
BRANCH   4  10
HETATM   10  C8  UNL     1     -34.729  15.932  -5.452  1.00 20.00     0.008 C 
HETATM   11  C6  UNL     1     -34.142  15.939  -6.858  1.00 20.00     0.006 C 
ENDBRANCH   4  10
ENDBRANCH   2   4
TORSDOF 4
ENDMDL
MODEL 5
REMARK VINA RESULT:      -4.4      2.540      4.325
REMARK  4 active torsions:
REMARK  status: ('A' for Active; 'I' for Inactive)
REMARK    1  A    between atoms: C2_2  and  C5_5 
REMARK    2  A    between atoms: C2_2  and  C9_9 
REMARK    3  A    between atoms: C7_7  and  C9_9 
REMARK    4  A    between atoms: C8_8  and  C9_9 
ROOT
HETATM    1  C1  UNL     1     -37.421  14.745  -3.654  1.00 20.00     0.059 C 
HETATM    2  C7  UNL     1     -36.139  15.236  -3.125  1.00 20.00     0.136 C 
HETATM    3  N10 UNL     1     -38.433  14.358  -4.069  1.00 20.00    -0.197 NA
ENDROOT
BRANCH   2   4
HETATM    4  C9  UNL     1     -34.999  15.202  -4.157  1.00 20.00     0.068 C 
BRANCH   4   5
HETATM    5  C2  UNL     1     -34.977  13.852  -4.869  1.00 20.00     0.136 C 
HETATM    6  O11 UNL     1     -34.877  12.774  -4.297  1.00 20.00    -0.297 OA
BRANCH   5   7
HETATM    7  C5  UNL     1     -35.062  13.895  -6.359  1.00 20.00     0.056 A 
HETATM    8  C3  UNL     1     -35.912  14.943  -6.995  1.00 20.00     0.013 A 
HETATM    9  C4  UNL     1     -34.418  15.036  -7.074  1.00 20.00     0.013 A 
ENDBRANCH   5   7
ENDBRANCH   4   5
BRANCH   4  10
HETATM   10  C8  UNL     1     -33.636  15.544  -3.525  1.00 20.00     0.008 C 
HETATM   11  C6  UNL     1     -33.769  16.453  -2.309  1.00 20.00     0.006 C 
ENDBRANCH   4  10
ENDBRANCH   2   4
TORSDOF 4
ENDMDL
MODEL 6
REMARK VINA RESULT:      -4.4      0.898      3.114
REMARK  4 active torsions:
REMARK  status: ('A' for Active; 'I' for Inactive)
REMARK    1  A    between atoms: C2_2  and  C5_5 
REMARK    2  A    between atoms: C2_2  and  C9_9 
REMARK    3  A    between atoms: C7_7  and  C9_9 
REMARK    4  A    between atoms: C8_8  and  C9_9 
ROOT
HETATM    1  C1  UNL     1     -34.239  13.554  -4.147  1.00 20.00     0.059 C 
HETATM    2  C7  UNL     1     -33.509  14.638  -3.471  1.00 20.00     0.136 C 
HETATM    3  N10 UNL     1     -34.813  12.699  -4.682  1.00 20.00    -0.197 NA
ENDROOT
BRANCH   2   4
HETATM    4  C9  UNL     1     -34.410  15.808  -3.043  1.00 20.00     0.068 C 
BRANCH   4   5
HETATM    5  C2  UNL     1     -34.782  16.654  -4.258  1.00 20.00     0.136 C 
HETATM    6  O11 UNL     1     -35.931  16.844  -4.639  1.00 20.00    -0.297 OA
BRANCH   5   7
HETATM    7  C5  UNL     1     -33.642  17.250  -5.017  1.00 20.00     0.056 A 
HETATM    8  C3  UNL     1     -33.937  18.006  -6.269  1.00 20.00     0.013 A 
HETATM    9  C4  UNL     1     -33.502  18.736  -5.034  1.00 20.00     0.013 A 
ENDBRANCH   5   7
ENDBRANCH   4   5
BRANCH   4  10
HETATM   10  C8  UNL     1     -33.771  16.653  -1.926  1.00 20.00     0.008 C 
HETATM   11  C6  UNL     1     -34.651  16.741  -0.686  1.00 20.00     0.006 C 
ENDBRANCH   4  10
ENDBRANCH   2   4
TORSDOF 4
ENDMDL
MODEL 7
REMARK VINA RESULT:      -4.4      2.672      3.640
REMARK  4 active torsions:
REMARK  status: ('A' for Active; 'I' for Inactive)
REMARK    1  A    between atoms: C2_2  and  C5_5 
REMARK    2  A    between atoms: C2_2  and  C9_9 
REMARK    3  A    between atoms: C7_7  and  C9_9 
REMARK    4  A    between atoms: C8_8  and  C9_9 
ROOT
HETATM    1  C1  UNL     1     -37.436  14.801  -4.588  1.00 20.00     0.059 C 
HETATM    2  C7  UNL     1     -36.579  15.345  -5.652  1.00 20.00     0.136 C 
HETATM    3  N10 UNL     1     -38.113  14.375  -3.747  1.00 20.00    -0.197 NA
ENDROOT
BRANCH   2   4
HETATM    4  C9  UNL     1     -35.552  14.332  -6.187  1.00 20.00     0.068 C 
BRANCH   4   5
HETATM    5  C2  UNL     1     -34.628  13.878  -5.059  1.00 20.00     0.136 C 
HETATM    6  O11 UNL     1     -34.615  12.745  -4.593  1.00 20.00    -0.297 OA
BRANCH   5   7
HETATM    7  C5  UNL     1     -33.714  14.919  -4.501  1.00 20.00     0.056 A 
HETATM    8  C3  UNL     1     -33.869  15.310  -3.069  1.00 20.00     0.013 A 
HETATM    9  C4  UNL     1     -32.686  14.499  -3.504  1.00 20.00     0.013 A 
ENDBRANCH   5   7
ENDBRANCH   4   5
BRANCH   4  10
HETATM   10  C8  UNL     1     -34.765  14.884  -7.390  1.00 20.00     0.008 C 
HETATM   11  C6  UNL     1     -34.992  16.377  -7.598  1.00 20.00     0.006 C 
ENDBRANCH   4  10
ENDBRANCH   2   4
TORSDOF 4
ENDMDL
MODEL 8
REMARK VINA RESULT:      -4.4      1.981      2.815
REMARK  4 active torsions:
REMARK  status: ('A' for Active; 'I' for Inactive)
REMARK    1  A    between atoms: C2_2  and  C5_5 
REMARK    2  A    between atoms: C2_2  and  C9_9 
REMARK    3  A    between atoms: C7_7  and  C9_9 
REMARK    4  A    between atoms: C8_8  and  C9_9 
ROOT
HETATM    1  C1  UNL     1     -37.365  14.829  -3.954  1.00 20.00     0.059 C 
HETATM    2  C7  UNL     1     -36.070  15.455  -4.262  1.00 20.00     0.136 C 
HETATM    3  N10 UNL     1     -38.388  14.337  -3.712  1.00 20.00    -0.197 NA
ENDROOT
BRANCH   2   4
HETATM    4  C9  UNL     1     -34.971  15.122  -3.238  1.00 20.00     0.068 C 
BRANCH   4   5
HETATM    5  C2  UNL     1     -33.934  16.242  -3.201  1.00 20.00     0.136 C 
HETATM    6  O11 UNL     1     -33.279  16.606  -4.170  1.00 20.00    -0.297 OA
BRANCH   5   7
HETATM    7  C5  UNL     1     -33.718  16.892  -1.874  1.00 20.00     0.056 A 
HETATM    8  C3  UNL     1     -34.683  17.939  -1.429  1.00 20.00     0.013 A 
HETATM    9  C4  UNL     1     -34.678  16.592  -0.772  1.00 20.00     0.013 A 
ENDBRANCH   5   7
ENDBRANCH   4   5
BRANCH   4  10
HETATM   10  C8  UNL     1     -34.328  13.748  -3.506  1.00 20.00     0.008 C 
HETATM   11  C6  UNL     1     -34.415  13.340  -4.971  1.00 20.00     0.006 C 
ENDBRANCH   4  10
ENDBRANCH   2   4
TORSDOF 4
ENDMDL
MODEL 9
REMARK VINA RESULT:      -4.3      1.695      3.717
REMARK  4 active torsions:
REMARK  status: ('A' for Active; 'I' for Inactive)
REMARK    1  A    between atoms: C2_2  and  C5_5 
REMARK    2  A    between atoms: C2_2  and  C9_9 
REMARK    3  A    between atoms: C7_7  and  C9_9 
REMARK    4  A    between atoms: C8_8  and  C9_9 
ROOT
HETATM    1  C1  UNL     1     -34.694  13.510  -4.048  1.00 20.00     0.059 C 
HETATM    2  C7  UNL     1     -34.478  14.613  -3.100  1.00 20.00     0.136 C 
HETATM    3  N10 UNL     1     -34.862  12.638  -4.795  1.00 20.00    -0.197 NA
ENDROOT
BRANCH   2   4
HETATM    4  C9  UNL     1     -34.770  16.000  -3.699  1.00 20.00     0.068 C 
BRANCH   4   5
HETATM    5  C2  UNL     1     -33.824  16.275  -4.866  1.00 20.00     0.136 C 
HETATM    6  O11 UNL     1     -32.602  16.262  -4.780  1.00 20.00    -0.297 OA
BRANCH   5   7
HETATM    7  C5  UNL     1     -34.471  16.599  -6.172  1.00 20.00     0.056 A 
HETATM    8  C3  UNL     1     -34.558  15.530  -7.209  1.00 20.00     0.013 A 
HETATM    9  C4  UNL     1     -35.791  15.976  -6.484  1.00 20.00     0.013 A 
ENDBRANCH   5   7
ENDBRANCH   4   5
BRANCH   4  10
HETATM   10  C8  UNL     1     -34.714  17.113  -2.636  1.00 20.00     0.008 C 
HETATM   11  C6  UNL     1     -34.590  16.562  -1.221  1.00 20.00     0.006 C 
ENDBRANCH   4  10
ENDBRANCH   2   4
TORSDOF 4
ENDMDL
