MODEL 1
REMARK VINA RESULT:      -5.6      0.000      0.000
REMARK  3 active torsions:
REMARK  status: ('A' for Active; 'I' for Inactive)
REMARK    1  A    between atoms: C2_2  and  C7_7 
REMARK    2  A    between atoms: C3_3  and  C8_8 
REMARK    3  A    between atoms: C7_7  and  C8_8 
ROOT
HETATM    1  C1  UNL     1     -32.222   8.298   1.893  1.00 20.00    -0.111 C 
HETATM    2  C2  UNL     1     -32.390   7.461   2.739  1.00 20.00    -0.106 C 
HETATM    3  C4  UNL     1     -32.021   9.313   0.861  1.00 20.00     0.112 C 
ENDROOT
BRANCH   2   4
HETATM    4  C7  UNL     1     -32.597   6.438   3.776  1.00 20.00     0.105 C 
BRANCH   4   5
HETATM    5  C8  UNL     1     -34.060   6.318   4.225  1.00 20.00     0.062 C 
HETATM    6  C6  UNL     1     -34.837   5.304   3.383  1.00 20.00     0.018 C 
BRANCH   5   7
HETATM    7  C3  UNL     1     -34.175   6.009   5.719  1.00 20.00     0.127 C 
HETATM    8  C5  UNL     1     -34.835   4.707   6.099  1.00 20.00     0.091 C 
HETATM    9  O9  UNL     1     -33.739   6.766   6.585  1.00 20.00    -0.298 OA
ENDBRANCH   5   7
ENDBRANCH   4   5
ENDBRANCH   2   4
TORSDOF 3
ENDMDL
MODEL 2
REMARK VINA RESULT:      -4.6     11.146     11.758
REMARK  3 active torsions:
REMARK  status: ('A' for Active; 'I' for Inactive)
REMARK    1  A    between atoms: C2_2  and  C7_7 
REMARK    2  A    between atoms: C3_3  and  C8_8 
REMARK    3  A    between atoms: C7_7  and  C8_8 
ROOT
HETATM    1  C1  UNL     1     -34.658  16.729  -0.759  1.00 20.00    -0.111 C 
HETATM    2  C2  UNL     1     -34.417  16.182  -1.801  1.00 20.00    -0.106 C 
HETATM    3  C4  UNL     1     -34.952  17.398   0.507  1.00 20.00     0.112 C 
ENDROOT
BRANCH   2   4
HETATM    4  C7  UNL     1     -34.124  15.512  -3.078  1.00 20.00     0.105 C 
BRANCH   4   5
HETATM    5  C8  UNL     1     -35.183  14.472  -3.473  1.00 20.00     0.062 C 
HETATM    6  C6  UNL     1     -36.586  15.078  -3.538  1.00 20.00     0.018 C 
BRANCH   5   7
HETATM    7  C3  UNL     1     -34.822  13.758  -4.778  1.00 20.00     0.127 C 
HETATM    8  C5  UNL     1     -34.538  14.627  -5.977  1.00 20.00     0.091 C 
HETATM    9  O9  UNL     1     -34.746  12.532  -4.860  1.00 20.00    -0.298 OA
ENDBRANCH   5   7
ENDBRANCH   4   5
ENDBRANCH   2   4
TORSDOF 3
ENDMDL
MODEL 3
REMARK VINA RESULT:      -4.3     11.378     11.926
REMARK  3 active torsions:
REMARK  status: ('A' for Active; 'I' for Inactive)
REMARK    1  A    between atoms: C2_2  and  C7_7 
REMARK    2  A    between atoms: C3_3  and  C8_8 
REMARK    3  A    between atoms: C7_7  and  C8_8 
ROOT
HETATM    1  C1  UNL     1     -34.186  16.447  -1.723  1.00 20.00    -0.111 C 
HETATM    2  C2  UNL     1     -33.885  15.999  -2.796  1.00 20.00    -0.106 C 
HETATM    3  C4  UNL     1     -34.557  16.994  -0.419  1.00 20.00     0.112 C 
ENDROOT
BRANCH   2   4
HETATM    4  C7  UNL     1     -33.517  15.447  -4.109  1.00 20.00     0.105 C 
BRANCH   4   5
HETATM    5  C8  UNL     1     -34.729  15.149  -5.002  1.00 20.00     0.062 C 
HETATM    6  C6  UNL     1     -34.317  14.829  -6.441  1.00 20.00     0.018 C 
BRANCH   5   7
HETATM    7  C3  UNL     1     -35.613  14.045  -4.416  1.00 20.00     0.127 C 
HETATM    8  C5  UNL     1     -37.010  14.433  -4.004  1.00 20.00     0.091 C 
HETATM    9  O9  UNL     1     -35.224  12.883  -4.294  1.00 20.00    -0.298 OA
ENDBRANCH   5   7
ENDBRANCH   4   5
ENDBRANCH   2   4
TORSDOF 3
ENDMDL
MODEL 4
REMARK VINA RESULT:      -4.3     11.038     11.848
REMARK  3 active torsions:
REMARK  status: ('A' for Active; 'I' for Inactive)
REMARK    1  A    between atoms: C2_2  and  C7_7 
REMARK    2  A    between atoms: C3_3  and  C8_8 
REMARK    3  A    between atoms: C7_7  and  C8_8 
ROOT
HETATM    1  C1  UNL     1     -34.782  16.891  -0.314  1.00 20.00    -0.111 C 
HETATM    2  C2  UNL     1     -34.579  16.350  -1.367  1.00 20.00    -0.106 C 
HETATM    3  C4  UNL     1     -35.032  17.553   0.966  1.00 20.00     0.112 C 
ENDROOT
BRANCH   2   4
HETATM    4  C7  UNL     1     -34.333  15.685  -2.656  1.00 20.00     0.105 C 
BRANCH   4   5
HETATM    5  C8  UNL     1     -35.535  15.747  -3.609  1.00 20.00     0.062 C 
HETATM    6  C6  UNL     1     -35.213  16.522  -4.889  1.00 20.00     0.018 C 
BRANCH   5   7
HETATM    7  C3  UNL     1     -36.087  14.355  -3.923  1.00 20.00     0.127 C 
HETATM    8  C5  UNL     1     -35.093  13.306  -4.355  1.00 20.00     0.091 C 
HETATM    9  O9  UNL     1     -37.281  14.079  -3.817  1.00 20.00    -0.298 OA
ENDBRANCH   5   7
ENDBRANCH   4   5
ENDBRANCH   2   4
TORSDOF 3
ENDMDL
MODEL 5
REMARK VINA RESULT:      -4.2      2.318      5.033
REMARK  3 active torsions:
REMARK  status: ('A' for Active; 'I' for Inactive)
REMARK    1  A    between atoms: C2_2  and  C7_7 
REMARK    2  A    between atoms: C3_3  and  C8_8 
REMARK    3  A    between atoms: C7_7  and  C8_8 
ROOT
HETATM    1  C1  UNL     1     -34.296   5.367   4.817  1.00 20.00    -0.111 C 
HETATM    2  C2  UNL     1     -33.682   5.834   3.896  1.00 20.00    -0.106 C 
HETATM    3  C4  UNL     1     -35.045   4.803   5.938  1.00 20.00     0.112 C 
ENDROOT
BRANCH   2   4
HETATM    4  C7  UNL     1     -32.932   6.403   2.766  1.00 20.00     0.105 C 
BRANCH   4   5
HETATM    5  C8  UNL     1     -32.333   7.784   3.070  1.00 20.00     0.062 C 
HETATM    6  C6  UNL     1     -31.053   7.683   3.901  1.00 20.00     0.018 C 
BRANCH   5   7
HETATM    7  C3  UNL     1     -32.109   8.602   1.796  1.00 20.00     0.127 C 
HETATM    8  C5  UNL     1     -32.712   9.983   1.755  1.00 20.00     0.091 C 
HETATM    9  O9  UNL     1     -31.455   8.175   0.845  1.00 20.00    -0.298 OA
ENDBRANCH   5   7
ENDBRANCH   4   5
ENDBRANCH   2   4
TORSDOF 3
ENDMDL
MODEL 6
REMARK VINA RESULT:      -4.2      1.518      1.800
REMARK  3 active torsions:
REMARK  status: ('A' for Active; 'I' for Inactive)
REMARK    1  A    between atoms: C2_2  and  C7_7 
REMARK    2  A    between atoms: C3_3  and  C8_8 
REMARK    3  A    between atoms: C7_7  and  C8_8 
ROOT
HETATM    1  C1  UNL     1     -32.415   8.285   2.138  1.00 20.00    -0.111 C 
HETATM    2  C2  UNL     1     -32.479   7.185   2.618  1.00 20.00    -0.106 C 
HETATM    3  C4  UNL     1     -32.342   9.621   1.551  1.00 20.00     0.112 C 
ENDROOT
BRANCH   2   4
HETATM    4  C7  UNL     1     -32.557   5.841   3.210  1.00 20.00     0.105 C 
BRANCH   4   5
HETATM    5  C8  UNL     1     -33.326   5.807   4.538  1.00 20.00     0.062 C 
HETATM    6  C6  UNL     1     -33.413   7.190   5.186  1.00 20.00     0.018 C 
BRANCH   5   7
HETATM    7  C3  UNL     1     -34.711   5.176   4.380  1.00 20.00     0.127 C 
HETATM    8  C5  UNL     1     -35.095   4.110   5.376  1.00 20.00     0.091 C 
HETATM    9  O9  UNL     1     -35.497   5.520   3.498  1.00 20.00    -0.298 OA
ENDBRANCH   5   7
ENDBRANCH   4   5
ENDBRANCH   2   4
TORSDOF 3
ENDMDL
MODEL 7
REMARK VINA RESULT:      -4.1     10.886     12.138
REMARK  3 active torsions:
REMARK  status: ('A' for Active; 'I' for Inactive)
REMARK    1  A    between atoms: C2_2  and  C7_7 
REMARK    2  A    between atoms: C3_3  and  C8_8 
REMARK    3  A    between atoms: C7_7  and  C8_8 
ROOT
HETATM    1  C1  UNL     1     -33.570  17.199  -5.500  1.00 20.00    -0.111 C 
HETATM    2  C2  UNL     1     -33.299  16.271  -4.787  1.00 20.00    -0.106 C 
HETATM    3  C4  UNL     1     -33.897  18.326  -6.371  1.00 20.00     0.112 C 
ENDROOT
BRANCH   2   4
HETATM    4  C7  UNL     1     -32.971  15.134  -3.913  1.00 20.00     0.105 C 
BRANCH   4   5
HETATM    5  C8  UNL     1     -34.168  14.638  -3.089  1.00 20.00     0.062 C 
HETATM    6  C6  UNL     1     -34.862  15.778  -2.342  1.00 20.00     0.018 C 
BRANCH   5   7
HETATM    7  C3  UNL     1     -35.159  13.844  -3.943  1.00 20.00     0.127 C 
HETATM    8  C5  UNL     1     -36.515  14.465  -4.172  1.00 20.00     0.091 C 
HETATM    9  O9  UNL     1     -34.877  12.756  -4.443  1.00 20.00    -0.298 OA
ENDBRANCH   5   7
ENDBRANCH   4   5
ENDBRANCH   2   4
TORSDOF 3
ENDMDL
MODEL 8
REMARK VINA RESULT:      -4.1     11.283     12.365
REMARK  3 active torsions:
REMARK  status: ('A' for Active; 'I' for Inactive)
REMARK    1  A    between atoms: C2_2  and  C7_7 
REMARK    2  A    between atoms: C3_3  and  C8_8 
REMARK    3  A    between atoms: C7_7  and  C8_8 
ROOT
HETATM    1  C1  UNL     1     -34.188  16.995  -1.077  1.00 20.00    -0.111 C 
HETATM    2  C2  UNL     1     -34.555  16.213  -1.912  1.00 20.00    -0.106 C 
HETATM    3  C4  UNL     1     -33.739  17.943  -0.059  1.00 20.00     0.112 C 
ENDROOT
BRANCH   2   4
HETATM    4  C7  UNL     1     -35.003  15.256  -2.936  1.00 20.00     0.105 C 
BRANCH   4   5
HETATM    5  C8  UNL     1     -33.875  14.797  -3.870  1.00 20.00     0.062 C 
HETATM    6  C6  UNL     1     -34.092  13.369  -4.373  1.00 20.00     0.018 C 
BRANCH   5   7
HETATM    7  C3  UNL     1     -33.664  15.772  -5.031  1.00 20.00     0.127 C 
HETATM    8  C5  UNL     1     -34.371  15.457  -6.326  1.00 20.00     0.091 C 
HETATM    9  O9  UNL     1     -32.967  16.780  -4.928  1.00 20.00    -0.298 OA
ENDBRANCH   5   7
ENDBRANCH   4   5
ENDBRANCH   2   4
TORSDOF 3
ENDMDL
MODEL 9
REMARK VINA RESULT:      -3.8     11.214     12.562
REMARK  3 active torsions:
REMARK  status: ('A' for Active; 'I' for Inactive)
REMARK    1  A    between atoms: C2_2  and  C7_7 
REMARK    2  A    between atoms: C3_3  and  C8_8 
REMARK    3  A    between atoms: C7_7  and  C8_8 
ROOT
HETATM    1  C1  UNL     1     -37.039  15.106  -3.519  1.00 20.00    -0.111 C 
HETATM    2  C2  UNL     1     -35.935  15.361  -3.119  1.00 20.00    -0.106 C 
HETATM    3  C4  UNL     1     -38.382  14.800  -4.006  1.00 20.00     0.112 C 
ENDROOT
BRANCH   2   4
HETATM    4  C7  UNL     1     -34.582  15.673  -2.632  1.00 20.00     0.105 C 
BRANCH   4   5
HETATM    5  C8  UNL     1     -33.474  15.235  -3.601  1.00 20.00     0.062 C 
HETATM    6  C6  UNL     1     -33.527  13.735  -3.893  1.00 20.00     0.018 C 
BRANCH   5   7
HETATM    7  C3  UNL     1     -33.489  16.057  -4.893  1.00 20.00     0.127 C 
HETATM    8  C5  UNL     1     -34.077  15.399  -6.115  1.00 20.00     0.091 C 
HETATM    9  O9  UNL     1     -33.059  17.209  -4.947  1.00 20.00    -0.298 OA
ENDBRANCH   5   7
ENDBRANCH   4   5
ENDBRANCH   2   4
TORSDOF 3
ENDMDL
