MODEL 1
REMARK VINA RESULT:      -5.7      0.000      0.000
REMARK  4 active torsions:
REMARK  status: ('A' for Active; 'I' for Inactive)
REMARK    1  A    between atoms: C2_2  and  C7_7 
REMARK    2  A    between atoms: C3_3  and  C8_8 
REMARK    3  A    between atoms: C3_3  and  C9_9 
REMARK    4  A    between atoms: C7_7  and  C8_8 
ROOT
HETATM    1  C1  UNL     1     -32.261   8.581   1.854  1.00 20.00    -0.111 C 
HETATM    2  C2  UNL     1     -32.292   7.570   2.500  1.00 20.00    -0.107 C 
HETATM    3  C4  UNL     1     -32.226   9.814   1.068  1.00 20.00     0.112 C 
ENDROOT
BRANCH   2   4
HETATM    4  C7  UNL     1     -32.335   6.333   3.293  1.00 20.00     0.101 C 
BRANCH   4   5
HETATM    5  C8  UNL     1     -33.534   5.464   2.922  1.00 20.00     0.090 C 
BRANCH   5   6
HETATM    6  C3  UNL     1     -34.640   5.465   3.973  1.00 20.00     0.131 C 
HETATM    7  O10 UNL     1     -35.814   5.701   3.690  1.00 20.00    -0.298 OA
BRANCH   6   8
HETATM    8  C9  UNL     1     -34.207   5.152   5.404  1.00 20.00     0.047 C 
HETATM    9  C5  UNL     1     -34.184   6.438   6.222  1.00 20.00     0.017 C 
HETATM   10  C6  UNL     1     -35.128   4.115   6.039  1.00 20.00     0.017 C 
ENDBRANCH   6   8
ENDBRANCH   5   6
ENDBRANCH   4   5
ENDBRANCH   2   4
TORSDOF 4
ENDMDL
MODEL 2
REMARK VINA RESULT:      -5.2      1.421      1.734
REMARK  4 active torsions:
REMARK  status: ('A' for Active; 'I' for Inactive)
REMARK    1  A    between atoms: C2_2  and  C7_7 
REMARK    2  A    between atoms: C3_3  and  C8_8 
REMARK    3  A    between atoms: C3_3  and  C9_9 
REMARK    4  A    between atoms: C7_7  and  C8_8 
ROOT
HETATM    1  C1  UNL     1     -32.201   8.633   1.462  1.00 20.00    -0.111 C 
HETATM    2  C2  UNL     1     -32.060   7.981   2.459  1.00 20.00    -0.107 C 
HETATM    3  C4  UNL     1     -32.372   9.425   0.244  1.00 20.00     0.112 C 
ENDROOT
BRANCH   2   4
HETATM    4  C7  UNL     1     -31.883   7.180   3.680  1.00 20.00     0.101 C 
BRANCH   4   5
HETATM    5  C8  UNL     1     -32.968   6.115   3.820  1.00 20.00     0.090 C 
BRANCH   5   6
HETATM    6  C3  UNL     1     -33.738   6.194   5.135  1.00 20.00     0.131 C 
HETATM    7  O10 UNL     1     -33.336   6.854   6.092  1.00 20.00    -0.298 OA
BRANCH   6   8
HETATM    8  C9  UNL     1     -35.044   5.405   5.196  1.00 20.00     0.047 C 
HETATM    9  C5  UNL     1     -35.633   5.286   3.795  1.00 20.00     0.017 C 
HETATM   10  C6  UNL     1     -34.824   4.029   5.817  1.00 20.00     0.017 C 
ENDBRANCH   6   8
ENDBRANCH   5   6
ENDBRANCH   4   5
ENDBRANCH   2   4
TORSDOF 4
ENDMDL
MODEL 3
REMARK VINA RESULT:      -4.8     10.956     12.061
REMARK  4 active torsions:
REMARK  status: ('A' for Active; 'I' for Inactive)
REMARK    1  A    between atoms: C2_2  and  C7_7 
REMARK    2  A    between atoms: C3_3  and  C8_8 
REMARK    3  A    between atoms: C3_3  and  C9_9 
REMARK    4  A    between atoms: C7_7  and  C8_8 
ROOT
HETATM    1  C1  UNL     1     -34.281  16.633  -1.371  1.00 20.00    -0.111 C 
HETATM    2  C2  UNL     1     -33.833  16.212  -2.402  1.00 20.00    -0.107 C 
HETATM    3  C4  UNL     1     -34.826  17.141  -0.113  1.00 20.00     0.112 C 
ENDROOT
BRANCH   2   4
HETATM    4  C7  UNL     1     -33.287  15.692  -3.664  1.00 20.00     0.101 C 
BRANCH   4   5
HETATM    5  C8  UNL     1     -33.420  14.174  -3.756  1.00 20.00     0.090 C 
BRANCH   5   6
HETATM    6  C3  UNL     1     -34.574  13.713  -4.640  1.00 20.00     0.131 C 
HETATM    7  O10 UNL     1     -34.954  12.543  -4.666  1.00 20.00    -0.298 OA
BRANCH   6   8
HETATM    8  C9  UNL     1     -35.237  14.791  -5.495  1.00 20.00     0.047 C 
HETATM    9  C5  UNL     1     -35.167  14.390  -6.964  1.00 20.00     0.017 C 
HETATM   10  C6  UNL     1     -36.681  15.022  -5.059  1.00 20.00     0.017 C 
ENDBRANCH   6   8
ENDBRANCH   5   6
ENDBRANCH   4   5
ENDBRANCH   2   4
TORSDOF 4
ENDMDL
MODEL 4
REMARK VINA RESULT:      -4.7     11.248     12.264
REMARK  4 active torsions:
REMARK  status: ('A' for Active; 'I' for Inactive)
REMARK    1  A    between atoms: C2_2  and  C7_7 
REMARK    2  A    between atoms: C3_3  and  C8_8 
REMARK    3  A    between atoms: C3_3  and  C9_9 
REMARK    4  A    between atoms: C7_7  and  C8_8 
ROOT
HETATM    1  C1  UNL     1     -34.635  16.653  -0.885  1.00 20.00    -0.111 C 
HETATM    2  C2  UNL     1     -34.406  16.060  -1.903  1.00 20.00    -0.107 C 
HETATM    3  C4  UNL     1     -34.912  17.373   0.358  1.00 20.00     0.112 C 
ENDROOT
BRANCH   2   4
HETATM    4  C7  UNL     1     -34.126  15.330  -3.147  1.00 20.00     0.101 C 
BRANCH   4   5
HETATM    5  C8  UNL     1     -35.344  14.547  -3.631  1.00 20.00     0.090 C 
BRANCH   5   6
HETATM    6  C3  UNL     1     -35.081  13.717  -4.884  1.00 20.00     0.131 C 
HETATM    7  O10 UNL     1     -34.576  12.597  -4.835  1.00 20.00    -0.298 OA
BRANCH   6   8
HETATM    8  C9  UNL     1     -35.486  14.358  -6.210  1.00 20.00     0.047 C 
HETATM    9  C5  UNL     1     -36.684  15.274  -5.989  1.00 20.00     0.017 C 
HETATM   10  C6  UNL     1     -34.317  15.122  -6.827  1.00 20.00     0.017 C 
ENDBRANCH   6   8
ENDBRANCH   5   6
ENDBRANCH   4   5
ENDBRANCH   2   4
TORSDOF 4
ENDMDL
MODEL 5
REMARK VINA RESULT:      -4.5      1.838      5.228
REMARK  4 active torsions:
REMARK  status: ('A' for Active; 'I' for Inactive)
REMARK    1  A    between atoms: C2_2  and  C7_7 
REMARK    2  A    between atoms: C3_3  and  C8_8 
REMARK    3  A    between atoms: C3_3  and  C9_9 
REMARK    4  A    between atoms: C7_7  and  C8_8 
ROOT
HETATM    1  C1  UNL     1     -34.722   5.019   5.245  1.00 20.00    -0.111 C 
HETATM    2  C2  UNL     1     -34.319   5.431   4.192  1.00 20.00    -0.107 C 
HETATM    3  C4  UNL     1     -35.211   4.520   6.530  1.00 20.00     0.112 C 
ENDROOT
BRANCH   2   4
HETATM    4  C7  UNL     1     -33.821   5.936   2.905  1.00 20.00     0.101 C 
BRANCH   4   5
HETATM    5  C8  UNL     1     -32.310   6.153   2.927  1.00 20.00     0.090 C 
BRANCH   5   6
HETATM    6  C3  UNL     1     -31.901   7.623   2.910  1.00 20.00     0.131 C 
HETATM    7  O10 UNL     1     -31.189   8.117   3.783  1.00 20.00    -0.298 OA
BRANCH   6   8
HETATM    8  C9  UNL     1     -32.427   8.452   1.740  1.00 20.00     0.047 C 
HETATM    9  C5  UNL     1     -32.717   9.872   2.212  1.00 20.00     0.017 C 
HETATM   10  C6  UNL     1     -31.435   8.451   0.580  1.00 20.00     0.017 C 
ENDBRANCH   6   8
ENDBRANCH   5   6
ENDBRANCH   4   5
ENDBRANCH   2   4
TORSDOF 4
ENDMDL
MODEL 6
REMARK VINA RESULT:      -4.5     11.110     12.271
REMARK  4 active torsions:
REMARK  status: ('A' for Active; 'I' for Inactive)
REMARK    1  A    between atoms: C2_2  and  C7_7 
REMARK    2  A    between atoms: C3_3  and  C8_8 
REMARK    3  A    between atoms: C3_3  and  C9_9 
REMARK    4  A    between atoms: C7_7  and  C8_8 
ROOT
HETATM    1  C1  UNL     1     -33.732  17.288  -1.153  1.00 20.00    -0.111 C 
HETATM    2  C2  UNL     1     -34.251  16.421  -1.801  1.00 20.00    -0.107 C 
HETATM    3  C4  UNL     1     -33.102  18.346  -0.365  1.00 20.00     0.112 C 
ENDROOT
BRANCH   2   4
HETATM    4  C7  UNL     1     -34.889  15.363  -2.599  1.00 20.00     0.101 C 
BRANCH   4   5
HETATM    5  C8  UNL     1     -33.887  14.663  -3.514  1.00 20.00     0.090 C 
BRANCH   5   6
HETATM    6  C3  UNL     1     -34.539  13.853  -4.630  1.00 20.00     0.131 C 
HETATM    7  O10 UNL     1     -34.948  12.705  -4.455  1.00 20.00    -0.298 OA
BRANCH   6   8
HETATM    8  C9  UNL     1     -34.661  14.550  -5.983  1.00 20.00     0.047 C 
HETATM    9  C5  UNL     1     -36.132  14.779  -6.308  1.00 20.00     0.017 C 
HETATM   10  C6  UNL     1     -33.886  15.865  -5.992  1.00 20.00     0.017 C 
ENDBRANCH   6   8
ENDBRANCH   5   6
ENDBRANCH   4   5
ENDBRANCH   2   4
TORSDOF 4
ENDMDL
MODEL 7
REMARK VINA RESULT:      -4.4     11.629     12.530
REMARK  4 active torsions:
REMARK  status: ('A' for Active; 'I' for Inactive)
REMARK    1  A    between atoms: C2_2  and  C7_7 
REMARK    2  A    between atoms: C3_3  and  C8_8 
REMARK    3  A    between atoms: C3_3  and  C9_9 
REMARK    4  A    between atoms: C7_7  and  C8_8 
ROOT
HETATM    1  C1  UNL     1     -34.354  17.340  -0.269  1.00 20.00    -0.111 C 
HETATM    2  C2  UNL     1     -34.583  16.629  -1.208  1.00 20.00    -0.107 C 
HETATM    3  C4  UNL     1     -34.073  18.210   0.873  1.00 20.00     0.112 C 
ENDROOT
BRANCH   2   4
HETATM    4  C7  UNL     1     -34.862  15.760  -2.362  1.00 20.00     0.101 C 
BRANCH   4   5
HETATM    5  C8  UNL     1     -33.583  15.364  -3.094  1.00 20.00     0.090 C 
BRANCH   5   6
HETATM    6  C3  UNL     1     -33.616  15.663  -4.590  1.00 20.00     0.131 C 
HETATM    7  O10 UNL     1     -32.886  16.508  -5.107  1.00 20.00    -0.298 OA
BRANCH   6   8
HETATM    8  C9  UNL     1     -34.608  14.848  -5.416  1.00 20.00     0.047 C 
HETATM    9  C5  UNL     1     -34.331  15.059  -6.900  1.00 20.00     0.017 C 
HETATM   10  C6  UNL     1     -34.538  13.368  -5.051  1.00 20.00     0.017 C 
ENDBRANCH   6   8
ENDBRANCH   5   6
ENDBRANCH   4   5
ENDBRANCH   2   4
TORSDOF 4
ENDMDL
MODEL 8
REMARK VINA RESULT:      -4.4     11.379     11.982
REMARK  4 active torsions:
REMARK  status: ('A' for Active; 'I' for Inactive)
REMARK    1  A    between atoms: C2_2  and  C7_7 
REMARK    2  A    between atoms: C3_3  and  C8_8 
REMARK    3  A    between atoms: C3_3  and  C9_9 
REMARK    4  A    between atoms: C7_7  and  C8_8 
ROOT
HETATM    1  C1  UNL     1     -34.226  16.376  -1.740  1.00 20.00    -0.111 C 
HETATM    2  C2  UNL     1     -33.717  15.819  -2.674  1.00 20.00    -0.107 C 
HETATM    3  C4  UNL     1     -34.850  17.053  -0.603  1.00 20.00     0.112 C 
ENDROOT
BRANCH   2   4
HETATM    4  C7  UNL     1     -33.098  15.137  -3.819  1.00 20.00     0.101 C 
BRANCH   4   5
HETATM    5  C8  UNL     1     -34.084  14.953  -4.970  1.00 20.00     0.090 C 
BRANCH   5   6
HETATM    6  C3  UNL     1     -35.226  13.994  -4.650  1.00 20.00     0.131 C 
HETATM    7  O10 UNL     1     -35.029  12.854  -4.231  1.00 20.00    -0.298 OA
BRANCH   6   8
HETATM    8  C9  UNL     1     -36.638  14.531  -4.878  1.00 20.00     0.047 C 
HETATM    9  C5  UNL     1     -37.220  15.009  -3.553  1.00 20.00     0.017 C 
HETATM   10  C6  UNL     1     -36.635  15.652  -5.913  1.00 20.00     0.017 C 
ENDBRANCH   6   8
ENDBRANCH   5   6
ENDBRANCH   4   5
ENDBRANCH   2   4
TORSDOF 4
ENDMDL
MODEL 9
REMARK VINA RESULT:      -4.3     10.845     12.288
REMARK  4 active torsions:
REMARK  status: ('A' for Active; 'I' for Inactive)
REMARK    1  A    between atoms: C2_2  and  C7_7 
REMARK    2  A    between atoms: C3_3  and  C8_8 
REMARK    3  A    between atoms: C3_3  and  C9_9 
REMARK    4  A    between atoms: C7_7  and  C8_8 
ROOT
HETATM    1  C1  UNL     1     -33.425  17.190  -5.250  1.00 20.00    -0.111 C 
HETATM    2  C2  UNL     1     -33.216  16.212  -4.586  1.00 20.00    -0.107 C 
HETATM    3  C4  UNL     1     -33.681  18.384  -6.055  1.00 20.00     0.112 C 
ENDROOT
BRANCH   2   4
HETATM    4  C7  UNL     1     -32.965  15.014  -3.771  1.00 20.00     0.101 C 
BRANCH   4   5
HETATM    5  C8  UNL     1     -34.248  14.477  -3.142  1.00 20.00     0.090 C 
BRANCH   5   6
HETATM    6  C3  UNL     1     -35.158  13.753  -4.130  1.00 20.00     0.131 C 
HETATM    7  O10 UNL     1     -34.854  12.671  -4.631  1.00 20.00    -0.298 OA
BRANCH   6   8
HETATM    8  C9  UNL     1     -36.476  14.449  -4.463  1.00 20.00     0.047 C 
HETATM    9  C5  UNL     1     -36.744  15.548  -3.442  1.00 20.00     0.017 C 
HETATM   10  C6  UNL     1     -36.453  15.012  -5.881  1.00 20.00     0.017 C 
ENDBRANCH   6   8
ENDBRANCH   5   6
ENDBRANCH   4   5
ENDBRANCH   2   4
TORSDOF 4
ENDMDL
