MODEL 1
REMARK VINA RESULT:      -4.9      0.000      0.000
REMARK  4 active torsions:
REMARK  status: ('A' for Active; 'I' for Inactive)
REMARK    1  A    between atoms: C2_2  and  C7_7 
REMARK    2  A    between atoms: C5_5  and  C8_8 
REMARK    3  A    between atoms: C7_7  and  C8_8 
REMARK    4  A    between atoms: C8_8  and  O9_9 
ROOT
HETATM    1  C1  UNL     1     -32.240   8.521   1.802  1.00 20.00    -0.111 C 
HETATM    2  C2  UNL     1     -32.248   7.607   2.582  1.00 20.00    -0.104 C 
HETATM    3  C6  UNL     1     -32.233   9.633   0.853  1.00 20.00     0.112 C 
ENDROOT
BRANCH   2   4
HETATM    4  C7  UNL     1     -32.254   6.486   3.536  1.00 20.00     0.126 C 
BRANCH   4   5
HETATM    5  C8  UNL     1     -33.533   6.480   4.378  1.00 20.00     0.133 C 
BRANCH   5   6
HETATM    6  C5  UNL     1     -34.164   5.093   4.406  1.00 20.00     0.015 A 
HETATM    7  C3  UNL     1     -34.965   4.650   5.599  1.00 20.00     0.007 A 
HETATM    8  C4  UNL     1     -35.655   4.938   4.294  1.00 20.00     0.007 A 
ENDBRANCH   5   6
BRANCH   5   9
HETATM    9  O9  UNL     1     -33.204   6.857   5.714  1.00 20.00    -0.394 OA
HETATM   10  H21 UNL     1     -33.709   7.662   5.904  1.00 20.00     0.210 HD
ENDBRANCH   5   9
ENDBRANCH   4   5
ENDBRANCH   2   4
TORSDOF 4
ENDMDL
MODEL 2
REMARK VINA RESULT:      -4.8      1.018      1.061
REMARK  4 active torsions:
REMARK  status: ('A' for Active; 'I' for Inactive)
REMARK    1  A    between atoms: C2_2  and  C7_7 
REMARK    2  A    between atoms: C5_5  and  C8_8 
REMARK    3  A    between atoms: C7_7  and  C8_8 
REMARK    4  A    between atoms: C8_8  and  O9_9 
ROOT
HETATM    1  C1  UNL     1     -32.278   8.344   1.966  1.00 20.00    -0.111 C 
HETATM    2  C2  UNL     1     -32.327   7.344   2.631  1.00 20.00    -0.104 C 
HETATM    3  C6  UNL     1     -32.219   9.561   1.159  1.00 20.00     0.112 C 
ENDROOT
BRANCH   2   4
HETATM    4  C7  UNL     1     -32.388   6.118   3.443  1.00 20.00     0.126 C 
BRANCH   4   5
HETATM    5  C8  UNL     1     -33.815   5.839   3.922  1.00 20.00     0.133 C 
BRANCH   5   6
HETATM    6  C5  UNL     1     -33.811   5.083   5.245  1.00 20.00     0.015 A 
HETATM    7  C3  UNL     1     -34.822   5.411   6.308  1.00 20.00     0.007 A 
HETATM    8  C4  UNL     1     -34.911   4.108   5.563  1.00 20.00     0.007 A 
ENDBRANCH   5   6
BRANCH   5   9
HETATM    9  O9  UNL     1     -34.486   7.084   4.113  1.00 20.00    -0.394 OA
HETATM   10  H21 UNL     1     -33.855   7.670   4.558  1.00 20.00     0.210 HD
ENDBRANCH   5   9
ENDBRANCH   4   5
ENDBRANCH   2   4
TORSDOF 4
ENDMDL
MODEL 3
REMARK VINA RESULT:      -4.2     11.021     12.198
REMARK  4 active torsions:
REMARK  status: ('A' for Active; 'I' for Inactive)
REMARK    1  A    between atoms: C2_2  and  C7_7 
REMARK    2  A    between atoms: C5_5  and  C8_8 
REMARK    3  A    between atoms: C7_7  and  C8_8 
REMARK    4  A    between atoms: C8_8  and  O9_9 
ROOT
HETATM    1  C1  UNL     1     -34.441  16.105  -1.921  1.00 20.00    -0.111 C 
HETATM    2  C2  UNL     1     -34.072  15.328  -2.760  1.00 20.00    -0.104 C 
HETATM    3  C6  UNL     1     -34.889  17.051  -0.900  1.00 20.00     0.112 C 
ENDROOT
BRANCH   2   4
HETATM    4  C7  UNL     1     -33.622  14.374  -3.786  1.00 20.00     0.126 C 
BRANCH   4   5
HETATM    5  C8  UNL     1     -34.754  14.024  -4.755  1.00 20.00     0.133 C 
BRANCH   5   6
HETATM    6  C5  UNL     1     -34.518  14.650  -6.124  1.00 20.00     0.015 A 
HETATM    7  C3  UNL     1     -35.465  14.371  -7.258  1.00 20.00     0.007 A 
HETATM    8  C4  UNL     1     -35.429  15.736  -6.627  1.00 20.00     0.007 A 
ENDBRANCH   5   6
BRANCH   5   9
HETATM    9  O9  UNL     1     -34.806  12.607  -4.907  1.00 20.00    -0.394 OA
HETATM   10  H21 UNL     1     -34.015  12.255  -4.470  1.00 20.00     0.210 HD
ENDBRANCH   5   9
ENDBRANCH   4   5
ENDBRANCH   2   4
TORSDOF 4
ENDMDL
MODEL 4
REMARK VINA RESULT:      -4.2     11.080     11.531
REMARK  4 active torsions:
REMARK  status: ('A' for Active; 'I' for Inactive)
REMARK    1  A    between atoms: C2_2  and  C7_7 
REMARK    2  A    between atoms: C5_5  and  C8_8 
REMARK    3  A    between atoms: C7_7  and  C8_8 
REMARK    4  A    between atoms: C8_8  and  O9_9 
ROOT
HETATM    1  C1  UNL     1     -34.526  17.051  -0.676  1.00 20.00    -0.111 C 
HETATM    2  C2  UNL     1     -34.101  16.813  -1.774  1.00 20.00    -0.104 C 
HETATM    3  C6  UNL     1     -35.042  17.340   0.661  1.00 20.00     0.112 C 
ENDROOT
BRANCH   2   4
HETATM    4  C7  UNL     1     -33.583  16.523  -3.121  1.00 20.00     0.126 C 
BRANCH   4   5
HETATM    5  C8  UNL     1     -33.538  15.016  -3.388  1.00 20.00     0.133 C 
BRANCH   5   6
HETATM    6  C5  UNL     1     -34.493  14.628  -4.509  1.00 20.00     0.015 A 
HETATM    7  C3  UNL     1     -34.657  13.186  -4.900  1.00 20.00     0.007 A 
HETATM    8  C4  UNL     1     -35.774  13.906  -4.196  1.00 20.00     0.007 A 
ENDBRANCH   5   6
BRANCH   5   9
HETATM    9  O9  UNL     1     -32.213  14.659  -3.776  1.00 20.00    -0.394 OA
HETATM   10  H21 UNL     1     -31.613  15.164  -3.205  1.00 20.00     0.210 HD
ENDBRANCH   5   9
ENDBRANCH   4   5
ENDBRANCH   2   4
TORSDOF 4
ENDMDL
MODEL 5
REMARK VINA RESULT:      -4.2      1.485      4.973
REMARK  4 active torsions:
REMARK  status: ('A' for Active; 'I' for Inactive)
REMARK    1  A    between atoms: C2_2  and  C7_7 
REMARK    2  A    between atoms: C5_5  and  C8_8 
REMARK    3  A    between atoms: C7_7  and  C8_8 
REMARK    4  A    between atoms: C8_8  and  O9_9 
ROOT
HETATM    1  C1  UNL     1     -34.403   5.268   5.414  1.00 20.00    -0.111 C 
HETATM    2  C2  UNL     1     -33.707   6.140   4.969  1.00 20.00    -0.104 C 
HETATM    3  C6  UNL     1     -35.249   4.207   5.957  1.00 20.00     0.112 C 
ENDROOT
BRANCH   2   4
HETATM    4  C7  UNL     1     -32.854   7.208   4.422  1.00 20.00     0.126 C 
BRANCH   4   5
HETATM    5  C8  UNL     1     -32.724   7.090   2.901  1.00 20.00     0.133 C 
BRANCH   5   6
HETATM    6  C5  UNL     1     -31.877   8.223   2.334  1.00 20.00     0.015 A 
HETATM    7  C3  UNL     1     -31.773   8.420   0.847  1.00 20.00     0.007 A 
HETATM    8  C4  UNL     1     -32.536   9.408   1.684  1.00 20.00     0.007 A 
ENDBRANCH   5   6
BRANCH   5   9
HETATM    9  O9  UNL     1     -32.090   5.851   2.590  1.00 20.00    -0.394 OA
HETATM   10  H21 UNL     1     -31.139   5.986   2.727  1.00 20.00     0.210 HD
ENDBRANCH   5   9
ENDBRANCH   4   5
ENDBRANCH   2   4
TORSDOF 4
ENDMDL
MODEL 6
REMARK VINA RESULT:      -4.2      1.911      2.329
REMARK  4 active torsions:
REMARK  status: ('A' for Active; 'I' for Inactive)
REMARK    1  A    between atoms: C2_2  and  C7_7 
REMARK    2  A    between atoms: C5_5  and  C8_8 
REMARK    3  A    between atoms: C7_7  and  C8_8 
REMARK    4  A    between atoms: C8_8  and  O9_9 
ROOT
HETATM    1  C1  UNL     1     -32.188   6.969   3.323  1.00 20.00    -0.111 C 
HETATM    2  C2  UNL     1     -33.022   6.152   3.043  1.00 20.00    -0.104 C 
HETATM    3  C6  UNL     1     -31.172   7.964   3.662  1.00 20.00     0.112 C 
ENDROOT
BRANCH   2   4
HETATM    4  C7  UNL     1     -34.044   5.149   2.703  1.00 20.00     0.126 C 
BRANCH   4   5
HETATM    5  C8  UNL     1     -35.036   4.952   3.852  1.00 20.00     0.133 C 
BRANCH   5   6
HETATM    6  C5  UNL     1     -34.311   4.812   5.185  1.00 20.00     0.015 A 
HETATM    7  C3  UNL     1     -34.606   5.763   6.312  1.00 20.00     0.007 A 
HETATM    8  C4  UNL     1     -35.050   4.329   6.402  1.00 20.00     0.007 A 
ENDBRANCH   5   6
BRANCH   5   9
HETATM    9  O9  UNL     1     -35.892   6.092   3.919  1.00 20.00    -0.394 OA
HETATM   10  H21 UNL     1     -36.715   5.843   3.472  1.00 20.00     0.210 HD
ENDBRANCH   5   9
ENDBRANCH   4   5
ENDBRANCH   2   4
TORSDOF 4
ENDMDL
MODEL 7
REMARK VINA RESULT:      -4.1      1.448      4.721
REMARK  4 active torsions:
REMARK  status: ('A' for Active; 'I' for Inactive)
REMARK    1  A    between atoms: C2_2  and  C7_7 
REMARK    2  A    between atoms: C5_5  and  C8_8 
REMARK    3  A    between atoms: C7_7  and  C8_8 
REMARK    4  A    between atoms: C8_8  and  O9_9 
ROOT
HETATM    1  C1  UNL     1     -33.816   5.996   5.096  1.00 20.00    -0.111 C 
HETATM    2  C2  UNL     1     -33.262   6.037   4.032  1.00 20.00    -0.104 C 
HETATM    3  C6  UNL     1     -34.490   5.945   6.393  1.00 20.00     0.112 C 
ENDROOT
BRANCH   2   4
HETATM    4  C7  UNL     1     -32.585   6.089   2.725  1.00 20.00     0.126 C 
BRANCH   4   5
HETATM    5  C8  UNL     1     -31.855   7.420   2.530  1.00 20.00     0.133 C 
BRANCH   5   6
HETATM    6  C5  UNL     1     -32.753   8.444   1.846  1.00 20.00     0.015 A 
HETATM    7  C3  UNL     1     -32.443   9.911   1.948  1.00 20.00     0.007 A 
HETATM    8  C4  UNL     1     -32.264   9.194   0.638  1.00 20.00     0.007 A 
ENDBRANCH   5   6
BRANCH   5   9
HETATM    9  O9  UNL     1     -31.478   7.929   3.808  1.00 20.00    -0.394 OA
HETATM   10  H21 UNL     1     -31.009   7.211   4.262  1.00 20.00     0.210 HD
ENDBRANCH   5   9
ENDBRANCH   4   5
ENDBRANCH   2   4
TORSDOF 4
ENDMDL
MODEL 8
REMARK VINA RESULT:      -4.0     11.389     12.984
REMARK  4 active torsions:
REMARK  status: ('A' for Active; 'I' for Inactive)
REMARK    1  A    between atoms: C2_2  and  C7_7 
REMARK    2  A    between atoms: C5_5  and  C8_8 
REMARK    3  A    between atoms: C7_7  and  C8_8 
REMARK    4  A    between atoms: C8_8  and  O9_9 
ROOT
HETATM    1  C1  UNL     1     -34.534  16.277  -1.575  1.00 20.00    -0.111 C 
HETATM    2  C2  UNL     1     -34.530  15.579  -2.553  1.00 20.00    -0.104 C 
HETATM    3  C6  UNL     1     -34.540  17.126  -0.385  1.00 20.00     0.112 C 
ENDROOT
BRANCH   2   4
HETATM    4  C7  UNL     1     -34.525  14.725  -3.752  1.00 20.00     0.126 C 
BRANCH   4   5
HETATM    5  C8  UNL     1     -33.804  15.408  -4.917  1.00 20.00     0.133 C 
BRANCH   5   6
HETATM    6  C5  UNL     1     -34.471  16.730  -5.276  1.00 20.00     0.015 A 
HETATM    7  C3  UNL     1     -33.635  17.938  -5.595  1.00 20.00     0.007 A 
HETATM    8  C4  UNL     1     -34.410  17.251  -6.685  1.00 20.00     0.007 A 
ENDBRANCH   5   6
BRANCH   5   9
HETATM    9  O9  UNL     1     -32.455  15.670  -4.532  1.00 20.00    -0.394 OA
HETATM   10  H21 UNL     1     -31.943  15.733  -5.353  1.00 20.00     0.210 HD
ENDBRANCH   5   9
ENDBRANCH   4   5
ENDBRANCH   2   4
TORSDOF 4
ENDMDL
MODEL 9
REMARK VINA RESULT:      -3.8     11.634     12.113
REMARK  4 active torsions:
REMARK  status: ('A' for Active; 'I' for Inactive)
REMARK    1  A    between atoms: C2_2  and  C7_7 
REMARK    2  A    between atoms: C5_5  and  C8_8 
REMARK    3  A    between atoms: C7_7  and  C8_8 
REMARK    4  A    between atoms: C8_8  and  O9_9 
ROOT
HETATM    1  C1  UNL     1     -34.258  16.588  -1.456  1.00 20.00    -0.111 C 
HETATM    2  C2  UNL     1     -33.821  16.197  -2.505  1.00 20.00    -0.104 C 
HETATM    3  C6  UNL     1     -34.788  17.063  -0.180  1.00 20.00     0.112 C 
ENDROOT
BRANCH   2   4
HETATM    4  C7  UNL     1     -33.289  15.719  -3.791  1.00 20.00     0.126 C 
BRANCH   4   5
HETATM    5  C8  UNL     1     -34.316  14.860  -4.533  1.00 20.00     0.133 C 
BRANCH   5   6
HETATM    6  C5  UNL     1     -35.707  15.477  -4.455  1.00 20.00     0.015 A 
HETATM    7  C3  UNL     1     -36.769  15.079  -5.441  1.00 20.00     0.007 A 
HETATM    8  C4  UNL     1     -36.878  14.649  -4.004  1.00 20.00     0.007 A 
ENDBRANCH   5   6
BRANCH   5   9
HETATM    9  O9  UNL     1     -33.935  14.773  -5.906  1.00 20.00    -0.394 OA
HETATM   10  H21 UNL     1     -33.450  13.939  -6.003  1.00 20.00     0.210 HD
ENDBRANCH   5   9
ENDBRANCH   4   5
ENDBRANCH   2   4
TORSDOF 4
ENDMDL
