MODEL 1
REMARK VINA RESULT:      -3.7      0.000      0.000
REMARK  3 active torsions:
REMARK  status: ('A' for Active; 'I' for Inactive)
REMARK    1  A    between atoms: C1_1  and  C3_3 
REMARK    2  A    between atoms: C2_2  and  C4_4 
REMARK    3  A    between atoms: C4_4  and  S7_7 
ROOT
HETATM    1  C1  UNL     1     -33.036   6.257   3.095  1.00 20.00     0.081 C 
HETATM    2  C2  UNL     1     -34.037   6.278   3.986  1.00 20.00    -0.010 C 
ENDROOT
BRANCH   1   3
HETATM    3  C3  UNL     1     -32.066   7.435   2.934  1.00 20.00     0.198 C 
HETATM    4  O5  UNL     1     -32.127   8.087   1.854  1.00 20.00    -0.645 OA
HETATM    5  O6  UNL     1     -31.305   7.614   3.931  1.00 20.00    -0.645 OA
ENDBRANCH   1   3
BRANCH   2   6
HETATM    6  C4  UNL     1     -35.009   5.151   4.158  1.00 20.00     0.098 C 
BRANCH   6   7
HETATM    7  S7  UNL     1     -34.850   4.439   5.819  1.00 20.00    -0.178 SA
HETATM    8  H12 UNL     1     -34.223   3.318   5.435  1.00 20.00     0.101 HD
ENDBRANCH   6   7
ENDBRANCH   2   6
TORSDOF 3
ENDMDL
MODEL 2
REMARK VINA RESULT:      -3.6      3.635      4.403
REMARK  3 active torsions:
REMARK  status: ('A' for Active; 'I' for Inactive)
REMARK    1  A    between atoms: C1_1  and  C3_3 
REMARK    2  A    between atoms: C2_2  and  C4_4 
REMARK    3  A    between atoms: C4_4  and  S7_7 
ROOT
HETATM    1  C1  UNL     1     -33.768   5.895   4.538  1.00 20.00     0.081 C 
HETATM    2  C2  UNL     1     -33.163   6.240   3.393  1.00 20.00    -0.010 C 
ENDROOT
BRANCH   1   3
HETATM    3  C3  UNL     1     -35.023   5.011   4.558  1.00 20.00     0.198 C 
HETATM    4  O5  UNL     1     -35.011   4.015   5.334  1.00 20.00    -0.645 OA
HETATM    5  O6  UNL     1     -35.939   5.401   3.776  1.00 20.00    -0.645 OA
ENDBRANCH   1   3
BRANCH   2   6
HETATM    6  C4  UNL     1     -31.945   7.112   3.337  1.00 20.00     0.098 C 
BRANCH   6   7
HETATM    7  S7  UNL     1     -32.088   8.294   1.969  1.00 20.00    -0.178 SA
HETATM    8  H12 UNL     1     -33.379   8.593   2.171  1.00 20.00     0.101 HD
ENDBRANCH   6   7
ENDBRANCH   2   6
TORSDOF 3
ENDMDL
MODEL 3
REMARK VINA RESULT:      -3.6     10.546     11.260
REMARK  3 active torsions:
REMARK  status: ('A' for Active; 'I' for Inactive)
REMARK    1  A    between atoms: C1_1  and  C3_3 
REMARK    2  A    between atoms: C2_2  and  C4_4 
REMARK    3  A    between atoms: C4_4  and  S7_7 
ROOT
HETATM    1  C1  UNL     1     -34.561  14.806  -3.181  1.00 20.00     0.081 C 
HETATM    2  C2  UNL     1     -33.647  15.771  -3.015  1.00 20.00    -0.010 C 
ENDROOT
BRANCH   1   3
HETATM    3  C3  UNL     1     -34.203  13.446  -3.796  1.00 20.00     0.198 C 
HETATM    4  O5  UNL     1     -35.142  12.793  -4.332  1.00 20.00    -0.645 OA
HETATM    5  O6  UNL     1     -32.979  13.139  -3.689  1.00 20.00    -0.645 OA
ENDBRANCH   1   3
BRANCH   2   6
HETATM    6  C4  UNL     1     -33.965  17.114  -2.432  1.00 20.00     0.098 C 
BRANCH   6   7
HETATM    7  S7  UNL     1     -34.587  16.926  -0.738  1.00 20.00    -0.178 SA
HETATM    8  H12 UNL     1     -33.398  16.662  -0.177  1.00 20.00     0.101 HD
ENDBRANCH   6   7
ENDBRANCH   2   6
TORSDOF 3
ENDMDL
MODEL 4
REMARK VINA RESULT:      -3.5     10.532     11.280
REMARK  3 active torsions:
REMARK  status: ('A' for Active; 'I' for Inactive)
REMARK    1  A    between atoms: C1_1  and  C3_3 
REMARK    2  A    between atoms: C2_2  and  C4_4 
REMARK    3  A    between atoms: C4_4  and  S7_7 
ROOT
HETATM    1  C1  UNL     1     -34.554  14.815  -3.176  1.00 20.00     0.081 C 
HETATM    2  C2  UNL     1     -33.642  15.771  -2.952  1.00 20.00    -0.010 C 
ENDROOT
BRANCH   1   3
HETATM    3  C3  UNL     1     -34.174  13.454  -3.775  1.00 20.00     0.198 C 
HETATM    4  O5  UNL     1     -32.963  13.108  -3.692  1.00 20.00    -0.645 OA
HETATM    5  O6  UNL     1     -35.148  12.829  -4.289  1.00 20.00    -0.645 OA
ENDBRANCH   1   3
BRANCH   2   6
HETATM    6  C4  UNL     1     -33.981  17.114  -2.383  1.00 20.00     0.098 C 
BRANCH   6   7
HETATM    7  S7  UNL     1     -34.606  16.934  -0.690  1.00 20.00    -0.178 SA
HETATM    8  H12 UNL     1     -34.614  15.593  -0.681  1.00 20.00     0.101 HD
ENDBRANCH   6   7
ENDBRANCH   2   6
TORSDOF 3
ENDMDL
MODEL 5
REMARK VINA RESULT:      -3.5      3.502      4.212
REMARK  3 active torsions:
REMARK  status: ('A' for Active; 'I' for Inactive)
REMARK    1  A    between atoms: C1_1  and  C3_3 
REMARK    2  A    between atoms: C2_2  and  C4_4 
REMARK    3  A    between atoms: C4_4  and  S7_7 
ROOT
HETATM    1  C1  UNL     1     -34.030   5.673   4.411  1.00 20.00     0.081 C 
HETATM    2  C2  UNL     1     -32.966   6.405   4.053  1.00 20.00    -0.010 C 
ENDROOT
BRANCH   1   3
HETATM    3  C3  UNL     1     -34.517   5.605   5.865  1.00 20.00     0.198 C 
HETATM    4  O5  UNL     1     -35.221   4.608   6.189  1.00 20.00    -0.645 OA
HETATM    5  O6  UNL     1     -34.143   6.581   6.579  1.00 20.00    -0.645 OA
ENDBRANCH   1   3
BRANCH   2   6
HETATM    6  C4  UNL     1     -32.456   6.482   2.647  1.00 20.00     0.098 C 
BRANCH   6   7
HETATM    7  S7  UNL     1     -32.085   8.203   2.212  1.00 20.00    -0.178 SA
HETATM    8  H12 UNL     1     -30.906   8.261   2.847  1.00 20.00     0.101 HD
ENDBRANCH   6   7
ENDBRANCH   2   6
TORSDOF 3
ENDMDL
MODEL 6
REMARK VINA RESULT:      -3.3     11.123     11.740
REMARK  3 active torsions:
REMARK  status: ('A' for Active; 'I' for Inactive)
REMARK    1  A    between atoms: C1_1  and  C3_3 
REMARK    2  A    between atoms: C2_2  and  C4_4 
REMARK    3  A    between atoms: C4_4  and  S7_7 
ROOT
HETATM    1  C1  UNL     1     -34.708  14.817  -3.231  1.00 20.00     0.081 C 
HETATM    2  C2  UNL     1     -33.842  15.744  -2.799  1.00 20.00    -0.010 C 
ENDROOT
BRANCH   1   3
HETATM    3  C3  UNL     1     -34.239  13.474  -3.808  1.00 20.00     0.198 C 
HETATM    4  O5  UNL     1     -35.119  12.734  -4.328  1.00 20.00    -0.645 OA
HETATM    5  O6  UNL     1     -32.995  13.269  -3.688  1.00 20.00    -0.645 OA
ENDBRANCH   1   3
BRANCH   2   6
HETATM    6  C4  UNL     1     -34.266  17.070  -2.244  1.00 20.00     0.098 C 
BRANCH   6   7
HETATM    7  S7  UNL     1     -33.918  18.387  -3.442  1.00 20.00    -0.178 SA
HETATM    8  H12 UNL     1     -34.121  17.641  -4.538  1.00 20.00     0.101 HD
ENDBRANCH   6   7
ENDBRANCH   2   6
TORSDOF 3
ENDMDL
MODEL 7
REMARK VINA RESULT:      -3.3     11.116     11.786
REMARK  3 active torsions:
REMARK  status: ('A' for Active; 'I' for Inactive)
REMARK    1  A    between atoms: C1_1  and  C3_3 
REMARK    2  A    between atoms: C2_2  and  C4_4 
REMARK    3  A    between atoms: C4_4  and  S7_7 
ROOT
HETATM    1  C1  UNL     1     -34.784  14.778  -3.226  1.00 20.00     0.081 C 
HETATM    2  C2  UNL     1     -33.971  15.779  -2.859  1.00 20.00    -0.010 C 
ENDROOT
BRANCH   1   3
HETATM    3  C3  UNL     1     -34.244  13.462  -3.802  1.00 20.00     0.198 C 
HETATM    4  O5  UNL     1     -33.005  13.251  -3.687  1.00 20.00    -0.645 OA
HETATM    5  O6  UNL     1     -35.130  12.732  -4.335  1.00 20.00    -0.645 OA
ENDBRANCH   1   3
BRANCH   2   6
HETATM    6  C4  UNL     1     -34.466  17.080  -2.307  1.00 20.00     0.098 C 
BRANCH   6   7
HETATM    7  S7  UNL     1     -33.913  18.453  -3.355  1.00 20.00    -0.178 SA
HETATM    8  H12 UNL     1     -32.629  18.418  -2.972  1.00 20.00     0.101 HD
ENDBRANCH   6   7
ENDBRANCH   2   6
TORSDOF 3
ENDMDL
MODEL 8
REMARK VINA RESULT:      -3.3     11.812     12.705
REMARK  3 active torsions:
REMARK  status: ('A' for Active; 'I' for Inactive)
REMARK    1  A    between atoms: C1_1  and  C3_3 
REMARK    2  A    between atoms: C2_2  and  C4_4 
REMARK    3  A    between atoms: C4_4  and  S7_7 
ROOT
HETATM    1  C1  UNL     1     -34.281  14.838  -4.878  1.00 20.00     0.081 C 
HETATM    2  C2  UNL     1     -34.295  15.062  -6.199  1.00 20.00    -0.010 C 
ENDROOT
BRANCH   1   3
HETATM    3  C3  UNL     1     -34.153  13.423  -4.296  1.00 20.00     0.198 C 
HETATM    4  O5  UNL     1     -35.123  12.636  -4.479  1.00 20.00    -0.645 OA
HETATM    5  O6  UNL     1     -33.061  13.214  -3.688  1.00 20.00    -0.645 OA
ENDBRANCH   1   3
BRANCH   2   6
HETATM    6  C4  UNL     1     -34.433  16.427  -6.800  1.00 20.00     0.098 C 
BRANCH   6   7
HETATM    7  S7  UNL     1     -33.807  17.681  -5.649  1.00 20.00    -0.178 SA
HETATM    8  H12 UNL     1     -35.003  18.035  -5.157  1.00 20.00     0.101 HD
ENDBRANCH   6   7
ENDBRANCH   2   6
TORSDOF 3
ENDMDL
MODEL 9
REMARK VINA RESULT:      -3.1      1.796      2.078
REMARK  3 active torsions:
REMARK  status: ('A' for Active; 'I' for Inactive)
REMARK    1  A    between atoms: C1_1  and  C3_3 
REMARK    2  A    between atoms: C2_2  and  C4_4 
REMARK    3  A    between atoms: C4_4  and  S7_7 
ROOT
HETATM    1  C1  UNL     1     -32.067   7.673   2.642  1.00 20.00     0.081 C 
HETATM    2  C2  UNL     1     -33.204   7.049   2.977  1.00 20.00    -0.010 C 
ENDROOT
BRANCH   1   3
HETATM    3  C3  UNL     1     -32.018   8.731   1.531  1.00 20.00     0.198 C 
HETATM    4  O5  UNL     1     -31.363   8.442   0.491  1.00 20.00    -0.645 OA
HETATM    5  O6  UNL     1     -32.658   9.790   1.800  1.00 20.00    -0.645 OA
ENDBRANCH   1   3
BRANCH   2   6
HETATM    6  C4  UNL     1     -33.284   6.002   4.046  1.00 20.00     0.098 C 
BRANCH   6   7
HETATM    7  S7  UNL     1     -34.938   5.258   4.067  1.00 20.00    -0.178 SA
HETATM    8  H12 UNL     1     -35.448   6.011   3.082  1.00 20.00     0.101 HD
ENDBRANCH   6   7
ENDBRANCH   2   6
TORSDOF 3
ENDMDL
